MODEL 1
REMARK VINA RESULT:      -8.8      0.000      0.000
REMARK  3 active torsions:
REMARK  status: ('A' for Active; 'I' for Inactive)
REMARK    1  A    between atoms: C_3  and  C_4 
REMARK    2  A    between atoms: C_11  and  N_12 
REMARK       I    between atoms: N_12  and  C_13 
REMARK       I    between atoms: C_13  and  N_14 
REMARK    3  A    between atoms: N_14  and  C_15 
ROOT
HETATM    1  C   UNL     1      -7.388   3.304 -30.063  1.00  0.00     0.001 A 
HETATM    2  C   UNL     1      -8.557   2.854 -30.671  1.00  0.00     0.016 A 
HETATM    3  C   UNL     1      -8.511   2.328 -31.969  1.00  0.00     0.021 A 
HETATM    4  C   UNL     1      -7.295   2.261 -32.676  1.00  0.00     0.049 A 
HETATM    5  C   UNL     1      -6.132   2.736 -32.057  1.00  0.00     0.030 A 
HETATM    6  C   UNL     1      -6.178   3.245 -30.755  1.00  0.00     0.002 A 
ENDROOT
BRANCH   4   7
HETATM    7  N   UNL     1      -7.289   1.825 -34.015  1.00  0.00    -0.308 N 
HETATM    8  C   UNL     1      -6.799   0.693 -34.608  1.00  0.00     0.325 C 
HETATM    9  N   UNL     1      -6.452  -0.334 -33.779  1.00  0.00    -0.306 N 
HETATM   10  O   UNL     1      -6.824   0.645 -35.837  1.00  0.00    -0.247 OA
HETATM   11  H   UNL     1      -6.498  -0.168 -32.784  1.00  0.00     0.171 HD
HETATM   12  H   UNL     1      -7.799   2.391 -34.686  1.00  0.00     0.170 HD
BRANCH   9  13
HETATM   13  C   UNL     1      -6.134  -1.664 -34.133  1.00  0.00     0.075 A 
HETATM   14  C   UNL     1      -4.786  -2.042 -34.042  1.00  0.00     0.146 A 
HETATM   15  F   UNL     1      -3.873  -1.131 -33.665  1.00  0.00    -0.204 F 
HETATM   16  C   UNL     1      -4.367  -3.335 -34.325  1.00  0.00     0.086 A 
HETATM   17  C   UNL     1      -5.315  -4.274 -34.699  1.00  0.00     0.119 A 
HETATM   18  F   UNL     1      -4.933  -5.530 -34.960  1.00  0.00    -0.206 F 
HETATM   19  C   UNL     1      -6.660  -3.932 -34.801  1.00  0.00     0.044 A 
HETATM   20  C   UNL     1      -7.071  -2.623 -34.524  1.00  0.00     0.036 A 
ENDBRANCH   9  13
ENDBRANCH   4   7
BRANCH   3  21
HETATM   21  C   UNL     1      -9.776   1.788 -32.524  1.00  0.00     0.089 A 
HETATM   22  N   UNL     1      -9.944   0.504 -32.602  1.00  0.00    -0.171 NA
HETATM   23  N   UNL     1     -11.136   0.076 -33.113  1.00  0.00    -0.243 N 
HETATM   24  C   UNL     1     -12.164   0.878 -33.541  1.00  0.00     0.261 A 
HETATM   25  H   UNL     1     -11.278  -0.928 -33.160  1.00  0.00     0.192 HD
HETATM   26  O   UNL     1     -13.225   0.443 -33.975  1.00  0.00    -0.267 OA
HETATM   27  C   UNL     1     -11.922   2.330 -33.462  1.00  0.00     0.078 A 
HETATM   28  C   UNL     1     -10.766   2.793 -32.983  1.00  0.00     0.040 A 
ENDBRANCH   3  21
TORSDOF 3
ENDMDL
MODEL 2
REMARK VINA RESULT:      -8.5      3.251      6.157
REMARK  3 active torsions:
REMARK  status: ('A' for Active; 'I' for Inactive)
REMARK    1  A    between atoms: C_3  and  C_4 
REMARK    2  A    between atoms: C_11  and  N_12 
REMARK       I    between atoms: N_12  and  C_13 
REMARK       I    between atoms: C_13  and  N_14 
REMARK    3  A    between atoms: N_14  and  C_15 
ROOT
HETATM    1  C   UNL     1      -5.699  -2.648 -34.700  1.00  0.00     0.001 A 
HETATM    2  C   UNL     1      -6.824  -1.868 -34.444  1.00  0.00     0.016 A 
HETATM    3  C   UNL     1      -6.779  -0.883 -33.449  1.00  0.00     0.021 A 
HETATM    4  C   UNL     1      -5.610  -0.680 -32.690  1.00  0.00     0.049 A 
HETATM    5  C   UNL     1      -4.494  -1.486 -32.948  1.00  0.00     0.030 A 
HETATM    6  C   UNL     1      -4.537  -2.456 -33.954  1.00  0.00     0.002 A 
ENDROOT
BRANCH   4   7
HETATM    7  N   UNL     1      -5.620   0.244 -31.627  1.00  0.00    -0.308 N 
HETATM    8  C   UNL     1      -4.995   1.449 -31.454  1.00  0.00     0.325 C 
HETATM    9  N   UNL     1      -4.437   2.017 -32.563  1.00  0.00    -0.306 N 
HETATM   10  O   UNL     1      -5.089   1.980 -30.349  1.00  0.00    -0.247 OA
HETATM   11  H   UNL     1      -4.446   1.480 -33.419  1.00  0.00     0.171 HD
HETATM   12  H   UNL     1      -6.254   0.055 -30.858  1.00  0.00     0.170 HD
BRANCH   9  13
HETATM   13  C   UNL     1      -3.936   3.330 -32.706  1.00  0.00     0.075 A 
HETATM   14  C   UNL     1      -4.746   4.248 -33.391  1.00  0.00     0.146 A 
HETATM   15  F   UNL     1      -5.919   3.838 -33.899  1.00  0.00    -0.204 F 
HETATM   16  C   UNL     1      -4.372   5.576 -33.553  1.00  0.00     0.086 A 
HETATM   17  C   UNL     1      -3.167   5.998 -33.014  1.00  0.00     0.119 A 
HETATM   18  F   UNL     1      -2.796   7.277 -33.145  1.00  0.00    -0.206 F 
HETATM   19  C   UNL     1      -2.338   5.111 -32.331  1.00  0.00     0.044 A 
HETATM   20  C   UNL     1      -2.720   3.773 -32.182  1.00  0.00     0.036 A 
ENDBRANCH   9  13
ENDBRANCH   4   7
BRANCH   3  21
HETATM   21  C   UNL     1      -7.982  -0.031 -33.286  1.00  0.00     0.089 A 
HETATM   22  N   UNL     1      -8.578   0.021 -32.135  1.00  0.00    -0.171 NA
HETATM   23  N   UNL     1      -9.673   0.834 -32.053  1.00  0.00    -0.243 N 
HETATM   24  C   UNL     1     -10.188   1.597 -33.070  1.00  0.00     0.261 A 
HETATM   25  H   UNL     1     -10.132   0.891 -31.149  1.00  0.00     0.192 HD
HETATM   26  O   UNL     1     -11.164   2.327 -32.939  1.00  0.00    -0.267 OA
HETATM   27  C   UNL     1      -9.499   1.487 -34.369  1.00  0.00     0.078 A 
HETATM   28  C   UNL     1      -8.434   0.694 -34.499  1.00  0.00     0.040 A 
ENDBRANCH   3  21
TORSDOF 3
ENDMDL
MODEL 3
REMARK VINA RESULT:      -8.4      2.528      4.942
REMARK  3 active torsions:
REMARK  status: ('A' for Active; 'I' for Inactive)
REMARK    1  A    between atoms: C_3  and  C_4 
REMARK    2  A    between atoms: C_11  and  N_12 
REMARK       I    between atoms: N_12  and  C_13 
REMARK       I    between atoms: C_13  and  N_14 
REMARK    3  A    between atoms: N_14  and  C_15 
ROOT
HETATM    1  C   UNL     1      -6.537   3.765 -29.682  1.00  0.00     0.001 A 
HETATM    2  C   UNL     1      -5.547   4.071 -30.613  1.00  0.00     0.016 A 
HETATM    3  C   UNL     1      -5.725   3.729 -31.960  1.00  0.00     0.021 A 
HETATM    4  C   UNL     1      -6.891   3.064 -32.385  1.00  0.00     0.049 A 
HETATM    5  C   UNL     1      -7.868   2.746 -31.434  1.00  0.00     0.030 A 
HETATM    6  C   UNL     1      -7.695   3.104 -30.092  1.00  0.00     0.002 A 
ENDROOT
BRANCH   4   7
HETATM    7  N   UNL     1      -7.003   2.639 -33.723  1.00  0.00    -0.308 N 
HETATM    8  C   UNL     1      -6.618   1.488 -34.355  1.00  0.00     0.325 C 
HETATM    9  N   UNL     1      -6.270   0.436 -33.558  1.00  0.00    -0.306 N 
HETATM   10  O   UNL     1      -6.731   1.451 -35.579  1.00  0.00    -0.247 OA
HETATM   11  H   UNL     1      -6.238   0.596 -32.560  1.00  0.00     0.171 HD
HETATM   12  H   UNL     1      -7.526   3.238 -34.354  1.00  0.00     0.170 HD
BRANCH   9  13
HETATM   13  C   UNL     1      -6.052  -0.906 -33.939  1.00  0.00     0.075 A 
HETATM   14  C   UNL     1      -4.731  -1.376 -33.884  1.00  0.00     0.146 A 
HETATM   15  F   UNL     1      -3.750  -0.536 -33.512  1.00  0.00    -0.204 F 
HETATM   16  C   UNL     1      -4.407  -2.690 -34.196  1.00  0.00     0.086 A 
HETATM   17  C   UNL     1      -5.425  -3.555 -34.564  1.00  0.00     0.119 A 
HETATM   18  F   UNL     1      -5.135  -4.830 -34.853  1.00  0.00    -0.206 F 
HETATM   19  C   UNL     1      -6.745  -3.121 -34.631  1.00  0.00     0.044 A 
HETATM   20  C   UNL     1      -7.060  -1.792 -34.325  1.00  0.00     0.036 A 
ENDBRANCH   9  13
ENDBRANCH   4   7
BRANCH   3  21
HETATM   21  C   UNL     1      -4.672   4.160 -32.911  1.00  0.00     0.089 A 
HETATM   22  N   UNL     1      -5.007   4.796 -33.991  1.00  0.00    -0.171 NA
HETATM   23  N   UNL     1      -3.985   5.173 -34.817  1.00  0.00    -0.243 N 
HETATM   24  C   UNL     1      -2.650   4.945 -34.602  1.00  0.00     0.261 A 
HETATM   25  H   UNL     1      -4.242   5.685 -35.654  1.00  0.00     0.192 HD
HETATM   26  O   UNL     1      -1.769   5.322 -35.366  1.00  0.00    -0.267 OA
HETATM   27  C   UNL     1      -2.314   4.195 -33.377  1.00  0.00     0.078 A 
HETATM   28  C   UNL     1      -3.280   3.795 -32.549  1.00  0.00     0.040 A 
ENDBRANCH   3  21
TORSDOF 3
ENDMDL
MODEL 4
REMARK VINA RESULT:      -8.4      3.918      6.687
REMARK  3 active torsions:
REMARK  status: ('A' for Active; 'I' for Inactive)
REMARK    1  A    between atoms: C_3  and  C_4 
REMARK    2  A    between atoms: C_11  and  N_12 
REMARK       I    between atoms: N_12  and  C_13 
REMARK       I    between atoms: C_13  and  N_14 
REMARK    3  A    between atoms: N_14  and  C_15 
ROOT
HETATM    1  C   UNL     1      -3.671  -2.513 -32.755  1.00  0.00     0.001 A 
HETATM    2  C   UNL     1      -4.902  -1.959 -33.101  1.00  0.00     0.016 A 
HETATM    3  C   UNL     1      -5.264  -0.699 -32.608  1.00  0.00     0.021 A 
HETATM    4  C   UNL     1      -4.401   0.014 -31.753  1.00  0.00     0.049 A 
HETATM    5  C   UNL     1      -3.176  -0.565 -31.400  1.00  0.00     0.030 A 
HETATM    6  C   UNL     1      -2.810  -1.816 -31.908  1.00  0.00     0.002 A 
ENDROOT
BRANCH   4   7
HETATM    7  N   UNL     1      -4.828   1.232 -31.188  1.00  0.00    -0.308 N 
HETATM    8  C   UNL     1      -4.339   2.507 -31.281  1.00  0.00     0.325 C 
HETATM    9  N   UNL     1      -3.417   2.742 -32.260  1.00  0.00    -0.306 N 
HETATM   10  O   UNL     1      -4.852   3.361 -30.560  1.00  0.00    -0.247 OA
HETATM   11  H   UNL     1      -3.094   1.950 -32.798  1.00  0.00     0.171 HD
HETATM   12  H   UNL     1      -5.701   1.219 -30.670  1.00  0.00     0.170 HD
BRANCH   9  13
HETATM   13  C   UNL     1      -2.926   3.988 -32.707  1.00  0.00     0.075 A 
HETATM   14  C   UNL     1      -3.690   4.664 -33.671  1.00  0.00     0.146 A 
HETATM   15  F   UNL     1      -4.810   4.090 -34.142  1.00  0.00    -0.204 F 
HETATM   16  C   UNL     1      -3.325   5.915 -34.150  1.00  0.00     0.086 A 
HETATM   17  C   UNL     1      -2.176   6.508 -33.651  1.00  0.00     0.119 A 
HETATM   18  F   UNL     1      -1.815   7.721 -34.088  1.00  0.00    -0.206 F 
HETATM   19  C   UNL     1      -1.395   5.864 -32.696  1.00  0.00     0.044 A 
HETATM   20  C   UNL     1      -1.766   4.600 -32.227  1.00  0.00     0.036 A 
ENDBRANCH   9  13
ENDBRANCH   4   7
BRANCH   3  21
HETATM   21  C   UNL     1      -6.549  -0.131 -33.083  1.00  0.00     0.089 A 
HETATM   22  N   UNL     1      -7.445   0.234 -32.219  1.00  0.00    -0.171 NA
HETATM   23  N   UNL     1      -8.601   0.758 -32.726  1.00  0.00    -0.243 N 
HETATM   24  C   UNL     1      -8.889   0.938 -34.055  1.00  0.00     0.261 A 
HETATM   25  H   UNL     1      -9.297   1.060 -32.053  1.00  0.00     0.192 HD
HETATM   26  O   UNL     1      -9.936   1.433 -34.459  1.00  0.00    -0.267 OA
HETATM   27  C   UNL     1      -7.856   0.485 -35.004  1.00  0.00     0.078 A 
HETATM   28  C   UNL     1      -6.718  -0.047 -34.555  1.00  0.00     0.040 A 
ENDBRANCH   3  21
TORSDOF 3
ENDMDL
MODEL 5
REMARK VINA RESULT:      -8.3      3.875      5.523
REMARK  3 active torsions:
REMARK  status: ('A' for Active; 'I' for Inactive)
REMARK    1  A    between atoms: C_3  and  C_4 
REMARK    2  A    between atoms: C_11  and  N_12 
REMARK       I    between atoms: N_12  and  C_13 
REMARK       I    between atoms: C_13  and  N_14 
REMARK    3  A    between atoms: N_14  and  C_15 
ROOT
HETATM    1  C   UNL     1      -7.109   4.344 -30.419  1.00  0.00     0.001 A 
HETATM    2  C   UNL     1      -6.070   4.703 -31.274  1.00  0.00     0.016 A 
HETATM    3  C   UNL     1      -5.077   3.768 -31.596  1.00  0.00     0.021 A 
HETATM    4  C   UNL     1      -5.108   2.469 -31.053  1.00  0.00     0.049 A 
HETATM    5  C   UNL     1      -6.149   2.131 -30.180  1.00  0.00     0.030 A 
HETATM    6  C   UNL     1      -7.149   3.061 -29.874  1.00  0.00     0.002 A 
ENDROOT
BRANCH   4   7
HETATM    7  N   UNL     1      -4.046   1.580 -31.309  1.00  0.00    -0.308 N 
HETATM    8  C   UNL     1      -4.011   0.327 -31.857  1.00  0.00     0.325 C 
HETATM    9  N   UNL     1      -5.140  -0.094 -32.500  1.00  0.00    -0.306 N 
HETATM   10  O   UNL     1      -2.936  -0.269 -31.834  1.00  0.00    -0.247 OA
HETATM   11  H   UNL     1      -5.952   0.505 -32.460  1.00  0.00     0.171 HD
HETATM   12  H   UNL     1      -3.106   1.923 -31.138  1.00  0.00     0.170 HD
BRANCH   9  13
HETATM   13  C   UNL     1      -5.294  -1.230 -33.326  1.00  0.00     0.075 A 
HETATM   14  C   UNL     1      -6.603  -1.568 -33.702  1.00  0.00     0.146 A 
HETATM   15  F   UNL     1      -7.630  -0.835 -33.242  1.00  0.00    -0.204 F 
HETATM   16  C   UNL     1      -6.869  -2.639 -34.546  1.00  0.00     0.086 A 
HETATM   17  C   UNL     1      -5.805  -3.384 -35.030  1.00  0.00     0.119 A 
HETATM   18  F   UNL     1      -6.039  -4.410 -35.857  1.00  0.00    -0.206 F 
HETATM   19  C   UNL     1      -4.495  -3.076 -34.674  1.00  0.00     0.044 A 
HETATM   20  C   UNL     1      -4.238  -2.001 -33.815  1.00  0.00     0.036 A 
ENDBRANCH   9  13
ENDBRANCH   4   7
BRANCH   3  21
HETATM   21  C   UNL     1      -4.048   4.187 -32.578  1.00  0.00     0.089 A 
HETATM   22  N   UNL     1      -2.792   4.038 -32.292  1.00  0.00    -0.171 NA
HETATM   23  N   UNL     1      -1.898   4.435 -33.247  1.00  0.00    -0.243 N 
HETATM   24  C   UNL     1      -2.212   4.965 -34.472  1.00  0.00     0.261 A 
HETATM   25  H   UNL     1      -0.915   4.305 -33.033  1.00  0.00     0.192 HD
HETATM   26  O   UNL     1      -1.371   5.288 -35.304  1.00  0.00    -0.267 OA
HETATM   27  C   UNL     1      -3.649   5.143 -34.748  1.00  0.00     0.078 A 
HETATM   28  C   UNL     1      -4.557   4.783 -33.838  1.00  0.00     0.040 A 
ENDBRANCH   3  21
TORSDOF 3
ENDMDL
MODEL 6
REMARK VINA RESULT:      -8.2      4.451      7.603
REMARK  3 active torsions:
REMARK  status: ('A' for Active; 'I' for Inactive)
REMARK    1  A    between atoms: C_3  and  C_4 
REMARK    2  A    between atoms: C_11  and  N_12 
REMARK       I    between atoms: N_12  and  C_13 
REMARK       I    between atoms: C_13  and  N_14 
REMARK    3  A    between atoms: N_14  and  C_15 
ROOT
HETATM    1  C   UNL     1      -8.029   0.631 -34.970  1.00  0.00     0.001 A 
HETATM    2  C   UNL     1      -7.156  -0.449 -34.867  1.00  0.00     0.016 A 
HETATM    3  C   UNL     1      -6.129  -0.428 -33.914  1.00  0.00     0.021 A 
HETATM    4  C   UNL     1      -5.957   0.683 -33.066  1.00  0.00     0.049 A 
HETATM    5  C   UNL     1      -6.832   1.769 -33.196  1.00  0.00     0.030 A 
HETATM    6  C   UNL     1      -7.867   1.737 -34.136  1.00  0.00     0.002 A 
ENDROOT
BRANCH   4   7
HETATM    7  N   UNL     1      -4.857   0.727 -32.188  1.00  0.00    -0.308 N 
HETATM    8  C   UNL     1      -3.822   1.613 -32.058  1.00  0.00     0.325 C 
HETATM    9  N   UNL     1      -3.948   2.805 -32.711  1.00  0.00    -0.306 N 
HETATM   10  O   UNL     1      -2.922   1.318 -31.274  1.00  0.00    -0.247 OA
HETATM   11  H   UNL     1      -4.752   2.927 -33.310  1.00  0.00     0.171 HD
HETATM   12  H   UNL     1      -4.829   0.031 -31.449  1.00  0.00     0.170 HD
BRANCH   9  13
HETATM   13  C   UNL     1      -3.146   3.959 -32.570  1.00  0.00     0.075 A 
HETATM   14  C   UNL     1      -3.380   4.762 -31.443  1.00  0.00     0.146 A 
HETATM   15  F   UNL     1      -4.357   4.423 -30.586  1.00  0.00    -0.204 F 
HETATM   16  C   UNL     1      -2.622   5.897 -31.182  1.00  0.00     0.086 A 
HETATM   17  C   UNL     1      -1.606   6.233 -32.061  1.00  0.00     0.119 A 
HETATM   18  F   UNL     1      -0.854   7.314 -31.819  1.00  0.00    -0.206 F 
HETATM   19  C   UNL     1      -1.350   5.460 -33.190  1.00  0.00     0.044 A 
HETATM   20  C   UNL     1      -2.125   4.325 -33.449  1.00  0.00     0.036 A 
ENDBRANCH   9  13
ENDBRANCH   4   7
BRANCH   3  21
HETATM   21  C   UNL     1      -5.289  -1.645 -33.799  1.00  0.00     0.089 A 
HETATM   22  N   UNL     1      -4.370  -1.703 -32.886  1.00  0.00    -0.171 NA
HETATM   23  N   UNL     1      -3.641  -2.858 -32.829  1.00  0.00    -0.243 N 
HETATM   24  C   UNL     1      -3.800  -3.952 -33.641  1.00  0.00     0.261 A 
HETATM   25  H   UNL     1      -2.932  -2.914 -32.105  1.00  0.00     0.192 HD
HETATM   26  O   UNL     1      -3.132  -4.974 -33.536  1.00  0.00    -0.267 OA
HETATM   27  C   UNL     1      -4.837  -3.834 -34.683  1.00  0.00     0.078 A 
HETATM   28  C   UNL     1      -5.563  -2.719 -34.785  1.00  0.00     0.040 A 
ENDBRANCH   3  21
TORSDOF 3
ENDMDL
MODEL 7
REMARK VINA RESULT:      -8.2      5.741      8.172
REMARK  3 active torsions:
REMARK  status: ('A' for Active; 'I' for Inactive)
REMARK    1  A    between atoms: C_3  and  C_4 
REMARK    2  A    between atoms: C_11  and  N_12 
REMARK       I    between atoms: N_12  and  C_13 
REMARK       I    between atoms: C_13  and  N_14 
REMARK    3  A    between atoms: N_14  and  C_15 
ROOT
HETATM    1  C   UNL     1      -1.115   6.244 -34.221  1.00  0.00     0.001 A 
HETATM    2  C   UNL     1      -0.867   6.481 -32.872  1.00  0.00     0.016 A 
HETATM    3  C   UNL     1      -1.484   5.685 -31.898  1.00  0.00     0.021 A 
HETATM    4  C   UNL     1      -2.367   4.652 -32.267  1.00  0.00     0.049 A 
HETATM    5  C   UNL     1      -2.621   4.440 -33.627  1.00  0.00     0.030 A 
HETATM    6  C   UNL     1      -1.990   5.225 -34.598  1.00  0.00     0.002 A 
ENDROOT
BRANCH   4   7
HETATM    7  N   UNL     1      -3.054   3.932 -31.270  1.00  0.00    -0.308 N 
HETATM    8  C   UNL     1      -3.954   2.903 -31.337  1.00  0.00     0.325 C 
HETATM    9  N   UNL     1      -4.070   2.266 -32.539  1.00  0.00    -0.306 N 
HETATM   10  O   UNL     1      -4.494   2.557 -30.288  1.00  0.00    -0.247 OA
HETATM   11  H   UNL     1      -3.551   2.643 -33.320  1.00  0.00     0.171 HD
HETATM   12  H   UNL     1      -2.808   4.132 -30.305  1.00  0.00     0.170 HD
BRANCH   9  13
HETATM   13  C   UNL     1      -4.747   1.059 -32.818  1.00  0.00     0.075 A 
HETATM   14  C   UNL     1      -6.083   1.160 -33.234  1.00  0.00     0.146 A 
HETATM   15  F   UNL     1      -6.656   2.373 -33.313  1.00  0.00    -0.204 F 
HETATM   16  C   UNL     1      -6.831   0.041 -33.575  1.00  0.00     0.086 A 
HETATM   17  C   UNL     1      -6.230  -1.206 -33.507  1.00  0.00     0.119 A 
HETATM   18  F   UNL     1      -6.929  -2.296 -33.847  1.00  0.00    -0.206 F 
HETATM   19  C   UNL     1      -4.907  -1.342 -33.095  1.00  0.00     0.044 A 
HETATM   20  C   UNL     1      -4.165  -0.209 -32.744  1.00  0.00     0.036 A 
ENDBRANCH   9  13
ENDBRANCH   4   7
BRANCH   3  21
HETATM   21  C   UNL     1      -1.110   5.935 -30.485  1.00  0.00     0.089 A 
HETATM   22  N   UNL     1      -1.952   6.524 -29.694  1.00  0.00    -0.171 NA
HETATM   23  N   UNL     1      -1.546   6.712 -28.403  1.00  0.00    -0.243 N 
HETATM   24  C   UNL     1      -0.340   6.330 -27.874  1.00  0.00     0.261 A 
HETATM   25  H   UNL     1      -2.210   7.158 -27.777  1.00  0.00     0.192 HD
HETATM   26  O   UNL     1      -0.031   6.505 -26.701  1.00  0.00    -0.267 OA
HETATM   27  C   UNL     1       0.600   5.689 -28.812  1.00  0.00     0.078 A 
HETATM   28  C   UNL     1       0.251   5.498 -30.086  1.00  0.00     0.040 A 
ENDBRANCH   3  21
TORSDOF 3
ENDMDL
MODEL 8
REMARK VINA RESULT:      -8.0      3.170      5.248
REMARK  3 active torsions:
REMARK  status: ('A' for Active; 'I' for Inactive)
REMARK    1  A    between atoms: C_3  and  C_4 
REMARK    2  A    between atoms: C_11  and  N_12 
REMARK       I    between atoms: N_12  and  C_13 
REMARK       I    between atoms: C_13  and  N_14 
REMARK    3  A    between atoms: N_14  and  C_15 
ROOT
HETATM    1  C   UNL     1      -9.356   5.273 -31.516  1.00  0.00     0.001 A 
HETATM    2  C   UNL     1      -7.966   5.265 -31.607  1.00  0.00     0.016 A 
HETATM    3  C   UNL     1      -7.244   4.149 -31.165  1.00  0.00     0.021 A 
HETATM    4  C   UNL     1      -7.906   3.035 -30.615  1.00  0.00     0.049 A 
HETATM    5  C   UNL     1      -9.303   3.068 -30.513  1.00  0.00     0.030 A 
HETATM    6  C   UNL     1     -10.022   4.176 -30.971  1.00  0.00     0.002 A 
ENDROOT
BRANCH   4   7
HETATM    7  N   UNL     1      -7.155   1.969 -30.083  1.00  0.00    -0.308 N 
HETATM    8  C   UNL     1      -6.751   0.776 -30.618  1.00  0.00     0.325 C 
HETATM    9  N   UNL     1      -6.867   0.639 -31.972  1.00  0.00    -0.306 N 
HETATM   10  O   UNL     1      -6.208  -0.026 -29.862  1.00  0.00    -0.247 OA
HETATM   11  H   UNL     1      -7.316   1.387 -32.481  1.00  0.00     0.171 HD
HETATM   12  H   UNL     1      -6.757   2.101 -29.159  1.00  0.00     0.170 HD
BRANCH   9  13
HETATM   13  C   UNL     1      -6.331  -0.381 -32.789  1.00  0.00     0.075 A 
HETATM   14  C   UNL     1      -7.239  -1.115 -33.566  1.00  0.00     0.146 A 
HETATM   15  F   UNL     1      -8.552  -0.845 -33.474  1.00  0.00    -0.204 F 
HETATM   16  C   UNL     1      -6.819  -2.113 -34.437  1.00  0.00     0.086 A 
HETATM   17  C   UNL     1      -5.463  -2.377 -34.539  1.00  0.00     0.119 A 
HETATM   18  F   UNL     1      -5.036  -3.324 -35.384  1.00  0.00    -0.206 F 
HETATM   19  C   UNL     1      -4.535  -1.669 -33.780  1.00  0.00     0.044 A 
HETATM   20  C   UNL     1      -4.970  -0.673 -32.898  1.00  0.00     0.036 A 
ENDBRANCH   9  13
ENDBRANCH   4   7
BRANCH   3  21
HETATM   21  C   UNL     1      -5.775   4.170 -31.370  1.00  0.00     0.089 A 
HETATM   22  N   UNL     1      -4.997   4.505 -30.387  1.00  0.00    -0.171 NA
HETATM   23  N   UNL     1      -3.655   4.493 -30.642  1.00  0.00    -0.243 N 
HETATM   24  C   UNL     1      -3.064   4.154 -31.834  1.00  0.00     0.261 A 
HETATM   25  H   UNL     1      -3.042   4.738 -29.871  1.00  0.00     0.192 HD
HETATM   26  O   UNL     1      -1.850   4.140 -32.006  1.00  0.00    -0.267 OA
HETATM   27  C   UNL     1      -3.985   3.807 -32.932  1.00  0.00     0.078 A 
HETATM   28  C   UNL     1      -5.304   3.820 -32.732  1.00  0.00     0.040 A 
ENDBRANCH   3  21
TORSDOF 3
ENDMDL
MODEL 9
REMARK VINA RESULT:      -7.9     14.604     17.039
REMARK  3 active torsions:
REMARK  status: ('A' for Active; 'I' for Inactive)
REMARK    1  A    between atoms: C_3  and  C_4 
REMARK    2  A    between atoms: C_11  and  N_12 
REMARK       I    between atoms: N_12  and  C_13 
REMARK       I    between atoms: C_13  and  N_14 
REMARK    3  A    between atoms: N_14  and  C_15 
ROOT
HETATM    1  C   UNL     1     -10.846 -12.299 -40.255  1.00  0.00     0.001 A 
HETATM    2  C   UNL     1      -9.553 -12.055 -39.796  1.00  0.00     0.016 A 
HETATM    3  C   UNL     1      -8.628 -13.105 -39.725  1.00  0.00     0.021 A 
HETATM    4  C   UNL     1      -8.994 -14.412 -40.101  1.00  0.00     0.049 A 
HETATM    5  C   UNL     1     -10.302 -14.643 -40.543  1.00  0.00     0.030 A 
HETATM    6  C   UNL     1     -11.219 -13.589 -40.628  1.00  0.00     0.002 A 
ENDROOT
BRANCH   4   7
HETATM    7  N   UNL     1      -8.080 -15.470 -39.926  1.00  0.00    -0.308 N 
HETATM    8  C   UNL     1      -7.104 -15.983 -40.736  1.00  0.00     0.325 C 
HETATM    9  N   UNL     1      -6.751 -15.235 -41.822  1.00  0.00    -0.306 N 
HETATM   10  O   UNL     1      -6.542 -17.010 -40.361  1.00  0.00    -0.247 OA
HETATM   11  H   UNL     1      -7.284 -14.396 -42.005  1.00  0.00     0.171 HD
HETATM   12  H   UNL     1      -8.058 -15.913 -39.012  1.00  0.00     0.170 HD
BRANCH   9  13
HETATM   13  C   UNL     1      -5.645 -15.420 -42.680  1.00  0.00     0.075 A 
HETATM   14  C   UNL     1      -5.870 -16.144 -43.861  1.00  0.00     0.146 A 
HETATM   15  F   UNL     1      -7.093 -16.647 -44.100  1.00  0.00    -0.204 F 
HETATM   16  C   UNL     1      -4.865 -16.351 -44.797  1.00  0.00     0.086 A 
HETATM   17  C   UNL     1      -3.610 -15.817 -44.552  1.00  0.00     0.119 A 
HETATM   18  F   UNL     1      -2.632 -15.991 -45.449  1.00  0.00    -0.206 F 
HETATM   19  C   UNL     1      -3.352 -15.096 -43.390  1.00  0.00     0.044 A 
HETATM   20  C   UNL     1      -4.369 -14.902 -42.448  1.00  0.00     0.036 A 
ENDBRANCH   9  13
ENDBRANCH   4   7
BRANCH   3  21
HETATM   21  C   UNL     1      -7.247 -12.762 -39.310  1.00  0.00     0.089 A 
HETATM   22  N   UNL     1      -6.881 -12.959 -38.081  1.00  0.00    -0.171 NA
HETATM   23  N   UNL     1      -5.591 -12.631 -37.770  1.00  0.00    -0.243 N 
HETATM   24  C   UNL     1      -4.658 -12.122 -38.638  1.00  0.00     0.261 A 
HETATM   25  H   UNL     1      -5.296 -12.800 -36.814  1.00  0.00     0.192 HD
HETATM   26  O   UNL     1      -3.505 -11.862 -38.313  1.00  0.00    -0.267 OA
HETATM   27  C   UNL     1      -5.123 -11.887 -40.017  1.00  0.00     0.078 A 
HETATM   28  C   UNL     1      -6.378 -12.179 -40.362  1.00  0.00     0.040 A 
ENDBRANCH   3  21
TORSDOF 3
ENDMDL
MODEL 10
REMARK VINA RESULT:      -7.9      2.389      3.312
REMARK  3 active torsions:
REMARK  status: ('A' for Active; 'I' for Inactive)
REMARK    1  A    between atoms: C_3  and  C_4 
REMARK    2  A    between atoms: C_11  and  N_12 
REMARK       I    between atoms: N_12  and  C_13 
REMARK       I    between atoms: C_13  and  N_14 
REMARK    3  A    between atoms: N_14  and  C_15 
ROOT
HETATM    1  C   UNL     1      -9.543   5.738 -34.643  1.00  0.00     0.001 A 
HETATM    2  C   UNL     1     -10.594   4.823 -34.653  1.00  0.00     0.016 A 
HETATM    3  C   UNL     1     -10.585   3.741 -33.763  1.00  0.00     0.021 A 
HETATM    4  C   UNL     1      -9.516   3.557 -32.864  1.00  0.00     0.049 A 
HETATM    5  C   UNL     1      -8.459   4.476 -32.881  1.00  0.00     0.030 A 
HETATM    6  C   UNL     1      -8.479   5.564 -33.759  1.00  0.00     0.002 A 
ENDROOT
BRANCH   4   7
HETATM    7  N   UNL     1      -9.478   2.408 -32.051  1.00  0.00    -0.308 N 
HETATM    8  C   UNL     1      -8.857   1.198 -32.202  1.00  0.00     0.325 C 
HETATM    9  N   UNL     1      -7.906   1.113 -33.178  1.00  0.00    -0.306 N 
HETATM   10  O   UNL     1      -9.115   0.325 -31.375  1.00  0.00    -0.247 OA
HETATM   11  H   UNL     1      -7.779   1.915 -33.778  1.00  0.00     0.171 HD
HETATM   12  H   UNL     1      -9.919   2.474 -31.139  1.00  0.00     0.170 HD
BRANCH   9  13
HETATM   13  C   UNL     1      -6.979   0.070 -33.396  1.00  0.00     0.075 A 
HETATM   14  C   UNL     1      -7.118  -0.668 -34.581  1.00  0.00     0.146 A 
HETATM   15  F   UNL     1      -8.127  -0.379 -35.420  1.00  0.00    -0.204 F 
HETATM   16  C   UNL     1      -6.237  -1.687 -34.918  1.00  0.00     0.086 A 
HETATM   17  C   UNL     1      -5.190  -1.971 -34.056  1.00  0.00     0.119 A 
HETATM   18  F   UNL     1      -4.320  -2.939 -34.370  1.00  0.00    -0.206 F 
HETATM   19  C   UNL     1      -5.024  -1.260 -32.871  1.00  0.00     0.044 A 
HETATM   20  C   UNL     1      -5.923  -0.241 -32.536  1.00  0.00     0.036 A 
ENDBRANCH   9  13
ENDBRANCH   4   7
BRANCH   3  21
HETATM   21  C   UNL     1     -11.773   2.854 -33.766  1.00  0.00     0.089 A 
HETATM   22  N   UNL     1     -12.592   2.878 -32.760  1.00  0.00    -0.171 NA
HETATM   23  N   UNL     1     -13.671   2.043 -32.834  1.00  0.00    -0.243 N 
HETATM   24  C   UNL     1     -13.964   1.194 -33.872  1.00  0.00     0.261 A 
HETATM   25  H   UNL     1     -14.323   2.071 -32.057  1.00  0.00     0.192 HD
HETATM   26  O   UNL     1     -14.958   0.478 -33.899  1.00  0.00    -0.267 OA
HETATM   27  C   UNL     1     -12.993   1.177 -34.982  1.00  0.00     0.078 A 
HETATM   28  C   UNL     1     -11.918   1.966 -34.946  1.00  0.00     0.040 A 
ENDBRANCH   3  21
TORSDOF 3
ENDMDL
