MODEL 1
REMARK VINA RESULT:      -8.7      0.000      0.000
REMARK  5 active torsions:
REMARK  status: ('A' for Active; 'I' for Inactive)
REMARK    1  A    between atoms: C_7  and  C_8 
REMARK    2  A    between atoms: N_9  and  N_10 
REMARK       I    between atoms: N_10  and  C_11 
REMARK    3  A    between atoms: C_11  and  C_12 
REMARK    4  A    between atoms: C_12  and  N_13 
REMARK       I    between atoms: N_13  and  C_14 
REMARK    5  A    between atoms: C_14  and  C_15 
ROOT
HETATM    1  N   UNL     1      -7.539   1.364 -32.148  1.00  0.00    -0.246 N 
HETATM    2  C   UNL     1      -8.919   1.311 -32.281  1.00  0.00     0.255 C 
HETATM    3  O   UNL     1      -9.605   0.291 -32.301  1.00  0.00    -0.270 OA
HETATM    4  H   UNL     1      -7.084   2.277 -32.055  1.00  0.00     0.192 HD
ENDROOT
BRANCH   1   5
HETATM    5  N   UNL     1      -6.806   0.217 -32.097  1.00  0.00    -0.184 NA
HETATM    6  C   UNL     1      -5.987   0.037 -33.082  1.00  0.00     0.153 C 
BRANCH   6   7
HETATM    7  C   UNL     1      -5.175  -1.167 -33.149  1.00  0.00     0.018 A 
HETATM    8  C   UNL     1      -3.945  -1.380 -32.539  1.00  0.00     0.018 A 
HETATM    9  C   UNL     1      -3.113  -0.499 -31.675  1.00  0.00     0.069 C 
HETATM   10  N   UNL     1      -3.537  -2.651 -32.855  1.00  0.00    -0.358 N 
HETATM   11  H   UNL     1      -2.675  -3.077 -32.543  1.00  0.00     0.166 HD
HETATM   12  C   UNL     1      -4.465  -3.277 -33.651  1.00  0.00     0.043 A 
HETATM   13  C   UNL     1      -5.505  -2.371 -33.856  1.00  0.00     0.004 A 
HETATM   14  C   UNL     1      -4.458  -4.567 -34.196  1.00  0.00     0.030 A 
HETATM   15  C   UNL     1      -6.599  -2.782 -34.651  1.00  0.00     0.014 A 
HETATM   16  C   UNL     1      -6.609  -4.068 -35.204  1.00  0.00     0.001 A 
HETATM   17  C   UNL     1      -5.552  -4.946 -34.978  1.00  0.00     0.002 A 
ENDBRANCH   6   7
ENDBRANCH   1   5
BRANCH   2  18
HETATM   18  C   UNL     1      -9.543   2.696 -32.460  1.00  0.00     0.227 C 
BRANCH  18  19
HETATM   19  N   UNL     1     -10.977   2.720 -32.218  1.00  0.00    -0.348 N 
HETATM   20  C   UNL     1     -11.881   2.809 -33.252  1.00  0.00     0.252 C 
HETATM   21  O   UNL     1     -11.538   2.983 -34.417  1.00  0.00    -0.268 OA
HETATM   22  H   UNL     1     -11.288   2.845 -31.263  1.00  0.00     0.163 HD
BRANCH  20  23
HETATM   23  C   UNL     1     -13.317   2.741 -32.877  1.00  0.00     0.032 A 
HETATM   24  C   UNL     1     -13.880   3.811 -32.171  1.00  0.00     0.018 A 
HETATM   25  C   UNL     1     -15.234   3.784 -31.820  1.00  0.00     0.025 A 
HETATM   26  C   UNL     1     -16.023   2.695 -32.190  1.00  0.00     0.034 A 
HETATM   27 CL   UNL     1     -17.691   2.666 -31.768  1.00  0.00    -0.084 Cl
HETATM   28  C   UNL     1     -15.473   1.633 -32.907  1.00  0.00     0.025 A 
HETATM   29  C   UNL     1     -14.119   1.654 -33.253  1.00  0.00     0.018 A 
ENDBRANCH  20  23
ENDBRANCH  18  19
ENDBRANCH   2  18
TORSDOF 5
ENDMDL
MODEL 2
REMARK VINA RESULT:      -8.6      3.026      3.694
REMARK  5 active torsions:
REMARK  status: ('A' for Active; 'I' for Inactive)
REMARK    1  A    between atoms: C_7  and  C_8 
REMARK    2  A    between atoms: N_9  and  N_10 
REMARK       I    between atoms: N_10  and  C_11 
REMARK    3  A    between atoms: C_11  and  C_12 
REMARK    4  A    between atoms: C_12  and  N_13 
REMARK       I    between atoms: N_13  and  C_14 
REMARK    5  A    between atoms: C_14  and  C_15 
ROOT
HETATM    1  N   UNL     1      -9.646   0.790 -33.287  1.00  0.00    -0.246 N 
HETATM    2  C   UNL     1     -10.833   0.089 -33.126  1.00  0.00     0.255 C 
HETATM    3  O   UNL     1     -10.942  -1.054 -32.687  1.00  0.00    -0.270 OA
HETATM    4  H   UNL     1      -9.685   1.771 -33.580  1.00  0.00     0.192 HD
ENDROOT
BRANCH   1   5
HETATM    5  N   UNL     1      -8.450   0.195 -33.018  1.00  0.00    -0.184 NA
HETATM    6  C   UNL     1      -7.742  -0.122 -34.053  1.00  0.00     0.153 C 
BRANCH   6   7
HETATM    7  C   UNL     1      -6.461  -0.790 -33.888  1.00  0.00     0.018 A 
HETATM    8  C   UNL     1      -5.290  -0.239 -33.382  1.00  0.00     0.018 A 
HETATM    9  C   UNL     1      -4.988   1.130 -32.879  1.00  0.00     0.069 C 
HETATM   10  N   UNL     1      -4.329  -1.217 -33.393  1.00  0.00    -0.358 N 
HETATM   11  H   UNL     1      -3.377  -1.097 -33.076  1.00  0.00     0.166 HD
HETATM   12  C   UNL     1      -4.838  -2.394 -33.887  1.00  0.00     0.043 A 
HETATM   13  C   UNL     1      -6.174  -2.159 -34.210  1.00  0.00     0.004 A 
HETATM   14  C   UNL     1      -4.216  -3.635 -34.069  1.00  0.00     0.030 A 
HETATM   15  C   UNL     1      -6.928  -3.227 -34.743  1.00  0.00     0.014 A 
HETATM   16  C   UNL     1      -6.323  -4.476 -34.930  1.00  0.00     0.001 A 
HETATM   17  C   UNL     1      -4.986  -4.674 -34.597  1.00  0.00     0.002 A 
ENDBRANCH   6   7
ENDBRANCH   1   5
BRANCH   2  18
HETATM   18  C   UNL     1     -12.049   0.879 -33.611  1.00  0.00     0.227 C 
BRANCH  18  19
HETATM   19  N   UNL     1     -11.746   2.263 -33.940  1.00  0.00    -0.348 N 
HETATM   20  C   UNL     1     -12.178   2.836 -35.114  1.00  0.00     0.252 C 
HETATM   21  O   UNL     1     -12.743   2.195 -35.994  1.00  0.00    -0.268 OA
HETATM   22  H   UNL     1     -11.062   2.741 -33.366  1.00  0.00     0.163 HD
BRANCH  20  23
HETATM   23  C   UNL     1     -11.872   4.280 -35.292  1.00  0.00     0.032 A 
HETATM   24  C   UNL     1     -10.536   4.695 -35.254  1.00  0.00     0.018 A 
HETATM   25  C   UNL     1     -10.216   6.044 -35.437  1.00  0.00     0.025 A 
HETATM   26  C   UNL     1     -11.231   6.970 -35.673  1.00  0.00     0.034 A 
HETATM   27 CL   UNL     1     -10.838   8.628 -35.909  1.00  0.00    -0.084 Cl
HETATM   28  C   UNL     1     -12.564   6.562 -35.727  1.00  0.00     0.025 A 
HETATM   29  C   UNL     1     -12.888   5.215 -35.538  1.00  0.00     0.018 A 
ENDBRANCH  20  23
ENDBRANCH  18  19
ENDBRANCH   2  18
TORSDOF 5
ENDMDL
MODEL 3
REMARK VINA RESULT:      -8.5      1.971      2.477
REMARK  5 active torsions:
REMARK  status: ('A' for Active; 'I' for Inactive)
REMARK    1  A    between atoms: C_7  and  C_8 
REMARK    2  A    between atoms: N_9  and  N_10 
REMARK       I    between atoms: N_10  and  C_11 
REMARK    3  A    between atoms: C_11  and  C_12 
REMARK    4  A    between atoms: C_12  and  N_13 
REMARK       I    between atoms: N_13  and  C_14 
REMARK    5  A    between atoms: C_14  and  C_15 
ROOT
HETATM    1  N   UNL     1      -7.317   2.369 -34.056  1.00  0.00    -0.246 N 
HETATM    2  C   UNL     1      -6.973   3.696 -33.844  1.00  0.00     0.255 C 
HETATM    3  O   UNL     1      -5.831   4.150 -33.811  1.00  0.00    -0.270 OA
HETATM    4  H   UNL     1      -8.307   2.122 -34.152  1.00  0.00     0.192 HD
ENDROOT
BRANCH   1   5
HETATM    5  N   UNL     1      -6.351   1.416 -34.179  1.00  0.00    -0.184 NA
HETATM    6  C   UNL     1      -6.512   0.363 -33.445  1.00  0.00     0.153 C 
BRANCH   6   7
HETATM    7  C   UNL     1      -5.528  -0.706 -33.471  1.00  0.00     0.018 A 
HETATM    8  C   UNL     1      -4.224  -0.653 -32.994  1.00  0.00     0.018 A 
HETATM    9  C   UNL     1      -3.461   0.448 -32.345  1.00  0.00     0.069 C 
HETATM   10  N   UNL     1      -3.651  -1.881 -33.208  1.00  0.00    -0.358 N 
HETATM   11  H   UNL     1      -2.704  -2.130 -32.956  1.00  0.00     0.166 HD
HETATM   12  C   UNL     1      -4.542  -2.736 -33.808  1.00  0.00     0.043 A 
HETATM   13  C   UNL     1      -5.730  -2.029 -33.989  1.00  0.00     0.004 A 
HETATM   14  C   UNL     1      -4.383  -4.072 -34.197  1.00  0.00     0.030 A 
HETATM   15  C   UNL     1      -6.818  -2.697 -34.593  1.00  0.00     0.014 A 
HETATM   16  C   UNL     1      -6.677  -4.033 -34.988  1.00  0.00     0.001 A 
HETATM   17  C   UNL     1      -5.475  -4.708 -34.792  1.00  0.00     0.002 A 
ENDBRANCH   6   7
ENDBRANCH   1   5
BRANCH   2  18
HETATM   18  C   UNL     1      -8.192   4.584 -33.593  1.00  0.00     0.227 C 
BRANCH  18  19
HETATM   19  N   UNL     1      -9.457   3.914 -33.853  1.00  0.00    -0.348 N 
HETATM   20  C   UNL     1     -10.089   3.168 -32.885  1.00  0.00     0.252 C 
HETATM   21  O   UNL     1      -9.580   2.931 -31.795  1.00  0.00    -0.268 OA
HETATM   22  H   UNL     1      -9.774   3.867 -34.814  1.00  0.00     0.163 HD
BRANCH  20  23
HETATM   23  C   UNL     1     -11.415   2.604 -33.252  1.00  0.00     0.032 A 
HETATM   24  C   UNL     1     -11.461   1.396 -33.959  1.00  0.00     0.018 A 
HETATM   25  C   UNL     1     -12.694   0.832 -34.301  1.00  0.00     0.025 A 
HETATM   26  C   UNL     1     -13.876   1.468 -33.923  1.00  0.00     0.034 A 
HETATM   27 CL   UNL     1     -15.393   0.769 -34.334  1.00  0.00    -0.084 Cl
HETATM   28  C   UNL     1     -13.838   2.663 -33.205  1.00  0.00     0.025 A 
HETATM   29  C   UNL     1     -12.607   3.234 -32.867  1.00  0.00     0.018 A 
ENDBRANCH  20  23
ENDBRANCH  18  19
ENDBRANCH   2  18
TORSDOF 5
ENDMDL
MODEL 4
REMARK VINA RESULT:      -8.4      6.976      9.597
REMARK  5 active torsions:
REMARK  status: ('A' for Active; 'I' for Inactive)
REMARK    1  A    between atoms: C_7  and  C_8 
REMARK    2  A    between atoms: N_9  and  N_10 
REMARK       I    between atoms: N_10  and  C_11 
REMARK    3  A    between atoms: C_11  and  C_12 
REMARK    4  A    between atoms: C_12  and  N_13 
REMARK       I    between atoms: N_13  and  C_14 
REMARK    5  A    between atoms: C_14  and  C_15 
ROOT
HETATM    1  N   UNL     1      -4.891   2.618 -32.034  1.00  0.00    -0.246 N 
HETATM    2  C   UNL     1      -3.911   3.600 -32.020  1.00  0.00     0.255 C 
HETATM    3  O   UNL     1      -2.852   3.573 -32.644  1.00  0.00    -0.270 OA
HETATM    4  H   UNL     1      -5.774   2.790 -31.544  1.00  0.00     0.192 HD
ENDROOT
BRANCH   1   5
HETATM    5  N   UNL     1      -4.699   1.460 -32.726  1.00  0.00    -0.184 NA
HETATM    6  C   UNL     1      -5.719   0.667 -32.777  1.00  0.00     0.153 C 
BRANCH   6   7
HETATM    7  C   UNL     1      -5.620  -0.611 -33.462  1.00  0.00     0.018 A 
HETATM    8  C   UNL     1      -6.342  -1.020 -34.577  1.00  0.00     0.018 A 
HETATM    9  C   UNL     1      -7.386  -0.323 -35.379  1.00  0.00     0.069 C 
HETATM   10  N   UNL     1      -5.930  -2.287 -34.900  1.00  0.00    -0.358 N 
HETATM   11  H   UNL     1      -6.284  -2.832 -35.674  1.00  0.00     0.166 HD
HETATM   12  C   UNL     1      -4.957  -2.719 -34.032  1.00  0.00     0.043 A 
HETATM   13  C   UNL     1      -4.741  -1.692 -33.115  1.00  0.00     0.004 A 
HETATM   14  C   UNL     1      -4.260  -3.934 -33.994  1.00  0.00     0.030 A 
HETATM   15  C   UNL     1      -3.773  -1.892 -32.105  1.00  0.00     0.014 A 
HETATM   16  C   UNL     1      -3.067  -3.099 -32.053  1.00  0.00     0.001 A 
HETATM   17  C   UNL     1      -3.309  -4.104 -32.986  1.00  0.00     0.002 A 
ENDBRANCH   6   7
ENDBRANCH   1   5
BRANCH   2  18
HETATM   18  C   UNL     1      -4.254   4.755 -31.079  1.00  0.00     0.227 C 
BRANCH  18  19
HETATM   19  N   UNL     1      -3.086   5.370 -30.469  1.00  0.00    -0.348 N 
HETATM   20  C   UNL     1      -3.018   6.727 -30.249  1.00  0.00     0.252 C 
HETATM   21  O   UNL     1      -3.878   7.505 -30.649  1.00  0.00    -0.268 OA
HETATM   22  H   UNL     1      -2.255   4.801 -30.369  1.00  0.00     0.163 HD
BRANCH  20  23
HETATM   23  C   UNL     1      -1.806   7.219 -29.544  1.00  0.00     0.032 A 
HETATM   24  C   UNL     1      -0.556   7.041 -30.150  1.00  0.00     0.018 A 
HETATM   25  C   UNL     1       0.601   7.510 -29.519  1.00  0.00     0.025 A 
HETATM   26  C   UNL     1       0.503   8.168 -28.294  1.00  0.00     0.034 A 
HETATM   27 CL   UNL     1       1.925   8.755 -27.523  1.00  0.00    -0.084 Cl
HETATM   28  C   UNL     1      -0.740   8.363 -27.691  1.00  0.00     0.025 A 
HETATM   29  C   UNL     1      -1.898   7.889 -28.316  1.00  0.00     0.018 A 
ENDBRANCH  20  23
ENDBRANCH  18  19
ENDBRANCH   2  18
TORSDOF 5
ENDMDL
MODEL 5
REMARK VINA RESULT:      -8.3      5.222      8.623
REMARK  5 active torsions:
REMARK  status: ('A' for Active; 'I' for Inactive)
REMARK    1  A    between atoms: C_7  and  C_8 
REMARK    2  A    between atoms: N_9  and  N_10 
REMARK       I    between atoms: N_10  and  C_11 
REMARK    3  A    between atoms: C_11  and  C_12 
REMARK    4  A    between atoms: C_12  and  N_13 
REMARK       I    between atoms: N_13  and  C_14 
REMARK    5  A    between atoms: C_14  and  C_15 
ROOT
HETATM    1  N   UNL     1      -7.230   2.657 -33.766  1.00  0.00    -0.246 N 
HETATM    2  C   UNL     1      -8.331   2.143 -33.096  1.00  0.00     0.255 C 
HETATM    3  O   UNL     1      -8.775   2.544 -32.021  1.00  0.00    -0.270 OA
HETATM    4  H   UNL     1      -7.006   2.301 -34.699  1.00  0.00     0.192 HD
ENDROOT
BRANCH   1   5
HETATM    5  N   UNL     1      -6.486   3.653 -33.208  1.00  0.00    -0.184 NA
HETATM    6  C   UNL     1      -5.284   3.322 -32.862  1.00  0.00     0.153 C 
BRANCH   6   7
HETATM    7  C   UNL     1      -4.409   4.294 -32.230  1.00  0.00     0.018 A 
HETATM    8  C   UNL     1      -4.470   4.745 -30.917  1.00  0.00     0.018 A 
HETATM    9  C   UNL     1      -5.397   4.399 -29.804  1.00  0.00     0.069 C 
HETATM   10  N   UNL     1      -3.453   5.648 -30.737  1.00  0.00    -0.358 N 
HETATM   11  H   UNL     1      -3.257   6.134 -29.873  1.00  0.00     0.166 HD
HETATM   12  C   UNL     1      -2.726   5.798 -31.892  1.00  0.00     0.043 A 
HETATM   13  C   UNL     1      -3.301   4.964 -32.850  1.00  0.00     0.004 A 
HETATM   14  C   UNL     1      -1.611   6.605 -32.153  1.00  0.00     0.030 A 
HETATM   15  C   UNL     1      -2.727   4.936 -34.140  1.00  0.00     0.014 A 
HETATM   16  C   UNL     1      -1.612   5.736 -34.419  1.00  0.00     0.001 A 
HETATM   17  C   UNL     1      -1.064   6.557 -33.438  1.00  0.00     0.002 A 
ENDBRANCH   6   7
ENDBRANCH   1   5
BRANCH   2  18
HETATM   18  C   UNL     1      -8.947   0.944 -33.817  1.00  0.00     0.227 C 
BRANCH  18  19
HETATM   19  N   UNL     1      -8.105  -0.241 -33.792  1.00  0.00    -0.348 N 
HETATM   20  C   UNL     1      -7.139  -0.458 -34.748  1.00  0.00     0.252 C 
HETATM   21  O   UNL     1      -7.004   0.266 -35.729  1.00  0.00    -0.268 OA
HETATM   22  H   UNL     1      -8.362  -0.985 -33.157  1.00  0.00     0.163 HD
BRANCH  20  23
HETATM   23  C   UNL     1      -6.290  -1.665 -34.563  1.00  0.00     0.032 A 
HETATM   24  C   UNL     1      -5.040  -1.522 -33.950  1.00  0.00     0.018 A 
HETATM   25  C   UNL     1      -4.228  -2.642 -33.746  1.00  0.00     0.025 A 
HETATM   26  C   UNL     1      -4.674  -3.902 -34.140  1.00  0.00     0.034 A 
HETATM   27 CL   UNL     1      -3.681  -5.282 -33.880  1.00  0.00    -0.084 Cl
HETATM   28  C   UNL     1      -5.926  -4.055 -34.738  1.00  0.00     0.025 A 
HETATM   29  C   UNL     1      -6.737  -2.936 -34.949  1.00  0.00     0.018 A 
ENDBRANCH  20  23
ENDBRANCH  18  19
ENDBRANCH   2  18
TORSDOF 5
ENDMDL
MODEL 6
REMARK VINA RESULT:      -8.2      5.819      9.346
REMARK  5 active torsions:
REMARK  status: ('A' for Active; 'I' for Inactive)
REMARK    1  A    between atoms: C_7  and  C_8 
REMARK    2  A    between atoms: N_9  and  N_10 
REMARK       I    between atoms: N_10  and  C_11 
REMARK    3  A    between atoms: C_11  and  C_12 
REMARK    4  A    between atoms: C_12  and  N_13 
REMARK       I    between atoms: N_13  and  C_14 
REMARK    5  A    between atoms: C_14  and  C_15 
ROOT
HETATM    1  N   UNL     1      -5.833   3.539 -32.781  1.00  0.00    -0.246 N 
HETATM    2  C   UNL     1      -6.892   3.701 -33.662  1.00  0.00     0.255 C 
HETATM    3  O   UNL     1      -7.195   4.740 -34.244  1.00  0.00    -0.270 OA
HETATM    4  H   UNL     1      -5.623   2.602 -32.423  1.00  0.00     0.192 HD
ENDROOT
BRANCH   1   5
HETATM    5  N   UNL     1      -5.057   4.602 -32.431  1.00  0.00    -0.184 NA
HETATM    6  C   UNL     1      -4.505   4.529 -31.263  1.00  0.00     0.153 C 
BRANCH   6   7
HETATM    7  C   UNL     1      -3.680   5.620 -30.772  1.00  0.00     0.018 A 
HETATM    8  C   UNL     1      -4.101   6.720 -30.036  1.00  0.00     0.018 A 
HETATM    9  C   UNL     1      -5.451   7.114 -29.545  1.00  0.00     0.069 C 
HETATM   10  N   UNL     1      -2.999   7.494 -29.773  1.00  0.00    -0.358 N 
HETATM   11  H   UNL     1      -3.010   8.358 -29.250  1.00  0.00     0.166 HD
HETATM   12  C   UNL     1      -1.869   6.930 -30.313  1.00  0.00     0.043 A 
HETATM   13  C   UNL     1      -2.262   5.754 -30.949  1.00  0.00     0.004 A 
HETATM   14  C   UNL     1      -0.541   7.374 -30.283  1.00  0.00     0.030 A 
HETATM   15  C   UNL     1      -1.269   4.978 -31.589  1.00  0.00     0.014 A 
HETATM   16  C   UNL     1       0.064   5.407 -31.568  1.00  0.00     0.001 A 
HETATM   17  C   UNL     1       0.420   6.588 -30.924  1.00  0.00     0.002 A 
ENDBRANCH   6   7
ENDBRANCH   1   5
BRANCH   2  18
HETATM   18  C   UNL     1      -7.723   2.427 -33.817  1.00  0.00     0.227 C 
BRANCH  18  19
HETATM   19  N   UNL     1      -6.943   1.207 -33.676  1.00  0.00    -0.348 N 
HETATM   20  C   UNL     1      -7.115   0.140 -34.528  1.00  0.00     0.252 C 
HETATM   21  O   UNL     1      -8.001   0.107 -35.376  1.00  0.00    -0.268 OA
HETATM   22  H   UNL     1      -6.396   1.096 -32.832  1.00  0.00     0.163 HD
BRANCH  20  23
HETATM   23  C   UNL     1      -6.200  -1.014 -34.329  1.00  0.00     0.032 A 
HETATM   24  C   UNL     1      -6.545  -2.251 -34.886  1.00  0.00     0.018 A 
HETATM   25  C   UNL     1      -5.694  -3.351 -34.731  1.00  0.00     0.025 A 
HETATM   26  C   UNL     1      -4.496  -3.206 -34.033  1.00  0.00     0.034 A 
HETATM   27 CL   UNL     1      -3.444  -4.555 -33.852  1.00  0.00    -0.084 Cl
HETATM   28  C   UNL     1      -4.138  -1.973 -33.488  1.00  0.00     0.025 A 
HETATM   29  C   UNL     1      -4.989  -0.873 -33.636  1.00  0.00     0.018 A 
ENDBRANCH  20  23
ENDBRANCH  18  19
ENDBRANCH   2  18
TORSDOF 5
ENDMDL
MODEL 7
REMARK VINA RESULT:      -8.2      7.439     10.244
REMARK  5 active torsions:
REMARK  status: ('A' for Active; 'I' for Inactive)
REMARK    1  A    between atoms: C_7  and  C_8 
REMARK    2  A    between atoms: N_9  and  N_10 
REMARK       I    between atoms: N_10  and  C_11 
REMARK    3  A    between atoms: C_11  and  C_12 
REMARK    4  A    between atoms: C_12  and  N_13 
REMARK       I    between atoms: N_13  and  C_14 
REMARK    5  A    between atoms: C_14  and  C_15 
ROOT
HETATM    1  N   UNL     1      -3.889   4.245 -30.960  1.00  0.00    -0.246 N 
HETATM    2  C   UNL     1      -4.660   5.088 -30.173  1.00  0.00     0.255 C 
HETATM    3  O   UNL     1      -5.651   4.763 -29.522  1.00  0.00    -0.270 OA
HETATM    4  H   UNL     1      -3.032   4.609 -31.387  1.00  0.00     0.192 HD
ENDROOT
BRANCH   1   5
HETATM    5  N   UNL     1      -4.243   2.940 -31.127  1.00  0.00    -0.184 NA
HETATM    6  C   UNL     1      -4.160   2.491 -32.337  1.00  0.00     0.153 C 
BRANCH   6   7
HETATM    7  C   UNL     1      -4.542   1.121 -32.638  1.00  0.00     0.018 A 
HETATM    8  C   UNL     1      -3.956  -0.038 -32.144  1.00  0.00     0.018 A 
HETATM    9  C   UNL     1      -2.818  -0.238 -31.206  1.00  0.00     0.069 C 
HETATM   10  N   UNL     1      -4.631  -1.107 -32.677  1.00  0.00    -0.358 N 
HETATM   11  H   UNL     1      -4.421  -2.077 -32.488  1.00  0.00     0.166 HD
HETATM   12  C   UNL     1      -5.643  -0.681 -33.503  1.00  0.00     0.043 A 
HETATM   13  C   UNL     1      -5.613   0.712 -33.502  1.00  0.00     0.004 A 
HETATM   14  C   UNL     1      -6.573  -1.425 -34.240  1.00  0.00     0.030 A 
HETATM   15  C   UNL     1      -6.568   1.400 -34.284  1.00  0.00     0.014 A 
HETATM   16  C   UNL     1      -7.506   0.673 -35.027  1.00  0.00     0.001 A 
HETATM   17  C   UNL     1      -7.506  -0.719 -35.004  1.00  0.00     0.002 A 
ENDBRANCH   6   7
ENDBRANCH   1   5
BRANCH   2  18
HETATM   18  C   UNL     1      -4.179   6.538 -30.226  1.00  0.00     0.227 C 
BRANCH  18  19
HETATM   19  N   UNL     1      -3.090   6.820 -29.304  1.00  0.00    -0.348 N 
HETATM   20  C   UNL     1      -1.773   6.696 -29.685  1.00  0.00     0.252 C 
HETATM   21  O   UNL     1      -1.440   6.241 -30.775  1.00  0.00    -0.268 OA
HETATM   22  H   UNL     1      -3.323   6.940 -28.326  1.00  0.00     0.163 HD
BRANCH  20  23
HETATM   23  C   UNL     1      -0.756   7.092 -28.675  1.00  0.00     0.032 A 
HETATM   24  C   UNL     1      -0.860   6.577 -27.378  1.00  0.00     0.018 A 
HETATM   25  C   UNL     1       0.092   6.917 -26.412  1.00  0.00     0.025 A 
HETATM   26  C   UNL     1       1.152   7.757 -26.749  1.00  0.00     0.034 A 
HETATM   27 CL   UNL     1       2.330   8.167 -25.564  1.00  0.00    -0.084 Cl
HETATM   28  C   UNL     1       1.271   8.262 -28.044  1.00  0.00     0.025 A 
HETATM   29  C   UNL     1       0.317   7.929 -29.011  1.00  0.00     0.018 A 
ENDBRANCH  20  23
ENDBRANCH  18  19
ENDBRANCH   2  18
TORSDOF 5
ENDMDL
MODEL 8
REMARK VINA RESULT:      -8.0      5.714      9.251
REMARK  5 active torsions:
REMARK  status: ('A' for Active; 'I' for Inactive)
REMARK    1  A    between atoms: C_7  and  C_8 
REMARK    2  A    between atoms: N_9  and  N_10 
REMARK       I    between atoms: N_10  and  C_11 
REMARK    3  A    between atoms: C_11  and  C_12 
REMARK    4  A    between atoms: C_12  and  N_13 
REMARK       I    between atoms: N_13  and  C_14 
REMARK    5  A    between atoms: C_14  and  C_15 
ROOT
HETATM    1  N   UNL     1      -4.663   2.715 -30.989  1.00  0.00    -0.246 N 
HETATM    2  C   UNL     1      -6.015   2.743 -31.299  1.00  0.00     0.255 C 
HETATM    3  O   UNL     1      -6.616   3.677 -31.826  1.00  0.00    -0.270 OA
HETATM    4  H   UNL     1      -4.253   1.847 -30.632  1.00  0.00     0.192 HD
ENDROOT
BRANCH   1   5
HETATM    5  N   UNL     1      -3.884   3.813 -31.199  1.00  0.00    -0.184 NA
HETATM    6  C   UNL     1      -2.990   3.692 -32.126  1.00  0.00     0.153 C 
BRANCH   6   7
HETATM    7  C   UNL     1      -2.081   4.788 -32.416  1.00  0.00     0.018 A 
HETATM    8  C   UNL     1      -1.946   5.466 -33.622  1.00  0.00     0.018 A 
HETATM    9  C   UNL     1      -2.645   5.295 -34.926  1.00  0.00     0.069 C 
HETATM   10  N   UNL     1      -0.986   6.431 -33.454  1.00  0.00    -0.358 N 
HETATM   11  H   UNL     1      -0.684   7.077 -34.169  1.00  0.00     0.166 HD
HETATM   12  C   UNL     1      -0.491   6.407 -32.173  1.00  0.00     0.043 A 
HETATM   13  C   UNL     1      -1.156   5.386 -31.496  1.00  0.00     0.004 A 
HETATM   14  C   UNL     1       0.487   7.210 -31.573  1.00  0.00     0.030 A 
HETATM   15  C   UNL     1      -0.823   5.157 -30.142  1.00  0.00     0.014 A 
HETATM   16  C   UNL     1       0.152   5.950 -29.525  1.00  0.00     0.001 A 
HETATM   17  C   UNL     1       0.797   6.961 -30.233  1.00  0.00     0.002 A 
ENDBRANCH   6   7
ENDBRANCH   1   5
BRANCH   2  18
HETATM   18  C   UNL     1      -6.741   1.470 -30.863  1.00  0.00     0.227 C 
BRANCH  18  19
HETATM   19  N   UNL     1      -6.687   0.406 -31.853  1.00  0.00    -0.348 N 
HETATM   20  C   UNL     1      -5.545  -0.336 -32.051  1.00  0.00     0.252 C 
HETATM   21  O   UNL     1      -4.483  -0.078 -31.492  1.00  0.00    -0.268 OA
HETATM   22  H   UNL     1      -7.452   0.340 -32.512  1.00  0.00     0.163 HD
BRANCH  20  23
HETATM   23  C   UNL     1      -5.645  -1.447 -33.034  1.00  0.00     0.032 A 
HETATM   24  C   UNL     1      -6.880  -1.698 -33.643  1.00  0.00     0.018 A 
HETATM   25  C   UNL     1      -7.000  -2.724 -34.585  1.00  0.00     0.025 A 
HETATM   26  C   UNL     1      -5.884  -3.486 -34.926  1.00  0.00     0.034 A 
HETATM   27 CL   UNL     1      -6.028  -4.742 -36.093  1.00  0.00    -0.084 Cl
HETATM   28  C   UNL     1      -4.646  -3.232 -34.334  1.00  0.00     0.025 A 
HETATM   29  C   UNL     1      -4.523  -2.211 -33.387  1.00  0.00     0.018 A 
ENDBRANCH  20  23
ENDBRANCH  18  19
ENDBRANCH   2  18
TORSDOF 5
ENDMDL
MODEL 9
REMARK VINA RESULT:      -8.0      3.651     10.437
REMARK  5 active torsions:
REMARK  status: ('A' for Active; 'I' for Inactive)
REMARK    1  A    between atoms: C_7  and  C_8 
REMARK    2  A    between atoms: N_9  and  N_10 
REMARK       I    between atoms: N_10  and  C_11 
REMARK    3  A    between atoms: C_11  and  C_12 
REMARK    4  A    between atoms: C_12  and  N_13 
REMARK       I    between atoms: N_13  and  C_14 
REMARK    5  A    between atoms: C_14  and  C_15 
ROOT
HETATM    1  N   UNL     1     -10.469   2.627 -33.815  1.00  0.00    -0.246 N 
HETATM    2  C   UNL     1      -9.760   1.510 -33.398  1.00  0.00     0.255 C 
HETATM    3  O   UNL     1     -10.237   0.409 -33.132  1.00  0.00    -0.270 OA
HETATM    4  H   UNL     1      -9.954   3.467 -34.095  1.00  0.00     0.192 HD
ENDROOT
BRANCH   1   5
HETATM    5  N   UNL     1     -11.829   2.591 -33.895  1.00  0.00    -0.184 NA
HETATM    6  C   UNL     1     -12.456   2.752 -32.775  1.00  0.00     0.153 C 
BRANCH   6   7
HETATM    7  C   UNL     1     -13.908   2.702 -32.733  1.00  0.00     0.018 A 
HETATM    8  C   UNL     1     -14.723   1.684 -33.213  1.00  0.00     0.018 A 
HETATM    9  C   UNL     1     -14.393   0.397 -33.885  1.00  0.00     0.069 C 
HETATM   10  N   UNL     1     -16.025   2.038 -32.962  1.00  0.00    -0.358 N 
HETATM   11  H   UNL     1     -16.833   1.481 -33.201  1.00  0.00     0.166 HD
HETATM   12  C   UNL     1     -16.085   3.256 -32.329  1.00  0.00     0.043 A 
HETATM   13  C   UNL     1     -14.773   3.701 -32.172  1.00  0.00     0.004 A 
HETATM   14  C   UNL     1     -17.196   3.985 -31.887  1.00  0.00     0.030 A 
HETATM   15  C   UNL     1     -14.563   4.946 -31.538  1.00  0.00     0.014 A 
HETATM   16  C   UNL     1     -15.662   5.688 -31.090  1.00  0.00     0.001 A 
HETATM   17  C   UNL     1     -16.959   5.212 -31.263  1.00  0.00     0.002 A 
ENDBRANCH   6   7
ENDBRANCH   1   5
BRANCH   2  18
HETATM   18  C   UNL     1      -8.265   1.792 -33.241  1.00  0.00     0.227 C 
BRANCH  18  19
HETATM   19  N   UNL     1      -7.448   0.589 -33.227  1.00  0.00    -0.348 N 
HETATM   20  C   UNL     1      -6.918   0.065 -34.384  1.00  0.00     0.252 C 
HETATM   21  O   UNL     1      -7.189   0.508 -35.496  1.00  0.00    -0.268 OA
HETATM   22  H   UNL     1      -7.423   0.050 -32.371  1.00  0.00     0.163 HD
BRANCH  20  23
HETATM   23  C   UNL     1      -6.034  -1.120 -34.224  1.00  0.00     0.032 A 
HETATM   24  C   UNL     1      -6.369  -2.305 -34.890  1.00  0.00     0.018 A 
HETATM   25  C   UNL     1      -5.547  -3.430 -34.774  1.00  0.00     0.025 A 
HETATM   26  C   UNL     1      -4.386  -3.363 -34.005  1.00  0.00     0.034 A 
HETATM   27 CL   UNL     1      -3.368  -4.743 -33.870  1.00  0.00    -0.084 Cl
HETATM   28  C   UNL     1      -4.038  -2.181 -33.351  1.00  0.00     0.025 A 
HETATM   29  C   UNL     1      -4.861  -1.056 -33.460  1.00  0.00     0.018 A 
ENDBRANCH  20  23
ENDBRANCH  18  19
ENDBRANCH   2  18
TORSDOF 5
ENDMDL
MODEL 10
REMARK VINA RESULT:      -8.0      3.527      9.516
REMARK  5 active torsions:
REMARK  status: ('A' for Active; 'I' for Inactive)
REMARK    1  A    between atoms: C_7  and  C_8 
REMARK    2  A    between atoms: N_9  and  N_10 
REMARK       I    between atoms: N_10  and  C_11 
REMARK    3  A    between atoms: C_11  and  C_12 
REMARK    4  A    between atoms: C_12  and  N_13 
REMARK       I    between atoms: N_13  and  C_14 
REMARK    5  A    between atoms: C_14  and  C_15 
ROOT
HETATM    1  N   UNL     1      -8.228   3.182 -32.603  1.00  0.00    -0.246 N 
HETATM    2  C   UNL     1      -7.228   3.724 -33.397  1.00  0.00     0.255 C 
HETATM    3  O   UNL     1      -7.369   4.625 -34.221  1.00  0.00    -0.270 OA
HETATM    4  H   UNL     1      -7.976   2.494 -31.886  1.00  0.00     0.192 HD
ENDROOT
BRANCH   1   5
HETATM    5  N   UNL     1      -9.520   3.592 -32.743  1.00  0.00    -0.184 NA
HETATM    6  C   UNL     1     -10.398   2.646 -32.830  1.00  0.00     0.153 C 
BRANCH   6   7
HETATM    7  C   UNL     1     -11.804   2.964 -33.012  1.00  0.00     0.018 A 
HETATM    8  C   UNL     1     -12.609   2.605 -34.086  1.00  0.00     0.018 A 
HETATM    9  C   UNL     1     -12.309   1.829 -35.321  1.00  0.00     0.069 C 
HETATM   10  N   UNL     1     -13.866   3.101 -33.850  1.00  0.00    -0.358 N 
HETATM   11  H   UNL     1     -14.659   2.987 -34.466  1.00  0.00     0.166 HD
HETATM   12  C   UNL     1     -13.908   3.770 -32.651  1.00  0.00     0.043 A 
HETATM   13  C   UNL     1     -12.629   3.705 -32.101  1.00  0.00     0.004 A 
HETATM   14  C   UNL     1     -14.977   4.420 -32.022  1.00  0.00     0.030 A 
HETATM   15  C   UNL     1     -12.409   4.325 -30.851  1.00  0.00     0.014 A 
HETATM   16  C   UNL     1     -13.466   4.979 -30.207  1.00  0.00     0.001 A 
HETATM   17  C   UNL     1     -14.731   5.025 -30.786  1.00  0.00     0.002 A 
ENDBRANCH   6   7
ENDBRANCH   1   5
BRANCH   2  18
HETATM   18  C   UNL     1      -5.879   3.037 -33.187  1.00  0.00     0.227 C 
BRANCH  18  19
HETATM   19  N   UNL     1      -5.841   1.672 -33.688  1.00  0.00    -0.348 N 
HETATM   20  C   UNL     1      -5.656   0.600 -32.846  1.00  0.00     0.252 C 
HETATM   21  O   UNL     1      -5.404   0.732 -31.652  1.00  0.00    -0.268 OA
HETATM   22  H   UNL     1      -5.779   1.542 -34.690  1.00  0.00     0.163 HD
BRANCH  20  23
HETATM   23  C   UNL     1      -5.719  -0.747 -33.472  1.00  0.00     0.032 A 
HETATM   24  C   UNL     1      -6.945  -1.200 -33.974  1.00  0.00     0.018 A 
HETATM   25  C   UNL     1      -7.031  -2.454 -34.585  1.00  0.00     0.025 A 
HETATM   26  C   UNL     1      -5.890  -3.246 -34.705  1.00  0.00     0.034 A 
HETATM   27 CL   UNL     1      -5.993  -4.785 -35.466  1.00  0.00    -0.084 Cl
HETATM   28  C   UNL     1      -4.661  -2.796 -34.221  1.00  0.00     0.025 A 
HETATM   29  C   UNL     1      -4.573  -1.544 -33.604  1.00  0.00     0.018 A 
ENDBRANCH  20  23
ENDBRANCH  18  19
ENDBRANCH   2  18
TORSDOF 5
ENDMDL
