MODEL 1
REMARK VINA RESULT:      -7.6      0.000      0.000
REMARK  4 active torsions:
REMARK  status: ('A' for Active; 'I' for Inactive)
REMARK    1  A    between atoms: C_2  and  C_3 
REMARK    2  A    between atoms: C_4  and  N_5 
REMARK       I    between atoms: N_5  and  C_6 
REMARK       I    between atoms: C_6  and  N_7 
REMARK    3  A    between atoms: C_8  and  C_9 
REMARK    4  A    between atoms: C_21  and  C_22 
ROOT
HETATM    1  N   UNL     1      -4.931   1.329 -31.376  1.00  0.00    -0.209 NA
HETATM    2  C   UNL     1      -4.076   2.348 -31.698  1.00  0.00     0.301 C 
HETATM    3  N   UNL     1      -4.484   3.359 -32.530  1.00  0.00    -0.330 N 
HETATM    4  C   UNL     1      -3.609   4.503 -32.797  1.00  0.00     0.125 C 
HETATM    5  C   UNL     1      -4.398   5.382 -33.777  1.00  0.00     0.032 C 
HETATM    6  C   UNL     1      -5.270   4.382 -34.512  1.00  0.00     0.022 C 
HETATM    7  C   UNL     1      -5.640   3.389 -33.419  1.00  0.00     0.128 C 
HETATM    8  O   UNL     1      -2.977   2.349 -31.139  1.00  0.00    -0.254 OA
HETATM    9  H   UNL     1      -4.398   0.749 -30.734  1.00  0.00     0.138 HD
ENDROOT
BRANCH   1  10
HETATM   10  C   UNL     1      -5.628   0.521 -32.300  1.00  0.00     0.029 A 
HETATM   11  C   UNL     1      -4.931  -0.397 -33.126  1.00  0.00    -0.036 A 
HETATM   12  C   UNL     1      -5.656  -1.178 -34.041  1.00  0.00     0.009 A 
HETATM   13  C   UNL     1      -7.040  -1.095 -34.110  1.00  0.00     0.001 A 
HETATM   14  C   UNL     1      -7.722  -0.248 -33.243  1.00  0.00     0.009 A 
HETATM   15  C   UNL     1      -7.041   0.569 -32.315  1.00  0.00    -0.036 A 
BRANCH  11  16
HETATM   16  C   UNL     1      -3.435  -0.635 -33.056  1.00  0.00     0.036 C 
HETATM   17  C   UNL     1      -3.045  -1.652 -31.994  1.00  0.00     0.010 C 
ENDBRANCH  11  16
BRANCH  15  18
HETATM   18  C   UNL     1      -7.937   1.340 -31.361  1.00  0.00     0.036 C 
HETATM   19  C   UNL     1      -9.311   1.823 -31.797  1.00  0.00     0.010 C 
ENDBRANCH  15  18
ENDBRANCH   1  10
BRANCH   4  20
HETATM   20  C   UNL     1      -3.211   5.282 -31.577  1.00  0.00     0.014 A 
HETATM   21  C   UNL     1      -4.021   5.904 -30.580  1.00  0.00     0.061 A 
HETATM   22  C   UNL     1      -5.499   5.915 -30.452  1.00  0.00     0.073 C 
HETATM   23  N   UNL     1      -3.285   6.543 -29.661  1.00  0.00    -0.179 NA
HETATM   24  N   UNL     1      -2.022   6.300 -30.030  1.00  0.00    -0.282 N 
HETATM   25  H   UNL     1      -1.278   6.667 -29.448  1.00  0.00     0.189 HD
HETATM   26  C   UNL     1      -1.915   5.583 -31.184  1.00  0.00     0.034 A 
HETATM   27  C   UNL     1      -0.602   5.238 -31.778  1.00  0.00     0.070 C 
ENDBRANCH   4  20
TORSDOF 4
ENDMDL
MODEL 2
REMARK VINA RESULT:      -7.6      3.674      6.014
REMARK  4 active torsions:
REMARK  status: ('A' for Active; 'I' for Inactive)
REMARK    1  A    between atoms: C_2  and  C_3 
REMARK    2  A    between atoms: C_4  and  N_5 
REMARK       I    between atoms: N_5  and  C_6 
REMARK       I    between atoms: C_6  and  N_7 
REMARK    3  A    between atoms: C_8  and  C_9 
REMARK    4  A    between atoms: C_21  and  C_22 
ROOT
HETATM    1  N   UNL     1      -7.633  -0.255 -32.204  1.00  0.00    -0.209 NA
HETATM    2  C   UNL     1      -8.240   0.946 -31.952  1.00  0.00     0.301 C 
HETATM    3  N   UNL     1      -8.035   2.015 -32.785  1.00  0.00    -0.330 N 
HETATM    4  C   UNL     1      -8.761   3.271 -32.578  1.00  0.00     0.125 C 
HETATM    5  C   UNL     1      -8.242   4.211 -33.675  1.00  0.00     0.032 C 
HETATM    6  C   UNL     1      -6.837   3.702 -33.929  1.00  0.00     0.022 C 
HETATM    7  C   UNL     1      -6.992   2.194 -33.789  1.00  0.00     0.128 C 
HETATM    8  O   UNL     1      -9.031   0.980 -31.006  1.00  0.00    -0.254 OA
HETATM    9  H   UNL     1      -7.975  -0.867 -31.469  1.00  0.00     0.138 HD
ENDROOT
BRANCH   1  10
HETATM   10  C   UNL     1      -6.248  -0.449 -32.396  1.00  0.00     0.029 A 
HETATM   11  C   UNL     1      -5.319  -0.049 -31.402  1.00  0.00    -0.036 A 
HETATM   12  C   UNL     1      -3.947  -0.249 -31.631  1.00  0.00     0.009 A 
HETATM   13  C   UNL     1      -3.500  -0.871 -32.789  1.00  0.00     0.001 A 
HETATM   14  C   UNL     1      -4.423  -1.329 -33.723  1.00  0.00     0.009 A 
HETATM   15  C   UNL     1      -5.812  -1.141 -33.550  1.00  0.00    -0.036 A 
BRANCH  11  16
HETATM   16  C   UNL     1      -5.711   0.545 -30.064  1.00  0.00     0.036 C 
HETATM   17  C   UNL     1      -5.531   2.055 -30.009  1.00  0.00     0.010 C 
ENDBRANCH  11  16
BRANCH  15  18
HETATM   18  C   UNL     1      -6.686  -1.809 -34.597  1.00  0.00     0.036 C 
HETATM   19  C   UNL     1      -6.761  -3.323 -34.701  1.00  0.00     0.010 C 
ENDBRANCH  15  18
ENDBRANCH   1  10
BRANCH   4  20
HETATM   20  C   UNL     1     -10.255   3.146 -32.639  1.00  0.00     0.014 A 
HETATM   21  C   UNL     1     -11.079   2.424 -33.553  1.00  0.00     0.061 A 
HETATM   22  C   UNL     1     -10.677   1.554 -34.685  1.00  0.00     0.073 C 
HETATM   23  N   UNL     1     -12.383   2.593 -33.295  1.00  0.00    -0.179 NA
HETATM   24  N   UNL     1     -12.401   3.371 -32.208  1.00  0.00    -0.282 N 
HETATM   25  H   UNL     1     -13.302   3.607 -31.807  1.00  0.00     0.189 HD
HETATM   26  C   UNL     1     -11.164   3.762 -31.790  1.00  0.00     0.034 A 
HETATM   27  C   UNL     1     -10.970   4.652 -30.622  1.00  0.00     0.070 C 
ENDBRANCH   4  20
TORSDOF 4
ENDMDL
MODEL 3
REMARK VINA RESULT:      -7.5      3.753      6.971
REMARK  4 active torsions:
REMARK  status: ('A' for Active; 'I' for Inactive)
REMARK    1  A    between atoms: C_2  and  C_3 
REMARK    2  A    between atoms: C_4  and  N_5 
REMARK       I    between atoms: N_5  and  C_6 
REMARK       I    between atoms: C_6  and  N_7 
REMARK    3  A    between atoms: C_8  and  C_9 
REMARK    4  A    between atoms: C_21  and  C_22 
ROOT
HETATM    1  N   UNL     1      -7.044   1.864 -34.218  1.00  0.00    -0.209 NA
HETATM    2  C   UNL     1      -8.372   1.678 -33.941  1.00  0.00     0.301 C 
HETATM    3  N   UNL     1      -9.042   2.561 -33.134  1.00  0.00    -0.330 N 
HETATM    4  C   UNL     1     -10.485   2.422 -32.915  1.00  0.00     0.125 C 
HETATM    5  C   UNL     1     -10.847   3.560 -31.951  1.00  0.00     0.032 C 
HETATM    6  C   UNL     1      -9.563   3.776 -31.174  1.00  0.00     0.022 C 
HETATM    7  C   UNL     1      -8.488   3.562 -32.230  1.00  0.00     0.128 C 
HETATM    8  O   UNL     1      -8.933   0.742 -34.515  1.00  0.00    -0.254 OA
HETATM    9  H   UNL     1      -6.812   1.103 -34.850  1.00  0.00     0.138 HD
ENDROOT
BRANCH   1  10
HETATM   10  C   UNL     1      -6.022   2.033 -33.260  1.00  0.00     0.029 A 
HETATM   11  C   UNL     1      -5.646   0.963 -32.409  1.00  0.00    -0.036 A 
HETATM   12  C   UNL     1      -4.631   1.170 -31.460  1.00  0.00     0.009 A 
HETATM   13  C   UNL     1      -3.966   2.386 -31.381  1.00  0.00     0.001 A 
HETATM   14  C   UNL     1      -4.288   3.405 -32.271  1.00  0.00     0.009 A 
HETATM   15  C   UNL     1      -5.310   3.255 -33.233  1.00  0.00    -0.036 A 
BRANCH  11  16
HETATM   16  C   UNL     1      -6.240  -0.429 -32.484  1.00  0.00     0.036 C 
HETATM   17  C   UNL     1      -5.535  -1.322 -33.495  1.00  0.00     0.010 C 
ENDBRANCH  11  16
BRANCH  15  18
HETATM   18  C   UNL     1      -5.451   4.413 -34.206  1.00  0.00     0.036 C 
HETATM   19  C   UNL     1      -4.224   5.077 -34.812  1.00  0.00     0.010 C 
ENDBRANCH  15  18
ENDBRANCH   1  10
BRANCH   4  20
HETATM   20  C   UNL     1     -11.314   2.491 -34.164  1.00  0.00     0.014 A 
HETATM   21  C   UNL     1     -12.332   1.611 -34.640  1.00  0.00     0.061 A 
HETATM   22  C   UNL     1     -12.885   0.392 -34.001  1.00  0.00     0.073 C 
HETATM   23  N   UNL     1     -12.816   1.998 -35.827  1.00  0.00    -0.179 NA
HETATM   24  N   UNL     1     -12.158   3.132 -36.093  1.00  0.00    -0.282 N 
HETATM   25  H   UNL     1     -12.391   3.629 -36.945  1.00  0.00     0.189 HD
HETATM   26  C   UNL     1     -11.225   3.459 -35.154  1.00  0.00     0.034 A 
HETATM   27  C   UNL     1     -10.367   4.660 -35.280  1.00  0.00     0.070 C 
ENDBRANCH   4  20
TORSDOF 4
ENDMDL
MODEL 4
REMARK VINA RESULT:      -7.5      3.553      5.786
REMARK  4 active torsions:
REMARK  status: ('A' for Active; 'I' for Inactive)
REMARK    1  A    between atoms: C_2  and  C_3 
REMARK    2  A    between atoms: C_4  and  N_5 
REMARK       I    between atoms: N_5  and  C_6 
REMARK       I    between atoms: C_6  and  N_7 
REMARK    3  A    between atoms: C_8  and  C_9 
REMARK    4  A    between atoms: C_21  and  C_22 
ROOT
HETATM    1  N   UNL     1      -7.502  -0.281 -32.058  1.00  0.00    -0.209 NA
HETATM    2  C   UNL     1      -8.109   0.929 -31.851  1.00  0.00     0.301 C 
HETATM    3  N   UNL     1      -7.896   1.969 -32.719  1.00  0.00    -0.330 N 
HETATM    4  C   UNL     1      -8.621   3.233 -32.558  1.00  0.00     0.125 C 
HETATM    5  C   UNL     1      -8.095   4.133 -33.684  1.00  0.00     0.032 C 
HETATM    6  C   UNL     1      -6.689   3.613 -33.914  1.00  0.00     0.022 C 
HETATM    7  C   UNL     1      -6.848   2.111 -33.723  1.00  0.00     0.128 C 
HETATM    8  O   UNL     1      -8.904   0.998 -30.911  1.00  0.00    -0.254 OA
HETATM    9  H   UNL     1      -7.850  -0.867 -31.305  1.00  0.00     0.138 HD
ENDROOT
BRANCH   1  10
HETATM   10  C   UNL     1      -6.117  -0.484 -32.236  1.00  0.00     0.029 A 
HETATM   11  C   UNL     1      -5.622  -1.079 -33.423  1.00  0.00    -0.036 A 
HETATM   12  C   UNL     1      -4.237  -1.276 -33.562  1.00  0.00     0.009 A 
HETATM   13  C   UNL     1      -3.355  -0.854 -32.577  1.00  0.00     0.001 A 
HETATM   14  C   UNL     1      -3.844  -0.203 -31.449  1.00  0.00     0.009 A 
HETATM   15  C   UNL     1      -5.226   0.007 -31.253  1.00  0.00    -0.036 A 
BRANCH  11  16
HETATM   16  C   UNL     1      -6.492  -1.481 -34.598  1.00  0.00     0.036 C 
HETATM   17  C   UNL     1      -6.729  -2.982 -34.675  1.00  0.00     0.010 C 
ENDBRANCH  11  16
BRANCH  15  18
HETATM   18  C   UNL     1      -5.583   0.842 -30.035  1.00  0.00     0.036 C 
HETATM   19  C   UNL     1      -5.422   2.353 -30.051  1.00  0.00     0.010 C 
ENDBRANCH  15  18
ENDBRANCH   1  10
BRANCH   4  20
HETATM   20  C   UNL     1     -10.115   3.109 -32.623  1.00  0.00     0.014 A 
HETATM   21  C   UNL     1     -10.936   2.358 -33.517  1.00  0.00     0.061 A 
HETATM   22  C   UNL     1     -10.530   1.449 -34.616  1.00  0.00     0.073 C 
HETATM   23  N   UNL     1     -12.240   2.539 -33.271  1.00  0.00    -0.179 NA
HETATM   24  N   UNL     1     -12.263   3.353 -32.211  1.00  0.00    -0.282 N 
HETATM   25  H   UNL     1     -13.165   3.604 -31.823  1.00  0.00     0.189 HD
HETATM   26  C   UNL     1     -11.026   3.754 -31.800  1.00  0.00     0.034 A 
HETATM   27  C   UNL     1     -10.837   4.683 -30.662  1.00  0.00     0.070 C 
ENDBRANCH   4  20
TORSDOF 4
ENDMDL
MODEL 5
REMARK VINA RESULT:      -7.3      3.266      6.229
REMARK  4 active torsions:
REMARK  status: ('A' for Active; 'I' for Inactive)
REMARK    1  A    between atoms: C_2  and  C_3 
REMARK    2  A    between atoms: C_4  and  N_5 
REMARK       I    between atoms: N_5  and  C_6 
REMARK       I    between atoms: C_6  and  N_7 
REMARK    3  A    between atoms: C_8  and  C_9 
REMARK    4  A    between atoms: C_21  and  C_22 
ROOT
HETATM    1  N   UNL     1      -6.261   1.439 -34.038  1.00  0.00    -0.209 NA
HETATM    2  C   UNL     1      -7.622   1.543 -33.931  1.00  0.00     0.301 C 
HETATM    3  N   UNL     1      -8.185   2.213 -32.876  1.00  0.00    -0.330 N 
HETATM    4  C   UNL     1      -9.636   2.414 -32.810  1.00  0.00     0.125 C 
HETATM    5  C   UNL     1      -9.869   3.164 -31.492  1.00  0.00     0.032 C 
HETATM    6  C   UNL     1      -8.713   2.707 -30.625  1.00  0.00     0.022 C 
HETATM    7  C   UNL     1      -7.564   2.608 -31.618  1.00  0.00     0.128 C 
HETATM    8  O   UNL     1      -8.288   1.086 -34.862  1.00  0.00    -0.254 OA
HETATM    9  H   UNL     1      -6.116   0.935 -34.908  1.00  0.00     0.138 HD
ENDROOT
BRANCH   1  10
HETATM   10  C   UNL     1      -5.395   0.946 -33.038  1.00  0.00     0.029 A 
HETATM   11  C   UNL     1      -5.393  -0.431 -32.700  1.00  0.00    -0.036 A 
HETATM   12  C   UNL     1      -4.525  -0.885 -31.693  1.00  0.00     0.009 A 
HETATM   13  C   UNL     1      -3.644  -0.015 -31.065  1.00  0.00     0.001 A 
HETATM   14  C   UNL     1      -3.600   1.320 -31.456  1.00  0.00     0.009 A 
HETATM   15  C   UNL     1      -4.460   1.831 -32.452  1.00  0.00    -0.036 A 
BRANCH  11  16
HETATM   16  C   UNL     1      -6.241  -1.476 -33.396  1.00  0.00     0.036 C 
HETATM   17  C   UNL     1      -5.493  -2.211 -34.499  1.00  0.00     0.010 C 
ENDBRANCH  11  16
BRANCH  15  18
HETATM   18  C   UNL     1      -4.198   3.274 -32.848  1.00  0.00     0.036 C 
HETATM   19  C   UNL     1      -2.812   3.881 -32.710  1.00  0.00     0.010 C 
ENDBRANCH  15  18
ENDBRANCH   1  10
BRANCH   4  20
HETATM   20  C   UNL     1     -10.214   3.171 -33.970  1.00  0.00     0.014 A 
HETATM   21  C   UNL     1      -9.885   4.463 -34.479  1.00  0.00     0.061 A 
HETATM   22  C   UNL     1      -8.836   5.407 -34.021  1.00  0.00     0.073 C 
HETATM   23  N   UNL     1     -10.661   4.807 -35.515  1.00  0.00    -0.179 NA
HETATM   24  N   UNL     1     -11.446   3.741 -35.703  1.00  0.00    -0.282 N 
HETATM   25  H   UNL     1     -12.105   3.765 -36.472  1.00  0.00     0.189 HD
HETATM   26  C   UNL     1     -11.250   2.747 -34.790  1.00  0.00     0.034 A 
HETATM   27  C   UNL     1     -12.042   1.495 -34.805  1.00  0.00     0.070 C 
ENDBRANCH   4  20
TORSDOF 4
ENDMDL
MODEL 6
REMARK VINA RESULT:      -7.3      0.450      2.731
REMARK  4 active torsions:
REMARK  status: ('A' for Active; 'I' for Inactive)
REMARK    1  A    between atoms: C_2  and  C_3 
REMARK    2  A    between atoms: C_4  and  N_5 
REMARK       I    between atoms: N_5  and  C_6 
REMARK       I    between atoms: C_6  and  N_7 
REMARK    3  A    between atoms: C_8  and  C_9 
REMARK    4  A    between atoms: C_21  and  C_22 
ROOT
HETATM    1  N   UNL     1      -5.349   1.190 -31.287  1.00  0.00    -0.209 NA
HETATM    2  C   UNL     1      -4.482   2.206 -31.588  1.00  0.00     0.301 C 
HETATM    3  N   UNL     1      -4.841   3.182 -32.482  1.00  0.00    -0.330 N 
HETATM    4  C   UNL     1      -3.958   4.325 -32.731  1.00  0.00     0.125 C 
HETATM    5  C   UNL     1      -4.686   5.160 -33.793  1.00  0.00     0.032 C 
HETATM    6  C   UNL     1      -5.500   4.127 -34.547  1.00  0.00     0.022 C 
HETATM    7  C   UNL     1      -5.935   3.170 -33.446  1.00  0.00     0.128 C 
HETATM    8  O   UNL     1      -3.422   2.237 -30.958  1.00  0.00    -0.254 OA
HETATM    9  H   UNL     1      -4.856   0.639 -30.591  1.00  0.00     0.138 HD
ENDROOT
BRANCH   1  10
HETATM   10  C   UNL     1      -5.977   0.343 -32.225  1.00  0.00     0.029 A 
HETATM   11  C   UNL     1      -7.383   0.378 -32.402  1.00  0.00    -0.036 A 
HETATM   12  C   UNL     1      -7.975  -0.487 -33.338  1.00  0.00     0.009 A 
HETATM   13  C   UNL     1      -7.199  -1.334 -34.117  1.00  0.00     0.001 A 
HETATM   14  C   UNL     1      -5.814  -1.307 -33.991  1.00  0.00     0.009 A 
HETATM   15  C   UNL     1      -5.169  -0.469 -33.056  1.00  0.00    -0.036 A 
BRANCH  11  16
HETATM   16  C   UNL     1      -8.305   1.336 -31.674  1.00  0.00     0.036 C 
HETATM   17  C   UNL     1      -9.543   1.699 -32.483  1.00  0.00     0.010 C 
ENDBRANCH  11  16
BRANCH  15  18
HETATM   18  C   UNL     1      -3.652  -0.469 -33.133  1.00  0.00     0.036 C 
HETATM   19  C   UNL     1      -2.817  -1.143 -32.056  1.00  0.00     0.010 C 
ENDBRANCH  15  18
ENDBRANCH   1  10
BRANCH   4  20
HETATM   20  C   UNL     1      -3.648   5.151 -31.517  1.00  0.00     0.014 A 
HETATM   21  C   UNL     1      -4.527   5.758 -30.570  1.00  0.00     0.061 A 
HETATM   22  C   UNL     1      -6.008   5.703 -30.503  1.00  0.00     0.073 C 
HETATM   23  N   UNL     1      -3.860   6.452 -29.639  1.00  0.00    -0.179 NA
HETATM   24  N   UNL     1      -2.574   6.260 -29.948  1.00  0.00    -0.282 N 
HETATM   25  H   UNL     1      -1.872   6.674 -29.346  1.00  0.00     0.189 HD
HETATM   26  C   UNL     1      -2.385   5.520 -31.079  1.00  0.00     0.034 A 
HETATM   27  C   UNL     1      -1.034   5.222 -31.609  1.00  0.00     0.070 C 
ENDBRANCH   4  20
TORSDOF 4
ENDMDL
MODEL 7
REMARK VINA RESULT:      -7.3      3.723      7.028
REMARK  4 active torsions:
REMARK  status: ('A' for Active; 'I' for Inactive)
REMARK    1  A    between atoms: C_2  and  C_3 
REMARK    2  A    between atoms: C_4  and  N_5 
REMARK       I    between atoms: N_5  and  C_6 
REMARK       I    between atoms: C_6  and  N_7 
REMARK    3  A    between atoms: C_8  and  C_9 
REMARK    4  A    between atoms: C_21  and  C_22 
ROOT
HETATM    1  N   UNL     1      -6.985   1.836 -34.336  1.00  0.00    -0.209 NA
HETATM    2  C   UNL     1      -8.302   1.630 -34.023  1.00  0.00     0.301 C 
HETATM    3  N   UNL     1      -8.952   2.482 -33.168  1.00  0.00    -0.330 N 
HETATM    4  C   UNL     1     -10.386   2.324 -32.908  1.00  0.00     0.125 C 
HETATM    5  C   UNL     1     -10.726   3.428 -31.898  1.00  0.00     0.032 C 
HETATM    6  C   UNL     1      -9.420   3.630 -31.155  1.00  0.00     0.022 C 
HETATM    7  C   UNL     1      -8.377   3.459 -32.251  1.00  0.00     0.128 C 
HETATM    8  O   UNL     1      -8.874   0.708 -34.608  1.00  0.00    -0.254 OA
HETATM    9  H   UNL     1      -6.767   1.097 -34.998  1.00  0.00     0.138 HD
ENDROOT
BRANCH   1  10
HETATM   10  C   UNL     1      -5.934   1.983 -33.406  1.00  0.00     0.029 A 
HETATM   11  C   UNL     1      -5.234   3.211 -33.296  1.00  0.00    -0.036 A 
HETATM   12  C   UNL     1      -4.186   3.319 -32.367  1.00  0.00     0.009 A 
HETATM   13  C   UNL     1      -3.864   2.260 -31.530  1.00  0.00     0.001 A 
HETATM   14  C   UNL     1      -4.605   1.084 -31.592  1.00  0.00     0.009 A 
HETATM   15  C   UNL     1      -5.658   0.918 -32.517  1.00  0.00    -0.036 A 
BRANCH  11  16
HETATM   16  C   UNL     1      -5.575   4.456 -34.092  1.00  0.00     0.036 C 
HETATM   17  C   UNL     1      -4.369   5.060 -34.796  1.00  0.00     0.010 C 
ENDBRANCH  11  16
BRANCH  15  18
HETATM   18  C   UNL     1      -6.445  -0.373 -32.370  1.00  0.00     0.036 C 
HETATM   19  C   UNL     1      -6.318  -1.486 -33.397  1.00  0.00     0.010 C 
ENDBRANCH  15  18
ENDBRANCH   1  10
BRANCH   4  20
HETATM   20  C   UNL     1     -11.256   2.425 -34.127  1.00  0.00     0.014 A 
HETATM   21  C   UNL     1     -12.302   1.568 -34.582  1.00  0.00     0.061 A 
HETATM   22  C   UNL     1     -12.853   0.348 -33.943  1.00  0.00     0.073 C 
HETATM   23  N   UNL     1     -12.819   1.981 -35.747  1.00  0.00    -0.179 NA
HETATM   24  N   UNL     1     -12.153   3.108 -36.017  1.00  0.00    -0.282 N 
HETATM   25  H   UNL     1     -12.406   3.622 -36.853  1.00  0.00     0.189 HD
HETATM   26  C   UNL     1     -11.184   3.406 -35.105  1.00  0.00     0.034 A 
HETATM   27  C   UNL     1     -10.312   4.596 -35.242  1.00  0.00     0.070 C 
ENDBRANCH   4  20
TORSDOF 4
ENDMDL
MODEL 8
REMARK VINA RESULT:      -7.2      3.181      6.166
REMARK  4 active torsions:
REMARK  status: ('A' for Active; 'I' for Inactive)
REMARK    1  A    between atoms: C_2  and  C_3 
REMARK    2  A    between atoms: C_4  and  N_5 
REMARK       I    between atoms: N_5  and  C_6 
REMARK       I    between atoms: C_6  and  N_7 
REMARK    3  A    between atoms: C_8  and  C_9 
REMARK    4  A    between atoms: C_21  and  C_22 
ROOT
HETATM    1  N   UNL     1      -6.020   1.593 -34.023  1.00  0.00    -0.209 NA
HETATM    2  C   UNL     1      -7.387   1.637 -33.957  1.00  0.00     0.301 C 
HETATM    3  N   UNL     1      -8.011   2.209 -32.877  1.00  0.00    -0.330 N 
HETATM    4  C   UNL     1      -9.469   2.349 -32.849  1.00  0.00     0.125 C 
HETATM    5  C   UNL     1      -9.775   2.994 -31.491  1.00  0.00     0.032 C 
HETATM    6  C   UNL     1      -8.630   2.520 -30.617  1.00  0.00     0.022 C 
HETATM    7  C   UNL     1      -7.446   2.536 -31.574  1.00  0.00     0.128 C 
HETATM    8  O   UNL     1      -8.004   1.223 -34.940  1.00  0.00    -0.254 OA
HETATM    9  H   UNL     1      -5.827   1.157 -34.920  1.00  0.00     0.138 HD
ENDROOT
BRANCH   1  10
HETATM   10  C   UNL     1      -5.168   1.063 -33.030  1.00  0.00     0.029 A 
HETATM   11  C   UNL     1      -4.264   1.902 -32.332  1.00  0.00    -0.036 A 
HETATM   12  C   UNL     1      -3.423   1.338 -31.357  1.00  0.00     0.009 A 
HETATM   13  C   UNL     1      -3.502  -0.011 -31.042  1.00  0.00     0.001 A 
HETATM   14  C   UNL     1      -4.445  -0.812 -31.678  1.00  0.00     0.009 A 
HETATM   15  C   UNL     1      -5.303  -0.300 -32.675  1.00  0.00    -0.036 A 
BRANCH  11  16
HETATM   16  C   UNL     1      -4.172   3.402 -32.531  1.00  0.00     0.036 C 
HETATM   17  C   UNL     1      -2.805   3.853 -33.024  1.00  0.00     0.010 C 
ENDBRANCH  11  16
BRANCH  15  18
HETATM   18  C   UNL     1      -6.355  -1.273 -33.178  1.00  0.00     0.036 C 
HETATM   19  C   UNL     1      -6.173  -2.005 -34.498  1.00  0.00     0.010 C 
ENDBRANCH  15  18
ENDBRANCH   1  10
BRANCH   4  20
HETATM   20  C   UNL     1     -10.039   3.165 -33.972  1.00  0.00     0.014 A 
HETATM   21  C   UNL     1      -9.685   4.468 -34.433  1.00  0.00     0.061 A 
HETATM   22  C   UNL     1      -8.611   5.369 -33.948  1.00  0.00     0.073 C 
HETATM   23  N   UNL     1     -10.461   4.871 -35.448  1.00  0.00    -0.179 NA
HETATM   24  N   UNL     1     -11.272   3.831 -35.670  1.00  0.00    -0.282 N 
HETATM   25  H   UNL     1     -11.937   3.900 -36.431  1.00  0.00     0.189 HD
HETATM   26  C   UNL     1     -11.091   2.797 -34.799  1.00  0.00     0.034 A 
HETATM   27  C   UNL     1     -11.913   1.566 -34.856  1.00  0.00     0.070 C 
ENDBRANCH   4  20
TORSDOF 4
ENDMDL
MODEL 9
REMARK VINA RESULT:      -7.1      2.320      4.418
REMARK  4 active torsions:
REMARK  status: ('A' for Active; 'I' for Inactive)
REMARK    1  A    between atoms: C_2  and  C_3 
REMARK    2  A    between atoms: C_4  and  N_5 
REMARK       I    between atoms: N_5  and  C_6 
REMARK       I    between atoms: C_6  and  N_7 
REMARK    3  A    between atoms: C_8  and  C_9 
REMARK    4  A    between atoms: C_21  and  C_22 
ROOT
HETATM    1  N   UNL     1      -7.108   2.371 -33.958  1.00  0.00    -0.209 NA
HETATM    2  C   UNL     1      -6.515   3.384 -33.253  1.00  0.00     0.301 C 
HETATM    3  N   UNL     1      -6.457   3.333 -31.884  1.00  0.00    -0.330 N 
HETATM    4  C   UNL     1      -5.735   4.363 -31.131  1.00  0.00     0.125 C 
HETATM    5  C   UNL     1      -5.923   3.977 -29.658  1.00  0.00     0.032 C 
HETATM    6  C   UNL     1      -7.251   3.246 -29.659  1.00  0.00     0.022 C 
HETATM    7  C   UNL     1      -7.216   2.482 -30.976  1.00  0.00     0.128 C 
HETATM    8  O   UNL     1      -5.975   4.276 -33.911  1.00  0.00    -0.254 OA
HETATM    9  H   UNL     1      -6.986   2.639 -34.931  1.00  0.00     0.138 HD
ENDROOT
BRANCH   1  10
HETATM   10  C   UNL     1      -8.414   1.880 -33.747  1.00  0.00     0.029 A 
HETATM   11  C   UNL     1      -9.542   2.709 -33.973  1.00  0.00    -0.036 A 
HETATM   12  C   UNL     1     -10.828   2.191 -33.744  1.00  0.00     0.009 A 
HETATM   13  C   UNL     1     -11.004   0.872 -33.346  1.00  0.00     0.001 A 
HETATM   14  C   UNL     1      -9.896   0.044 -33.201  1.00  0.00     0.009 A 
HETATM   15  C   UNL     1      -8.582   0.518 -33.404  1.00  0.00    -0.036 A 
BRANCH  11  16
HETATM   16  C   UNL     1      -9.460   4.127 -34.503  1.00  0.00     0.036 C 
HETATM   17  C   UNL     1     -10.675   4.525 -35.328  1.00  0.00     0.010 C 
ENDBRANCH  11  16
BRANCH  15  18
HETATM   18  C   UNL     1      -7.498  -0.542 -33.327  1.00  0.00     0.036 C 
HETATM   19  C   UNL     1      -7.016  -1.259 -34.578  1.00  0.00     0.010 C 
ENDBRANCH  15  18
ENDBRANCH   1  10
BRANCH   4  20
HETATM   20  C   UNL     1      -4.279   4.482 -31.475  1.00  0.00     0.014 A 
HETATM   21  C   UNL     1      -3.272   3.475 -31.570  1.00  0.00     0.061 A 
HETATM   22  C   UNL     1      -3.401   2.008 -31.395  1.00  0.00     0.073 C 
HETATM   23  N   UNL     1      -2.073   3.991 -31.868  1.00  0.00    -0.179 NA
HETATM   24  N   UNL     1      -2.306   5.300 -32.007  1.00  0.00    -0.282 N 
HETATM   25  H   UNL     1      -1.530   5.896 -32.270  1.00  0.00     0.189 HD
HETATM   26  C   UNL     1      -3.597   5.658 -31.751  1.00  0.00     0.034 A 
HETATM   27  C   UNL     1      -4.052   7.066 -31.819  1.00  0.00     0.070 C 
ENDBRANCH   4  20
TORSDOF 4
ENDMDL
MODEL 10
REMARK VINA RESULT:      -7.0      2.716      3.231
REMARK  4 active torsions:
REMARK  status: ('A' for Active; 'I' for Inactive)
REMARK    1  A    between atoms: C_2  and  C_3 
REMARK    2  A    between atoms: C_4  and  N_5 
REMARK       I    between atoms: N_5  and  C_6 
REMARK       I    between atoms: C_6  and  N_7 
REMARK    3  A    between atoms: C_8  and  C_9 
REMARK    4  A    between atoms: C_21  and  C_22 
ROOT
HETATM    1  N   UNL     1      -7.258   0.909 -31.069  1.00  0.00    -0.209 NA
HETATM    2  C   UNL     1      -6.776   2.161 -30.795  1.00  0.00     0.301 C 
HETATM    3  N   UNL     1      -6.800   3.139 -31.756  1.00  0.00    -0.330 N 
HETATM    4  C   UNL     1      -6.379   4.506 -31.438  1.00  0.00     0.125 C 
HETATM    5  C   UNL     1      -6.520   5.277 -32.757  1.00  0.00     0.032 C 
HETATM    6  C   UNL     1      -6.309   4.206 -33.808  1.00  0.00     0.022 C 
HETATM    7  C   UNL     1      -6.991   2.991 -33.194  1.00  0.00     0.128 C 
HETATM    8  O   UNL     1      -6.411   2.374 -29.637  1.00  0.00    -0.254 OA
HETATM    9  H   UNL     1      -7.153   0.404 -30.194  1.00  0.00     0.138 HD
ENDROOT
BRANCH   1  10
HETATM   10  C   UNL     1      -6.860   0.096 -32.152  1.00  0.00     0.029 A 
HETATM   11  C   UNL     1      -5.530  -0.388 -32.241  1.00  0.00    -0.036 A 
HETATM   12  C   UNL     1      -5.166  -1.186 -33.338  1.00  0.00     0.009 A 
HETATM   13  C   UNL     1      -6.099  -1.541 -34.303  1.00  0.00     0.001 A 
HETATM   14  C   UNL     1      -7.420  -1.125 -34.168  1.00  0.00     0.009 A 
HETATM   15  C   UNL     1      -7.835  -0.310 -33.093  1.00  0.00    -0.036 A 
BRANCH  11  16
HETATM   16  C   UNL     1      -4.466  -0.141 -31.190  1.00  0.00     0.036 C 
HETATM   17  C   UNL     1      -3.093  -0.651 -31.604  1.00  0.00     0.010 C 
ENDBRANCH  11  16
BRANCH  15  18
HETATM   18  C   UNL     1      -9.330  -0.049 -33.025  1.00  0.00     0.036 C 
HETATM   19  C   UNL     1      -9.980   1.001 -33.911  1.00  0.00     0.010 C 
ENDBRANCH  15  18
ENDBRANCH   1  10
BRANCH   4  20
HETATM   20  C   UNL     1      -7.169   5.163 -30.344  1.00  0.00     0.014 A 
HETATM   21  C   UNL     1      -8.580   5.319 -30.197  1.00  0.00     0.061 A 
HETATM   22  C   UNL     1      -9.670   4.831 -31.077  1.00  0.00     0.073 C 
HETATM   23  N   UNL     1      -8.897   6.003 -29.089  1.00  0.00    -0.179 NA
HETATM   24  N   UNL     1      -7.717   6.245 -28.507  1.00  0.00    -0.282 N 
HETATM   25  H   UNL     1      -7.716   6.732 -27.619  1.00  0.00     0.189 HD
HETATM   26  C   UNL     1      -6.648   5.798 -29.226  1.00  0.00     0.034 A 
HETATM   27  C   UNL     1      -5.253   5.996 -28.769  1.00  0.00     0.070 C 
ENDBRANCH   4  20
TORSDOF 4
ENDMDL
