MODEL 1
REMARK VINA RESULT:      -9.0      0.000      0.000
REMARK  2 active torsions:
REMARK  status: ('A' for Active; 'I' for Inactive)
REMARK    1  A    between atoms: C_5  and  C_6 
REMARK    2  A    between atoms: C_9  and  C_10 
ROOT
HETATM    1  C   UNL     1      -6.640  -0.160 -32.725  1.00  0.00     0.220 C 
HETATM    2  N   UNL     1      -6.264   1.036 -33.456  1.00  0.00    -0.126 NA
HETATM    3  N   UNL     1      -5.438   1.810 -32.610  1.00  0.00    -0.126 NA
HETATM    4  C   UNL     1      -5.720   3.206 -32.883  1.00  0.00     0.220 C 
HETATM    5  N   UNL     1      -6.706   3.172 -33.932  1.00  0.00    -0.324 N 
HETATM    6  C   UNL     1      -7.165   1.871 -34.097  1.00  0.00     0.315 C 
HETATM    7  O   UNL     1      -8.216   1.567 -34.633  1.00  0.00    -0.252 OA
HETATM    8  C   UNL     1      -5.437   1.250 -31.343  1.00  0.00     0.315 C 
HETATM    9  O   UNL     1      -5.128   1.780 -30.291  1.00  0.00    -0.252 OA
HETATM   10  N   UNL     1      -5.966  -0.031 -31.460  1.00  0.00    -0.324 N 
HETATM   11  H   UNL     1      -7.299   3.951 -34.176  1.00  0.00     0.165 HD
HETATM   12  H   UNL     1      -6.210  -0.553 -30.633  1.00  0.00     0.165 HD
ENDROOT
BRANCH   1  13
HETATM   13  C   UNL     1      -6.259  -1.430 -33.445  1.00  0.00    -0.020 A 
HETATM   14  C   UNL     1      -7.223  -2.220 -34.094  1.00  0.00     0.011 A 
HETATM   15  C   UNL     1      -6.869  -3.422 -34.708  1.00  0.00     0.007 A 
HETATM   16  C   UNL     1      -5.542  -3.861 -34.692  1.00  0.00    -0.062 A 
HETATM   17  C   UNL     1      -5.157  -5.157 -35.341  1.00  0.00     0.048 C 
HETATM   18  C   UNL     1      -4.568  -3.054 -34.094  1.00  0.00     0.007 A 
HETATM   19  C   UNL     1      -4.922  -1.852 -33.475  1.00  0.00     0.011 A 
ENDBRANCH   1  13
BRANCH   4  20
HETATM   20  C   UNL     1      -4.490   3.983 -33.284  1.00  0.00    -0.020 A 
HETATM   21  C   UNL     1      -4.510   4.877 -34.369  1.00  0.00     0.011 A 
HETATM   22  C   UNL     1      -3.352   5.547 -34.768  1.00  0.00     0.007 A 
HETATM   23  C   UNL     1      -2.147   5.341 -34.089  1.00  0.00    -0.062 A 
HETATM   24  C   UNL     1      -0.900   6.052 -34.522  1.00  0.00     0.048 C 
HETATM   25  C   UNL     1      -2.131   4.496 -32.975  1.00  0.00     0.007 A 
HETATM   26  C   UNL     1      -3.289   3.822 -32.577  1.00  0.00     0.011 A 
ENDBRANCH   4  20
TORSDOF 2
ENDMDL
MODEL 2
REMARK VINA RESULT:      -9.0      0.126      7.039
REMARK  2 active torsions:
REMARK  status: ('A' for Active; 'I' for Inactive)
REMARK    1  A    between atoms: C_5  and  C_6 
REMARK    2  A    between atoms: C_9  and  C_10 
ROOT
HETATM    1  C   UNL     1      -5.633   3.304 -32.867  1.00  0.00     0.220 C 
HETATM    2  N   UNL     1      -5.364   1.901 -32.607  1.00  0.00    -0.126 NA
HETATM    3  N   UNL     1      -6.219   1.143 -33.438  1.00  0.00    -0.126 NA
HETATM    4  C   UNL     1      -6.594  -0.051 -32.706  1.00  0.00     0.220 C 
HETATM    5  N   UNL     1      -5.890   0.062 -31.454  1.00  0.00    -0.324 N 
HETATM    6  C   UNL     1      -5.342   1.335 -31.343  1.00  0.00     0.315 C 
HETATM    7  O   UNL     1      -5.002   1.856 -30.295  1.00  0.00    -0.252 OA
HETATM    8  C   UNL     1      -7.122   1.994 -34.056  1.00  0.00     0.315 C 
HETATM    9  O   UNL     1      -8.189   1.708 -34.568  1.00  0.00    -0.252 OA
HETATM   10  N   UNL     1      -6.642   3.289 -33.893  1.00  0.00    -0.324 N 
HETATM   11  H   UNL     1      -6.123  -0.461 -30.625  1.00  0.00     0.165 HD
HETATM   12  H   UNL     1      -7.229   4.077 -34.120  1.00  0.00     0.165 HD
ENDROOT
BRANCH   1  13
HETATM   13  C   UNL     1      -4.402   4.066 -33.291  1.00  0.00    -0.020 A 
HETATM   14  C   UNL     1      -4.413   4.902 -34.421  1.00  0.00     0.011 A 
HETATM   15  C   UNL     1      -3.253   5.557 -34.839  1.00  0.00     0.007 A 
HETATM   16  C   UNL     1      -2.057   5.397 -34.134  1.00  0.00    -0.062 A 
HETATM   17  C   UNL     1      -0.806   6.090 -34.584  1.00  0.00     0.048 C 
HETATM   18  C   UNL     1      -2.052   4.610 -32.977  1.00  0.00     0.007 A 
HETATM   19  C   UNL     1      -3.210   3.949 -32.561  1.00  0.00     0.011 A 
ENDBRANCH   1  13
BRANCH   4  20
HETATM   20  C   UNL     1      -6.247  -1.322 -33.441  1.00  0.00    -0.020 A 
HETATM   21  C   UNL     1      -7.234  -2.087 -34.086  1.00  0.00     0.011 A 
HETATM   22  C   UNL     1      -6.910  -3.292 -34.714  1.00  0.00     0.007 A 
HETATM   23  C   UNL     1      -5.593  -3.757 -34.713  1.00  0.00    -0.062 A 
HETATM   24  C   UNL     1      -5.245  -5.056 -35.379  1.00  0.00     0.048 C 
HETATM   25  C   UNL     1      -4.595  -2.975 -34.121  1.00  0.00     0.007 A 
HETATM   26  C   UNL     1      -4.919  -1.771 -33.489  1.00  0.00     0.011 A 
ENDBRANCH   4  20
TORSDOF 2
ENDMDL
MODEL 3
REMARK VINA RESULT:      -8.8      2.886      6.077
REMARK  2 active torsions:
REMARK  status: ('A' for Active; 'I' for Inactive)
REMARK    1  A    between atoms: C_5  and  C_6 
REMARK    2  A    between atoms: C_9  and  C_10 
ROOT
HETATM    1  C   UNL     1      -8.273   1.987 -32.045  1.00  0.00     0.220 C 
HETATM    2  N   UNL     1      -7.249   1.358 -32.860  1.00  0.00    -0.126 NA
HETATM    3  N   UNL     1      -6.548   0.450 -32.036  1.00  0.00    -0.126 NA
HETATM    4  C   UNL     1      -5.162   0.454 -32.463  1.00  0.00     0.220 C 
HETATM    5  N   UNL     1      -5.133   1.372 -33.572  1.00  0.00    -0.324 N 
HETATM    6  C   UNL     1      -6.342   2.054 -33.642  1.00  0.00     0.315 C 
HETATM    7  O   UNL     1      -6.510   3.114 -34.220  1.00  0.00    -0.252 OA
HETATM    8  C   UNL     1      -6.959   0.619 -30.723  1.00  0.00     0.315 C 
HETATM    9  O   UNL     1      -6.381   0.274 -29.708  1.00  0.00    -0.252 OA
HETATM   10  N   UNL     1      -8.130   1.369 -30.753  1.00  0.00    -0.324 N 
HETATM   11  H   UNL     1      -4.293   1.797 -33.932  1.00  0.00     0.165 HD
HETATM   12  H   UNL     1      -8.507   1.749 -29.899  1.00  0.00     0.165 HD
ENDROOT
BRANCH   1  13
HETATM   13  C   UNL     1      -9.661   1.810 -32.609  1.00  0.00    -0.020 A 
HETATM   14  C   UNL     1     -10.176   0.534 -32.895  1.00  0.00     0.011 A 
HETATM   15  C   UNL     1     -11.439   0.384 -33.471  1.00  0.00     0.007 A 
HETATM   16  C   UNL     1     -12.218   1.505 -33.770  1.00  0.00    -0.062 A 
HETATM   17  C   UNL     1     -13.571   1.351 -34.398  1.00  0.00     0.048 C 
HETATM   18  C   UNL     1     -11.734   2.776 -33.438  1.00  0.00     0.007 A 
HETATM   19  C   UNL     1     -10.468   2.928 -32.867  1.00  0.00     0.011 A 
ENDBRANCH   1  13
BRANCH   4  20
HETATM   20  C   UNL     1      -4.665  -0.919 -32.848  1.00  0.00    -0.020 A 
HETATM   21  C   UNL     1      -5.100  -1.550 -34.026  1.00  0.00     0.011 A 
HETATM   22  C   UNL     1      -4.680  -2.843 -34.343  1.00  0.00     0.007 A 
HETATM   23  C   UNL     1      -3.812  -3.533 -33.491  1.00  0.00    -0.062 A 
HETATM   24  C   UNL     1      -3.366  -4.925 -33.826  1.00  0.00     0.048 C 
HETATM   25  C   UNL     1      -3.330  -2.891 -32.346  1.00  0.00     0.007 A 
HETATM   26  C   UNL     1      -3.754  -1.598 -32.026  1.00  0.00     0.011 A 
ENDBRANCH   4  20
TORSDOF 2
ENDMDL
MODEL 4
REMARK VINA RESULT:      -8.7      2.885      5.689
REMARK  2 active torsions:
REMARK  status: ('A' for Active; 'I' for Inactive)
REMARK    1  A    between atoms: C_5  and  C_6 
REMARK    2  A    between atoms: C_9  and  C_10 
ROOT
HETATM    1  C   UNL     1      -5.169   0.415 -32.443  1.00  0.00     0.220 C 
HETATM    2  N   UNL     1      -6.546   0.469 -31.987  1.00  0.00    -0.126 NA
HETATM    3  N   UNL     1      -7.240   1.360 -32.835  1.00  0.00    -0.126 NA
HETATM    4  C   UNL     1      -8.227   2.052 -32.028  1.00  0.00     0.220 C 
HETATM    5  N   UNL     1      -8.073   1.486 -30.713  1.00  0.00    -0.324 N 
HETATM    6  C   UNL     1      -6.922   0.707 -30.675  1.00  0.00     0.315 C 
HETATM    7  O   UNL     1      -6.331   0.389 -29.658  1.00  0.00    -0.252 OA
HETATM    8  C   UNL     1      -6.332   1.995 -33.667  1.00  0.00     0.315 C 
HETATM    9  O   UNL     1      -6.482   3.033 -34.286  1.00  0.00    -0.252 OA
HETATM   10  N   UNL     1      -5.139   1.283 -33.591  1.00  0.00    -0.324 N 
HETATM   11  H   UNL     1      -8.420   1.914 -29.869  1.00  0.00     0.165 HD
HETATM   12  H   UNL     1      -4.296   1.668 -33.987  1.00  0.00     0.165 HD
ENDROOT
BRANCH   1  13
HETATM   13  C   UNL     1      -4.718  -0.986 -32.777  1.00  0.00    -0.020 A 
HETATM   14  C   UNL     1      -3.793  -1.668 -31.969  1.00  0.00     0.011 A 
HETATM   15  C   UNL     1      -3.338  -2.941 -32.319  1.00  0.00     0.007 A 
HETATM   16  C   UNL     1      -3.802  -3.563 -33.482  1.00  0.00    -0.062 A 
HETATM   17  C   UNL     1      -3.310  -4.926 -33.868  1.00  0.00     0.048 C 
HETATM   18  C   UNL     1      -4.763  -2.912 -34.262  1.00  0.00     0.007 A 
HETATM   19  C   UNL     1      -5.215  -1.635 -33.916  1.00  0.00     0.011 A 
ENDBRANCH   1  13
BRANCH   4  20
HETATM   20  C   UNL     1      -9.632   1.889 -32.556  1.00  0.00    -0.020 A 
HETATM   21  C   UNL     1     -10.114   0.639 -32.980  1.00  0.00     0.011 A 
HETATM   22  C   UNL     1     -11.395   0.511 -33.521  1.00  0.00     0.007 A 
HETATM   23  C   UNL     1     -12.224   1.629 -33.647  1.00  0.00    -0.062 A 
HETATM   24  C   UNL     1     -13.597   1.494 -34.236  1.00  0.00     0.048 C 
HETATM   25  C   UNL     1     -11.773   2.866 -33.176  1.00  0.00     0.007 A 
HETATM   26  C   UNL     1     -10.489   2.997 -32.638  1.00  0.00     0.011 A 
ENDBRANCH   4  20
TORSDOF 2
ENDMDL
MODEL 5
REMARK VINA RESULT:      -8.5      3.283      6.868
REMARK  2 active torsions:
REMARK  status: ('A' for Active; 'I' for Inactive)
REMARK    1  A    between atoms: C_5  and  C_6 
REMARK    2  A    between atoms: C_9  and  C_10 
ROOT
HETATM    1  C   UNL     1      -8.204   3.026 -31.454  1.00  0.00     0.220 C 
HETATM    2  N   UNL     1      -7.677   2.305 -32.598  1.00  0.00    -0.126 NA
HETATM    3  N   UNL     1      -7.039   1.143 -32.112  1.00  0.00    -0.126 NA
HETATM    4  C   UNL     1      -5.893   0.884 -32.963  1.00  0.00     0.220 C 
HETATM    5  N   UNL     1      -5.942   1.928 -33.954  1.00  0.00    -0.324 N 
HETATM    6  C   UNL     1      -6.886   2.878 -33.581  1.00  0.00     0.315 C 
HETATM    7  O   UNL     1      -6.921   4.023 -33.997  1.00  0.00    -0.252 OA
HETATM    8  C   UNL     1      -6.984   1.201 -30.729  1.00  0.00     0.315 C 
HETATM    9  O   UNL     1      -6.250   0.579 -29.982  1.00  0.00    -0.252 OA
HETATM   10  N   UNL     1      -7.862   2.202 -30.325  1.00  0.00    -0.324 N 
HETATM   11  H   UNL     1      -5.163   2.193 -34.535  1.00  0.00     0.165 HD
HETATM   12  H   UNL     1      -7.853   2.525 -29.370  1.00  0.00     0.165 HD
ENDROOT
BRANCH   1  13
HETATM   13  C   UNL     1      -9.690   3.270 -31.550  1.00  0.00    -0.020 A 
HETATM   14  C   UNL     1     -10.429   2.847 -32.668  1.00  0.00     0.011 A 
HETATM   15  C   UNL     1     -11.792   3.129 -32.774  1.00  0.00     0.007 A 
HETATM   16  C   UNL     1     -12.450   3.834 -31.762  1.00  0.00    -0.062 A 
HETATM   17  C   UNL     1     -13.912   4.148 -31.875  1.00  0.00     0.048 C 
HETATM   18  C   UNL     1     -11.732   4.211 -30.622  1.00  0.00     0.007 A 
HETATM   19  C   UNL     1     -10.366   3.934 -30.517  1.00  0.00     0.011 A 
ENDBRANCH   1  13
BRANCH   4  20
HETATM   20  C   UNL     1      -5.924  -0.491 -33.584  1.00  0.00    -0.020 A 
HETATM   21  C   UNL     1      -7.129  -1.071 -34.017  1.00  0.00     0.011 A 
HETATM   22  C   UNL     1      -7.154  -2.367 -34.536  1.00  0.00     0.007 A 
HETATM   23  C   UNL     1      -5.975  -3.111 -34.637  1.00  0.00    -0.062 A 
HETATM   24  C   UNL     1      -6.003  -4.507 -35.186  1.00  0.00     0.048 C 
HETATM   25  C   UNL     1      -4.765  -2.522 -34.259  1.00  0.00     0.007 A 
HETATM   26  C   UNL     1      -4.739  -1.226 -33.735  1.00  0.00     0.011 A 
ENDBRANCH   4  20
TORSDOF 2
ENDMDL
MODEL 6
REMARK VINA RESULT:      -8.4      3.051      4.893
REMARK  2 active torsions:
REMARK  status: ('A' for Active; 'I' for Inactive)
REMARK    1  A    between atoms: C_5  and  C_6 
REMARK    2  A    between atoms: C_9  and  C_10 
ROOT
HETATM    1  C   UNL     1      -5.058   0.662 -32.216  1.00  0.00     0.220 C 
HETATM    2  N   UNL     1      -6.117   1.109 -31.329  1.00  0.00    -0.126 NA
HETATM    3  N   UNL     1      -6.382   2.463 -31.633  1.00  0.00    -0.126 NA
HETATM    4  C   UNL     1      -6.727   3.129 -30.392  1.00  0.00     0.220 C 
HETATM    5  N   UNL     1      -6.674   2.086 -29.400  1.00  0.00    -0.324 N 
HETATM    6  C   UNL     1      -6.098   0.948 -29.954  1.00  0.00     0.315 C 
HETATM    7  O   UNL     1      -5.598   0.040 -29.313  1.00  0.00    -0.252 OA
HETATM    8  C   UNL     1      -5.426   2.924 -32.523  1.00  0.00     0.315 C 
HETATM    9  O   UNL     1      -5.121   4.078 -32.763  1.00  0.00    -0.252 OA
HETATM   10  N   UNL     1      -4.774   1.808 -33.039  1.00  0.00    -0.324 N 
HETATM   11  H   UNL     1      -6.610   2.252 -28.408  1.00  0.00     0.165 HD
HETATM   12  H   UNL     1      -3.930   1.922 -33.579  1.00  0.00     0.165 HD
ENDROOT
BRANCH   1  13
HETATM   13  C   UNL     1      -5.451  -0.543 -33.036  1.00  0.00    -0.020 A 
HETATM   14  C   UNL     1      -6.788  -0.773 -33.401  1.00  0.00     0.011 A 
HETATM   15  C   UNL     1      -7.150  -1.920 -34.110  1.00  0.00     0.007 A 
HETATM   16  C   UNL     1      -6.183  -2.861 -34.474  1.00  0.00    -0.062 A 
HETATM   17  C   UNL     1      -6.567  -4.100 -35.227  1.00  0.00     0.048 C 
HETATM   18  C   UNL     1      -4.842  -2.611 -34.161  1.00  0.00     0.007 A 
HETATM   19  C   UNL     1      -4.479  -1.466 -33.447  1.00  0.00     0.011 A 
ENDBRANCH   1  13
BRANCH   4  20
HETATM   20  C   UNL     1      -8.081   3.796 -30.443  1.00  0.00    -0.020 A 
HETATM   21  C   UNL     1      -9.261   3.047 -30.585  1.00  0.00     0.011 A 
HETATM   22  C   UNL     1     -10.502   3.677 -30.690  1.00  0.00     0.007 A 
HETATM   23  C   UNL     1     -10.592   5.071 -30.652  1.00  0.00    -0.062 A 
HETATM   24  C   UNL     1     -11.924   5.750 -30.773  1.00  0.00     0.048 C 
HETATM   25  C   UNL     1      -9.429   5.822 -30.455  1.00  0.00     0.007 A 
HETATM   26  C   UNL     1      -8.185   5.192 -30.354  1.00  0.00     0.011 A 
ENDBRANCH   4  20
TORSDOF 2
ENDMDL
MODEL 7
REMARK VINA RESULT:      -8.3      2.088      7.323
REMARK  2 active torsions:
REMARK  status: ('A' for Active; 'I' for Inactive)
REMARK    1  A    between atoms: C_5  and  C_6 
REMARK    2  A    between atoms: C_9  and  C_10 
ROOT
HETATM    1  C   UNL     1      -4.781   5.070 -31.701  1.00  0.00     0.220 C 
HETATM    2  N   UNL     1      -5.002   3.641 -31.566  1.00  0.00    -0.126 NA
HETATM    3  N   UNL     1      -5.628   3.193 -32.750  1.00  0.00    -0.126 NA
HETATM    4  C   UNL     1      -6.549   2.135 -32.384  1.00  0.00     0.220 C 
HETATM    5  N   UNL     1      -6.384   1.995 -30.960  1.00  0.00    -0.324 N 
HETATM    6  C   UNL     1      -5.619   3.049 -30.476  1.00  0.00     0.315 C 
HETATM    7  O   UNL     1      -5.593   3.413 -29.313  1.00  0.00    -0.252 OA
HETATM    8  C   UNL     1      -5.970   4.290 -33.525  1.00  0.00     0.315 C 
HETATM    9  O   UNL     1      -6.788   4.344 -34.426  1.00  0.00    -0.252 OA
HETATM   10  N   UNL     1      -5.279   5.384 -33.015  1.00  0.00    -0.324 N 
HETATM   11  H   UNL     1      -7.047   1.534 -30.357  1.00  0.00     0.165 HD
HETATM   12  H   UNL     1      -5.510   6.315 -33.324  1.00  0.00     0.165 HD
ENDROOT
BRANCH   1  13
HETATM   13  C   UNL     1      -3.332   5.456 -31.535  1.00  0.00    -0.020 A 
HETATM   14  C   UNL     1      -2.932   6.391 -30.566  1.00  0.00     0.011 A 
HETATM   15  C   UNL     1      -1.597   6.785 -30.458  1.00  0.00     0.007 A 
HETATM   16  C   UNL     1      -0.631   6.250 -31.314  1.00  0.00    -0.062 A 
HETATM   17  C   UNL     1       0.803   6.677 -31.211  1.00  0.00     0.048 C 
HETATM   18  C   UNL     1      -1.013   5.278 -32.246  1.00  0.00     0.007 A 
HETATM   19  C   UNL     1      -2.350   4.887 -32.358  1.00  0.00     0.011 A 
ENDBRANCH   1  13
BRANCH   4  20
HETATM   20  C   UNL     1      -6.279   0.843 -33.117  1.00  0.00    -0.020 A 
HETATM   21  C   UNL     1      -6.958   0.520 -34.304  1.00  0.00     0.011 A 
HETATM   22  C   UNL     1      -6.743  -0.703 -34.943  1.00  0.00     0.007 A 
HETATM   23  C   UNL     1      -5.842  -1.629 -34.411  1.00  0.00    -0.062 A 
HETATM   24  C   UNL     1      -5.617  -2.947 -35.091  1.00  0.00     0.048 C 
HETATM   25  C   UNL     1      -5.121  -1.292 -33.261  1.00  0.00     0.007 A 
HETATM   26  C   UNL     1      -5.338  -0.070 -32.618  1.00  0.00     0.011 A 
ENDBRANCH   4  20
TORSDOF 2
ENDMDL
MODEL 8
REMARK VINA RESULT:      -8.3      2.120      2.779
REMARK  2 active torsions:
REMARK  status: ('A' for Active; 'I' for Inactive)
REMARK    1  A    between atoms: C_5  and  C_6 
REMARK    2  A    between atoms: C_9  and  C_10 
ROOT
HETATM    1  C   UNL     1      -6.636   2.254 -32.392  1.00  0.00     0.220 C 
HETATM    2  N   UNL     1      -5.698   3.298 -32.764  1.00  0.00    -0.126 NA
HETATM    3  N   UNL     1      -5.066   3.742 -31.582  1.00  0.00    -0.126 NA
HETATM    4  C   UNL     1      -4.824   5.165 -31.724  1.00  0.00     0.220 C 
HETATM    5  N   UNL     1      -5.318   5.481 -33.039  1.00  0.00    -0.324 N 
HETATM    6  C   UNL     1      -6.026   4.396 -33.543  1.00  0.00     0.315 C 
HETATM    7  O   UNL     1      -6.843   4.457 -34.444  1.00  0.00    -0.252 OA
HETATM    8  C   UNL     1      -5.690   3.164 -30.488  1.00  0.00     0.315 C 
HETATM    9  O   UNL     1      -5.660   3.532 -29.328  1.00  0.00    -0.252 OA
HETATM   10  N   UNL     1      -6.473   2.119 -30.968  1.00  0.00    -0.324 N 
HETATM   11  H   UNL     1      -5.536   6.414 -33.353  1.00  0.00     0.165 HD
HETATM   12  H   UNL     1      -7.141   1.670 -30.362  1.00  0.00     0.165 HD
ENDROOT
BRANCH   1  13
HETATM   13  C   UNL     1      -6.385   0.956 -33.119  1.00  0.00    -0.020 A 
HETATM   14  C   UNL     1      -6.985   0.686 -34.360  1.00  0.00     0.011 A 
HETATM   15  C   UNL     1      -6.792  -0.541 -34.997  1.00  0.00     0.007 A 
HETATM   16  C   UNL     1      -5.992  -1.525 -34.410  1.00  0.00    -0.062 A 
HETATM   17  C   UNL     1      -5.790  -2.849 -35.084  1.00  0.00     0.048 C 
HETATM   18  C   UNL     1      -5.349  -1.243 -33.200  1.00  0.00     0.007 A 
HETATM   19  C   UNL     1      -5.545  -0.017 -32.559  1.00  0.00     0.011 A 
ENDBRANCH   1  13
BRANCH   4  20
HETATM   20  C   UNL     1      -3.369   5.531 -31.560  1.00  0.00    -0.020 A 
HETATM   21  C   UNL     1      -2.942   6.389 -30.532  1.00  0.00     0.011 A 
HETATM   22  C   UNL     1      -1.603   6.768 -30.424  1.00  0.00     0.007 A 
HETATM   23  C   UNL     1      -0.659   6.295 -31.340  1.00  0.00    -0.062 A 
HETATM   24  C   UNL     1       0.779   6.708 -31.231  1.00  0.00     0.048 C 
HETATM   25  C   UNL     1      -1.065   5.397 -32.333  1.00  0.00     0.007 A 
HETATM   26  C   UNL     1      -2.407   5.021 -32.444  1.00  0.00     0.011 A 
ENDBRANCH   4  20
TORSDOF 2
ENDMDL
MODEL 9
REMARK VINA RESULT:      -8.3      3.940      8.528
REMARK  2 active torsions:
REMARK  status: ('A' for Active; 'I' for Inactive)
REMARK    1  A    between atoms: C_5  and  C_6 
REMARK    2  A    between atoms: C_9  and  C_10 
ROOT
HETATM    1  C   UNL     1      -2.391   7.328 -32.554  1.00  0.00     0.220 C 
HETATM    2  N   UNL     1      -3.498   6.429 -32.282  1.00  0.00    -0.126 NA
HETATM    3  N   UNL     1      -3.462   5.404 -33.253  1.00  0.00    -0.126 NA
HETATM    4  C   UNL     1      -4.833   5.039 -33.554  1.00  0.00     0.220 C 
HETATM    5  N   UNL     1      -5.623   5.876 -32.689  1.00  0.00    -0.324 N 
HETATM    6  C   UNL     1      -4.809   6.840 -32.106  1.00  0.00     0.315 C 
HETATM    7  O   UNL     1      -5.207   7.885 -31.621  1.00  0.00    -0.252 OA
HETATM    8  C   UNL     1      -2.513   5.722 -34.212  1.00  0.00     0.315 C 
HETATM    9  O   UNL     1      -2.415   5.281 -35.343  1.00  0.00    -0.252 OA
HETATM   10  N   UNL     1      -1.727   6.744 -33.689  1.00  0.00    -0.324 N 
HETATM   11  H   UNL     1      -6.605   6.059 -32.822  1.00  0.00     0.165 HD
HETATM   12  H   UNL     1      -1.083   7.240 -34.285  1.00  0.00     0.165 HD
ENDROOT
BRANCH   1  13
HETATM   13  C   UNL     1      -1.464   7.489 -31.373  1.00  0.00    -0.020 A 
HETATM   14  C   UNL     1      -0.199   6.877 -31.350  1.00  0.00     0.011 A 
HETATM   15  C   UNL     1       0.627   6.984 -30.229  1.00  0.00     0.007 A 
HETATM   16  C   UNL     1       0.210   7.708 -29.109  1.00  0.00    -0.062 A 
HETATM   17  C   UNL     1       1.088   7.818 -27.899  1.00  0.00     0.048 C 
HETATM   18  C   UNL     1      -1.026   8.364 -29.147  1.00  0.00     0.007 A 
HETATM   19  C   UNL     1      -1.856   8.254 -30.266  1.00  0.00     0.011 A 
ENDBRANCH   1  13
BRANCH   4  20
HETATM   20  C   UNL     1      -5.109   3.571 -33.332  1.00  0.00    -0.020 A 
HETATM   21  C   UNL     1      -4.298   2.794 -32.488  1.00  0.00     0.011 A 
HETATM   22  C   UNL     1      -4.527   1.425 -32.335  1.00  0.00     0.007 A 
HETATM   23  C   UNL     1      -5.574   0.803 -33.021  1.00  0.00    -0.062 A 
HETATM   24  C   UNL     1      -5.816  -0.669 -32.865  1.00  0.00     0.048 C 
HETATM   25  C   UNL     1      -6.420   1.580 -33.820  1.00  0.00     0.007 A 
HETATM   26  C   UNL     1      -6.189   2.949 -33.976  1.00  0.00     0.011 A 
ENDBRANCH   4  20
TORSDOF 2
ENDMDL
MODEL 10
REMARK VINA RESULT:      -8.1      2.831      6.902
REMARK  2 active torsions:
REMARK  status: ('A' for Active; 'I' for Inactive)
REMARK    1  A    between atoms: C_5  and  C_6 
REMARK    2  A    between atoms: C_9  and  C_10 
ROOT
HETATM    1  C   UNL     1      -4.809   2.712 -31.199  1.00  0.00     0.220 C 
HETATM    2  N   UNL     1      -5.697   1.902 -32.014  1.00  0.00    -0.126 NA
HETATM    3  N   UNL     1      -7.021   2.191 -31.616  1.00  0.00    -0.126 NA
HETATM    4  C   UNL     1      -7.788   0.966 -31.727  1.00  0.00     0.220 C 
HETATM    5  N   UNL     1      -6.846  -0.000 -32.232  1.00  0.00    -0.324 N 
HETATM    6  C   UNL     1      -5.564   0.534 -32.185  1.00  0.00     0.315 C 
HETATM    7  O   UNL     1      -4.537  -0.122 -32.202  1.00  0.00    -0.252 OA
HETATM    8  C   UNL     1      -6.990   2.990 -30.484  1.00  0.00     0.315 C 
HETATM    9  O   UNL     1      -7.880   3.174 -29.673  1.00  0.00    -0.252 OA
HETATM   10  N   UNL     1      -5.694   3.479 -30.363  1.00  0.00    -0.324 N 
HETATM   11  H   UNL     1      -6.979  -0.998 -32.183  1.00  0.00     0.165 HD
HETATM   12  H   UNL     1      -5.408   3.946 -29.516  1.00  0.00     0.165 HD
ENDROOT
BRANCH   1  13
HETATM   13  C   UNL     1      -3.900   3.591 -32.022  1.00  0.00    -0.020 A 
HETATM   14  C   UNL     1      -4.331   4.156 -33.234  1.00  0.00     0.011 A 
HETATM   15  C   UNL     1      -3.463   4.921 -34.017  1.00  0.00     0.007 A 
HETATM   16  C   UNL     1      -2.146   5.142 -33.603  1.00  0.00    -0.062 A 
HETATM   17  C   UNL     1      -1.207   5.954 -34.444  1.00  0.00     0.048 C 
HETATM   18  C   UNL     1      -1.727   4.628 -32.371  1.00  0.00     0.007 A 
HETATM   19  C   UNL     1      -2.592   3.858 -31.590  1.00  0.00     0.011 A 
ENDBRANCH   1  13
BRANCH   4  20
HETATM   20  C   UNL     1      -8.992   1.108 -32.627  1.00  0.00    -0.020 A 
HETATM   21  C   UNL     1      -9.127   2.201 -33.500  1.00  0.00     0.011 A 
HETATM   22  C   UNL     1     -10.272   2.354 -34.284  1.00  0.00     0.007 A 
HETATM   23  C   UNL     1     -11.306   1.417 -34.216  1.00  0.00    -0.062 A 
HETATM   24  C   UNL     1     -12.541   1.585 -35.051  1.00  0.00     0.048 C 
HETATM   25  C   UNL     1     -11.156   0.298 -33.391  1.00  0.00     0.007 A 
HETATM   26  C   UNL     1     -10.012   0.145 -32.602  1.00  0.00     0.011 A 
ENDBRANCH   4  20
TORSDOF 2
ENDMDL
