MODEL 1
REMARK VINA RESULT:      -8.2      0.000      0.000
REMARK  3 active torsions:
REMARK  status: ('A' for Active; 'I' for Inactive)
REMARK    1  A    between atoms: C_4  and  N_5 
REMARK       I    between atoms: N_5  and  C_6 
REMARK    2  A    between atoms: C_6  and  C_7 
REMARK    3  A    between atoms: C_7  and  C_8 
ROOT
HETATM    1  C   UNL     1      -8.140   2.714 -34.238  1.00  0.00     0.286 C 
HETATM    2  N   UNL     1      -9.378   1.855 -34.471  1.00  0.00    -0.056 N 
HETATM    3  H   UNL     1      -9.657   1.949 -35.455  1.00  0.00     0.278 HD
HETATM    4  H   UNL     1      -9.091   0.857 -34.364  1.00  0.00     0.278 HD
HETATM    5  C   UNL     1     -10.530   2.147 -33.550  1.00  0.00     0.209 C 
HETATM    6  C   UNL     1     -10.905   3.642 -33.695  1.00  0.00     0.115 C 
HETATM    7  N   UNL     1      -9.736   4.510 -33.557  1.00  0.00    -0.353 N 
HETATM    8  C   UNL     1      -8.475   4.198 -34.000  1.00  0.00     0.249 C 
HETATM    9  O   UNL     1      -7.622   5.074 -34.096  1.00  0.00    -0.271 OA
HETATM   10  C   UNL     1     -11.688   1.207 -33.882  1.00  0.00     0.035 C 
HETATM   11  C   UNL     1     -12.374   1.536 -35.206  1.00  0.00     0.002 C 
HETATM   12  C   UNL     1     -12.793   3.001 -35.269  1.00  0.00     0.002 C 
HETATM   13  C   UNL     1     -11.612   3.936 -35.026  1.00  0.00     0.027 C 
HETATM   14  H   UNL     1      -9.887   5.506 -33.410  1.00  0.00     0.163 HD
ENDROOT
BRANCH   1  15
HETATM   15  C   UNL     1      -7.284   2.222 -33.061  1.00  0.00     0.146 C 
BRANCH  15  16
HETATM   16  C   UNL     1      -7.119   0.722 -33.063  1.00  0.00     0.224 C 
HETATM   17  N   UNL     1      -6.227   0.255 -33.998  1.00  0.00    -0.327 N 
HETATM   18  H   UNL     1      -5.941   0.877 -34.747  1.00  0.00     0.169 HD
HETATM   19  O   UNL     1      -7.737   0.055 -32.232  1.00  0.00    -0.273 OA
BRANCH  17  20
HETATM   20  C   UNL     1      -5.724  -1.062 -34.097  1.00  0.00     0.035 A 
HETATM   21  C   UNL     1      -6.405  -2.104 -34.734  1.00  0.00     0.036 A 
HETATM   22  C   UNL     1      -5.877  -3.404 -34.747  1.00  0.00    -0.060 A 
HETATM   23  C   UNL     1      -6.620  -4.520 -35.425  1.00  0.00     0.048 C 
HETATM   24  C   UNL     1      -4.632  -3.645 -34.159  1.00  0.00     0.007 A 
HETATM   25  C   UNL     1      -3.946  -2.612 -33.524  1.00  0.00     0.003 A 
HETATM   26  C   UNL     1      -4.496  -1.329 -33.482  1.00  0.00     0.029 A 
ENDBRANCH  17  20
ENDBRANCH  15  16
ENDBRANCH   1  15
TORSDOF 3
ENDMDL
MODEL 2
REMARK VINA RESULT:      -8.1      4.132      6.042
REMARK  3 active torsions:
REMARK  status: ('A' for Active; 'I' for Inactive)
REMARK    1  A    between atoms: C_4  and  N_5 
REMARK       I    between atoms: N_5  and  C_6 
REMARK    2  A    between atoms: C_6  and  C_7 
REMARK    3  A    between atoms: C_7  and  C_8 
ROOT
HETATM    1  C   UNL     1      -4.319   2.235 -31.952  1.00  0.00     0.286 C 
HETATM    2  N   UNL     1      -3.230   2.950 -32.745  1.00  0.00    -0.056 N 
HETATM    3  H   UNL     1      -2.351   2.888 -32.218  1.00  0.00     0.278 HD
HETATM    4  H   UNL     1      -3.063   2.398 -33.616  1.00  0.00     0.278 HD
HETATM    5  C   UNL     1      -3.548   4.374 -33.108  1.00  0.00     0.209 C 
HETATM    6  C   UNL     1      -3.835   5.158 -31.805  1.00  0.00     0.115 C 
HETATM    7  N   UNL     1      -4.819   4.473 -30.967  1.00  0.00    -0.353 N 
HETATM    8  C   UNL     1      -4.927   3.111 -30.842  1.00  0.00     0.249 C 
HETATM    9  O   UNL     1      -5.581   2.626 -29.925  1.00  0.00    -0.271 OA
HETATM   10  C   UNL     1      -2.385   4.958 -33.911  1.00  0.00     0.035 C 
HETATM   11  C   UNL     1      -1.138   5.217 -33.069  1.00  0.00     0.002 C 
HETATM   12  C   UNL     1      -1.460   6.057 -31.838  1.00  0.00     0.002 C 
HETATM   13  C   UNL     1      -2.558   5.421 -30.992  1.00  0.00     0.027 C 
HETATM   14  H   UNL     1      -5.252   4.993 -30.205  1.00  0.00     0.163 HD
ENDROOT
BRANCH   1  15
HETATM   15  C   UNL     1      -5.463   1.722 -32.839  1.00  0.00     0.146 C 
BRANCH  15  16
HETATM   16  C   UNL     1      -5.646   0.228 -32.730  1.00  0.00     0.224 C 
HETATM   17  N   UNL     1      -5.670  -0.425 -33.939  1.00  0.00    -0.327 N 
HETATM   18  H   UNL     1      -5.806   0.122 -34.782  1.00  0.00     0.169 HD
HETATM   19  O   UNL     1      -5.714  -0.283 -31.612  1.00  0.00    -0.273 OA
BRANCH  17  20
HETATM   20  C   UNL     1      -5.625  -1.823 -34.141  1.00  0.00     0.035 A 
HETATM   21  C   UNL     1      -4.493  -2.605 -33.889  1.00  0.00     0.036 A 
HETATM   22  C   UNL     1      -4.494  -3.981 -34.165  1.00  0.00    -0.060 A 
HETATM   23  C   UNL     1      -3.271  -4.811 -33.901  1.00  0.00     0.048 C 
HETATM   24  C   UNL     1      -5.659  -4.581 -34.652  1.00  0.00     0.007 A 
HETATM   25  C   UNL     1      -6.792  -3.810 -34.903  1.00  0.00     0.003 A 
HETATM   26  C   UNL     1      -6.770  -2.436 -34.662  1.00  0.00     0.029 A 
ENDBRANCH  17  20
ENDBRANCH  15  16
ENDBRANCH   1  15
TORSDOF 3
ENDMDL
MODEL 3
REMARK VINA RESULT:      -8.1      2.603      3.302
REMARK  3 active torsions:
REMARK  status: ('A' for Active; 'I' for Inactive)
REMARK    1  A    between atoms: C_4  and  N_5 
REMARK       I    between atoms: N_5  and  C_6 
REMARK    2  A    between atoms: C_6  and  C_7 
REMARK    3  A    between atoms: C_7  and  C_8 
ROOT
HETATM    1  C   UNL     1     -11.630   1.791 -33.825  1.00  0.00     0.286 C 
HETATM    2  N   UNL     1     -11.715   2.444 -32.450  1.00  0.00    -0.056 N 
HETATM    3  H   UNL     1     -12.492   2.014 -31.934  1.00  0.00     0.278 HD
HETATM    4  H   UNL     1     -10.856   2.176 -31.922  1.00  0.00     0.278 HD
HETATM    5  C   UNL     1     -11.841   3.943 -32.472  1.00  0.00     0.209 C 
HETATM    6  C   UNL     1     -13.096   4.316 -33.298  1.00  0.00     0.115 C 
HETATM    7  N   UNL     1     -13.103   3.651 -34.601  1.00  0.00    -0.353 N 
HETATM    8  C   UNL     1     -12.628   2.385 -34.836  1.00  0.00     0.249 C 
HETATM    9  O   UNL     1     -12.916   1.802 -35.875  1.00  0.00    -0.271 OA
HETATM   10  C   UNL     1     -11.898   4.462 -31.035  1.00  0.00     0.035 C 
HETATM   11  C   UNL     1     -13.212   4.139 -30.327  1.00  0.00     0.002 C 
HETATM   12  C   UNL     1     -14.415   4.594 -31.146  1.00  0.00     0.002 C 
HETATM   13  C   UNL     1     -14.399   3.999 -32.550  1.00  0.00     0.027 C 
HETATM   14  H   UNL     1     -13.749   3.988 -35.313  1.00  0.00     0.163 HD
ENDROOT
BRANCH   1  15
HETATM   15  C   UNL     1     -10.224   1.870 -34.438  1.00  0.00     0.146 C 
BRANCH  15  16
HETATM   16  C   UNL     1      -9.335   0.740 -33.979  1.00  0.00     0.224 C 
HETATM   17  N   UNL     1      -8.328   0.424 -34.858  1.00  0.00    -0.327 N 
HETATM   18  H   UNL     1      -8.387   0.774 -35.808  1.00  0.00     0.169 HD
HETATM   19  O   UNL     1      -9.542   0.231 -32.877  1.00  0.00    -0.273 OA
BRANCH  17  20
HETATM   20  C   UNL     1      -7.237  -0.440 -34.612  1.00  0.00     0.035 A 
HETATM   21  C   UNL     1      -7.240  -1.801 -34.935  1.00  0.00     0.036 A 
HETATM   22  C   UNL     1      -6.146  -2.619 -34.612  1.00  0.00    -0.060 A 
HETATM   23  C   UNL     1      -6.162  -4.081 -34.954  1.00  0.00     0.048 C 
HETATM   24  C   UNL     1      -5.022  -2.051 -34.005  1.00  0.00     0.007 A 
HETATM   25  C   UNL     1      -5.010  -0.696 -33.682  1.00  0.00     0.003 A 
HETATM   26  C   UNL     1      -6.117   0.102 -33.972  1.00  0.00     0.029 A 
ENDBRANCH  17  20
ENDBRANCH  15  16
ENDBRANCH   1  15
TORSDOF 3
ENDMDL
MODEL 4
REMARK VINA RESULT:      -8.0      1.975      7.324
REMARK  3 active torsions:
REMARK  status: ('A' for Active; 'I' for Inactive)
REMARK    1  A    between atoms: C_4  and  N_5 
REMARK       I    between atoms: N_5  and  C_6 
REMARK    2  A    between atoms: C_6  and  C_7 
REMARK    3  A    between atoms: C_7  and  C_8 
ROOT
HETATM    1  C   UNL     1      -6.224  -0.697 -32.738  1.00  0.00     0.286 C 
HETATM    2  N   UNL     1      -6.494  -1.920 -33.608  1.00  0.00    -0.056 N 
HETATM    3  H   UNL     1      -6.614  -2.734 -32.994  1.00  0.00     0.278 HD
HETATM    4  H   UNL     1      -7.424  -1.783 -34.062  1.00  0.00     0.278 HD
HETATM    5  C   UNL     1      -5.456  -2.183 -34.664  1.00  0.00     0.209 C 
HETATM    6  C   UNL     1      -4.081  -2.338 -33.970  1.00  0.00     0.115 C 
HETATM    7  N   UNL     1      -3.805  -1.225 -33.061  1.00  0.00    -0.353 N 
HETATM    8  C   UNL     1      -4.751  -0.582 -32.303  1.00  0.00     0.249 C 
HETATM    9  O   UNL     1      -4.409   0.143 -31.375  1.00  0.00    -0.271 OA
HETATM   10  C   UNL     1      -5.860  -3.420 -35.466  1.00  0.00     0.035 C 
HETATM   11  C   UNL     1      -5.716  -4.723 -34.684  1.00  0.00     0.002 C 
HETATM   12  C   UNL     1      -4.321  -4.863 -34.085  1.00  0.00     0.002 C 
HETATM   13  C   UNL     1      -3.960  -3.667 -33.210  1.00  0.00     0.027 C 
HETATM   14  H   UNL     1      -2.852  -1.099 -32.725  1.00  0.00     0.163 HD
ENDROOT
BRANCH   1  15
HETATM   15  C   UNL     1      -6.626   0.620 -33.419  1.00  0.00     0.146 C 
BRANCH  15  16
HETATM   16  C   UNL     1      -7.984   0.536 -34.071  1.00  0.00     0.224 C 
HETATM   17  N   UNL     1      -9.004   1.061 -33.316  1.00  0.00    -0.327 N 
HETATM   18  H   UNL     1      -8.837   1.235 -32.331  1.00  0.00     0.169 HD
HETATM   19  O   UNL     1      -8.071   0.060 -35.204  1.00  0.00    -0.273 OA
BRANCH  17  20
HETATM   20  C   UNL     1     -10.330   1.302 -33.743  1.00  0.00     0.035 A 
HETATM   21  C   UNL     1     -11.403   0.455 -33.447  1.00  0.00     0.036 A 
HETATM   22  C   UNL     1     -12.687   0.720 -33.950  1.00  0.00    -0.060 A 
HETATM   23  C   UNL     1     -13.831  -0.200 -33.636  1.00  0.00     0.048 C 
HETATM   24  C   UNL     1     -12.899   1.871 -34.714  1.00  0.00     0.007 A 
HETATM   25  C   UNL     1     -11.836   2.721 -35.011  1.00  0.00     0.003 A 
HETATM   26  C   UNL     1     -10.555   2.430 -34.539  1.00  0.00     0.029 A 
ENDBRANCH  17  20
ENDBRANCH  15  16
ENDBRANCH   1  15
TORSDOF 3
ENDMDL
MODEL 5
REMARK VINA RESULT:      -7.9      4.516      7.492
REMARK  3 active torsions:
REMARK  status: ('A' for Active; 'I' for Inactive)
REMARK    1  A    between atoms: C_4  and  N_5 
REMARK       I    between atoms: N_5  and  C_6 
REMARK    2  A    between atoms: C_6  and  C_7 
REMARK    3  A    between atoms: C_7  and  C_8 
ROOT
HETATM    1  C   UNL     1      -5.211   1.454 -32.812  1.00  0.00     0.286 C 
HETATM    2  N   UNL     1      -4.500   0.162 -33.201  1.00  0.00    -0.056 N 
HETATM    3  H   UNL     1      -4.454   0.112 -34.225  1.00  0.00     0.278 HD
HETATM    4  H   UNL     1      -3.508   0.244 -32.888  1.00  0.00     0.278 HD
HETATM    5  C   UNL     1      -5.105  -1.088 -32.623  1.00  0.00     0.209 C 
HETATM    6  C   UNL     1      -6.587  -1.163 -33.063  1.00  0.00     0.115 C 
HETATM    7  N   UNL     1      -7.298   0.085 -32.784  1.00  0.00    -0.353 N 
HETATM    8  C   UNL     1      -6.745   1.337 -32.873  1.00  0.00     0.249 C 
HETATM    9  O   UNL     1      -7.466   2.329 -32.893  1.00  0.00    -0.271 OA
HETATM   10  C   UNL     1      -4.287  -2.297 -33.076  1.00  0.00     0.035 C 
HETATM   11  C   UNL     1      -4.466  -2.628 -34.556  1.00  0.00     0.002 C 
HETATM   12  C   UNL     1      -5.939  -2.766 -34.923  1.00  0.00     0.002 C 
HETATM   13  C   UNL     1      -6.733  -1.518 -34.550  1.00  0.00     0.027 C 
HETATM   14  H   UNL     1      -8.316   0.080 -32.819  1.00  0.00     0.163 HD
ENDROOT
BRANCH   1  15
HETATM   15  C   UNL     1      -4.824   1.950 -31.411  1.00  0.00     0.146 C 
BRANCH  15  16
HETATM   16  C   UNL     1      -4.128   3.289 -31.451  1.00  0.00     0.224 C 
HETATM   17  N   UNL     1      -2.979   3.304 -32.203  1.00  0.00    -0.327 N 
HETATM   18  H   UNL     1      -2.560   2.418 -32.465  1.00  0.00     0.169 HD
HETATM   19  O   UNL     1      -4.641   4.242 -30.864  1.00  0.00    -0.273 OA
BRANCH  17  20
HETATM   20  C   UNL     1      -2.236   4.445 -32.583  1.00  0.00     0.035 A 
HETATM   21  C   UNL     1      -1.281   5.054 -31.763  1.00  0.00     0.036 A 
HETATM   22  C   UNL     1      -0.619   6.221 -32.176  1.00  0.00    -0.060 A 
HETATM   23  C   UNL     1       0.399   6.874 -31.285  1.00  0.00     0.048 C 
HETATM   24  C   UNL     1      -0.885   6.748 -33.443  1.00  0.00     0.007 A 
HETATM   25  C   UNL     1      -1.834   6.146 -34.267  1.00  0.00     0.003 A 
HETATM   26  C   UNL     1      -2.516   5.008 -33.833  1.00  0.00     0.029 A 
ENDBRANCH  17  20
ENDBRANCH  15  16
ENDBRANCH   1  15
TORSDOF 3
ENDMDL
MODEL 6
REMARK VINA RESULT:      -7.6      5.246      7.672
REMARK  3 active torsions:
REMARK  status: ('A' for Active; 'I' for Inactive)
REMARK    1  A    between atoms: C_4  and  N_5 
REMARK       I    between atoms: N_5  and  C_6 
REMARK    2  A    between atoms: C_6  and  C_7 
REMARK    3  A    between atoms: C_7  and  C_8 
ROOT
HETATM    1  C   UNL     1      -5.899   2.622 -31.785  1.00  0.00     0.286 C 
HETATM    2  N   UNL     1      -5.362   1.459 -32.612  1.00  0.00    -0.056 N 
HETATM    3  H   UNL     1      -5.760   1.521 -33.557  1.00  0.00     0.278 HD
HETATM    4  H   UNL     1      -4.337   1.611 -32.739  1.00  0.00     0.278 HD
HETATM    5  C   UNL     1      -5.596   0.099 -32.013  1.00  0.00     0.209 C 
HETATM    6  C   UNL     1      -7.117  -0.084 -31.795  1.00  0.00     0.115 C 
HETATM    7  N   UNL     1      -7.700   1.046 -31.072  1.00  0.00    -0.353 N 
HETATM    8  C   UNL     1      -7.302   2.352 -31.210  1.00  0.00     0.249 C 
HETATM    9  O   UNL     1      -8.009   3.260 -30.787  1.00  0.00    -0.271 OA
HETATM   10  C   UNL     1      -4.994  -0.964 -32.933  1.00  0.00     0.035 C 
HETATM   11  C   UNL     1      -5.776  -1.155 -34.230  1.00  0.00     0.002 C 
HETATM   12  C   UNL     1      -7.255  -1.408 -33.958  1.00  0.00     0.002 C 
HETATM   13  C   UNL     1      -7.872  -0.296 -33.116  1.00  0.00     0.027 C 
HETATM   14  H   UNL     1      -8.632   0.938 -30.675  1.00  0.00     0.163 HD
ENDROOT
BRANCH   1  15
HETATM   15  C   UNL     1      -4.972   3.007 -30.624  1.00  0.00     0.146 C 
BRANCH  15  16
HETATM   16  C   UNL     1      -3.628   3.500 -31.104  1.00  0.00     0.224 C 
HETATM   17  N   UNL     1      -3.462   4.860 -31.009  1.00  0.00    -0.327 N 
HETATM   18  H   UNL     1      -4.282   5.440 -30.867  1.00  0.00     0.169 HD
HETATM   19  O   UNL     1      -2.797   2.677 -31.490  1.00  0.00    -0.273 OA
BRANCH  17  20
HETATM   20  C   UNL     1      -2.256   5.575 -31.190  1.00  0.00     0.035 A 
HETATM   21  C   UNL     1      -1.471   6.048 -30.133  1.00  0.00     0.036 A 
HETATM   22  C   UNL     1      -0.313   6.802 -30.380  1.00  0.00    -0.060 A 
HETATM   23  C   UNL     1       0.518   7.315 -29.239  1.00  0.00     0.048 C 
HETATM   24  C   UNL     1       0.082   7.038 -31.700  1.00  0.00     0.007 A 
HETATM   25  C   UNL     1      -0.692   6.568 -32.758  1.00  0.00     0.003 A 
HETATM   26  C   UNL     1      -1.863   5.852 -32.504  1.00  0.00     0.029 A 
ENDBRANCH  17  20
ENDBRANCH  15  16
ENDBRANCH   1  15
TORSDOF 3
ENDMDL
MODEL 7
REMARK VINA RESULT:      -7.6      2.064      2.913
REMARK  3 active torsions:
REMARK  status: ('A' for Active; 'I' for Inactive)
REMARK    1  A    between atoms: C_4  and  N_5 
REMARK       I    between atoms: N_5  and  C_6 
REMARK    2  A    between atoms: C_6  and  C_7 
REMARK    3  A    between atoms: C_7  and  C_8 
ROOT
HETATM    1  C   UNL     1      -6.136   2.524 -32.375  1.00  0.00     0.286 C 
HETATM    2  N   UNL     1      -7.182   2.209 -33.439  1.00  0.00    -0.056 N 
HETATM    3  H   UNL     1      -7.712   3.067 -33.638  1.00  0.00     0.278 HD
HETATM    4  H   UNL     1      -6.673   1.993 -34.325  1.00  0.00     0.278 HD
HETATM    5  C   UNL     1      -8.102   1.069 -33.100  1.00  0.00     0.209 C 
HETATM    6  C   UNL     1      -8.810   1.393 -31.762  1.00  0.00     0.115 C 
HETATM    7  N   UNL     1      -7.854   1.780 -30.724  1.00  0.00    -0.353 N 
HETATM    8  C   UNL     1      -6.707   2.500 -30.946  1.00  0.00     0.249 C 
HETATM    9  O   UNL     1      -6.111   3.013 -30.005  1.00  0.00    -0.271 OA
HETATM   10  C   UNL     1      -9.081   0.854 -34.254  1.00  0.00     0.035 C 
HETATM   11  C   UNL     1     -10.129   1.958 -34.372  1.00  0.00     0.002 C 
HETATM   12  C   UNL     1     -10.851   2.186 -33.049  1.00  0.00     0.002 C 
HETATM   13  C   UNL     1      -9.873   2.491 -31.919  1.00  0.00     0.027 C 
HETATM   14  H   UNL     1      -8.171   1.796 -29.756  1.00  0.00     0.163 HD
ENDROOT
BRANCH   1  15
HETATM   15  C   UNL     1      -4.929   1.575 -32.425  1.00  0.00     0.146 C 
BRANCH  15  16
HETATM   16  C   UNL     1      -5.343   0.125 -32.475  1.00  0.00     0.224 C 
HETATM   17  N   UNL     1      -5.233  -0.449 -33.718  1.00  0.00    -0.327 N 
HETATM   18  H   UNL     1      -5.125   0.158 -34.524  1.00  0.00     0.169 HD
HETATM   19  O   UNL     1      -5.696  -0.428 -31.433  1.00  0.00    -0.273 OA
BRANCH  17  20
HETATM   20  C   UNL     1      -5.353  -1.824 -34.024  1.00  0.00     0.035 A 
HETATM   21  C   UNL     1      -4.325  -2.752 -33.831  1.00  0.00     0.036 A 
HETATM   22  C   UNL     1      -4.488  -4.094 -34.209  1.00  0.00    -0.060 A 
HETATM   23  C   UNL     1      -3.375  -5.081 -34.007  1.00  0.00     0.048 C 
HETATM   24  C   UNL     1      -5.712  -4.512 -34.738  1.00  0.00     0.007 A 
HETATM   25  C   UNL     1      -6.743  -3.595 -34.931  1.00  0.00     0.003 A 
HETATM   26  C   UNL     1      -6.559  -2.254 -34.589  1.00  0.00     0.029 A 
ENDBRANCH  17  20
ENDBRANCH  15  16
ENDBRANCH   1  15
TORSDOF 3
ENDMDL
MODEL 8
REMARK VINA RESULT:      -7.4      5.834      8.118
REMARK  3 active torsions:
REMARK  status: ('A' for Active; 'I' for Inactive)
REMARK    1  A    between atoms: C_4  and  N_5 
REMARK       I    between atoms: N_5  and  C_6 
REMARK    2  A    between atoms: C_6  and  C_7 
REMARK    3  A    between atoms: C_7  and  C_8 
ROOT
HETATM    1  C   UNL     1      -2.846   4.824 -31.779  1.00  0.00     0.286 C 
HETATM    2  N   UNL     1      -1.750   4.713 -30.725  1.00  0.00    -0.056 N 
HETATM    3  H   UNL     1      -2.053   5.222 -29.886  1.00  0.00     0.278 HD
HETATM    4  H   UNL     1      -1.699   3.712 -30.431  1.00  0.00     0.278 HD
HETATM    5  C   UNL     1      -0.391   5.171 -31.178  1.00  0.00     0.209 C 
HETATM    6  C   UNL     1      -0.503   6.640 -31.651  1.00  0.00     0.115 C 
HETATM    7  N   UNL     1      -1.595   6.819 -32.608  1.00  0.00    -0.353 N 
HETATM    8  C   UNL     1      -2.790   6.147 -32.566  1.00  0.00     0.249 C 
HETATM    9  O   UNL     1      -3.744   6.544 -33.226  1.00  0.00    -0.271 OA
HETATM   10  C   UNL     1       0.606   4.987 -30.035  1.00  0.00     0.035 C 
HETATM   11  C   UNL     1       0.407   5.980 -28.892  1.00  0.00     0.002 C 
HETATM   12  C   UNL     1       0.380   7.417 -29.400  1.00  0.00     0.002 C 
HETATM   13  C   UNL     1      -0.682   7.615 -30.477  1.00  0.00     0.027 C 
HETATM   14  H   UNL     1      -1.624   7.679 -33.154  1.00  0.00     0.163 HD
ENDROOT
BRANCH   1  15
HETATM   15  C   UNL     1      -2.825   3.666 -32.787  1.00  0.00     0.146 C 
BRANCH  15  16
HETATM   16  C   UNL     1      -3.777   2.558 -32.407  1.00  0.00     0.224 C 
HETATM   17  N   UNL     1      -4.999   2.629 -33.030  1.00  0.00    -0.327 N 
HETATM   18  H   UNL     1      -5.262   3.497 -33.484  1.00  0.00     0.169 HD
HETATM   19  O   UNL     1      -3.391   1.685 -31.630  1.00  0.00    -0.273 OA
BRANCH  17  20
HETATM   20  C   UNL     1      -6.004   1.635 -33.025  1.00  0.00     0.035 A 
HETATM   21  C   UNL     1      -5.909   0.435 -33.739  1.00  0.00     0.036 A 
HETATM   22  C   UNL     1      -6.967  -0.486 -33.739  1.00  0.00    -0.060 A 
HETATM   23  C   UNL     1      -6.860  -1.767 -34.517  1.00  0.00     0.048 C 
HETATM   24  C   UNL     1      -8.108  -0.220 -32.977  1.00  0.00     0.007 A 
HETATM   25  C   UNL     1      -8.210   0.971 -32.261  1.00  0.00     0.003 A 
HETATM   26  C   UNL     1      -7.169   1.900 -32.296  1.00  0.00     0.029 A 
ENDBRANCH  17  20
ENDBRANCH  15  16
ENDBRANCH   1  15
TORSDOF 3
ENDMDL
MODEL 9
REMARK VINA RESULT:      -7.4     14.635     17.203
REMARK  3 active torsions:
REMARK  status: ('A' for Active; 'I' for Inactive)
REMARK    1  A    between atoms: C_4  and  N_5 
REMARK       I    between atoms: N_5  and  C_6 
REMARK    2  A    between atoms: C_6  and  C_7 
REMARK    3  A    between atoms: C_7  and  C_8 
ROOT
HETATM    1  C   UNL     1      -3.943 -13.562 -38.737  1.00  0.00     0.286 C 
HETATM    2  N   UNL     1      -3.018 -14.410 -39.604  1.00  0.00    -0.056 N 
HETATM    3  H   UNL     1      -2.819 -15.286 -39.106  1.00  0.00     0.278 HD
HETATM    4  H   UNL     1      -3.558 -14.696 -40.451  1.00  0.00     0.278 HD
HETATM    5  C   UNL     1      -1.748 -13.725 -40.027  1.00  0.00     0.209 C 
HETATM    6  C   UNL     1      -0.990 -13.272 -38.756  1.00  0.00     0.115 C 
HETATM    7  N   UNL     1      -1.856 -12.519 -37.849  1.00  0.00    -0.353 N 
HETATM    8  C   UNL     1      -3.190 -12.772 -37.651  1.00  0.00     0.249 C 
HETATM    9  O   UNL     1      -3.773 -12.286 -36.688  1.00  0.00    -0.271 OA
HETATM   10  C   UNL     1      -0.931 -14.678 -40.900  1.00  0.00     0.035 C 
HETATM   11  C   UNL     1      -0.310 -15.833 -40.118  1.00  0.00     0.002 C 
HETATM   12  C   UNL     1       0.488 -15.330 -38.921  1.00  0.00     0.002 C 
HETATM   13  C   UNL     1      -0.360 -14.454 -38.004  1.00  0.00     0.027 C 
HETATM   14  H   UNL     1      -1.422 -11.982 -37.099  1.00  0.00     0.163 HD
ENDROOT
BRANCH   1  15
HETATM   15  C   UNL     1      -4.785 -12.571 -39.554  1.00  0.00     0.146 C 
BRANCH  15  16
HETATM   16  C   UNL     1      -6.259 -12.688 -39.252  1.00  0.00     0.224 C 
HETATM   17  N   UNL     1      -7.059 -12.749 -40.367  1.00  0.00    -0.327 N 
HETATM   18  H   UNL     1      -6.663 -12.479 -41.261  1.00  0.00     0.169 HD
HETATM   19  O   UNL     1      -6.621 -12.760 -38.077  1.00  0.00    -0.273 OA
BRANCH  17  20
HETATM   20  C   UNL     1      -8.438 -13.059 -40.398  1.00  0.00     0.035 A 
HETATM   21  C   UNL     1      -8.935 -14.352 -40.589  1.00  0.00     0.036 A 
HETATM   22  C   UNL     1     -10.317 -14.586 -40.667  1.00  0.00    -0.060 A 
HETATM   23  C   UNL     1     -10.843 -15.976 -40.882  1.00  0.00     0.048 C 
HETATM   24  C   UNL     1     -11.203 -13.517 -40.503  1.00  0.00     0.007 A 
HETATM   25  C   UNL     1     -10.715 -12.226 -40.310  1.00  0.00     0.003 A 
HETATM   26  C   UNL     1      -9.339 -11.996 -40.272  1.00  0.00     0.029 A 
ENDBRANCH  17  20
ENDBRANCH  15  16
ENDBRANCH   1  15
TORSDOF 3
ENDMDL
MODEL 10
REMARK VINA RESULT:      -7.3      1.854      6.899
REMARK  3 active torsions:
REMARK  status: ('A' for Active; 'I' for Inactive)
REMARK    1  A    between atoms: C_4  and  N_5 
REMARK       I    between atoms: N_5  and  C_6 
REMARK    2  A    between atoms: C_6  and  C_7 
REMARK    3  A    between atoms: C_7  and  C_8 
ROOT
HETATM    1  C   UNL     1      -5.380   0.003 -31.555  1.00  0.00     0.286 C 
HETATM    2  N   UNL     1      -6.280  -0.752 -32.527  1.00  0.00    -0.056 N 
HETATM    3  H   UNL     1      -6.397  -1.712 -32.183  1.00  0.00     0.278 HD
HETATM    4  H   UNL     1      -7.231  -0.325 -32.470  1.00  0.00     0.278 HD
HETATM    5  C   UNL     1      -5.813  -0.741 -33.957  1.00  0.00     0.209 C 
HETATM    6  C   UNL     1      -4.385  -1.336 -34.009  1.00  0.00     0.115 C 
HETATM    7  N   UNL     1      -3.497  -0.698 -33.037  1.00  0.00    -0.353 N 
HETATM    8  C   UNL     1      -3.882  -0.262 -31.794  1.00  0.00     0.249 C 
HETATM    9  O   UNL     1      -3.038   0.005 -30.946  1.00  0.00    -0.271 OA
HETATM   10  C   UNL     1      -6.813  -1.514 -34.817  1.00  0.00     0.035 C 
HETATM   11  C   UNL     1      -6.773  -3.022 -34.582  1.00  0.00     0.002 C 
HETATM   12  C   UNL     1      -5.358  -3.572 -34.720  1.00  0.00     0.002 C 
HETATM   13  C   UNL     1      -4.382  -2.856 -33.791  1.00  0.00     0.027 C 
HETATM   14  H   UNL     1      -2.493  -0.843 -33.131  1.00  0.00     0.163 HD
ENDROOT
BRANCH   1  15
HETATM   15  C   UNL     1      -5.609   1.522 -31.587  1.00  0.00     0.146 C 
BRANCH  15  16
HETATM   16  C   UNL     1      -7.056   1.878 -31.823  1.00  0.00     0.224 C 
HETATM   17  N   UNL     1      -7.325   2.326 -33.094  1.00  0.00    -0.327 N 
HETATM   18  H   UNL     1      -6.549   2.609 -33.682  1.00  0.00     0.169 HD
HETATM   19  O   UNL     1      -7.866   1.709 -30.911  1.00  0.00    -0.273 OA
BRANCH  17  20
HETATM   20  C   UNL     1      -8.604   2.538 -33.658  1.00  0.00     0.035 A 
HETATM   21  C   UNL     1      -9.124   3.805 -33.941  1.00  0.00     0.036 A 
HETATM   22  C   UNL     1     -10.424   3.951 -34.447  1.00  0.00    -0.060 A 
HETATM   23  C   UNL     1     -10.978   5.316 -34.739  1.00  0.00     0.048 C 
HETATM   24  C   UNL     1     -11.186   2.811 -34.717  1.00  0.00     0.007 A 
HETATM   25  C   UNL     1     -10.675   1.544 -34.441  1.00  0.00     0.003 A 
HETATM   26  C   UNL     1      -9.395   1.409 -33.901  1.00  0.00     0.029 A 
ENDBRANCH  17  20
ENDBRANCH  15  16
ENDBRANCH   1  15
TORSDOF 3
ENDMDL
