MODEL 1
REMARK VINA RESULT:     -10.0      0.000      0.000
REMARK  6 active torsions:
REMARK  status: ('A' for Active; 'I' for Inactive)
REMARK    1  A    between atoms: C_2  and  O_3 
REMARK    2  A    between atoms: C_2  and  C_4 
REMARK    3  A    between atoms: C_7  and  N_8 
REMARK       I    between atoms: N_8  and  C_9 
REMARK    4  A    between atoms: C_9  and  C_10 
REMARK    5  A    between atoms: C_13  and  C_14 
REMARK    6  A    between atoms: C_19  and  C_20 
ROOT
HETATM    1  C   UNL     1      -5.472   1.269 -31.709  1.00  0.00     0.096 A 
HETATM    2  C   UNL     1      -6.078   0.683 -32.806  1.00  0.00     0.138 A 
HETATM    3  N   UNL     1      -7.291   0.209 -32.356  1.00  0.00    -0.240 N 
HETATM    4  C   UNL     1      -8.304  -0.405 -33.195  1.00  0.00     0.221 C 
HETATM    5  C   UNL     1      -7.961  -0.192 -34.685  1.00  0.00     0.066 C 
HETATM    6  C   UNL     1      -6.465  -0.425 -34.949  1.00  0.00     0.118 C 
HETATM    7  N   UNL     1      -5.716   0.545 -34.119  1.00  0.00    -0.365 N 
HETATM    8  N   UNL     1      -7.465   0.344 -31.035  1.00  0.00    -0.181 NA
HETATM    9  C   UNL     1      -6.378   1.016 -30.648  1.00  0.00     0.160 A 
HETATM   10  H   UNL     1      -5.545   1.416 -34.630  1.00  0.00     0.161 HD
ENDROOT
BRANCH   1  11
HETATM   11  C   UNL     1      -4.204   1.975 -31.584  1.00  0.00     0.261 C 
HETATM   12  N   UNL     1      -4.269   3.314 -31.914  1.00  0.00    -0.323 N 
HETATM   13  H   UNL     1      -5.156   3.624 -32.294  1.00  0.00     0.169 HD
HETATM   14  O   UNL     1      -3.207   1.376 -31.200  1.00  0.00    -0.267 OA
BRANCH  12  15
HETATM   15  C   UNL     1      -3.267   4.290 -31.745  1.00  0.00     0.035 A 
HETATM   16  C   UNL     1      -2.055   4.289 -32.436  1.00  0.00     0.030 A 
HETATM   17  C   UNL     1      -1.079   5.263 -32.178  1.00  0.00     0.012 A 
HETATM   18  C   UNL     1      -1.287   6.259 -31.217  1.00  0.00    -0.030 A 
HETATM   19  C   UNL     1      -2.517   6.262 -30.540  1.00  0.00     0.012 A 
HETATM   20  C   UNL     1      -3.496   5.297 -30.804  1.00  0.00     0.030 A 
BRANCH  18  21
HETATM   21  C   UNL     1      -0.242   7.296 -30.854  1.00  0.00     0.147 C 
HETATM   22  C   UNL     1       0.060   7.468 -29.367  1.00  0.00     0.044 C 
BRANCH  21  23
HETATM   23  O   UNL     1       0.974   6.960 -31.524  1.00  0.00    -0.391 OA
HETATM   24  H   UNL     1       1.158   7.669 -32.162  1.00  0.00     0.210 HD
ENDBRANCH  21  23
ENDBRANCH  18  21
ENDBRANCH  12  15
ENDBRANCH   1  11
BRANCH   4  25
HETATM   25  C   UNL     1      -9.683   0.157 -32.920  1.00  0.00     0.409 C 
HETATM   26  F   UNL     1     -10.562  -0.750 -32.454  1.00  0.00    -0.169 F 
HETATM   27  F   UNL     1      -9.649   1.204 -32.064  1.00  0.00    -0.169 F 
HETATM   28  F   UNL     1     -10.213   0.632 -34.082  1.00  0.00    -0.169 F 
ENDBRANCH   4  25
BRANCH   6  29
HETATM   29  C   UNL     1      -5.983  -1.861 -34.733  1.00  0.00    -0.035 A 
HETATM   30  C   UNL     1      -6.802  -2.964 -35.052  1.00  0.00     0.012 A 
HETATM   31  C   UNL     1      -6.359  -4.275 -34.855  1.00  0.00     0.043 A 
HETATM   32  C   UNL     1      -5.082  -4.502 -34.363  1.00  0.00     0.116 A 
HETATM   33  F   UNL     1      -4.659  -5.759 -34.177  1.00  0.00    -0.206 F 
HETATM   34  C   UNL     1      -4.236  -3.443 -34.075  1.00  0.00     0.043 A 
HETATM   35  C   UNL     1      -4.681  -2.131 -34.267  1.00  0.00     0.012 A 
ENDBRANCH   6  29
TORSDOF 6
ENDMDL
MODEL 2
REMARK VINA RESULT:      -9.6      4.692      8.456
REMARK  6 active torsions:
REMARK  status: ('A' for Active; 'I' for Inactive)
REMARK    1  A    between atoms: C_2  and  O_3 
REMARK    2  A    between atoms: C_2  and  C_4 
REMARK    3  A    between atoms: C_7  and  N_8 
REMARK       I    between atoms: N_8  and  C_9 
REMARK    4  A    between atoms: C_9  and  C_10 
REMARK    5  A    between atoms: C_13  and  C_14 
REMARK    6  A    between atoms: C_19  and  C_20 
ROOT
HETATM    1  C   UNL     1      -8.150   2.899 -32.433  1.00  0.00     0.096 A 
HETATM    2  C   UNL     1      -7.012   2.179 -32.111  1.00  0.00     0.138 A 
HETATM    3  N   UNL     1      -5.987   2.757 -32.827  1.00  0.00    -0.240 N 
HETATM    4  C   UNL     1      -4.590   2.378 -32.727  1.00  0.00     0.221 C 
HETATM    5  C   UNL     1      -4.377   1.451 -31.511  1.00  0.00     0.066 C 
HETATM    6  C   UNL     1      -5.493   0.399 -31.414  1.00  0.00     0.118 C 
HETATM    7  N   UNL     1      -6.773   1.128 -31.268  1.00  0.00    -0.365 N 
HETATM    8  N   UNL     1      -6.392   3.718 -33.667  1.00  0.00    -0.181 NA
HETATM    9  C   UNL     1      -7.697   3.827 -33.405  1.00  0.00     0.160 A 
HETATM   10  H   UNL     1      -7.001   1.283 -30.282  1.00  0.00     0.161 HD
ENDROOT
BRANCH   1  11
HETATM   11  C   UNL     1      -9.520   2.781 -31.954  1.00  0.00     0.261 C 
HETATM   12  N   UNL     1     -10.475   3.158 -32.878  1.00  0.00    -0.323 N 
HETATM   13  H   UNL     1     -10.114   3.561 -33.734  1.00  0.00     0.169 HD
HETATM   14  O   UNL     1      -9.738   2.363 -30.824  1.00  0.00    -0.267 OA
BRANCH  12  15
HETATM   15  C   UNL     1     -11.873   3.010 -32.777  1.00  0.00     0.035 A 
HETATM   16  C   UNL     1     -12.698   3.869 -32.050  1.00  0.00     0.030 A 
HETATM   17  C   UNL     1     -14.075   3.629 -31.949  1.00  0.00     0.012 A 
HETATM   18  C   UNL     1     -14.665   2.521 -32.567  1.00  0.00    -0.030 A 
HETATM   19  C   UNL     1     -13.829   1.671 -33.311  1.00  0.00     0.012 A 
HETATM   20  C   UNL     1     -12.455   1.915 -33.421  1.00  0.00     0.030 A 
BRANCH  18  21
HETATM   21  C   UNL     1     -16.136   2.179 -32.436  1.00  0.00     0.147 C 
HETATM   22  C   UNL     1     -17.067   3.318 -32.027  1.00  0.00     0.044 C 
BRANCH  21  23
HETATM   23  O   UNL     1     -16.587   1.658 -33.687  1.00  0.00    -0.391 OA
HETATM   24  H   UNL     1     -17.480   2.008 -33.842  1.00  0.00     0.210 HD
ENDBRANCH  21  23
ENDBRANCH  18  21
ENDBRANCH  12  15
ENDBRANCH   1  11
BRANCH   4  25
HETATM   25  C   UNL     1      -3.684   3.585 -32.592  1.00  0.00     0.409 C 
HETATM   26  F   UNL     1      -3.290   4.108 -33.768  1.00  0.00    -0.169 F 
HETATM   27  F   UNL     1      -4.246   4.566 -31.850  1.00  0.00    -0.169 F 
HETATM   28  F   UNL     1      -2.544   3.219 -31.941  1.00  0.00    -0.169 F 
ENDBRANCH   4  25
BRANCH   6  29
HETATM   29  C   UNL     1      -5.533  -0.614 -32.560  1.00  0.00    -0.035 A 
HETATM   30  C   UNL     1      -4.390  -1.355 -32.923  1.00  0.00     0.012 A 
HETATM   31  C   UNL     1      -4.430  -2.280 -33.971  1.00  0.00     0.043 A 
HETATM   32  C   UNL     1      -5.620  -2.499 -34.649  1.00  0.00     0.116 A 
HETATM   33  F   UNL     1      -5.656  -3.387 -35.651  1.00  0.00    -0.206 F 
HETATM   34  C   UNL     1      -6.773  -1.817 -34.293  1.00  0.00     0.043 A 
HETATM   35  C   UNL     1      -6.731  -0.887 -33.250  1.00  0.00     0.012 A 
ENDBRANCH   6  29
TORSDOF 6
ENDMDL
MODEL 3
REMARK VINA RESULT:      -9.3      4.112      8.609
REMARK  6 active torsions:
REMARK  status: ('A' for Active; 'I' for Inactive)
REMARK    1  A    between atoms: C_2  and  O_3 
REMARK    2  A    between atoms: C_2  and  C_4 
REMARK    3  A    between atoms: C_7  and  N_8 
REMARK       I    between atoms: N_8  and  C_9 
REMARK    4  A    between atoms: C_9  and  C_10 
REMARK    5  A    between atoms: C_13  and  C_14 
REMARK    6  A    between atoms: C_19  and  C_20 
ROOT
HETATM    1  C   UNL     1      -7.053   3.337 -32.797  1.00  0.00     0.096 A 
HETATM    2  C   UNL     1      -6.231   4.233 -32.136  1.00  0.00     0.138 A 
HETATM    3  N   UNL     1      -6.683   5.486 -32.485  1.00  0.00    -0.240 N 
HETATM    4  C   UNL     1      -6.166   6.732 -31.948  1.00  0.00     0.221 C 
HETATM    5  C   UNL     1      -5.254   6.451 -30.735  1.00  0.00     0.066 C 
HETATM    6  C   UNL     1      -4.323   5.259 -31.006  1.00  0.00     0.118 C 
HETATM    7  N   UNL     1      -5.182   4.082 -31.268  1.00  0.00    -0.365 N 
HETATM    8  N   UNL     1      -7.658   5.471 -33.402  1.00  0.00    -0.181 NA
HETATM    9  C   UNL     1      -7.905   4.169 -33.567  1.00  0.00     0.160 A 
HETATM   10  H   UNL     1      -5.386   3.571 -30.405  1.00  0.00     0.161 HD
ENDROOT
BRANCH   1  11
HETATM   11  C   UNL     1      -7.088   1.882 -32.779  1.00  0.00     0.261 C 
HETATM   12  N   UNL     1      -6.433   1.288 -33.841  1.00  0.00    -0.323 N 
HETATM   13  H   UNL     1      -6.095   1.926 -34.552  1.00  0.00     0.169 HD
HETATM   14  O   UNL     1      -7.652   1.296 -31.863  1.00  0.00    -0.267 OA
BRANCH  12  15
HETATM   15  C   UNL     1      -6.154  -0.081 -34.020  1.00  0.00     0.035 A 
HETATM   16  C   UNL     1      -4.951  -0.686 -33.654  1.00  0.00     0.030 A 
HETATM   17  C   UNL     1      -4.721  -2.045 -33.913  1.00  0.00     0.012 A 
HETATM   18  C   UNL     1      -5.685  -2.834 -34.551  1.00  0.00    -0.030 A 
HETATM   19  C   UNL     1      -6.899  -2.220 -34.900  1.00  0.00     0.012 A 
HETATM   20  C   UNL     1      -7.134  -0.866 -34.633  1.00  0.00     0.030 A 
BRANCH  18  21
HETATM   21  C   UNL     1      -5.463  -4.289 -34.912  1.00  0.00     0.147 C 
HETATM   22  C   UNL     1      -4.513  -5.077 -34.014  1.00  0.00     0.044 C 
BRANCH  21  23
HETATM   23  O   UNL     1      -6.730  -4.948 -34.914  1.00  0.00    -0.391 OA
HETATM   24  H   UNL     1      -7.410  -4.267 -35.045  1.00  0.00     0.210 HD
ENDBRANCH  21  23
ENDBRANCH  18  21
ENDBRANCH  12  15
ENDBRANCH   1  11
BRANCH   4  25
HETATM   25  C   UNL     1      -7.278   7.669 -31.524  1.00  0.00     0.409 C 
HETATM   26  F   UNL     1      -7.776   8.419 -32.526  1.00  0.00    -0.169 F 
HETATM   27  F   UNL     1      -8.299   7.015 -30.926  1.00  0.00    -0.169 F 
HETATM   28  F   UNL     1      -6.795   8.548 -30.601  1.00  0.00    -0.169 F 
ENDBRANCH   4  25
BRANCH   6  29
HETATM   29  C   UNL     1      -3.291   5.478 -32.113  1.00  0.00    -0.035 A 
HETATM   30  C   UNL     1      -2.635   6.716 -32.268  1.00  0.00     0.012 A 
HETATM   31  C   UNL     1      -1.690   6.914 -33.280  1.00  0.00     0.043 A 
HETATM   32  C   UNL     1      -1.369   5.867 -34.132  1.00  0.00     0.116 A 
HETATM   33  F   UNL     1      -0.463   6.058 -35.100  1.00  0.00    -0.206 F 
HETATM   34  C   UNL     1      -1.966   4.625 -33.985  1.00  0.00     0.043 A 
HETATM   35  C   UNL     1      -2.914   4.430 -32.976  1.00  0.00     0.012 A 
ENDBRANCH   6  29
TORSDOF 6
ENDMDL
MODEL 4
REMARK VINA RESULT:      -9.2      5.409      8.462
REMARK  6 active torsions:
REMARK  status: ('A' for Active; 'I' for Inactive)
REMARK    1  A    between atoms: C_2  and  O_3 
REMARK    2  A    between atoms: C_2  and  C_4 
REMARK    3  A    between atoms: C_7  and  N_8 
REMARK       I    between atoms: N_8  and  C_9 
REMARK    4  A    between atoms: C_9  and  C_10 
REMARK    5  A    between atoms: C_13  and  C_14 
REMARK    6  A    between atoms: C_19  and  C_20 
ROOT
HETATM    1  C   UNL     1      -8.677   1.939 -32.880  1.00  0.00     0.096 A 
HETATM    2  C   UNL     1      -9.658   2.430 -33.724  1.00  0.00     0.138 A 
HETATM    3  N   UNL     1      -9.789   3.765 -33.411  1.00  0.00    -0.240 N 
HETATM    4  C   UNL     1     -10.649   4.700 -34.114  1.00  0.00     0.221 C 
HETATM    5  C   UNL     1     -11.167   4.066 -35.422  1.00  0.00     0.066 C 
HETATM    6  C   UNL     1     -11.597   2.607 -35.199  1.00  0.00     0.118 C 
HETATM    7  N   UNL     1     -10.407   1.867 -34.722  1.00  0.00    -0.365 N 
HETATM    8  N   UNL     1      -9.051   4.147 -32.362  1.00  0.00    -0.181 NA
HETATM    9  C   UNL     1      -8.352   3.050 -32.061  1.00  0.00     0.160 A 
HETATM   10  H   UNL     1      -9.882   1.464 -35.503  1.00  0.00     0.161 HD
ENDROOT
BRANCH   1  11
HETATM   11  C   UNL     1      -8.081   0.614 -32.780  1.00  0.00     0.261 C 
HETATM   12  N   UNL     1      -7.494   0.169 -33.948  1.00  0.00    -0.323 N 
HETATM   13  H   UNL     1      -7.632   0.765 -34.756  1.00  0.00     0.169 HD
HETATM   14  O   UNL     1      -8.117   0.007 -31.717  1.00  0.00    -0.267 OA
BRANCH  12  15
HETATM   15  C   UNL     1      -6.706  -0.984 -34.128  1.00  0.00     0.035 A 
HETATM   16  C   UNL     1      -7.193  -2.191 -34.631  1.00  0.00     0.030 A 
HETATM   17  C   UNL     1      -6.362  -3.316 -34.732  1.00  0.00     0.012 A 
HETATM   18  C   UNL     1      -5.023  -3.266 -34.328  1.00  0.00    -0.030 A 
HETATM   19  C   UNL     1      -4.537  -2.042 -33.839  1.00  0.00     0.012 A 
HETATM   20  C   UNL     1      -5.363  -0.915 -33.747  1.00  0.00     0.030 A 
BRANCH  18  21
HETATM   21  C   UNL     1      -4.100  -4.469 -34.355  1.00  0.00     0.147 C 
HETATM   22  C   UNL     1      -3.288  -4.734 -33.090  1.00  0.00     0.044 C 
BRANCH  21  23
HETATM   23  O   UNL     1      -4.884  -5.628 -34.639  1.00  0.00    -0.391 OA
HETATM   24  H   UNL     1      -5.033  -5.649 -35.598  1.00  0.00     0.210 HD
ENDBRANCH  21  23
ENDBRANCH  18  21
ENDBRANCH  12  15
ENDBRANCH   1  11
BRANCH   4  25
HETATM   25  C   UNL     1      -9.931   5.992 -34.442  1.00  0.00     0.409 C 
HETATM   26  F   UNL     1      -8.591   5.876 -34.498  1.00  0.00    -0.169 F 
HETATM   27  F   UNL     1     -10.365   6.540 -35.600  1.00  0.00    -0.169 F 
HETATM   28  F   UNL     1     -10.189   6.908 -33.467  1.00  0.00    -0.169 F 
ENDBRANCH   4  25
BRANCH   6  29
HETATM   29  C   UNL     1     -12.803   2.418 -34.276  1.00  0.00    -0.035 A 
HETATM   30  C   UNL     1     -13.267   3.466 -33.455  1.00  0.00     0.012 A 
HETATM   31  C   UNL     1     -14.370   3.291 -32.613  1.00  0.00     0.043 A 
HETATM   32  C   UNL     1     -15.040   2.077 -32.603  1.00  0.00     0.116 A 
HETATM   33  F   UNL     1     -16.098   1.913 -31.798  1.00  0.00    -0.206 F 
HETATM   34  C   UNL     1     -14.636   1.038 -33.426  1.00  0.00     0.043 A 
HETATM   35  C   UNL     1     -13.529   1.211 -34.264  1.00  0.00     0.012 A 
ENDBRANCH   6  29
TORSDOF 6
ENDMDL
MODEL 5
REMARK VINA RESULT:      -9.2      5.098      8.855
REMARK  6 active torsions:
REMARK  status: ('A' for Active; 'I' for Inactive)
REMARK    1  A    between atoms: C_2  and  O_3 
REMARK    2  A    between atoms: C_2  and  C_4 
REMARK    3  A    between atoms: C_7  and  N_8 
REMARK       I    between atoms: N_8  and  C_9 
REMARK    4  A    between atoms: C_9  and  C_10 
REMARK    5  A    between atoms: C_13  and  C_14 
REMARK    6  A    between atoms: C_19  and  C_20 
ROOT
HETATM    1  C   UNL     1      -9.250   3.009 -33.432  1.00  0.00     0.096 A 
HETATM    2  C   UNL     1      -8.383   2.256 -32.660  1.00  0.00     0.138 A 
HETATM    3  N   UNL     1      -7.165   2.894 -32.731  1.00  0.00    -0.240 N 
HETATM    4  C   UNL     1      -5.978   2.499 -31.995  1.00  0.00     0.221 C 
HETATM    5  C   UNL     1      -6.344   1.459 -30.915  1.00  0.00     0.066 C 
HETATM    6  C   UNL     1      -7.321   0.408 -31.466  1.00  0.00     0.118 C 
HETATM    7  N   UNL     1      -8.540   1.127 -31.901  1.00  0.00    -0.365 N 
HETATM    8  N   UNL     1      -7.151   3.934 -33.575  1.00  0.00    -0.181 NA
HETATM    9  C   UNL     1      -8.422   4.024 -33.974  1.00  0.00     0.160 A 
HETATM   10  H   UNL     1      -9.225   1.188 -31.143  1.00  0.00     0.161 HD
ENDROOT
BRANCH   1  11
HETATM   11  C   UNL     1     -10.674   2.854 -33.694  1.00  0.00     0.261 C 
HETATM   12  N   UNL     1     -11.459   2.846 -32.558  1.00  0.00    -0.323 N 
HETATM   13  H   UNL     1     -10.952   2.850 -31.681  1.00  0.00     0.169 HD
HETATM   14  O   UNL     1     -11.076   2.759 -34.847  1.00  0.00    -0.267 OA
BRANCH  12  15
HETATM   15  C   UNL     1     -12.866   2.874 -32.486  1.00  0.00     0.035 A 
HETATM   16  C   UNL     1     -13.595   3.883 -31.856  1.00  0.00     0.030 A 
HETATM   17  C   UNL     1     -14.993   3.818 -31.775  1.00  0.00     0.012 A 
HETATM   18  C   UNL     1     -15.700   2.738 -32.317  1.00  0.00    -0.030 A 
HETATM   19  C   UNL     1     -14.959   1.736 -32.964  1.00  0.00     0.012 A 
HETATM   20  C   UNL     1     -13.564   1.805 -33.054  1.00  0.00     0.030 A 
BRANCH  18  21
HETATM   21  C   UNL     1     -17.204   2.586 -32.201  1.00  0.00     0.147 C 
HETATM   22  C   UNL     1     -17.975   3.799 -31.687  1.00  0.00     0.044 C 
BRANCH  21  23
HETATM   23  O   UNL     1     -17.719   2.238 -33.487  1.00  0.00    -0.391 OA
HETATM   24  H   UNL     1     -17.632   3.021 -34.055  1.00  0.00     0.210 HD
ENDBRANCH  21  23
ENDBRANCH  18  21
ENDBRANCH  12  15
ENDBRANCH   1  11
BRANCH   4  25
HETATM   25  C   UNL     1      -5.304   3.683 -31.332  1.00  0.00     0.409 C 
HETATM   26  F   UNL     1      -6.159   4.627 -30.895  1.00  0.00    -0.169 F 
HETATM   27  F   UNL     1      -4.511   3.309 -30.302  1.00  0.00    -0.169 F 
HETATM   28  F   UNL     1      -4.492   4.300 -32.235  1.00  0.00    -0.169 F 
ENDBRANCH   4  25
BRANCH   6  29
HETATM   29  C   UNL     1      -6.756  -0.489 -32.570  1.00  0.00    -0.035 A 
HETATM   30  C   UNL     1      -7.538  -0.862 -33.682  1.00  0.00     0.012 A 
HETATM   31  C   UNL     1      -7.020  -1.681 -34.690  1.00  0.00     0.043 A 
HETATM   32  C   UNL     1      -5.704  -2.115 -34.613  1.00  0.00     0.116 A 
HETATM   33  F   UNL     1      -5.209  -2.898 -35.580  1.00  0.00    -0.206 F 
HETATM   34  C   UNL     1      -4.895  -1.736 -33.554  1.00  0.00     0.043 A 
HETATM   35  C   UNL     1      -5.415  -0.922 -32.544  1.00  0.00     0.012 A 
ENDBRANCH   6  29
TORSDOF 6
ENDMDL
MODEL 6
REMARK VINA RESULT:      -9.2      1.386      1.811
REMARK  6 active torsions:
REMARK  status: ('A' for Active; 'I' for Inactive)
REMARK    1  A    between atoms: C_2  and  O_3 
REMARK    2  A    between atoms: C_2  and  C_4 
REMARK    3  A    between atoms: C_7  and  N_8 
REMARK       I    between atoms: N_8  and  C_9 
REMARK    4  A    between atoms: C_9  and  C_10 
REMARK    5  A    between atoms: C_13  and  C_14 
REMARK    6  A    between atoms: C_19  and  C_20 
ROOT
HETATM    1  C   UNL     1      -6.525   2.861 -32.302  1.00  0.00     0.096 A 
HETATM    2  C   UNL     1      -6.903   1.919 -33.243  1.00  0.00     0.138 A 
HETATM    3  N   UNL     1      -7.953   1.226 -32.680  1.00  0.00    -0.240 N 
HETATM    4  C   UNL     1      -8.722   0.197 -33.354  1.00  0.00     0.221 C 
HETATM    5  C   UNL     1      -8.396   0.191 -34.863  1.00  0.00     0.066 C 
HETATM    6  C   UNL     1      -6.886   0.337 -35.104  1.00  0.00     0.118 C 
HETATM    7  N   UNL     1      -6.467   1.625 -34.507  1.00  0.00    -0.365 N 
HETATM    8  N   UNL     1      -8.208   1.572 -31.412  1.00  0.00    -0.181 NA
HETATM    9  C   UNL     1      -7.366   2.585 -31.193  1.00  0.00     0.160 A 
HETATM   10  H   UNL     1      -6.525   2.387 -35.188  1.00  0.00     0.161 HD
ENDROOT
BRANCH   1  11
HETATM   11  C   UNL     1      -5.509   3.902 -32.351  1.00  0.00     0.261 C 
HETATM   12  N   UNL     1      -4.855   4.110 -31.151  1.00  0.00    -0.323 N 
HETATM   13  H   UNL     1      -5.222   3.590 -30.363  1.00  0.00     0.169 HD
HETATM   14  O   UNL     1      -5.290   4.494 -33.400  1.00  0.00    -0.267 OA
BRANCH  12  15
HETATM   15  C   UNL     1      -3.728   4.922 -30.917  1.00  0.00     0.035 A 
HETATM   16  C   UNL     1      -3.780   6.160 -30.277  1.00  0.00     0.030 A 
HETATM   17  C   UNL     1      -2.625   6.941 -30.125  1.00  0.00     0.012 A 
HETATM   18  C   UNL     1      -1.388   6.506 -30.615  1.00  0.00    -0.030 A 
HETATM   19  C   UNL     1      -1.343   5.250 -31.243  1.00  0.00     0.012 A 
HETATM   20  C   UNL     1      -2.494   4.465 -31.385  1.00  0.00     0.030 A 
BRANCH  18  21
HETATM   21  C   UNL     1      -0.122   7.337 -30.536  1.00  0.00     0.147 C 
HETATM   22  C   UNL     1       0.484   7.525 -29.147  1.00  0.00     0.044 C 
BRANCH  21  23
HETATM   23  O   UNL     1       0.862   6.735 -31.378  1.00  0.00    -0.391 OA
HETATM   24  H   UNL     1       0.813   7.178 -32.241  1.00  0.00     0.210 HD
ENDBRANCH  21  23
ENDBRANCH  18  21
ENDBRANCH  12  15
ENDBRANCH   1  11
BRANCH   4  25
HETATM   25  C   UNL     1     -10.213   0.395 -33.172  1.00  0.00     0.409 C 
HETATM   26  F   UNL     1     -10.863   0.735 -34.302  1.00  0.00    -0.169 F 
HETATM   27  F   UNL     1     -10.814  -0.694 -32.641  1.00  0.00    -0.169 F 
HETATM   28  F   UNL     1     -10.426   1.415 -32.294  1.00  0.00    -0.169 F 
ENDBRANCH   4  25
BRANCH   6  29
HETATM   29  C   UNL     1      -6.033  -0.833 -34.608  1.00  0.00    -0.035 A 
HETATM   30  C   UNL     1      -6.298  -2.157 -35.015  1.00  0.00     0.012 A 
HETATM   31  C   UNL     1      -5.516  -3.223 -34.561  1.00  0.00     0.043 A 
HETATM   32  C   UNL     1      -4.442  -2.978 -33.718  1.00  0.00     0.116 A 
HETATM   33  F   UNL     1      -3.693  -4.001 -33.287  1.00  0.00    -0.206 F 
HETATM   34  C   UNL     1      -4.129  -1.685 -33.329  1.00  0.00     0.043 A 
HETATM   35  C   UNL     1      -4.914  -0.619 -33.779  1.00  0.00     0.012 A 
ENDBRANCH   6  29
TORSDOF 6
ENDMDL
MODEL 7
REMARK VINA RESULT:      -8.4     15.381     17.579
REMARK  6 active torsions:
REMARK  status: ('A' for Active; 'I' for Inactive)
REMARK    1  A    between atoms: C_2  and  O_3 
REMARK    2  A    between atoms: C_2  and  C_4 
REMARK    3  A    between atoms: C_7  and  N_8 
REMARK       I    between atoms: N_8  and  C_9 
REMARK    4  A    between atoms: C_9  and  C_10 
REMARK    5  A    between atoms: C_13  and  C_14 
REMARK    6  A    between atoms: C_19  and  C_20 
ROOT
HETATM    1  C   UNL     1      -6.380 -14.612 -36.196  1.00  0.00     0.096 A 
HETATM    2  C   UNL     1      -5.541 -13.751 -36.882  1.00  0.00     0.138 A 
HETATM    3  N   UNL     1      -5.720 -14.037 -38.217  1.00  0.00    -0.240 N 
HETATM    4  C   UNL     1      -5.102 -13.310 -39.310  1.00  0.00     0.221 C 
HETATM    5  C   UNL     1      -4.457 -12.009 -38.786  1.00  0.00     0.066 C 
HETATM    6  C   UNL     1      -3.702 -12.255 -37.471  1.00  0.00     0.118 C 
HETATM    7  N   UNL     1      -4.687 -12.757 -36.486  1.00  0.00    -0.365 N 
HETATM    8  N   UNL     1      -6.523 -15.086 -38.440  1.00  0.00    -0.181 NA
HETATM    9  C   UNL     1      -6.949 -15.414 -37.218  1.00  0.00     0.160 A 
HETATM   10  H   UNL     1      -5.108 -11.988 -35.958  1.00  0.00     0.161 HD
ENDROOT
BRANCH   1  11
HETATM   11  C   UNL     1      -6.654 -14.743 -34.771  1.00  0.00     0.261 C 
HETATM   12  N   UNL     1      -6.036 -15.825 -34.175  1.00  0.00    -0.323 N 
HETATM   13  H   UNL     1      -5.551 -16.450 -34.808  1.00  0.00     0.169 HD
HETATM   14  O   UNL     1      -7.366 -13.922 -34.208  1.00  0.00    -0.267 OA
BRANCH  12  15
HETATM   15  C   UNL     1      -5.973 -16.129 -32.801  1.00  0.00     0.035 A 
HETATM   16  C   UNL     1      -5.230 -15.397 -31.874  1.00  0.00     0.030 A 
HETATM   17  C   UNL     1      -5.170 -15.790 -30.529  1.00  0.00     0.012 A 
HETATM   18  C   UNL     1      -5.847 -16.928 -30.076  1.00  0.00    -0.030 A 
HETATM   19  C   UNL     1      -6.607 -17.648 -31.013  1.00  0.00     0.012 A 
HETATM   20  C   UNL     1      -6.675 -17.251 -32.354  1.00  0.00     0.030 A 
BRANCH  18  21
HETATM   21  C   UNL     1      -5.765 -17.433 -28.649  1.00  0.00     0.147 C 
HETATM   22  C   UNL     1      -4.531 -17.020 -27.850  1.00  0.00     0.044 C 
BRANCH  21  23
HETATM   23  O   UNL     1      -6.926 -16.984 -27.948  1.00  0.00    -0.391 OA
HETATM   24  H   UNL     1      -7.337 -17.763 -27.540  1.00  0.00     0.210 HD
ENDBRANCH  21  23
ENDBRANCH  18  21
ENDBRANCH  12  15
ENDBRANCH   1  11
BRANCH   4  25
HETATM   25  C   UNL     1      -6.100 -12.963 -40.396  1.00  0.00     0.409 C 
HETATM   26  F   UNL     1      -6.185 -13.882 -41.376  1.00  0.00    -0.169 F 
HETATM   27  F   UNL     1      -7.340 -12.745 -39.901  1.00  0.00    -0.169 F 
HETATM   28  F   UNL     1      -5.721 -11.802 -41.000  1.00  0.00    -0.169 F 
ENDBRANCH   4  25
BRANCH   6  29
HETATM   29  C   UNL     1      -2.481 -13.171 -37.584  1.00  0.00    -0.035 A 
HETATM   30  C   UNL     1      -2.286 -14.244 -36.691  1.00  0.00     0.012 A 
HETATM   31  C   UNL     1      -1.170 -15.080 -36.797  1.00  0.00     0.043 A 
HETATM   32  C   UNL     1      -0.251 -14.872 -37.814  1.00  0.00     0.116 A 
HETATM   33  F   UNL     1       0.817 -15.675 -37.915  1.00  0.00    -0.206 F 
HETATM   34  C   UNL     1      -0.431 -13.850 -38.733  1.00  0.00     0.043 A 
HETATM   35  C   UNL     1      -1.544 -13.011 -38.624  1.00  0.00     0.012 A 
ENDBRANCH   6  29
TORSDOF 6
ENDMDL
MODEL 8
REMARK VINA RESULT:      -8.4      3.889      8.519
REMARK  6 active torsions:
REMARK  status: ('A' for Active; 'I' for Inactive)
REMARK    1  A    between atoms: C_2  and  O_3 
REMARK    2  A    between atoms: C_2  and  C_4 
REMARK    3  A    between atoms: C_7  and  N_8 
REMARK       I    between atoms: N_8  and  C_9 
REMARK    4  A    between atoms: C_9  and  C_10 
REMARK    5  A    between atoms: C_13  and  C_14 
REMARK    6  A    between atoms: C_19  and  C_20 
ROOT
HETATM    1  C   UNL     1      -7.655   2.435 -31.719  1.00  0.00     0.096 A 
HETATM    2  C   UNL     1      -7.305   3.404 -30.795  1.00  0.00     0.138 A 
HETATM    3  N   UNL     1      -8.043   4.519 -31.121  1.00  0.00    -0.240 N 
HETATM    4  C   UNL     1      -8.061   5.754 -30.359  1.00  0.00     0.221 C 
HETATM    5  C   UNL     1      -7.374   5.545 -28.993  1.00  0.00     0.066 C 
HETATM    6  C   UNL     1      -6.083   4.724 -29.141  1.00  0.00     0.118 C 
HETATM    7  N   UNL     1      -6.461   3.413 -29.717  1.00  0.00    -0.365 N 
HETATM    8  N   UNL     1      -8.757   4.382 -32.246  1.00  0.00    -0.181 NA
HETATM    9  C   UNL     1      -8.548   3.109 -32.590  1.00  0.00     0.160 A 
HETATM   10  H   UNL     1      -6.666   2.730 -28.982  1.00  0.00     0.161 HD
ENDROOT
BRANCH   1  11
HETATM   11  C   UNL     1      -7.238   1.046 -31.849  1.00  0.00     0.261 C 
HETATM   12  N   UNL     1      -6.993   0.650 -33.149  1.00  0.00    -0.323 N 
HETATM   13  H   UNL     1      -7.225   1.332 -33.861  1.00  0.00     0.169 HD
HETATM   14  O   UNL     1      -7.118   0.348 -30.850  1.00  0.00    -0.267 OA
BRANCH  12  15
HETATM   15  C   UNL     1      -6.429  -0.566 -33.585  1.00  0.00     0.035 A 
HETATM   16  C   UNL     1      -7.163  -1.603 -34.162  1.00  0.00     0.030 A 
HETATM   17  C   UNL     1      -6.544  -2.808 -34.522  1.00  0.00     0.012 A 
HETATM   18  C   UNL     1      -5.175  -3.011 -34.311  1.00  0.00    -0.030 A 
HETATM   19  C   UNL     1      -4.442  -1.955 -33.746  1.00  0.00     0.012 A 
HETATM   20  C   UNL     1      -5.057  -0.747 -33.395  1.00  0.00     0.030 A 
BRANCH  18  21
HETATM   21  C   UNL     1      -4.469  -4.316 -34.623  1.00  0.00     0.147 C 
HETATM   22  C   UNL     1      -3.496  -4.834 -33.567  1.00  0.00     0.044 C 
BRANCH  21  23
HETATM   23  O   UNL     1      -5.461  -5.318 -34.851  1.00  0.00    -0.391 OA
HETATM   24  H   UNL     1      -6.284  -4.861 -35.089  1.00  0.00     0.210 HD
ENDBRANCH  21  23
ENDBRANCH  18  21
ENDBRANCH  12  15
ENDBRANCH   1  11
BRANCH   4  25
HETATM   25  C   UNL     1      -9.471   6.258 -30.130  1.00  0.00     0.409 C 
HETATM   26  F   UNL     1      -9.634   6.924 -28.971  1.00  0.00    -0.169 F 
HETATM   27  F   UNL     1      -9.906   7.043 -31.143  1.00  0.00    -0.169 F 
HETATM   28  F   UNL     1     -10.323   5.196 -30.077  1.00  0.00    -0.169 F 
ENDBRANCH   4  25
BRANCH   6  29
HETATM   29  C   UNL     1      -4.968   5.403 -29.938  1.00  0.00    -0.035 A 
HETATM   30  C   UNL     1      -4.567   6.725 -29.655  1.00  0.00     0.012 A 
HETATM   31  C   UNL     1      -3.547   7.344 -30.384  1.00  0.00     0.043 A 
HETATM   32  C   UNL     1      -2.894   6.639 -31.385  1.00  0.00     0.116 A 
HETATM   33  F   UNL     1      -1.915   7.233 -32.080  1.00  0.00    -0.206 F 
HETATM   34  C   UNL     1      -3.235   5.325 -31.663  1.00  0.00     0.043 A 
HETATM   35  C   UNL     1      -4.259   4.709 -30.938  1.00  0.00     0.012 A 
ENDBRANCH   6  29
TORSDOF 6
ENDMDL
MODEL 9
REMARK VINA RESULT:      -8.3     15.820     17.218
REMARK  6 active torsions:
REMARK  status: ('A' for Active; 'I' for Inactive)
REMARK    1  A    between atoms: C_2  and  O_3 
REMARK    2  A    between atoms: C_2  and  C_4 
REMARK    3  A    between atoms: C_7  and  N_8 
REMARK       I    between atoms: N_8  and  C_9 
REMARK    4  A    between atoms: C_9  and  C_10 
REMARK    5  A    between atoms: C_13  and  C_14 
REMARK    6  A    between atoms: C_19  and  C_20 
ROOT
HETATM    1  C   UNL     1      -6.591 -14.351 -36.606  1.00  0.00     0.096 A 
HETATM    2  C   UNL     1      -6.558 -13.583 -37.756  1.00  0.00     0.138 A 
HETATM    3  N   UNL     1      -7.565 -14.067 -38.561  1.00  0.00    -0.240 N 
HETATM    4  C   UNL     1      -7.952 -13.496 -39.838  1.00  0.00     0.221 C 
HETATM    5  C   UNL     1      -7.284 -12.118 -40.029  1.00  0.00     0.066 C 
HETATM    6  C   UNL     1      -5.812 -12.150 -39.589  1.00  0.00     0.118 C 
HETATM    7  N   UNL     1      -5.790 -12.523 -38.157  1.00  0.00    -0.365 N 
HETATM    8  N   UNL     1      -8.171 -15.155 -38.069  1.00  0.00    -0.181 NA
HETATM    9  C   UNL     1      -7.605 -15.307 -36.869  1.00  0.00     0.160 A 
HETATM   10  H   UNL     1      -5.824 -11.693 -37.557  1.00  0.00     0.161 HD
ENDROOT
BRANCH   1  11
HETATM   11  C   UNL     1      -5.800 -14.276 -35.385  1.00  0.00     0.261 C 
HETATM   12  N   UNL     1      -6.054 -15.292 -34.485  1.00  0.00    -0.323 N 
HETATM   13  H   UNL     1      -6.820 -15.907 -34.731  1.00  0.00     0.169 HD
HETATM   14  O   UNL     1      -4.987 -13.372 -35.240  1.00  0.00    -0.267 OA
BRANCH  12  15
HETATM   15  C   UNL     1      -5.349 -15.586 -33.301  1.00  0.00     0.035 A 
HETATM   16  C   UNL     1      -4.190 -16.362 -33.256  1.00  0.00     0.030 A 
HETATM   17  C   UNL     1      -3.571 -16.660 -32.034  1.00  0.00     0.012 A 
HETATM   18  C   UNL     1      -4.097 -16.195 -30.824  1.00  0.00    -0.030 A 
HETATM   19  C   UNL     1      -5.254 -15.401 -30.880  1.00  0.00     0.012 A 
HETATM   20  C   UNL     1      -5.867 -15.094 -32.101  1.00  0.00     0.030 A 
BRANCH  18  21
HETATM   21  C   UNL     1      -3.505 -16.541 -29.471  1.00  0.00     0.147 C 
HETATM   22  C   UNL     1      -2.070 -16.086 -29.219  1.00  0.00     0.044 C 
BRANCH  21  23
HETATM   23  O   UNL     1      -4.341 -15.977 -28.460  1.00  0.00    -0.391 OA
HETATM   24  H   UNL     1      -4.370 -16.609 -27.723  1.00  0.00     0.210 HD
ENDBRANCH  21  23
ENDBRANCH  18  21
ENDBRANCH  12  15
ENDBRANCH   1  11
BRANCH   4  25
HETATM   25  C   UNL     1      -9.455 -13.337 -39.954  1.00  0.00     0.409 C 
HETATM   26  F   UNL     1     -10.062 -14.336 -40.623  1.00  0.00    -0.169 F 
HETATM   27  F   UNL     1     -10.050 -13.200 -38.748  1.00  0.00    -0.169 F 
HETATM   28  F   UNL     1      -9.732 -12.197 -40.648  1.00  0.00    -0.169 F 
ENDBRANCH   4  25
BRANCH   6  29
HETATM   29  C   UNL     1      -4.901 -13.045 -40.432  1.00  0.00    -0.035 A 
HETATM   30  C   UNL     1      -3.709 -13.580 -39.903  1.00  0.00     0.012 A 
HETATM   31  C   UNL     1      -2.878 -14.399 -40.675  1.00  0.00     0.043 A 
HETATM   32  C   UNL     1      -3.243 -14.716 -41.976  1.00  0.00     0.116 A 
HETATM   33  F   UNL     1      -2.447 -15.502 -42.713  1.00  0.00    -0.206 F 
HETATM   34  C   UNL     1      -4.428 -14.239 -42.515  1.00  0.00     0.043 A 
HETATM   35  C   UNL     1      -5.255 -13.416 -41.745  1.00  0.00     0.012 A 
ENDBRANCH   6  29
TORSDOF 6
ENDMDL
MODEL 10
REMARK VINA RESULT:      -8.2     15.191     17.750
REMARK  6 active torsions:
REMARK  status: ('A' for Active; 'I' for Inactive)
REMARK    1  A    between atoms: C_2  and  O_3 
REMARK    2  A    between atoms: C_2  and  C_4 
REMARK    3  A    between atoms: C_7  and  N_8 
REMARK       I    between atoms: N_8  and  C_9 
REMARK    4  A    between atoms: C_9  and  C_10 
REMARK    5  A    between atoms: C_13  and  C_14 
REMARK    6  A    between atoms: C_19  and  C_20 
ROOT
HETATM    1  C   UNL     1      -5.522 -13.998 -35.019  1.00  0.00     0.096 A 
HETATM    2  C   UNL     1      -5.518 -14.282 -36.374  1.00  0.00     0.138 A 
HETATM    3  N   UNL     1      -4.672 -13.360 -36.949  1.00  0.00    -0.240 N 
HETATM    4  C   UNL     1      -4.297 -13.340 -38.351  1.00  0.00     0.221 C 
HETATM    5  C   UNL     1      -4.740 -14.649 -39.038  1.00  0.00     0.066 C 
HETATM    6  C   UNL     1      -6.158 -15.051 -38.602  1.00  0.00     0.118 C 
HETATM    7  N   UNL     1      -6.129 -15.242 -37.134  1.00  0.00    -0.365 N 
HETATM    8  N   UNL     1      -4.217 -12.437 -36.090  1.00  0.00    -0.181 NA
HETATM    9  C   UNL     1      -4.705 -12.843 -34.915  1.00  0.00     0.160 A 
HETATM   10  H   UNL     1      -5.911 -16.212 -36.891  1.00  0.00     0.161 HD
ENDROOT
BRANCH   1  11
HETATM   11  C   UNL     1      -6.191 -14.660 -33.908  1.00  0.00     0.261 C 
HETATM   12  N   UNL     1      -5.400 -15.571 -33.235  1.00  0.00    -0.323 N 
HETATM   13  H   UNL     1      -4.491 -15.743 -33.648  1.00  0.00     0.169 HD
HETATM   14  O   UNL     1      -7.351 -14.376 -33.636  1.00  0.00    -0.267 OA
BRANCH  12  15
HETATM   15  C   UNL     1      -5.698 -16.246 -32.035  1.00  0.00     0.035 A 
HETATM   16  C   UNL     1      -6.550 -17.347 -31.951  1.00  0.00     0.030 A 
HETATM   17  C   UNL     1      -6.845 -17.936 -30.714  1.00  0.00     0.012 A 
HETATM   18  C   UNL     1      -6.300 -17.436 -29.526  1.00  0.00    -0.030 A 
HETATM   19  C   UNL     1      -5.429 -16.338 -29.622  1.00  0.00     0.012 A 
HETATM   20  C   UNL     1      -5.126 -15.755 -30.858  1.00  0.00     0.030 A 
BRANCH  18  21
HETATM   21  C   UNL     1      -6.635 -17.995 -28.156  1.00  0.00     0.147 C 
HETATM   22  C   UNL     1      -5.466 -18.194 -27.196  1.00  0.00     0.044 C 
BRANCH  21  23
HETATM   23  O   UNL     1      -7.582 -17.123 -27.538  1.00  0.00    -0.391 OA
HETATM   24  H   UNL     1      -8.067 -16.672 -28.248  1.00  0.00     0.210 HD
ENDBRANCH  21  23
ENDBRANCH  18  21
ENDBRANCH  12  15
ENDBRANCH   1  11
BRANCH   4  25
HETATM   25  C   UNL     1      -2.803 -13.167 -38.535  1.00  0.00     0.409 C 
HETATM   26  F   UNL     1      -2.382 -11.892 -38.432  1.00  0.00    -0.169 F 
HETATM   27  F   UNL     1      -2.090 -13.928 -37.674  1.00  0.00    -0.169 F 
HETATM   28  F   UNL     1      -2.456 -13.579 -39.786  1.00  0.00    -0.169 F 
ENDBRANCH   4  25
BRANCH   6  29
HETATM   29  C   UNL     1      -7.269 -14.092 -39.037  1.00  0.00    -0.035 A 
HETATM   30  C   UNL     1      -7.087 -13.203 -40.116  1.00  0.00     0.012 A 
HETATM   31  C   UNL     1      -8.104 -12.329 -40.512  1.00  0.00     0.043 A 
HETATM   32  C   UNL     1      -9.325 -12.352 -39.854  1.00  0.00     0.116 A 
HETATM   33  F   UNL     1     -10.298 -11.515 -40.237  1.00  0.00    -0.206 F 
HETATM   34  C   UNL     1      -9.552 -13.240 -38.815  1.00  0.00     0.043 A 
HETATM   35  C   UNL     1      -8.533 -14.110 -38.415  1.00  0.00     0.012 A 
ENDBRANCH   6  29
TORSDOF 6
ENDMDL
