MODEL 1
REMARK VINA RESULT:      -7.9      0.000      0.000
REMARK  7 active torsions:
REMARK  status: ('A' for Active; 'I' for Inactive)
REMARK    1  A    between atoms: C_2  and  N_3 
REMARK    2  A    between atoms: N_3  and  C_4 
REMARK    3  A    between atoms: C_6  and  C_7 
REMARK    4  A    between atoms: C_7  and  N_8 
REMARK       I    between atoms: N_8  and  C_9 
REMARK       I    between atoms: C_9  and  N_10 
REMARK    5  A    between atoms: N_10  and  C_11 
REMARK    6  A    between atoms: C_11  and  C_12 
REMARK    7  A    between atoms: C_12  and  N_13 
ROOT
HETATM    1  N   UNL     1      -4.530   1.365 -31.088  1.00  0.00    -0.339 N 
HETATM    2  C   UNL     1      -4.453   2.713 -31.239  1.00  0.00     0.316 C 
HETATM    3  N   UNL     1      -3.171   3.179 -31.140  1.00  0.00    -0.342 N 
HETATM    4  O   UNL     1      -5.410   3.460 -31.407  1.00  0.00    -0.248 OA
HETATM    5  H   UNL     1      -3.755   0.875 -30.670  1.00  0.00     0.164 HD
HETATM    6  H   UNL     1      -2.466   2.456 -31.202  1.00  0.00     0.164 HD
ENDROOT
BRANCH   1   7
HETATM    7  C   UNL     1      -5.795   0.657 -31.126  1.00  0.00     0.162 C 
BRANCH   7   8
HETATM    8  C   UNL     1      -6.121   0.135 -32.501  1.00  0.00    -0.039 A 
HETATM    9  C   UNL     1      -5.443  -0.988 -33.007  1.00  0.00     0.032 A 
HETATM   10  C   UNL     1      -5.793  -1.572 -34.232  1.00  0.00     0.009 A 
HETATM   11  C   UNL     1      -6.780  -0.951 -35.001  1.00  0.00     0.023 A 
HETATM   12  C   UNL     1      -7.460   0.172 -34.521  1.00  0.00     0.002 A 
HETATM   13  C   UNL     1      -7.144   0.702 -33.271  1.00  0.00     0.009 A 
BRANCH  10  14
HETATM   14  N   UNL     1      -5.041  -2.674 -34.665  1.00  0.00    -0.289 NA
HETATM   15  H   UNL     1      -4.908  -2.588 -35.673  1.00  0.00     0.128 HD
BRANCH  14  16
HETATM   16  C   UNL     1      -5.491  -4.033 -34.320  1.00  0.00     0.052 C 
HETATM   17  C   UNL     1      -4.296  -4.958 -34.078  1.00  0.00     0.026 C 
HETATM   18  C   UNL     1      -6.321  -4.572 -35.488  1.00  0.00     0.026 C 
ENDBRANCH  14  16
ENDBRANCH  10  14
ENDBRANCH   7   8
ENDBRANCH   1   7
BRANCH   3  19
HETATM   19  C   UNL     1      -2.723   4.512 -31.539  1.00  0.00     0.152 C 
BRANCH  19  20
HETATM   20  C   UNL     1      -1.286   4.964 -31.199  1.00  0.00     0.255 C 
BRANCH  20  21
HETATM   21  N   UNL     1      -1.199   5.860 -29.992  1.00  0.00    -0.065 N 
HETATM   22  H   UNL     1      -1.319   5.211 -29.190  1.00  0.00     0.280 HD
HETATM   23  C   UNL     1       0.130   6.553 -29.812  1.00  0.00     0.274 C 
HETATM   24  C   UNL     1       0.095   7.565 -28.716  1.00  0.00    -0.019 A 
HETATM   25  C   UNL     1      -1.086   7.983 -28.135  1.00  0.00    -0.008 A 
HETATM   26  C   UNL     1       1.216   8.241 -28.140  1.00  0.00     0.017 A 
HETATM   27  S   UNL     1      -0.857   9.145 -26.918  1.00  0.00    -0.106 SA
HETATM   28  C   UNL     1      -2.439   7.466 -28.503  1.00  0.00     0.074 C 
HETATM   29  C   UNL     1       0.838   9.127 -27.154  1.00  0.00     0.051 A 
HETATM   30  C   UNL     1      -2.382   6.813 -29.894  1.00  0.00     0.240 C 
ENDBRANCH  20  21
ENDBRANCH  19  20
ENDBRANCH   3  19
TORSDOF 7
ENDMDL
MODEL 2
REMARK VINA RESULT:      -7.8      1.527      1.930
REMARK  7 active torsions:
REMARK  status: ('A' for Active; 'I' for Inactive)
REMARK    1  A    between atoms: C_2  and  N_3 
REMARK    2  A    between atoms: N_3  and  C_4 
REMARK    3  A    between atoms: C_6  and  C_7 
REMARK    4  A    between atoms: C_7  and  N_8 
REMARK       I    between atoms: N_8  and  C_9 
REMARK       I    between atoms: C_9  and  N_10 
REMARK    5  A    between atoms: N_10  and  C_11 
REMARK    6  A    between atoms: C_11  and  C_12 
REMARK    7  A    between atoms: C_12  and  N_13 
ROOT
HETATM    1  N   UNL     1      -4.453   3.201 -32.935  1.00  0.00    -0.339 N 
HETATM    2  C   UNL     1      -3.207   3.414 -32.437  1.00  0.00     0.316 C 
HETATM    3  N   UNL     1      -2.496   4.319 -33.175  1.00  0.00    -0.342 N 
HETATM    4  O   UNL     1      -2.732   2.846 -31.461  1.00  0.00    -0.248 OA
HETATM    5  H   UNL     1      -4.654   3.477 -33.883  1.00  0.00     0.164 HD
HETATM    6  H   UNL     1      -3.060   4.855 -33.822  1.00  0.00     0.164 HD
ENDROOT
BRANCH   1   7
HETATM    7  C   UNL     1      -5.374   2.258 -32.330  1.00  0.00     0.162 C 
BRANCH   7   8
HETATM    8  C   UNL     1      -5.888   1.242 -33.318  1.00  0.00    -0.039 A 
HETATM    9  C   UNL     1      -5.635  -0.126 -33.117  1.00  0.00     0.032 A 
HETATM   10  C   UNL     1      -6.189  -1.109 -33.949  1.00  0.00     0.009 A 
HETATM   11  C   UNL     1      -6.930  -0.694 -35.057  1.00  0.00     0.023 A 
HETATM   12  C   UNL     1      -7.186   0.662 -35.280  1.00  0.00     0.002 A 
HETATM   13  C   UNL     1      -6.681   1.624 -34.407  1.00  0.00     0.009 A 
BRANCH  10  14
HETATM   14  N   UNL     1      -5.857  -2.446 -33.684  1.00  0.00    -0.289 NA
HETATM   15  H   UNL     1      -5.215  -2.460 -32.891  1.00  0.00     0.128 HD
BRANCH  14  16
HETATM   16  C   UNL     1      -5.341  -3.289 -34.776  1.00  0.00     0.052 C 
HETATM   17  C   UNL     1      -6.371  -4.345 -35.183  1.00  0.00     0.026 C 
HETATM   18  C   UNL     1      -4.069  -3.983 -34.283  1.00  0.00     0.026 C 
ENDBRANCH  14  16
ENDBRANCH  10  14
ENDBRANCH   7   8
ENDBRANCH   1   7
BRANCH   3  19
HETATM   19  C   UNL     1      -1.260   4.973 -32.748  1.00  0.00     0.152 C 
BRANCH  19  20
HETATM   20  C   UNL     1      -1.299   6.449 -32.295  1.00  0.00     0.255 C 
BRANCH  20  21
HETATM   21  N   UNL     1      -0.565   6.710 -31.007  1.00  0.00    -0.065 N 
HETATM   22  H   UNL     1       0.388   6.988 -31.314  1.00  0.00     0.280 HD
HETATM   23  C   UNL     1      -1.118   7.847 -30.181  1.00  0.00     0.274 C 
HETATM   24  C   UNL     1      -0.472   7.937 -28.839  1.00  0.00    -0.019 A 
HETATM   25  C   UNL     1       0.334   6.933 -28.340  1.00  0.00    -0.008 A 
HETATM   26  C   UNL     1      -0.598   9.007 -27.900  1.00  0.00     0.017 A 
HETATM   27  S   UNL     1       0.939   7.271 -26.790  1.00  0.00    -0.106 SA
HETATM   28  C   UNL     1       0.675   5.678 -29.076  1.00  0.00     0.074 C 
HETATM   29  C   UNL     1       0.117   8.771 -26.744  1.00  0.00     0.051 A 
HETATM   30  C   UNL     1      -0.351   5.440 -30.196  1.00  0.00     0.240 C 
ENDBRANCH  20  21
ENDBRANCH  19  20
ENDBRANCH   3  19
TORSDOF 7
ENDMDL
MODEL 3
REMARK VINA RESULT:      -7.8      3.319      4.118
REMARK  7 active torsions:
REMARK  status: ('A' for Active; 'I' for Inactive)
REMARK    1  A    between atoms: C_2  and  N_3 
REMARK    2  A    between atoms: N_3  and  C_4 
REMARK    3  A    between atoms: C_6  and  C_7 
REMARK    4  A    between atoms: C_7  and  N_8 
REMARK       I    between atoms: N_8  and  C_9 
REMARK       I    between atoms: C_9  and  N_10 
REMARK    5  A    between atoms: N_10  and  C_11 
REMARK    6  A    between atoms: C_11  and  C_12 
REMARK    7  A    between atoms: C_12  and  N_13 
ROOT
HETATM    1  N   UNL     1      -7.513   1.254 -30.558  1.00  0.00    -0.339 N 
HETATM    2  C   UNL     1      -7.392   2.599 -30.710  1.00  0.00     0.316 C 
HETATM    3  N   UNL     1      -7.292   3.254 -29.514  1.00  0.00    -0.342 N 
HETATM    4  O   UNL     1      -7.405   3.191 -31.782  1.00  0.00    -0.248 OA
HETATM    5  H   UNL     1      -7.784   0.886 -29.660  1.00  0.00     0.164 HD
HETATM    6  H   UNL     1      -7.093   2.647 -28.729  1.00  0.00     0.164 HD
ENDROOT
BRANCH   1   7
HETATM    7  C   UNL     1      -7.664   0.362 -31.692  1.00  0.00     0.162 C 
BRANCH   7   8
HETATM    8  C   UNL     1      -6.358  -0.267 -32.105  1.00  0.00    -0.039 A 
HETATM    9  C   UNL     1      -6.324  -1.187 -33.167  1.00  0.00     0.032 A 
HETATM   10  C   UNL     1      -5.118  -1.708 -33.655  1.00  0.00     0.009 A 
HETATM   11  C   UNL     1      -3.937  -1.366 -32.994  1.00  0.00     0.023 A 
HETATM   12  C   UNL     1      -3.949  -0.461 -31.930  1.00  0.00     0.002 A 
HETATM   13  C   UNL     1      -5.150   0.099 -31.498  1.00  0.00     0.009 A 
BRANCH  10  14
HETATM   14  N   UNL     1      -5.189  -2.640 -34.701  1.00  0.00    -0.289 NA
HETATM   15  H   UNL     1      -5.812  -2.264 -35.416  1.00  0.00     0.128 HD
BRANCH  14  16
HETATM   16  C   UNL     1      -5.543  -4.037 -34.396  1.00  0.00     0.052 C 
HETATM   17  C   UNL     1      -4.290  -4.868 -34.113  1.00  0.00     0.026 C 
HETATM   18  C   UNL     1      -6.275  -4.620 -35.608  1.00  0.00     0.026 C 
ENDBRANCH  14  16
ENDBRANCH  10  14
ENDBRANCH   7   8
ENDBRANCH   1   7
BRANCH   3  19
HETATM   19  C   UNL     1      -6.864   4.641 -29.343  1.00  0.00     0.152 C 
BRANCH  19  20
HETATM   20  C   UNL     1      -5.356   4.975 -29.339  1.00  0.00     0.255 C 
BRANCH  20  21
HETATM   21  N   UNL     1      -4.743   5.039 -30.713  1.00  0.00    -0.065 N 
HETATM   22  H   UNL     1      -5.562   5.088 -31.350  1.00  0.00     0.280 HD
HETATM   23  C   UNL     1      -3.899   6.263 -30.974  1.00  0.00     0.274 C 
HETATM   24  C   UNL     1      -3.170   6.180 -32.274  1.00  0.00    -0.019 A 
HETATM   25  C   UNL     1      -3.086   5.008 -32.998  1.00  0.00    -0.008 A 
HETATM   26  C   UNL     1      -2.463   7.237 -32.927  1.00  0.00     0.017 A 
HETATM   27  S   UNL     1      -2.196   5.173 -34.435  1.00  0.00    -0.106 SA
HETATM   28  C   UNL     1      -3.724   3.717 -32.596  1.00  0.00     0.074 C 
HETATM   29  C   UNL     1      -1.886   6.824 -34.109  1.00  0.00     0.051 A 
HETATM   30  C   UNL     1      -4.039   3.743 -31.092  1.00  0.00     0.240 C 
ENDBRANCH  20  21
ENDBRANCH  19  20
ENDBRANCH   3  19
TORSDOF 7
ENDMDL
MODEL 4
REMARK VINA RESULT:      -7.8      3.655      9.424
REMARK  7 active torsions:
REMARK  status: ('A' for Active; 'I' for Inactive)
REMARK    1  A    between atoms: C_2  and  N_3 
REMARK    2  A    between atoms: N_3  and  C_4 
REMARK    3  A    between atoms: C_6  and  C_7 
REMARK    4  A    between atoms: C_7  and  N_8 
REMARK       I    between atoms: N_8  and  C_9 
REMARK       I    between atoms: C_9  and  N_10 
REMARK    5  A    between atoms: N_10  and  C_11 
REMARK    6  A    between atoms: C_11  and  C_12 
REMARK    7  A    between atoms: C_12  and  N_13 
ROOT
HETATM    1  N   UNL     1      -6.489   4.549 -33.840  1.00  0.00    -0.339 N 
HETATM    2  C   UNL     1      -7.575   4.079 -33.173  1.00  0.00     0.316 C 
HETATM    3  N   UNL     1      -8.188   3.048 -33.831  1.00  0.00    -0.342 N 
HETATM    4  O   UNL     1      -8.005   4.531 -32.119  1.00  0.00    -0.248 OA
HETATM    5  H   UNL     1      -6.380   4.324 -34.817  1.00  0.00     0.164 HD
HETATM    6  H   UNL     1      -7.629   2.645 -34.572  1.00  0.00     0.164 HD
ENDROOT
BRANCH   1   7
HETATM    7  C   UNL     1      -5.701   5.661 -33.343  1.00  0.00     0.162 C 
BRANCH   7   8
HETATM    8  C   UNL     1      -4.221   5.443 -33.524  1.00  0.00    -0.039 A 
HETATM    9  C   UNL     1      -3.402   5.207 -32.406  1.00  0.00     0.032 A 
HETATM   10  C   UNL     1      -2.043   4.889 -32.539  1.00  0.00     0.009 A 
HETATM   11  C   UNL     1      -1.486   4.905 -33.819  1.00  0.00     0.023 A 
HETATM   12  C   UNL     1      -2.280   5.146 -34.943  1.00  0.00     0.002 A 
HETATM   13  C   UNL     1      -3.643   5.397 -34.799  1.00  0.00     0.009 A 
BRANCH  10  14
HETATM   14  N   UNL     1      -1.303   4.698 -31.364  1.00  0.00    -0.289 NA
HETATM   15  H   UNL     1      -1.909   4.912 -30.571  1.00  0.00     0.128 HD
BRANCH  14  16
HETATM   16  C   UNL     1      -0.004   5.375 -31.213  1.00  0.00     0.052 C 
HETATM   17  C   UNL     1       0.754   4.838 -29.998  1.00  0.00     0.026 C 
HETATM   18  C   UNL     1      -0.265   6.872 -31.028  1.00  0.00     0.026 C 
ENDBRANCH  14  16
ENDBRANCH  10  14
ENDBRANCH   7   8
ENDBRANCH   1   7
BRANCH   3  19
HETATM   19  C   UNL     1      -9.184   2.150 -33.251  1.00  0.00     0.152 C 
BRANCH  19  20
HETATM   20  C   UNL     1      -8.830   1.336 -31.987  1.00  0.00     0.255 C 
BRANCH  20  21
HETATM   21  N   UNL     1      -7.762   0.298 -32.211  1.00  0.00    -0.065 N 
HETATM   22  H   UNL     1      -7.939  -0.406 -31.468  1.00  0.00     0.280 HD
HETATM   23  C   UNL     1      -7.845  -0.419 -33.537  1.00  0.00     0.274 C 
HETATM   24  C   UNL     1      -6.662  -1.295 -33.780  1.00  0.00    -0.019 A 
HETATM   25  C   UNL     1      -5.525  -1.232 -32.998  1.00  0.00    -0.008 A 
HETATM   26  C   UNL     1      -6.516  -2.268 -34.818  1.00  0.00     0.017 A 
HETATM   27  S   UNL     1      -4.319  -2.324 -33.485  1.00  0.00    -0.106 SA
HETATM   28  C   UNL     1      -5.355  -0.324 -31.824  1.00  0.00     0.074 C 
HETATM   29  C   UNL     1      -5.290  -2.897 -34.772  1.00  0.00     0.051 A 
HETATM   30  C   UNL     1      -6.367   0.829 -31.912  1.00  0.00     0.240 C 
ENDBRANCH  20  21
ENDBRANCH  19  20
ENDBRANCH   3  19
TORSDOF 7
ENDMDL
MODEL 5
REMARK VINA RESULT:      -7.7      3.710      9.920
REMARK  7 active torsions:
REMARK  status: ('A' for Active; 'I' for Inactive)
REMARK    1  A    between atoms: C_2  and  N_3 
REMARK    2  A    between atoms: N_3  and  C_4 
REMARK    3  A    between atoms: C_6  and  C_7 
REMARK    4  A    between atoms: C_7  and  N_8 
REMARK       I    between atoms: N_8  and  C_9 
REMARK       I    between atoms: C_9  and  N_10 
REMARK    5  A    between atoms: N_10  and  C_11 
REMARK    6  A    between atoms: C_11  and  C_12 
REMARK    7  A    between atoms: C_12  and  N_13 
ROOT
HETATM    1  N   UNL     1      -6.441   3.244 -31.178  1.00  0.00    -0.339 N 
HETATM    2  C   UNL     1      -6.849   1.969 -31.412  1.00  0.00     0.316 C 
HETATM    3  N   UNL     1      -8.102   1.912 -31.958  1.00  0.00    -0.342 N 
HETATM    4  O   UNL     1      -6.207   0.962 -31.140  1.00  0.00    -0.248 OA
HETATM    5  H   UNL     1      -7.128   3.981 -31.156  1.00  0.00     0.164 HD
HETATM    6  H   UNL     1      -8.435   2.800 -32.313  1.00  0.00     0.164 HD
ENDROOT
BRANCH   1   7
HETATM    7  C   UNL     1      -5.156   3.542 -30.575  1.00  0.00     0.162 C 
BRANCH   7   8
HETATM    8  C   UNL     1      -4.158   4.062 -31.577  1.00  0.00    -0.039 A 
HETATM    9  C   UNL     1      -2.806   4.199 -31.218  1.00  0.00     0.032 A 
HETATM   10  C   UNL     1      -1.827   4.570 -32.150  1.00  0.00     0.009 A 
HETATM   11  C   UNL     1      -2.241   4.902 -33.442  1.00  0.00     0.023 A 
HETATM   12  C   UNL     1      -3.581   4.782 -33.817  1.00  0.00     0.002 A 
HETATM   13  C   UNL     1      -4.532   4.349 -32.895  1.00  0.00     0.009 A 
BRANCH  10  14
HETATM   14  N   UNL     1      -0.510   4.706 -31.690  1.00  0.00    -0.289 NA
HETATM   15  H   UNL     1      -0.138   3.772 -31.518  1.00  0.00     0.128 HD
BRANCH  14  16
HETATM   16  C   UNL     1      -0.236   5.586 -30.541  1.00  0.00     0.052 C 
HETATM   17  C   UNL     1       0.333   6.928 -31.004  1.00  0.00     0.026 C 
HETATM   18  C   UNL     1       0.783   4.888 -29.637  1.00  0.00     0.026 C 
ENDBRANCH  14  16
ENDBRANCH  10  14
ENDBRANCH   7   8
ENDBRANCH   1   7
BRANCH   3  19
HETATM   19  C   UNL     1      -8.697   0.735 -32.586  1.00  0.00     0.152 C 
BRANCH  19  20
HETATM   20  C   UNL     1      -8.130   0.220 -33.927  1.00  0.00     0.255 C 
BRANCH  20  21
HETATM   21  N   UNL     1      -7.089  -0.857 -33.773  1.00  0.00    -0.065 N 
HETATM   22  H   UNL     1      -7.076  -1.049 -32.752  1.00  0.00     0.280 HD
HETATM   23  C   UNL     1      -7.415  -2.157 -34.469  1.00  0.00     0.274 C 
HETATM   24  C   UNL     1      -6.271  -3.115 -34.441  1.00  0.00    -0.019 A 
HETATM   25  C   UNL     1      -5.000  -2.735 -34.056  1.00  0.00    -0.008 A 
HETATM   26  C   UNL     1      -6.303  -4.496 -34.809  1.00  0.00     0.017 A 
HETATM   27  S   UNL     1      -3.876  -4.006 -34.119  1.00  0.00    -0.106 SA
HETATM   28  C   UNL     1      -4.629  -1.361 -33.604  1.00  0.00     0.074 C 
HETATM   29  C   UNL     1      -5.069  -5.097 -34.682  1.00  0.00     0.051 A 
HETATM   30  C   UNL     1      -5.686  -0.354 -34.087  1.00  0.00     0.240 C 
ENDBRANCH  20  21
ENDBRANCH  19  20
ENDBRANCH   3  19
TORSDOF 7
ENDMDL
MODEL 6
REMARK VINA RESULT:      -7.7      2.031      3.000
REMARK  7 active torsions:
REMARK  status: ('A' for Active; 'I' for Inactive)
REMARK    1  A    between atoms: C_2  and  N_3 
REMARK    2  A    between atoms: N_3  and  C_4 
REMARK    3  A    between atoms: C_6  and  C_7 
REMARK    4  A    between atoms: C_7  and  N_8 
REMARK       I    between atoms: N_8  and  C_9 
REMARK       I    between atoms: C_9  and  N_10 
REMARK    5  A    between atoms: N_10  and  C_11 
REMARK    6  A    between atoms: C_11  and  C_12 
REMARK    7  A    between atoms: C_12  and  N_13 
ROOT
HETATM    1  N   UNL     1      -3.672   3.581 -32.488  1.00  0.00    -0.339 N 
HETATM    2  C   UNL     1      -2.449   4.154 -32.632  1.00  0.00     0.316 C 
HETATM    3  N   UNL     1      -2.299   4.770 -33.843  1.00  0.00    -0.342 N 
HETATM    4  O   UNL     1      -1.547   4.109 -31.804  1.00  0.00    -0.248 OA
HETATM    5  H   UNL     1      -4.233   3.413 -33.308  1.00  0.00     0.164 HD
HETATM    6  H   UNL     1      -3.168   4.908 -34.344  1.00  0.00     0.164 HD
ENDROOT
BRANCH   1   7
HETATM    7  C   UNL     1      -4.042   2.846 -31.293  1.00  0.00     0.162 C 
BRANCH   7   8
HETATM    8  C   UNL     1      -4.089   1.358 -31.526  1.00  0.00    -0.039 A 
HETATM    9  C   UNL     1      -5.216   0.775 -32.132  1.00  0.00     0.032 A 
HETATM   10  C   UNL     1      -5.254  -0.586 -32.468  1.00  0.00     0.009 A 
HETATM   11  C   UNL     1      -4.172  -1.386 -32.096  1.00  0.00     0.023 A 
HETATM   12  C   UNL     1      -3.046  -0.829 -31.485  1.00  0.00     0.002 A 
HETATM   13  C   UNL     1      -2.997   0.538 -31.216  1.00  0.00     0.009 A 
BRANCH  10  14
HETATM   14  N   UNL     1      -6.433  -1.079 -33.044  1.00  0.00    -0.289 NA
HETATM   15  H   UNL     1      -6.711  -1.914 -32.527  1.00  0.00     0.128 HD
BRANCH  14  16
HETATM   16  C   UNL     1      -6.471  -1.338 -34.494  1.00  0.00     0.052 C 
HETATM   17  C   UNL     1      -7.478  -0.417 -35.186  1.00  0.00     0.026 C 
HETATM   18  C   UNL     1      -6.887  -2.796 -34.708  1.00  0.00     0.026 C 
ENDBRANCH  14  16
ENDBRANCH  10  14
ENDBRANCH   7   8
ENDBRANCH   1   7
BRANCH   3  19
HETATM   19  C   UNL     1      -1.234   5.711 -34.187  1.00  0.00     0.152 C 
BRANCH  19  20
HETATM   20  C   UNL     1      -1.298   7.158 -33.653  1.00  0.00     0.255 C 
BRANCH  20  21
HETATM   21  N   UNL     1      -1.416   7.249 -32.154  1.00  0.00    -0.065 N 
HETATM   22  H   UNL     1      -2.015   6.438 -31.901  1.00  0.00     0.280 HD
HETATM   23  C   UNL     1      -0.114   7.096 -31.405  1.00  0.00     0.274 C 
HETATM   24  C   UNL     1      -0.264   7.380 -29.948  1.00  0.00    -0.019 A 
HETATM   25  C   UNL     1      -1.399   7.967 -29.424  1.00  0.00    -0.008 A 
HETATM   26  C   UNL     1       0.700   7.126 -28.924  1.00  0.00     0.017 A 
HETATM   27  S   UNL     1      -1.319   8.193 -27.743  1.00  0.00    -0.106 SA
HETATM   28  C   UNL     1      -2.599   8.352 -30.226  1.00  0.00     0.074 C 
HETATM   29  C   UNL     1       0.254   7.522 -27.680  1.00  0.00     0.051 A 
HETATM   30  C   UNL     1      -2.214   8.468 -31.710  1.00  0.00     0.240 C 
ENDBRANCH  20  21
ENDBRANCH  19  20
ENDBRANCH   3  19
TORSDOF 7
ENDMDL
MODEL 7
REMARK VINA RESULT:      -7.6      6.606      9.365
REMARK  7 active torsions:
REMARK  status: ('A' for Active; 'I' for Inactive)
REMARK    1  A    between atoms: C_2  and  N_3 
REMARK    2  A    between atoms: N_3  and  C_4 
REMARK    3  A    between atoms: C_6  and  C_7 
REMARK    4  A    between atoms: C_7  and  N_8 
REMARK       I    between atoms: N_8  and  C_9 
REMARK       I    between atoms: C_9  and  N_10 
REMARK    5  A    between atoms: N_10  and  C_11 
REMARK    6  A    between atoms: C_11  and  C_12 
REMARK    7  A    between atoms: C_12  and  N_13 
ROOT
HETATM    1  N   UNL     1      -8.201   1.848 -31.987  1.00  0.00    -0.339 N 
HETATM    2  C   UNL     1      -8.664   2.434 -33.122  1.00  0.00     0.316 C 
HETATM    3  N   UNL     1      -8.770   3.792 -33.004  1.00  0.00    -0.342 N 
HETATM    4  O   UNL     1      -8.994   1.837 -34.139  1.00  0.00    -0.248 OA
HETATM    5  H   UNL     1      -8.233   2.365 -31.122  1.00  0.00     0.164 HD
HETATM    6  H   UNL     1      -8.285   4.174 -32.202  1.00  0.00     0.164 HD
ENDROOT
BRANCH   1   7
HETATM    7  C   UNL     1      -8.037   0.412 -31.873  1.00  0.00     0.162 C 
BRANCH   7   8
HETATM    8  C   UNL     1      -6.695  -0.055 -32.375  1.00  0.00    -0.039 A 
HETATM    9  C   UNL     1      -6.620  -1.055 -33.360  1.00  0.00     0.032 A 
HETATM   10  C   UNL     1      -5.400  -1.437 -33.934  1.00  0.00     0.009 A 
HETATM   11  C   UNL     1      -4.228  -0.866 -33.433  1.00  0.00     0.023 A 
HETATM   12  C   UNL     1      -4.279   0.123 -32.447  1.00  0.00     0.002 A 
HETATM   13  C   UNL     1      -5.506   0.539 -31.933  1.00  0.00     0.009 A 
BRANCH  10  14
HETATM   14  N   UNL     1      -5.425  -2.463 -34.890  1.00  0.00    -0.289 NA
HETATM   15  H   UNL     1      -6.108  -2.211 -35.605  1.00  0.00     0.128 HD
BRANCH  14  16
HETATM   16  C   UNL     1      -5.632  -3.853 -34.449  1.00  0.00     0.052 C 
HETATM   17  C   UNL     1      -4.296  -4.536 -34.150  1.00  0.00     0.026 C 
HETATM   18  C   UNL     1      -6.348  -4.608 -35.571  1.00  0.00     0.026 C 
ENDBRANCH  14  16
ENDBRANCH  10  14
ENDBRANCH   7   8
ENDBRANCH   1   7
BRANCH   3  19
HETATM   19  C   UNL     1      -8.952   4.725 -34.115  1.00  0.00     0.152 C 
BRANCH  19  20
HETATM   20  C   UNL     1     -10.371   4.971 -34.675  1.00  0.00     0.255 C 
BRANCH  20  21
HETATM   21  N   UNL     1     -11.340   3.855 -34.389  1.00  0.00    -0.065 N 
HETATM   22  H   UNL     1     -10.748   3.111 -33.970  1.00  0.00     0.280 HD
HETATM   23  C   UNL     1     -12.416   4.191 -33.385  1.00  0.00     0.274 C 
HETATM   24  C   UNL     1     -13.449   3.119 -33.284  1.00  0.00    -0.019 A 
HETATM   25  C   UNL     1     -13.532   2.087 -34.197  1.00  0.00    -0.008 A 
HETATM   26  C   UNL     1     -14.475   3.011 -32.294  1.00  0.00     0.017 A 
HETATM   27  S   UNL     1     -14.798   1.004 -33.867  1.00  0.00    -0.106 SA
HETATM   28  C   UNL     1     -12.602   1.902 -35.352  1.00  0.00     0.074 C 
HETATM   29  C   UNL     1     -15.278   1.908 -32.496  1.00  0.00     0.051 A 
HETATM   30  C   UNL     1     -11.894   3.231 -35.663  1.00  0.00     0.240 C 
ENDBRANCH  20  21
ENDBRANCH  19  20
ENDBRANCH   3  19
TORSDOF 7
ENDMDL
MODEL 8
REMARK VINA RESULT:      -7.6      3.540     10.820
REMARK  7 active torsions:
REMARK  status: ('A' for Active; 'I' for Inactive)
REMARK    1  A    between atoms: C_2  and  N_3 
REMARK    2  A    between atoms: N_3  and  C_4 
REMARK    3  A    between atoms: C_6  and  C_7 
REMARK    4  A    between atoms: C_7  and  N_8 
REMARK       I    between atoms: N_8  and  C_9 
REMARK       I    between atoms: C_9  and  N_10 
REMARK    5  A    between atoms: N_10  and  C_11 
REMARK    6  A    between atoms: C_11  and  C_12 
REMARK    7  A    between atoms: C_12  and  N_13 
ROOT
HETATM    1  N   UNL     1      -3.268   4.212 -33.242  1.00  0.00    -0.339 N 
HETATM    2  C   UNL     1      -3.746   3.123 -32.586  1.00  0.00     0.316 C 
HETATM    3  N   UNL     1      -5.085   2.936 -32.787  1.00  0.00    -0.342 N 
HETATM    4  O   UNL     1      -3.085   2.393 -31.857  1.00  0.00    -0.248 OA
HETATM    5  H   UNL     1      -3.918   4.909 -33.571  1.00  0.00     0.164 HD
HETATM    6  H   UNL     1      -5.464   3.477 -33.554  1.00  0.00     0.164 HD
ENDROOT
BRANCH   1   7
HETATM    7  C   UNL     1      -1.879   4.620 -33.148  1.00  0.00     0.162 C 
BRANCH   7   8
HETATM    8  C   UNL     1      -1.703   5.878 -32.338  1.00  0.00    -0.039 A 
HETATM    9  C   UNL     1      -0.689   5.955 -31.368  1.00  0.00     0.032 A 
HETATM   10  C   UNL     1      -0.419   7.142 -30.672  1.00  0.00     0.009 A 
HETATM   11  C   UNL     1      -1.254   8.239 -30.894  1.00  0.00     0.023 A 
HETATM   12  C   UNL     1      -2.274   8.182 -31.847  1.00  0.00     0.002 A 
HETATM   13  C   UNL     1      -2.488   7.013 -32.577  1.00  0.00     0.009 A 
BRANCH  10  14
HETATM   14  N   UNL     1       0.595   7.112 -29.705  1.00  0.00    -0.289 NA
HETATM   15  H   UNL     1       0.972   6.165 -29.672  1.00  0.00     0.128 HD
BRANCH  14  16
HETATM   16  C   UNL     1       0.306   7.595 -28.344  1.00  0.00     0.052 C 
HETATM   17  C   UNL     1       1.447   8.470 -27.821  1.00  0.00     0.026 C 
HETATM   18  C   UNL     1       0.140   6.378 -27.430  1.00  0.00     0.026 C 
ENDBRANCH  14  16
ENDBRANCH  10  14
ENDBRANCH   7   8
ENDBRANCH   1   7
BRANCH   3  19
HETATM   19  C   UNL     1      -5.826   1.718 -32.468  1.00  0.00     0.152 C 
BRANCH  19  20
HETATM   20  C   UNL     1      -6.290   0.789 -33.611  1.00  0.00     0.255 C 
BRANCH  20  21
HETATM   21  N   UNL     1      -5.768  -0.619 -33.501  1.00  0.00    -0.065 N 
HETATM   22  H   UNL     1      -6.054  -0.918 -32.549  1.00  0.00     0.280 HD
HETATM   23  C   UNL     1      -6.374  -1.598 -34.479  1.00  0.00     0.274 C 
HETATM   24  C   UNL     1      -5.689  -2.923 -34.450  1.00  0.00    -0.019 A 
HETATM   25  C   UNL     1      -4.487  -3.117 -33.798  1.00  0.00    -0.008 A 
HETATM   26  C   UNL     1      -6.131  -4.128 -35.078  1.00  0.00     0.017 A 
HETATM   27  S   UNL     1      -3.911  -4.710 -33.920  1.00  0.00    -0.106 SA
HETATM   28  C   UNL     1      -3.758  -2.060 -33.034  1.00  0.00     0.074 C 
HETATM   29  C   UNL     1      -5.257  -5.174 -34.870  1.00  0.00     0.051 A 
HETATM   30  C   UNL     1      -4.247  -0.672 -33.479  1.00  0.00     0.240 C 
ENDBRANCH  20  21
ENDBRANCH  19  20
ENDBRANCH   3  19
TORSDOF 7
ENDMDL
MODEL 9
REMARK VINA RESULT:      -7.5      4.327      5.344
REMARK  7 active torsions:
REMARK  status: ('A' for Active; 'I' for Inactive)
REMARK    1  A    between atoms: C_2  and  N_3 
REMARK    2  A    between atoms: N_3  and  C_4 
REMARK    3  A    between atoms: C_6  and  C_7 
REMARK    4  A    between atoms: C_7  and  N_8 
REMARK       I    between atoms: N_8  and  C_9 
REMARK       I    between atoms: C_9  and  N_10 
REMARK    5  A    between atoms: N_10  and  C_11 
REMARK    6  A    between atoms: C_11  and  C_12 
REMARK    7  A    between atoms: C_12  and  N_13 
ROOT
HETATM    1  N   UNL     1      -9.421   0.948 -31.881  1.00  0.00    -0.339 N 
HETATM    2  C   UNL     1      -9.646   2.274 -32.072  1.00  0.00     0.316 C 
HETATM    3  N   UNL     1      -9.991   2.919 -30.916  1.00  0.00    -0.342 N 
HETATM    4  O   UNL     1      -9.592   2.850 -33.152  1.00  0.00    -0.248 OA
HETATM    5  H   UNL     1      -9.766   0.510 -31.041  1.00  0.00     0.164 HD
HETATM    6  H   UNL     1      -9.807   2.383 -30.077  1.00  0.00     0.164 HD
ENDROOT
BRANCH   1   7
HETATM    7  C   UNL     1      -9.071   0.061 -32.973  1.00  0.00     0.162 C 
BRANCH   7   8
HETATM    8  C   UNL     1      -7.640  -0.406 -32.899  1.00  0.00    -0.039 A 
HETATM    9  C   UNL     1      -7.161  -1.357 -33.817  1.00  0.00     0.032 A 
HETATM   10  C   UNL     1      -5.811  -1.733 -33.854  1.00  0.00     0.009 A 
HETATM   11  C   UNL     1      -4.955  -1.210 -32.883  1.00  0.00     0.023 A 
HETATM   12  C   UNL     1      -5.413  -0.270 -31.955  1.00  0.00     0.002 A 
HETATM   13  C   UNL     1      -6.744   0.142 -31.973  1.00  0.00     0.009 A 
BRANCH  10  14
HETATM   14  N   UNL     1      -5.434  -2.709 -34.787  1.00  0.00    -0.289 NA
HETATM   15  H   UNL     1      -5.808  -2.436 -35.697  1.00  0.00     0.128 HD
BRANCH  14  16
HETATM   16  C   UNL     1      -5.737  -4.124 -34.511  1.00  0.00     0.052 C 
HETATM   17  C   UNL     1      -4.454  -4.917 -34.257  1.00  0.00     0.026 C 
HETATM   18  C   UNL     1      -6.460  -4.704 -35.730  1.00  0.00     0.026 C 
ENDBRANCH  14  16
ENDBRANCH  10  14
ENDBRANCH   7   8
ENDBRANCH   1   7
BRANCH   3  19
HETATM   19  C   UNL     1     -10.010   4.368 -30.731  1.00  0.00     0.152 C 
BRANCH  19  20
HETATM   20  C   UNL     1      -8.912   5.039 -29.877  1.00  0.00     0.255 C 
BRANCH  20  21
HETATM   21  N   UNL     1      -7.568   5.100 -30.553  1.00  0.00    -0.065 N 
HETATM   22  H   UNL     1      -7.091   5.898 -30.089  1.00  0.00     0.280 HD
HETATM   23  C   UNL     1      -6.701   3.881 -30.349  1.00  0.00     0.274 C 
HETATM   24  C   UNL     1      -5.469   3.918 -31.190  1.00  0.00    -0.019 A 
HETATM   25  C   UNL     1      -5.300   4.831 -32.212  1.00  0.00    -0.008 A 
HETATM   26  C   UNL     1      -4.340   3.046 -31.091  1.00  0.00     0.017 A 
HETATM   27  S   UNL     1      -3.818   4.660 -33.023  1.00  0.00    -0.106 SA
HETATM   28  C   UNL     1      -6.293   5.888 -32.574  1.00  0.00     0.074 C 
HETATM   29  C   UNL     1      -3.373   3.340 -32.030  1.00  0.00     0.051 A 
HETATM   30  C   UNL     1      -7.674   5.513 -32.014  1.00  0.00     0.240 C 
ENDBRANCH  20  21
ENDBRANCH  19  20
ENDBRANCH   3  19
TORSDOF 7
ENDMDL
MODEL 10
REMARK VINA RESULT:      -7.4      5.404      8.838
REMARK  7 active torsions:
REMARK  status: ('A' for Active; 'I' for Inactive)
REMARK    1  A    between atoms: C_2  and  N_3 
REMARK    2  A    between atoms: N_3  and  C_4 
REMARK    3  A    between atoms: C_6  and  C_7 
REMARK    4  A    between atoms: C_7  and  N_8 
REMARK       I    between atoms: N_8  and  C_9 
REMARK       I    between atoms: C_9  and  N_10 
REMARK    5  A    between atoms: N_10  and  C_11 
REMARK    6  A    between atoms: C_11  and  C_12 
REMARK    7  A    between atoms: C_12  and  N_13 
ROOT
HETATM    1  N   UNL     1      -6.946   3.061 -31.540  1.00  0.00    -0.339 N 
HETATM    2  C   UNL     1      -5.789   2.700 -32.154  1.00  0.00     0.316 C 
HETATM    3  N   UNL     1      -4.801   2.383 -31.264  1.00  0.00    -0.342 N 
HETATM    4  O   UNL     1      -5.608   2.688 -33.365  1.00  0.00    -0.248 OA
HETATM    5  H   UNL     1      -6.923   3.322 -30.567  1.00  0.00     0.164 HD
HETATM    6  H   UNL     1      -5.131   2.240 -30.318  1.00  0.00     0.164 HD
ENDROOT
BRANCH   1   7
HETATM    7  C   UNL     1      -8.121   3.467 -32.287  1.00  0.00     0.162 C 
BRANCH   7   8
HETATM    8  C   UNL     1      -9.067   2.322 -32.538  1.00  0.00    -0.039 A 
HETATM    9  C   UNL     1     -10.318   2.559 -33.135  1.00  0.00     0.032 A 
HETATM   10  C   UNL     1     -11.179   1.511 -33.488  1.00  0.00     0.009 A 
HETATM   11  C   UNL     1     -10.809   0.210 -33.142  1.00  0.00     0.023 A 
HETATM   12  C   UNL     1      -9.575  -0.048 -32.540  1.00  0.00     0.002 A 
HETATM   13  C   UNL     1      -8.701   1.000 -32.255  1.00  0.00     0.009 A 
BRANCH  10  14
HETATM   14  N   UNL     1     -12.417   1.850 -34.054  1.00  0.00    -0.289 NA
HETATM   15  H   UNL     1     -12.413   2.852 -34.243  1.00  0.00     0.128 HD
BRANCH  14  16
HETATM   16  C   UNL     1     -13.656   1.465 -33.357  1.00  0.00     0.052 C 
HETATM   17  C   UNL     1     -14.670   0.869 -34.336  1.00  0.00     0.026 C 
HETATM   18  C   UNL     1     -14.251   2.720 -32.712  1.00  0.00     0.026 C 
ENDBRANCH  14  16
ENDBRANCH  10  14
ENDBRANCH   7   8
ENDBRANCH   1   7
BRANCH   3  19
HETATM   19  C   UNL     1      -3.558   1.689 -31.594  1.00  0.00     0.152 C 
BRANCH  19  20
HETATM   20  C   UNL     1      -3.390   0.204 -31.202  1.00  0.00     0.255 C 
BRANCH  20  21
HETATM   21  N   UNL     1      -3.832  -0.761 -32.270  1.00  0.00    -0.065 N 
HETATM   22  H   UNL     1      -3.427  -0.369 -33.144  1.00  0.00     0.280 HD
HETATM   23  C   UNL     1      -3.295  -2.164 -32.118  1.00  0.00     0.274 C 
HETATM   24  C   UNL     1      -3.912  -3.113 -33.090  1.00  0.00    -0.019 A 
HETATM   25  C   UNL     1      -5.023  -2.782 -33.841  1.00  0.00    -0.008 A 
HETATM   26  C   UNL     1      -3.488  -4.450 -33.366  1.00  0.00     0.017 A 
HETATM   27  S   UNL     1      -5.536  -4.036 -34.864  1.00  0.00    -0.106 SA
HETATM   28  C   UNL     1      -5.708  -1.455 -33.796  1.00  0.00     0.074 C 
HETATM   29  C   UNL     1      -4.285  -5.064 -34.309  1.00  0.00     0.051 A 
HETATM   30  C   UNL     1      -5.337  -0.725 -32.495  1.00  0.00     0.240 C 
ENDBRANCH  20  21
ENDBRANCH  19  20
ENDBRANCH   3  19
TORSDOF 7
ENDMDL
