MODEL 1
REMARK VINA RESULT:      -9.5      0.000      0.000
REMARK  9 active torsions:
REMARK  status: ('A' for Active; 'I' for Inactive)
REMARK    1  A    between atoms: C_6  and  C_7 
REMARK    2  A    between atoms: C_7  and  C_8 
REMARK       I    between atoms: C_8  and  N_9 
REMARK    3  A    between atoms: N_9  and  C_10 
REMARK    4  A    between atoms: C_10  and  C_11 
REMARK    5  A    between atoms: C_11  and  N_12 
REMARK    6  A    between atoms: C_17  and  C_18 
REMARK    7  A    between atoms: C_21  and  C_22 
REMARK    8  A    between atoms: C_29  and  C_30 
REMARK       I    between atoms: C_30  and  N_31 
REMARK    9  A    between atoms: N_31  and  C_32 
ROOT
HETATM    1  C   UNL     1      -3.938   1.471 -30.921  1.00  0.00     0.071 C 
HETATM    2  C   UNL     1      -5.269   2.155 -31.108  1.00  0.00     0.047 C 
HETATM    3  N   UNL     1      -5.329   3.445 -30.546  1.00  0.00    -0.229 NA
HETATM    4  C   UNL     1      -6.107   4.304 -31.130  1.00  0.00     0.170 C 
HETATM    5  N   UNL     1      -7.106   3.878 -32.306  1.00  0.00    -0.319 N 
HETATM    6  C   UNL     1      -6.668   4.636 -33.270  1.00  0.00     0.011 C 
HETATM    7  C   UNL     1      -7.491   2.506 -31.940  1.00  0.00     0.165 C 
HETATM    8  S   UNL     1      -5.922   6.029 -31.098  1.00  0.00    -0.086 SA
HETATM    9  C   UNL     1      -6.632   6.096 -32.809  1.00  0.00     0.135 C 
HETATM   10  C   UNL     1      -6.270   1.662 -31.886  1.00  0.00     0.062 C 
ENDROOT
BRANCH   6  11
HETATM   11  C   UNL     1      -5.632   4.118 -34.238  1.00  0.00     0.156 C 
BRANCH  11  12
HETATM   12  C   UNL     1      -4.256   4.714 -34.252  1.00  0.00     0.223 C 
HETATM   13  N   UNL     1      -3.445   4.223 -33.245  1.00  0.00    -0.359 N 
HETATM   14  H   UNL     1      -3.549   3.217 -33.060  1.00  0.00     0.162 HD
HETATM   15  O   UNL     1      -3.959   5.637 -34.993  1.00  0.00    -0.273 OA
BRANCH  13  16
HETATM   16  C   UNL     1      -2.099   4.749 -33.012  1.00  0.00     0.150 C 
BRANCH  16  17
HETATM   17  C   UNL     1      -1.941   5.400 -31.622  1.00  0.00     0.253 C 
BRANCH  17  18
HETATM   18  N   UNL     1      -1.268   6.769 -31.724  1.00  0.00    -0.077 N 
HETATM   19  H   UNL     1      -1.768   7.374 -31.062  1.00  0.00     0.279 HD
HETATM   20  C   UNL     1       0.182   6.773 -31.321  1.00  0.00     0.269 C 
HETATM   21  C   UNL     1      -1.439   7.372 -33.096  1.00  0.00     0.269 C 
ENDBRANCH  17  18
ENDBRANCH  16  17
ENDBRANCH  13  16
ENDBRANCH  11  12
ENDBRANCH   6  11
BRANCH   7  22
HETATM   22  C   UNL     1      -8.878   1.984 -32.251  1.00  0.00    -0.030 A 
HETATM   23  C   UNL     1      -9.194   0.638 -32.454  1.00  0.00     0.010 A 
HETATM   24  C   UNL     1     -10.407   0.286 -33.078  1.00  0.00     0.008 A 
HETATM   25  C   UNL     1     -11.332   1.260 -33.495  1.00  0.00    -0.055 A 
HETATM   26  C   UNL     1     -11.069   2.592 -33.182  1.00  0.00     0.008 A 
HETATM   27  C   UNL     1      -9.860   2.949 -32.590  1.00  0.00     0.010 A 
BRANCH  25  28
HETATM   28  C   UNL     1     -12.559   0.860 -34.305  1.00  0.00     0.010 C 
HETATM   29  C   UNL     1     -13.352  -0.237 -33.597  1.00  0.00     0.015 C 
HETATM   30  C   UNL     1     -13.479   2.046 -34.637  1.00  0.00     0.015 C 
ENDBRANCH  25  28
ENDBRANCH   7  22
BRANCH  10  31
HETATM   31  C   UNL     1      -5.971   0.707 -32.988  1.00  0.00     0.256 C 
HETATM   32  N   UNL     1      -5.847  -0.609 -32.634  1.00  0.00    -0.323 N 
HETATM   33  H   UNL     1      -5.893  -0.878 -31.659  1.00  0.00     0.169 HD
HETATM   34  O   UNL     1      -6.052   1.149 -34.136  1.00  0.00    -0.267 OA
BRANCH  32  35
HETATM   35  C   UNL     1      -5.787  -1.712 -33.520  1.00  0.00     0.035 A 
HETATM   36  C   UNL     1      -6.906  -2.280 -34.133  1.00  0.00     0.029 A 
HETATM   37  C   UNL     1      -6.764  -3.384 -34.981  1.00  0.00     0.002 A 
HETATM   38  C   UNL     1      -5.506  -3.931 -35.216  1.00  0.00     0.000 A 
HETATM   39  C   UNL     1      -4.384  -3.365 -34.618  1.00  0.00     0.002 A 
HETATM   40  C   UNL     1      -4.521  -2.253 -33.784  1.00  0.00     0.029 A 
ENDBRANCH  32  35
ENDBRANCH  10  31
TORSDOF 9
ENDMDL
MODEL 2
REMARK VINA RESULT:      -8.9      2.821      6.902
REMARK  9 active torsions:
REMARK  status: ('A' for Active; 'I' for Inactive)
REMARK    1  A    between atoms: C_6  and  C_7 
REMARK    2  A    between atoms: C_7  and  C_8 
REMARK       I    between atoms: C_8  and  N_9 
REMARK    3  A    between atoms: N_9  and  C_10 
REMARK    4  A    between atoms: C_10  and  C_11 
REMARK    5  A    between atoms: C_11  and  N_12 
REMARK    6  A    between atoms: C_17  and  C_18 
REMARK    7  A    between atoms: C_21  and  C_22 
REMARK    8  A    between atoms: C_29  and  C_30 
REMARK       I    between atoms: C_30  and  N_31 
REMARK    9  A    between atoms: N_31  and  C_32 
ROOT
HETATM    1  C   UNL     1      -9.369   5.673 -34.113  1.00  0.00     0.071 C 
HETATM    2  C   UNL     1      -8.288   4.679 -33.769  1.00  0.00     0.047 C 
HETATM    3  N   UNL     1      -7.047   5.272 -33.465  1.00  0.00    -0.229 NA
HETATM    4  C   UNL     1      -6.289   4.646 -32.618  1.00  0.00     0.170 C 
HETATM    5  N   UNL     1      -6.643   3.177 -32.090  1.00  0.00    -0.319 N 
HETATM    6  C   UNL     1      -6.734   3.405 -30.811  1.00  0.00     0.011 C 
HETATM    7  C   UNL     1      -7.306   2.555 -33.247  1.00  0.00     0.165 C 
HETATM    8  S   UNL     1      -5.086   5.373 -31.601  1.00  0.00    -0.086 SA
HETATM    9  C   UNL     1      -5.460   4.094 -30.313  1.00  0.00     0.135 C 
HETATM   10  C   UNL     1      -8.511   3.349 -33.597  1.00  0.00     0.062 C 
ENDROOT
BRANCH   6  11
HETATM   11  C   UNL     1      -8.069   3.731 -30.187  1.00  0.00     0.156 C 
BRANCH  11  12
HETATM   12  C   UNL     1      -8.552   5.150 -30.149  1.00  0.00     0.223 C 
HETATM   13  N   UNL     1      -9.870   5.282 -30.547  1.00  0.00    -0.359 N 
HETATM   14  H   UNL     1     -10.496   4.537 -30.219  1.00  0.00     0.162 HD
HETATM   15  O   UNL     1      -7.797   6.083 -29.927  1.00  0.00    -0.273 OA
BRANCH  13  16
HETATM   16  C   UNL     1     -10.506   6.593 -30.687  1.00  0.00     0.150 C 
BRANCH  16  17
HETATM   17  C   UNL     1     -12.011   6.500 -31.013  1.00  0.00     0.253 C 
BRANCH  17  18
HETATM   18  N   UNL     1     -12.334   5.215 -31.776  1.00  0.00    -0.077 N 
HETATM   19  H   UNL     1     -11.437   4.731 -31.898  1.00  0.00     0.279 HD
HETATM   20  C   UNL     1     -13.248   4.275 -31.036  1.00  0.00     0.269 C 
HETATM   21  C   UNL     1     -12.876   5.507 -33.153  1.00  0.00     0.269 C 
ENDBRANCH  17  18
ENDBRANCH  16  17
ENDBRANCH  13  16
ENDBRANCH  11  12
ENDBRANCH   6  11
BRANCH   7  22
HETATM   22  C   UNL     1      -7.148   1.074 -33.523  1.00  0.00    -0.030 A 
HETATM   23  C   UNL     1      -6.539   0.164 -32.655  1.00  0.00     0.010 A 
HETATM   24  C   UNL     1      -6.122  -1.093 -33.131  1.00  0.00     0.008 A 
HETATM   25  C   UNL     1      -6.317  -1.476 -34.470  1.00  0.00    -0.055 A 
HETATM   26  C   UNL     1      -7.033  -0.617 -35.301  1.00  0.00     0.008 A 
HETATM   27  C   UNL     1      -7.423   0.639 -34.843  1.00  0.00     0.010 A 
BRANCH  25  28
HETATM   28  C   UNL     1      -5.719  -2.777 -34.995  1.00  0.00     0.010 C 
HETATM   29  C   UNL     1      -4.408  -3.106 -34.284  1.00  0.00     0.015 C 
HETATM   30  C   UNL     1      -6.685  -3.969 -34.903  1.00  0.00     0.015 C 
ENDBRANCH  25  28
ENDBRANCH   7  22
BRANCH  10  31
HETATM   31  C   UNL     1      -9.867   2.849 -33.237  1.00  0.00     0.256 C 
HETATM   32  N   UNL     1     -10.578   2.247 -34.239  1.00  0.00    -0.323 N 
HETATM   33  H   UNL     1     -10.204   2.220 -35.180  1.00  0.00     0.169 HD
HETATM   34  O   UNL     1     -10.151   2.846 -32.037  1.00  0.00    -0.267 OA
BRANCH  32  35
HETATM   35  C   UNL     1     -11.776   1.509 -34.088  1.00  0.00     0.035 A 
HETATM   36  C   UNL     1     -11.833   0.217 -33.558  1.00  0.00     0.029 A 
HETATM   37  C   UNL     1     -13.056  -0.455 -33.462  1.00  0.00     0.002 A 
HETATM   38  C   UNL     1     -14.228   0.156 -33.899  1.00  0.00     0.000 A 
HETATM   39  C   UNL     1     -14.183   1.447 -34.417  1.00  0.00     0.002 A 
HETATM   40  C   UNL     1     -12.965   2.125 -34.500  1.00  0.00     0.029 A 
ENDBRANCH  32  35
ENDBRANCH  10  31
TORSDOF 9
ENDMDL
MODEL 3
REMARK VINA RESULT:      -8.9      2.793      6.067
REMARK  9 active torsions:
REMARK  status: ('A' for Active; 'I' for Inactive)
REMARK    1  A    between atoms: C_6  and  C_7 
REMARK    2  A    between atoms: C_7  and  C_8 
REMARK       I    between atoms: C_8  and  N_9 
REMARK    3  A    between atoms: N_9  and  C_10 
REMARK    4  A    between atoms: C_10  and  C_11 
REMARK    5  A    between atoms: C_11  and  N_12 
REMARK    6  A    between atoms: C_17  and  C_18 
REMARK    7  A    between atoms: C_21  and  C_22 
REMARK    8  A    between atoms: C_29  and  C_30 
REMARK       I    between atoms: C_30  and  N_31 
REMARK    9  A    between atoms: N_31  and  C_32 
ROOT
HETATM    1  C   UNL     1      -9.251   5.633 -34.218  1.00  0.00     0.071 C 
HETATM    2  C   UNL     1      -8.178   4.636 -33.860  1.00  0.00     0.047 C 
HETATM    3  N   UNL     1      -6.929   5.223 -33.577  1.00  0.00    -0.229 NA
HETATM    4  C   UNL     1      -6.172   4.607 -32.721  1.00  0.00     0.170 C 
HETATM    5  N   UNL     1      -6.537   3.154 -32.160  1.00  0.00    -0.319 N 
HETATM    6  C   UNL     1      -6.617   3.410 -30.886  1.00  0.00     0.011 C 
HETATM    7  C   UNL     1      -7.213   2.513 -33.299  1.00  0.00     0.165 C 
HETATM    8  S   UNL     1      -4.955   5.345 -31.728  1.00  0.00    -0.086 SA
HETATM    9  C   UNL     1      -5.333   4.097 -30.411  1.00  0.00     0.135 C 
HETATM   10  C   UNL     1      -8.413   3.311 -33.658  1.00  0.00     0.062 C 
ENDROOT
BRANCH   6  11
HETATM   11  C   UNL     1      -7.944   3.762 -30.260  1.00  0.00     0.156 C 
BRANCH  11  12
HETATM   12  C   UNL     1      -8.168   5.136 -29.701  1.00  0.00     0.223 C 
HETATM   13  N   UNL     1      -8.502   6.065 -30.670  1.00  0.00    -0.359 N 
HETATM   14  H   UNL     1      -9.136   5.717 -31.399  1.00  0.00     0.162 HD
HETATM   15  O   UNL     1      -7.930   5.406 -28.534  1.00  0.00    -0.273 OA
BRANCH  13  16
HETATM   16  C   UNL     1      -8.657   7.486 -30.356  1.00  0.00     0.150 C 
BRANCH  16  17
HETATM   17  C   UNL     1      -7.337   8.276 -30.476  1.00  0.00     0.253 C 
BRANCH  17  18
HETATM   18  N   UNL     1      -6.477   8.113 -29.222  1.00  0.00    -0.077 N 
HETATM   19  H   UNL     1      -6.496   7.110 -29.001  1.00  0.00     0.279 HD
HETATM   20  C   UNL     1      -5.034   8.498 -29.413  1.00  0.00     0.269 C 
HETATM   21  C   UNL     1      -7.069   8.842 -28.043  1.00  0.00     0.269 C 
ENDBRANCH  17  18
ENDBRANCH  16  17
ENDBRANCH  13  16
ENDBRANCH  11  12
ENDBRANCH   6  11
BRANCH   7  22
HETATM   22  C   UNL     1      -7.071   1.026 -33.543  1.00  0.00    -0.030 A 
HETATM   23  C   UNL     1      -6.436   0.134 -32.675  1.00  0.00     0.010 A 
HETATM   24  C   UNL     1      -6.042  -1.137 -33.135  1.00  0.00     0.008 A 
HETATM   25  C   UNL     1      -6.286  -1.552 -34.456  1.00  0.00    -0.055 A 
HETATM   26  C   UNL     1      -7.026  -0.709 -35.283  1.00  0.00     0.008 A 
HETATM   27  C   UNL     1      -7.394   0.560 -34.843  1.00  0.00     0.010 A 
BRANCH  25  28
HETATM   28  C   UNL     1      -5.712  -2.867 -34.970  1.00  0.00     0.010 C 
HETATM   29  C   UNL     1      -4.407  -3.214 -34.256  1.00  0.00     0.015 C 
HETATM   30  C   UNL     1      -6.700  -4.041 -34.866  1.00  0.00     0.015 C 
ENDBRANCH  25  28
ENDBRANCH   7  22
BRANCH  10  31
HETATM   31  C   UNL     1      -9.771   2.833 -33.278  1.00  0.00     0.256 C 
HETATM   32  N   UNL     1     -10.511   2.256 -34.275  1.00  0.00    -0.323 N 
HETATM   33  H   UNL     1     -10.155   2.233 -35.222  1.00  0.00     0.169 HD
HETATM   34  O   UNL     1     -10.033   2.821 -32.074  1.00  0.00    -0.267 OA
BRANCH  32  35
HETATM   35  C   UNL     1     -11.720   1.538 -34.109  1.00  0.00     0.035 A 
HETATM   36  C   UNL     1     -11.793   0.246 -33.583  1.00  0.00     0.029 A 
HETATM   37  C   UNL     1     -13.026  -0.404 -33.472  1.00  0.00     0.002 A 
HETATM   38  C   UNL     1     -14.193   0.228 -33.891  1.00  0.00     0.000 A 
HETATM   39  C   UNL     1     -14.132   1.520 -34.406  1.00  0.00     0.002 A 
HETATM   40  C   UNL     1     -12.903   2.177 -34.503  1.00  0.00     0.029 A 
ENDBRANCH  32  35
ENDBRANCH  10  31
TORSDOF 9
ENDMDL
MODEL 4
REMARK VINA RESULT:      -8.8      2.406      6.390
REMARK  9 active torsions:
REMARK  status: ('A' for Active; 'I' for Inactive)
REMARK    1  A    between atoms: C_6  and  C_7 
REMARK    2  A    between atoms: C_7  and  C_8 
REMARK       I    between atoms: C_8  and  N_9 
REMARK    3  A    between atoms: N_9  and  C_10 
REMARK    4  A    between atoms: C_10  and  C_11 
REMARK    5  A    between atoms: C_11  and  N_12 
REMARK    6  A    between atoms: C_17  and  C_18 
REMARK    7  A    between atoms: C_21  and  C_22 
REMARK    8  A    between atoms: C_29  and  C_30 
REMARK       I    between atoms: C_30  and  N_31 
REMARK    9  A    between atoms: N_31  and  C_32 
ROOT
HETATM    1  C   UNL     1      -5.395   3.842 -29.630  1.00  0.00     0.071 C 
HETATM    2  C   UNL     1      -6.123   2.935 -30.591  1.00  0.00     0.047 C 
HETATM    3  N   UNL     1      -7.517   2.898 -30.393  1.00  0.00    -0.229 NA
HETATM    4  C   UNL     1      -8.253   2.688 -31.441  1.00  0.00     0.170 C 
HETATM    5  N   UNL     1      -7.618   2.291 -32.855  1.00  0.00    -0.319 N 
HETATM    6  C   UNL     1      -8.043   3.280 -33.588  1.00  0.00     0.011 C 
HETATM    7  C   UNL     1      -6.438   1.495 -32.483  1.00  0.00     0.165 C 
HETATM    8  S   UNL     1      -9.898   3.201 -31.646  1.00  0.00    -0.086 SA
HETATM    9  C   UNL     1      -9.564   3.409 -33.457  1.00  0.00     0.135 C 
HETATM   10  C   UNL     1      -5.532   2.335 -31.660  1.00  0.00     0.062 C 
ENDROOT
BRANCH   6  11
HETATM   11  C   UNL     1      -7.190   4.510 -33.779  1.00  0.00     0.156 C 
BRANCH  11  12
HETATM   12  C   UNL     1      -7.382   5.701 -32.888  1.00  0.00     0.223 C 
HETATM   13  N   UNL     1      -8.519   6.426 -33.195  1.00  0.00    -0.359 N 
HETATM   14  H   UNL     1      -9.337   5.858 -33.447  1.00  0.00     0.162 HD
HETATM   15  O   UNL     1      -6.533   6.050 -32.083  1.00  0.00    -0.273 OA
BRANCH  13  16
HETATM   16  C   UNL     1      -8.837   7.685 -32.520  1.00  0.00     0.150 C 
BRANCH  16  17
HETATM   17  C   UNL     1      -9.871   7.515 -31.386  1.00  0.00     0.253 C 
BRANCH  17  18
HETATM   18  N   UNL     1      -9.203   7.575 -30.012  1.00  0.00    -0.077 N 
HETATM   19  H   UNL     1      -9.890   8.015 -29.389  1.00  0.00     0.279 HD
HETATM   20  C   UNL     1      -8.873   6.227 -29.430  1.00  0.00     0.269 C 
HETATM   21  C   UNL     1      -7.982   8.460 -30.026  1.00  0.00     0.269 C 
ENDBRANCH  17  18
ENDBRANCH  16  17
ENDBRANCH  13  16
ENDBRANCH  11  12
ENDBRANCH   6  11
BRANCH   7  22
HETATM   22  C   UNL     1      -5.981   0.340 -33.349  1.00  0.00    -0.030 A 
HETATM   23  C   UNL     1      -6.597  -0.053 -34.540  1.00  0.00     0.010 A 
HETATM   24  C   UNL     1      -6.335  -1.326 -35.082  1.00  0.00     0.008 A 
HETATM   25  C   UNL     1      -5.448  -2.223 -34.462  1.00  0.00    -0.055 A 
HETATM   26  C   UNL     1      -4.744  -1.783 -33.343  1.00  0.00     0.008 A 
HETATM   27  C   UNL     1      -5.019  -0.536 -32.786  1.00  0.00     0.010 A 
BRANCH  25  28
HETATM   28  C   UNL     1      -5.303  -3.648 -34.983  1.00  0.00     0.010 C 
HETATM   29  C   UNL     1      -4.356  -4.463 -34.103  1.00  0.00     0.015 C 
HETATM   30  C   UNL     1      -6.647  -4.380 -35.131  1.00  0.00     0.015 C 
ENDBRANCH  25  28
ENDBRANCH   7  22
BRANCH  10  31
HETATM   31  C   UNL     1      -4.290   2.903 -32.255  1.00  0.00     0.256 C 
HETATM   32  N   UNL     1      -4.387   4.169 -32.766  1.00  0.00    -0.323 N 
HETATM   33  H   UNL     1      -5.282   4.640 -32.787  1.00  0.00     0.169 HD
HETATM   34  O   UNL     1      -3.250   2.270 -32.064  1.00  0.00    -0.267 OA
BRANCH  32  35
HETATM   35  C   UNL     1      -3.308   4.989 -33.175  1.00  0.00     0.035 A 
HETATM   36  C   UNL     1      -2.577   4.787 -34.348  1.00  0.00     0.029 A 
HETATM   37  C   UNL     1      -1.509   5.631 -34.670  1.00  0.00     0.002 A 
HETATM   38  C   UNL     1      -1.160   6.677 -33.821  1.00  0.00     0.000 A 
HETATM   39  C   UNL     1      -1.889   6.894 -32.656  1.00  0.00     0.002 A 
HETATM   40  C   UNL     1      -2.966   6.061 -32.339  1.00  0.00     0.029 A 
ENDBRANCH  32  35
ENDBRANCH  10  31
TORSDOF 9
ENDMDL
MODEL 5
REMARK VINA RESULT:      -8.8      2.832      6.230
REMARK  9 active torsions:
REMARK  status: ('A' for Active; 'I' for Inactive)
REMARK    1  A    between atoms: C_6  and  C_7 
REMARK    2  A    between atoms: C_7  and  C_8 
REMARK       I    between atoms: C_8  and  N_9 
REMARK    3  A    between atoms: N_9  and  C_10 
REMARK    4  A    between atoms: C_10  and  C_11 
REMARK    5  A    between atoms: C_11  and  N_12 
REMARK    6  A    between atoms: C_17  and  C_18 
REMARK    7  A    between atoms: C_21  and  C_22 
REMARK    8  A    between atoms: C_29  and  C_30 
REMARK       I    between atoms: C_30  and  N_31 
REMARK    9  A    between atoms: N_31  and  C_32 
ROOT
HETATM    1  C   UNL     1      -9.279   5.580 -34.404  1.00  0.00     0.071 C 
HETATM    2  C   UNL     1      -8.199   4.598 -34.021  1.00  0.00     0.047 C 
HETATM    3  N   UNL     1      -6.951   5.199 -33.766  1.00  0.00    -0.229 NA
HETATM    4  C   UNL     1      -6.186   4.614 -32.896  1.00  0.00     0.170 C 
HETATM    5  N   UNL     1      -6.541   3.179 -32.285  1.00  0.00    -0.319 N 
HETATM    6  C   UNL     1      -6.613   3.476 -31.019  1.00  0.00     0.011 C 
HETATM    7  C   UNL     1      -7.222   2.499 -33.398  1.00  0.00     0.165 C 
HETATM    8  S   UNL     1      -4.964   5.388 -31.936  1.00  0.00    -0.086 SA
HETATM    9  C   UNL     1      -5.328   4.183 -30.576  1.00  0.00     0.135 C 
HETATM   10  C   UNL     1      -8.428   3.281 -33.773  1.00  0.00     0.062 C 
ENDROOT
BRANCH   6  11
HETATM   11  C   UNL     1      -7.938   3.844 -30.395  1.00  0.00     0.156 C 
BRANCH  11  12
HETATM   12  C   UNL     1      -8.203   5.262 -29.984  1.00  0.00     0.223 C 
HETATM   13  N   UNL     1      -8.558   6.075 -31.045  1.00  0.00    -0.359 N 
HETATM   14  H   UNL     1      -9.178   5.634 -31.736  1.00  0.00     0.162 HD
HETATM   15  O   UNL     1      -7.980   5.658 -28.851  1.00  0.00    -0.273 OA
BRANCH  13  16
HETATM   16  C   UNL     1      -8.756   7.516 -30.881  1.00  0.00     0.150 C 
BRANCH  16  17
HETATM   17  C   UNL     1      -7.695   8.356 -31.622  1.00  0.00     0.253 C 
BRANCH  17  18
HETATM   18  N   UNL     1      -8.311   9.121 -32.793  1.00  0.00    -0.077 N 
HETATM   19  H   UNL     1      -7.891   8.719 -33.640  1.00  0.00     0.279 HD
HETATM   20  C   UNL     1      -9.802   8.957 -32.917  1.00  0.00     0.269 C 
HETATM   21  C   UNL     1      -7.939  10.582 -32.760  1.00  0.00     0.269 C 
ENDBRANCH  17  18
ENDBRANCH  16  17
ENDBRANCH  13  16
ENDBRANCH  11  12
ENDBRANCH   6  11
BRANCH   7  22
HETATM   22  C   UNL     1      -7.077   1.004 -33.594  1.00  0.00    -0.030 A 
HETATM   23  C   UNL     1      -6.366   0.156 -32.742  1.00  0.00     0.010 A 
HETATM   24  C   UNL     1      -5.988  -1.128 -33.180  1.00  0.00     0.008 A 
HETATM   25  C   UNL     1      -6.323  -1.597 -34.462  1.00  0.00    -0.055 A 
HETATM   26  C   UNL     1      -7.135  -0.798 -35.263  1.00  0.00     0.008 A 
HETATM   27  C   UNL     1      -7.489   0.484 -34.846  1.00  0.00     0.010 A 
BRANCH  25  28
HETATM   28  C   UNL     1      -5.769  -2.925 -34.966  1.00  0.00     0.010 C 
HETATM   29  C   UNL     1      -4.433  -3.252 -34.302  1.00  0.00     0.015 C 
HETATM   30  C   UNL     1      -6.748  -4.097 -34.788  1.00  0.00     0.015 C 
ENDBRANCH  25  28
ENDBRANCH   7  22
BRANCH  10  31
HETATM   31  C   UNL     1      -9.781   2.810 -33.369  1.00  0.00     0.256 C 
HETATM   32  N   UNL     1     -10.586   2.342 -34.372  1.00  0.00    -0.323 N 
HETATM   33  H   UNL     1     -10.276   2.389 -35.335  1.00  0.00     0.169 HD
HETATM   34  O   UNL     1      -9.987   2.703 -32.159  1.00  0.00    -0.267 OA
BRANCH  32  35
HETATM   35  C   UNL     1     -11.808   1.647 -34.208  1.00  0.00     0.035 A 
HETATM   36  C   UNL     1     -13.057   2.179 -34.537  1.00  0.00     0.029 A 
HETATM   37  C   UNL     1     -14.222   1.436 -34.324  1.00  0.00     0.002 A 
HETATM   38  C   UNL     1     -14.149   0.159 -33.774  1.00  0.00     0.000 A 
HETATM   39  C   UNL     1     -12.909  -0.385 -33.452  1.00  0.00     0.002 A 
HETATM   40  C   UNL     1     -11.742   0.351 -33.679  1.00  0.00     0.029 A 
ENDBRANCH  32  35
ENDBRANCH  10  31
TORSDOF 9
ENDMDL
MODEL 6
REMARK VINA RESULT:      -8.3      3.601      7.344
REMARK  9 active torsions:
REMARK  status: ('A' for Active; 'I' for Inactive)
REMARK    1  A    between atoms: C_6  and  C_7 
REMARK    2  A    between atoms: C_7  and  C_8 
REMARK       I    between atoms: C_8  and  N_9 
REMARK    3  A    between atoms: N_9  and  C_10 
REMARK    4  A    between atoms: C_10  and  C_11 
REMARK    5  A    between atoms: C_11  and  N_12 
REMARK    6  A    between atoms: C_17  and  C_18 
REMARK    7  A    between atoms: C_21  and  C_22 
REMARK    8  A    between atoms: C_29  and  C_30 
REMARK       I    between atoms: C_30  and  N_31 
REMARK    9  A    between atoms: N_31  and  C_32 
ROOT
HETATM    1  C   UNL     1      -9.068   4.833 -30.104  1.00  0.00     0.071 C 
HETATM    2  C   UNL     1      -9.251   3.784 -31.172  1.00  0.00     0.047 C 
HETATM    3  N   UNL     1     -10.598   3.465 -31.430  1.00  0.00    -0.229 NA
HETATM    4  C   UNL     1     -10.892   3.095 -32.639  1.00  0.00     0.170 C 
HETATM    5  N   UNL     1      -9.762   2.817 -33.737  1.00  0.00    -0.319 N 
HETATM    6  C   UNL     1     -10.099   3.689 -34.644  1.00  0.00     0.011 C 
HETATM    7  C   UNL     1      -8.644   2.284 -32.943  1.00  0.00     0.165 C 
HETATM    8  S   UNL     1     -12.442   3.259 -33.403  1.00  0.00    -0.086 SA
HETATM    9  C   UNL     1     -11.572   3.506 -35.021  1.00  0.00     0.135 C 
HETATM   10  C   UNL     1      -8.237   3.303 -31.942  1.00  0.00     0.062 C 
ENDROOT
BRANCH   6  11
HETATM   11  C   UNL     1      -9.477   5.064 -34.649  1.00  0.00     0.156 C 
BRANCH  11  12
HETATM   12  C   UNL     1     -10.352   6.281 -34.706  1.00  0.00     0.223 C 
HETATM   13  N   UNL     1     -10.124   7.058 -35.827  1.00  0.00    -0.359 N 
HETATM   14  H   UNL     1      -9.954   6.528 -36.691  1.00  0.00     0.162 HD
HETATM   15  O   UNL     1     -11.076   6.601 -33.776  1.00  0.00    -0.273 OA
BRANCH  13  16
HETATM   16  C   UNL     1     -10.794   8.344 -36.024  1.00  0.00     0.150 C 
BRANCH  16  17
HETATM   17  C   UNL     1     -12.134   8.215 -36.778  1.00  0.00     0.253 C 
BRANCH  17  18
HETATM   18  N   UNL     1     -13.275   7.862 -35.824  1.00  0.00    -0.077 N 
HETATM   19  H   UNL     1     -12.857   7.837 -34.887  1.00  0.00     0.279 HD
HETATM   20  C   UNL     1     -14.384   8.879 -35.789  1.00  0.00     0.269 C 
HETATM   21  C   UNL     1     -13.827   6.486 -36.103  1.00  0.00     0.269 C 
ENDBRANCH  17  18
ENDBRANCH  16  17
ENDBRANCH  13  16
ENDBRANCH  11  12
ENDBRANCH   6  11
BRANCH   7  22
HETATM   22  C   UNL     1      -7.718   1.235 -33.520  1.00  0.00    -0.030 A 
HETATM   23  C   UNL     1      -7.536   0.999 -34.885  1.00  0.00     0.010 A 
HETATM   24  C   UNL     1      -6.946  -0.203 -35.319  1.00  0.00     0.008 A 
HETATM   25  C   UNL     1      -6.512  -1.183 -34.409  1.00  0.00    -0.055 A 
HETATM   26  C   UNL     1      -6.583  -0.893 -33.049  1.00  0.00     0.008 A 
HETATM   27  C   UNL     1      -7.191   0.282 -32.612  1.00  0.00     0.010 A 
BRANCH  25  28
HETATM   28  C   UNL     1      -6.021  -2.537 -34.910  1.00  0.00     0.010 C 
HETATM   29  C   UNL     1      -4.618  -2.841 -34.387  1.00  0.00     0.015 C 
HETATM   30  C   UNL     1      -6.975  -3.692 -34.566  1.00  0.00     0.015 C 
ENDBRANCH  25  28
ENDBRANCH   7  22
BRANCH  10  31
HETATM   31  C   UNL     1      -7.000   4.104 -32.149  1.00  0.00     0.256 C 
HETATM   32  N   UNL     1      -5.858   3.617 -31.572  1.00  0.00    -0.323 N 
HETATM   33  H   UNL     1      -5.899   2.794 -30.984  1.00  0.00     0.169 HD
HETATM   34  O   UNL     1      -7.068   5.018 -32.973  1.00  0.00    -0.267 OA
BRANCH  32  35
HETATM   35  C   UNL     1      -4.540   4.075 -31.811  1.00  0.00     0.035 A 
HETATM   36  C   UNL     1      -3.694   3.539 -32.785  1.00  0.00     0.029 A 
HETATM   37  C   UNL     1      -2.395   4.033 -32.944  1.00  0.00     0.002 A 
HETATM   38  C   UNL     1      -1.930   5.061 -32.127  1.00  0.00     0.000 A 
HETATM   39  C   UNL     1      -2.769   5.609 -31.161  1.00  0.00     0.002 A 
HETATM   40  C   UNL     1      -4.073   5.126 -31.011  1.00  0.00     0.029 A 
ENDBRANCH  32  35
ENDBRANCH  10  31
TORSDOF 9
ENDMDL
MODEL 7
REMARK VINA RESULT:      -8.1      2.816      7.873
REMARK  9 active torsions:
REMARK  status: ('A' for Active; 'I' for Inactive)
REMARK    1  A    between atoms: C_6  and  C_7 
REMARK    2  A    between atoms: C_7  and  C_8 
REMARK       I    between atoms: C_8  and  N_9 
REMARK    3  A    between atoms: N_9  and  C_10 
REMARK    4  A    between atoms: C_10  and  C_11 
REMARK    5  A    between atoms: C_11  and  N_12 
REMARK    6  A    between atoms: C_17  and  C_18 
REMARK    7  A    between atoms: C_21  and  C_22 
REMARK    8  A    between atoms: C_29  and  C_30 
REMARK       I    between atoms: C_30  and  N_31 
REMARK    9  A    between atoms: N_31  and  C_32 
ROOT
HETATM    1  C   UNL     1     -10.422   4.162 -35.247  1.00  0.00     0.071 C 
HETATM    2  C   UNL     1      -9.337   4.837 -34.445  1.00  0.00     0.047 C 
HETATM    3  N   UNL     1      -9.677   6.133 -34.008  1.00  0.00    -0.229 NA
HETATM    4  C   UNL     1      -9.153   6.530 -32.889  1.00  0.00     0.170 C 
HETATM    5  N   UNL     1      -8.023   5.683 -32.136  1.00  0.00    -0.319 N 
HETATM    6  C   UNL     1      -8.617   5.461 -30.999  1.00  0.00     0.011 C 
HETATM    7  C   UNL     1      -7.276   5.061 -33.241  1.00  0.00     0.165 C 
HETATM    8  S   UNL     1      -9.828   7.715 -31.816  1.00  0.00    -0.086 SA
HETATM    9  C   UNL     1      -9.093   6.784 -30.392  1.00  0.00     0.135 C 
HETATM   10  C   UNL     1      -8.203   4.212 -34.030  1.00  0.00     0.062 C 
ENDROOT
BRANCH   6  11
HETATM   11  C   UNL     1      -9.416   4.197 -30.790  1.00  0.00     0.156 C 
BRANCH  11  12
HETATM   12  C   UNL     1     -10.907   4.219 -30.948  1.00  0.00     0.223 C 
HETATM   13  N   UNL     1     -11.356   3.378 -31.950  1.00  0.00    -0.359 N 
HETATM   14  H   UNL     1     -10.864   2.478 -32.008  1.00  0.00     0.162 HD
HETATM   15  O   UNL     1     -11.609   5.013 -30.342  1.00  0.00    -0.273 OA
BRANCH  13  16
HETATM   16  C   UNL     1     -12.765   3.328 -32.342  1.00  0.00     0.150 C 
BRANCH  16  17
HETATM   17  C   UNL     1     -13.058   2.238 -33.394  1.00  0.00     0.253 C 
BRANCH  17  18
HETATM   18  N   UNL     1     -14.562   2.020 -33.563  1.00  0.00    -0.077 N 
HETATM   19  H   UNL     1     -14.886   2.779 -34.175  1.00  0.00     0.279 HD
HETATM   20  C   UNL     1     -14.923   0.723 -34.236  1.00  0.00     0.269 C 
HETATM   21  C   UNL     1     -15.295   2.159 -32.253  1.00  0.00     0.269 C 
ENDBRANCH  17  18
ENDBRANCH  16  17
ENDBRANCH  13  16
ENDBRANCH  11  12
ENDBRANCH   6  11
BRANCH   7  22
HETATM   22  C   UNL     1      -5.785   4.822 -33.126  1.00  0.00    -0.030 A 
HETATM   23  C   UNL     1      -5.090   4.694 -31.921  1.00  0.00     0.010 A 
HETATM   24  C   UNL     1      -3.689   4.830 -31.898  1.00  0.00     0.008 A 
HETATM   25  C   UNL     1      -2.952   5.079 -33.069  1.00  0.00    -0.055 A 
HETATM   26  C   UNL     1      -3.634   5.086 -34.284  1.00  0.00     0.008 A 
HETATM   27  C   UNL     1      -5.023   4.979 -34.311  1.00  0.00     0.010 A 
BRANCH  25  28
HETATM   28  C   UNL     1      -1.459   5.376 -32.992  1.00  0.00     0.010 C 
HETATM   29  C   UNL     1      -1.147   6.772 -33.527  1.00  0.00     0.015 C 
HETATM   30  C   UNL     1      -0.880   5.210 -31.578  1.00  0.00     0.015 C 
ENDBRANCH  25  28
ENDBRANCH   7  22
BRANCH  10  31
HETATM   31  C   UNL     1      -8.166   2.730 -33.887  1.00  0.00     0.256 C 
HETATM   32  N   UNL     1      -7.145   2.084 -34.531  1.00  0.00    -0.323 N 
HETATM   33  H   UNL     1      -6.508   2.605 -35.121  1.00  0.00     0.169 HD
HETATM   34  O   UNL     1      -8.930   2.238 -33.055  1.00  0.00    -0.267 OA
BRANCH  32  35
HETATM   35  C   UNL     1      -6.778   0.727 -34.364  1.00  0.00     0.035 A 
HETATM   36  C   UNL     1      -7.378  -0.332 -35.048  1.00  0.00     0.029 A 
HETATM   37  C   UNL     1      -6.972  -1.650 -34.810  1.00  0.00     0.002 A 
HETATM   38  C   UNL     1      -5.969  -1.918 -33.883  1.00  0.00     0.000 A 
HETATM   39  C   UNL     1      -5.356  -0.868 -33.205  1.00  0.00     0.002 A 
HETATM   40  C   UNL     1      -5.750   0.450 -33.453  1.00  0.00     0.029 A 
ENDBRANCH  32  35
ENDBRANCH  10  31
TORSDOF 9
ENDMDL
MODEL 8
REMARK VINA RESULT:      -7.8      3.494      7.504
REMARK  9 active torsions:
REMARK  status: ('A' for Active; 'I' for Inactive)
REMARK    1  A    between atoms: C_6  and  C_7 
REMARK    2  A    between atoms: C_7  and  C_8 
REMARK       I    between atoms: C_8  and  N_9 
REMARK    3  A    between atoms: N_9  and  C_10 
REMARK    4  A    between atoms: C_10  and  C_11 
REMARK    5  A    between atoms: C_11  and  N_12 
REMARK    6  A    between atoms: C_17  and  C_18 
REMARK    7  A    between atoms: C_21  and  C_22 
REMARK    8  A    between atoms: C_29  and  C_30 
REMARK       I    between atoms: C_30  and  N_31 
REMARK    9  A    between atoms: N_31  and  C_32 
ROOT
HETATM    1  C   UNL     1      -9.652   5.588 -31.173  1.00  0.00     0.071 C 
HETATM    2  C   UNL     1      -9.771   4.241 -31.842  1.00  0.00     0.047 C 
HETATM    3  N   UNL     1     -11.057   3.675 -31.753  1.00  0.00    -0.229 NA
HETATM    4  C   UNL     1     -11.428   2.906 -32.731  1.00  0.00     0.170 C 
HETATM    5  N   UNL     1     -10.416   2.455 -33.884  1.00  0.00    -0.319 N 
HETATM    6  C   UNL     1     -11.021   2.942 -34.929  1.00  0.00     0.011 C 
HETATM    7  C   UNL     1      -9.126   2.359 -33.182  1.00  0.00     0.165 C 
HETATM    8  S   UNL     1     -13.066   2.606 -33.220  1.00  0.00    -0.086 SA
HETATM    9  C   UNL     1     -12.471   2.448 -34.969  1.00  0.00     0.135 C 
HETATM   10  C   UNL     1      -8.792   3.688 -32.607  1.00  0.00     0.062 C 
ENDROOT
BRANCH   6  11
HETATM   11  C   UNL     1     -10.672   4.318 -35.442  1.00  0.00     0.156 C 
BRANCH  11  12
HETATM   12  C   UNL     1     -11.609   5.465 -35.205  1.00  0.00     0.223 C 
HETATM   13  N   UNL     1     -11.291   6.197 -34.076  1.00  0.00    -0.359 N 
HETATM   14  H   UNL     1     -10.285   6.339 -33.923  1.00  0.00     0.162 HD
HETATM   15  O   UNL     1     -12.619   5.622 -35.872  1.00  0.00    -0.273 OA
BRANCH  13  16
HETATM   16  C   UNL     1     -12.139   7.293 -33.602  1.00  0.00     0.150 C 
BRANCH  16  17
HETATM   17  C   UNL     1     -13.261   6.818 -32.656  1.00  0.00     0.253 C 
BRANCH  17  18
HETATM   18  N   UNL     1     -12.959   7.191 -31.205  1.00  0.00    -0.077 N 
HETATM   19  H   UNL     1     -11.944   7.346 -31.163  1.00  0.00     0.279 HD
HETATM   20  C   UNL     1     -13.621   8.463 -30.746  1.00  0.00     0.269 C 
HETATM   21  C   UNL     1     -13.276   6.058 -30.262  1.00  0.00     0.269 C 
ENDBRANCH  17  18
ENDBRANCH  16  17
ENDBRANCH  13  16
ENDBRANCH  11  12
ENDBRANCH   6  11
BRANCH   7  22
HETATM   22  C   UNL     1      -8.102   1.321 -33.586  1.00  0.00    -0.030 A 
HETATM   23  C   UNL     1      -8.071   0.674 -34.824  1.00  0.00     0.010 A 
HETATM   24  C   UNL     1      -7.323  -0.508 -34.983  1.00  0.00     0.008 A 
HETATM   25  C   UNL     1      -6.580  -1.059 -33.924  1.00  0.00    -0.055 A 
HETATM   26  C   UNL     1      -6.514  -0.347 -32.728  1.00  0.00     0.008 A 
HETATM   27  C   UNL     1      -7.274   0.808 -32.556  1.00  0.00     0.010 A 
BRANCH  25  28
HETATM   28  C   UNL     1      -5.907  -2.418 -34.079  1.00  0.00     0.010 C 
HETATM   29  C   UNL     1      -6.779  -3.374 -34.891  1.00  0.00     0.015 C 
HETATM   30  C   UNL     1      -4.501  -2.332 -34.695  1.00  0.00     0.015 C 
ENDBRANCH  25  28
ENDBRANCH   7  22
BRANCH  10  31
HETATM   31  C   UNL     1      -7.761   4.545 -33.254  1.00  0.00     0.256 C 
HETATM   32  N   UNL     1      -6.491   4.448 -32.755  1.00  0.00    -0.323 N 
HETATM   33  H   UNL     1      -6.307   3.869 -31.945  1.00  0.00     0.169 HD
HETATM   34  O   UNL     1      -8.095   5.115 -34.295  1.00  0.00    -0.267 OA
BRANCH  32  35
HETATM   35  C   UNL     1      -5.319   4.988 -33.340  1.00  0.00     0.035 A 
HETATM   36  C   UNL     1      -4.869   4.664 -34.621  1.00  0.00     0.029 A 
HETATM   37  C   UNL     1      -3.688   5.224 -35.119  1.00  0.00     0.002 A 
HETATM   38  C   UNL     1      -2.946   6.105 -34.338  1.00  0.00     0.000 A 
HETATM   39  C   UNL     1      -3.392   6.443 -33.064  1.00  0.00     0.002 A 
HETATM   40  C   UNL     1      -4.580   5.896 -32.571  1.00  0.00     0.029 A 
ENDBRANCH  32  35
ENDBRANCH  10  31
TORSDOF 9
ENDMDL
MODEL 9
REMARK VINA RESULT:      -7.8      1.955      2.522
REMARK  9 active torsions:
REMARK  status: ('A' for Active; 'I' for Inactive)
REMARK    1  A    between atoms: C_6  and  C_7 
REMARK    2  A    between atoms: C_7  and  C_8 
REMARK       I    between atoms: C_8  and  N_9 
REMARK    3  A    between atoms: N_9  and  C_10 
REMARK    4  A    between atoms: C_10  and  C_11 
REMARK    5  A    between atoms: C_11  and  N_12 
REMARK    6  A    between atoms: C_17  and  C_18 
REMARK    7  A    between atoms: C_21  and  C_22 
REMARK    8  A    between atoms: C_29  and  C_30 
REMARK       I    between atoms: C_30  and  N_31 
REMARK    9  A    between atoms: N_31  and  C_32 
ROOT
HETATM    1  C   UNL     1      -5.498   1.942 -29.747  1.00  0.00     0.071 C 
HETATM    2  C   UNL     1      -6.599   2.897 -30.138  1.00  0.00     0.047 C 
HETATM    3  N   UNL     1      -6.304   4.247 -29.865  1.00  0.00    -0.229 NA
HETATM    4  C   UNL     1      -6.829   5.133 -30.654  1.00  0.00     0.170 C 
HETATM    5  N   UNL     1      -7.917   4.743 -31.760  1.00  0.00    -0.319 N 
HETATM    6  C   UNL     1      -7.301   5.131 -32.840  1.00  0.00     0.011 C 
HETATM    7  C   UNL     1      -8.653   3.634 -31.132  1.00  0.00     0.165 C 
HETATM    8  S   UNL     1      -6.187   6.713 -30.976  1.00  0.00    -0.086 SA
HETATM    9  C   UNL     1      -6.869   6.594 -32.695  1.00  0.00     0.135 C 
HETATM   10  C   UNL     1      -7.703   2.530 -30.842  1.00  0.00     0.062 C 
ENDROOT
BRANCH   6  11
HETATM   11  C   UNL     1      -6.453   4.161 -33.625  1.00  0.00     0.156 C 
BRANCH  11  12
HETATM   12  C   UNL     1      -4.958   4.221 -33.523  1.00  0.00     0.223 C 
HETATM   13  N   UNL     1      -4.383   5.032 -34.485  1.00  0.00    -0.359 N 
HETATM   14  H   UNL     1      -4.901   5.895 -34.687  1.00  0.00     0.162 HD
HETATM   15  O   UNL     1      -4.333   3.507 -32.754  1.00  0.00    -0.273 OA
BRANCH  13  16
HETATM   16  C   UNL     1      -2.931   5.145 -34.632  1.00  0.00     0.150 C 
BRANCH  16  17
HETATM   17  C   UNL     1      -2.393   6.536 -34.233  1.00  0.00     0.253 C 
BRANCH  17  18
HETATM   18  N   UNL     1      -1.685   6.490 -32.879  1.00  0.00    -0.077 N 
HETATM   19  H   UNL     1      -0.886   7.130 -32.962  1.00  0.00     0.279 HD
HETATM   20  C   UNL     1      -2.526   6.977 -31.730  1.00  0.00     0.269 C 
HETATM   21  C   UNL     1      -1.131   5.119 -32.587  1.00  0.00     0.269 C 
ENDBRANCH  17  18
ENDBRANCH  16  17
ENDBRANCH  13  16
ENDBRANCH  11  12
ENDBRANCH   6  11
BRANCH   7  22
HETATM   22  C   UNL     1     -10.132   3.443 -31.393  1.00  0.00    -0.030 A 
HETATM   23  C   UNL     1     -10.678   3.035 -32.613  1.00  0.00     0.010 A 
HETATM   24  C   UNL     1     -12.049   3.226 -32.870  1.00  0.00     0.008 A 
HETATM   25  C   UNL     1     -12.904   3.807 -31.917  1.00  0.00    -0.055 A 
HETATM   26  C   UNL     1     -12.383   4.100 -30.659  1.00  0.00     0.008 A 
HETATM   27  C   UNL     1     -11.022   3.940 -30.408  1.00  0.00     0.010 A 
BRANCH  25  28
HETATM   28  C   UNL     1     -14.346   4.142 -32.278  1.00  0.00     0.010 C 
HETATM   29  C   UNL     1     -15.268   2.950 -32.030  1.00  0.00     0.015 C 
HETATM   30  C   UNL     1     -14.881   5.385 -31.548  1.00  0.00     0.015 C 
ENDBRANCH  25  28
ENDBRANCH   7  22
BRANCH  10  31
HETATM   31  C   UNL     1      -7.682   1.315 -31.703  1.00  0.00     0.256 C 
HETATM   32  N   UNL     1      -6.579   1.152 -32.497  1.00  0.00    -0.323 N 
HETATM   33  H   UNL     1      -5.866   1.870 -32.527  1.00  0.00     0.169 HD
HETATM   34  O   UNL     1      -8.556   0.473 -31.486  1.00  0.00    -0.267 OA
BRANCH  32  35
HETATM   35  C   UNL     1      -6.235  -0.015 -33.221  1.00  0.00     0.035 A 
HETATM   36  C   UNL     1      -5.052  -0.731 -33.028  1.00  0.00     0.029 A 
HETATM   37  C   UNL     1      -4.775  -1.863 -33.802  1.00  0.00     0.002 A 
HETATM   38  C   UNL     1      -5.675  -2.283 -34.777  1.00  0.00     0.000 A 
HETATM   39  C   UNL     1      -6.863  -1.583 -34.969  1.00  0.00     0.002 A 
HETATM   40  C   UNL     1      -7.148  -0.460 -34.187  1.00  0.00     0.029 A 
ENDBRANCH  32  35
ENDBRANCH  10  31
TORSDOF 9
ENDMDL
MODEL 10
REMARK VINA RESULT:      -7.6      2.920      6.517
REMARK  9 active torsions:
REMARK  status: ('A' for Active; 'I' for Inactive)
REMARK    1  A    between atoms: C_6  and  C_7 
REMARK    2  A    between atoms: C_7  and  C_8 
REMARK       I    between atoms: C_8  and  N_9 
REMARK    3  A    between atoms: N_9  and  C_10 
REMARK    4  A    between atoms: C_10  and  C_11 
REMARK    5  A    between atoms: C_11  and  N_12 
REMARK    6  A    between atoms: C_17  and  C_18 
REMARK    7  A    between atoms: C_21  and  C_22 
REMARK    8  A    between atoms: C_29  and  C_30 
REMARK       I    between atoms: C_30  and  N_31 
REMARK    9  A    between atoms: N_31  and  C_32 
ROOT
HETATM    1  C   UNL     1      -9.000   5.767 -34.192  1.00  0.00     0.071 C 
HETATM    2  C   UNL     1      -7.967   4.727 -33.836  1.00  0.00     0.047 C 
HETATM    3  N   UNL     1      -6.699   5.264 -33.538  1.00  0.00    -0.229 NA
HETATM    4  C   UNL     1      -5.973   4.612 -32.683  1.00  0.00     0.170 C 
HETATM    5  N   UNL     1      -6.396   3.169 -32.139  1.00  0.00    -0.319 N 
HETATM    6  C   UNL     1      -6.477   3.415 -30.863  1.00  0.00     0.011 C 
HETATM    7  C   UNL     1      -7.087   2.564 -33.289  1.00  0.00     0.165 C 
HETATM    8  S   UNL     1      -4.736   5.294 -31.674  1.00  0.00    -0.086 SA
HETATM    9  C   UNL     1      -5.171   4.048 -30.372  1.00  0.00     0.135 C 
HETATM   10  C   UNL     1      -8.253   3.411 -33.648  1.00  0.00     0.062 C 
ENDROOT
BRANCH   6  11
HETATM   11  C   UNL     1      -7.794   3.811 -30.243  1.00  0.00     0.156 C 
BRANCH  11  12
HETATM   12  C   UNL     1      -7.961   5.177 -29.647  1.00  0.00     0.223 C 
HETATM   13  N   UNL     1      -8.205   6.154 -30.597  1.00  0.00    -0.359 N 
HETATM   14  H   UNL     1      -8.829   5.865 -31.360  1.00  0.00     0.162 HD
HETATM   15  O   UNL     1      -7.754   5.396 -28.464  1.00  0.00    -0.273 OA
BRANCH  13  16
HETATM   16  C   UNL     1      -8.292   7.571 -30.241  1.00  0.00     0.150 C 
BRANCH  16  17
HETATM   17  C   UNL     1      -6.915   8.266 -30.201  1.00  0.00     0.253 C 
BRANCH  17  18
HETATM   18  N   UNL     1      -6.653   9.053 -31.485  1.00  0.00    -0.077 N 
HETATM   19  H   UNL     1      -6.111   8.425 -32.091  1.00  0.00     0.279 HD
HETATM   20  C   UNL     1      -7.900   9.431 -32.239  1.00  0.00     0.269 C 
HETATM   21  C   UNL     1      -5.801  10.270 -31.227  1.00  0.00     0.269 C 
ENDBRANCH  17  18
ENDBRANCH  16  17
ENDBRANCH  13  16
ENDBRANCH  11  12
ENDBRANCH   6  11
BRANCH   7  22
HETATM   22  C   UNL     1      -7.000   1.075 -33.547  1.00  0.00    -0.030 A 
HETATM   23  C   UNL     1      -6.468   0.143 -32.652  1.00  0.00     0.010 A 
HETATM   24  C   UNL     1      -6.104  -1.140 -33.105  1.00  0.00     0.008 A 
HETATM   25  C   UNL     1      -6.277  -1.525 -34.446  1.00  0.00    -0.055 A 
HETATM   26  C   UNL     1      -6.918  -0.638 -35.307  1.00  0.00     0.008 A 
HETATM   27  C   UNL     1      -7.255   0.642 -34.872  1.00  0.00     0.010 A 
BRANCH  25  28
HETATM   28  C   UNL     1      -5.732  -2.860 -34.941  1.00  0.00     0.010 C 
HETATM   29  C   UNL     1      -4.441  -3.232 -34.214  1.00  0.00     0.015 C 
HETATM   30  C   UNL     1      -6.749  -4.008 -34.832  1.00  0.00     0.015 C 
ENDBRANCH  25  28
ENDBRANCH   7  22
BRANCH  10  31
HETATM   31  C   UNL     1      -9.631   2.980 -33.284  1.00  0.00     0.256 C 
HETATM   32  N   UNL     1     -10.298   3.773 -32.389  1.00  0.00    -0.323 N 
HETATM   33  H   UNL     1      -9.828   4.563 -31.964  1.00  0.00     0.169 HD
HETATM   34  O   UNL     1     -10.119   2.069 -33.956  1.00  0.00    -0.267 OA
BRANCH  32  35
HETATM   35  C   UNL     1     -11.674   3.695 -32.066  1.00  0.00     0.035 A 
HETATM   36  C   UNL     1     -12.649   3.191 -32.929  1.00  0.00     0.029 A 
HETATM   37  C   UNL     1     -13.993   3.168 -32.542  1.00  0.00     0.002 A 
HETATM   38  C   UNL     1     -14.373   3.653 -31.294  1.00  0.00     0.000 A 
HETATM   39  C   UNL     1     -13.407   4.146 -30.422  1.00  0.00     0.002 A 
HETATM   40  C   UNL     1     -12.061   4.156 -30.801  1.00  0.00     0.029 A 
ENDBRANCH  32  35
ENDBRANCH  10  31
TORSDOF 9
ENDMDL
