MODEL 1
REMARK VINA RESULT:      -8.3      0.000      0.000
REMARK  3 active torsions:
REMARK  status: ('A' for Active; 'I' for Inactive)
REMARK    1  A    between atoms: C_3  and  N_4 
REMARK       I    between atoms: N_4  and  C_5 
REMARK    2  A    between atoms: C_5  and  C_6 
REMARK    3  A    between atoms: C_6  and  C_7 
ROOT
HETATM    1  C   UNL     1      -6.014   0.069 -31.205  1.00  0.00     0.286 C 
HETATM    2  N   UNL     1      -6.210   1.064 -32.346  1.00  0.00    -0.056 N 
HETATM    3  H   UNL     1      -5.296   1.559 -32.430  1.00  0.00     0.278 HD
HETATM    4  H   UNL     1      -6.357   0.585 -33.240  1.00  0.00     0.278 HD
HETATM    5  C   UNL     1      -7.263   2.106 -32.099  1.00  0.00     0.209 C 
HETATM    6  C   UNL     1      -6.976   2.818 -30.756  1.00  0.00     0.115 C 
HETATM    7  N   UNL     1      -6.730   1.882 -29.658  1.00  0.00    -0.353 N 
HETATM    8  C   UNL     1      -5.996   0.729 -29.811  1.00  0.00     0.249 C 
HETATM    9  O   UNL     1      -5.453   0.211 -28.841  1.00  0.00    -0.271 OA
HETATM   10  C   UNL     1      -8.655   1.471 -32.162  1.00  0.00     0.035 C 
HETATM   11  C   UNL     1      -9.738   2.494 -31.828  1.00  0.00     0.002 C 
HETATM   12  C   UNL     1      -9.486   3.150 -30.473  1.00  0.00     0.002 C 
HETATM   13  C   UNL     1      -8.102   3.796 -30.405  1.00  0.00     0.027 C 
HETATM   14  H   UNL     1      -6.634   2.272 -28.722  1.00  0.00     0.163 HD
ENDROOT
BRANCH   1  15
HETATM   15  C   UNL     1      -4.765  -0.795 -31.437  1.00  0.00     0.146 C 
BRANCH  15  16
HETATM   16  C   UNL     1      -4.073  -0.404 -32.716  1.00  0.00     0.224 C 
HETATM   17  N   UNL     1      -4.058  -1.199 -33.814  1.00  0.00    -0.326 N 
HETATM   18  H   UNL     1      -3.451  -0.831 -34.547  1.00  0.00     0.169 HD
HETATM   19  O   UNL     1      -3.538   0.713 -32.774  1.00  0.00    -0.273 OA
BRANCH  17  20
HETATM   20  C   UNL     1      -4.690  -2.414 -34.173  1.00  0.00     0.056 A 
HETATM   21  C   UNL     1      -4.143  -3.686 -33.978  1.00  0.00     0.031 A 
HETATM   22  C   UNL     1      -4.862  -4.835 -34.337  1.00  0.00     0.002 A 
HETATM   23  C   UNL     1      -6.136  -4.732 -34.891  1.00  0.00     0.002 A 
HETATM   24  C   UNL     1      -6.702  -3.477 -35.085  1.00  0.00     0.026 A 
HETATM   25  C   UNL     1      -5.988  -2.332 -34.725  1.00  0.00     0.060 A 
HETATM   26 CL   UNL     1      -6.748  -0.795 -34.977  1.00  0.00    -0.082 Cl
ENDBRANCH  17  20
ENDBRANCH  15  16
ENDBRANCH   1  15
TORSDOF 3
ENDMDL
MODEL 2
REMARK VINA RESULT:      -7.9      2.786      3.721
REMARK  3 active torsions:
REMARK  status: ('A' for Active; 'I' for Inactive)
REMARK    1  A    between atoms: C_3  and  N_4 
REMARK       I    between atoms: N_4  and  C_5 
REMARK    2  A    between atoms: C_5  and  C_6 
REMARK    3  A    between atoms: C_6  and  C_7 
ROOT
HETATM    1  C   UNL     1      -9.064   0.929 -32.173  1.00  0.00     0.286 C 
HETATM    2  N   UNL     1      -9.419   0.813 -33.652  1.00  0.00    -0.056 N 
HETATM    3  H   UNL     1      -8.766   1.465 -34.138  1.00  0.00     0.278 HD
HETATM    4  H   UNL     1      -9.209  -0.122 -34.016  1.00  0.00     0.278 HD
HETATM    5  C   UNL     1     -10.817   1.238 -34.000  1.00  0.00     0.209 C 
HETATM    6  C   UNL     1     -11.069   2.665 -33.457  1.00  0.00     0.115 C 
HETATM    7  N   UNL     1     -10.684   2.815 -32.053  1.00  0.00    -0.353 N 
HETATM    8  C   UNL     1      -9.550   2.243 -31.526  1.00  0.00     0.249 C 
HETATM    9  O   UNL     1      -9.032   2.716 -30.520  1.00  0.00    -0.271 OA
HETATM   10  C   UNL     1     -11.824   0.207 -33.483  1.00  0.00     0.035 C 
HETATM   11  C   UNL     1     -13.257   0.662 -33.749  1.00  0.00     0.002 C 
HETATM   12  C   UNL     1     -13.522   2.043 -33.157  1.00  0.00     0.002 C 
HETATM   13  C   UNL     1     -12.527   3.082 -33.676  1.00  0.00     0.027 C 
HETATM   14  H   UNL     1     -10.914   3.695 -31.595  1.00  0.00     0.163 HD
ENDROOT
BRANCH   1  15
HETATM   15  C   UNL     1      -7.559   0.713 -31.950  1.00  0.00     0.146 C 
BRANCH  15  16
HETATM   16  C   UNL     1      -6.762   1.273 -33.097  1.00  0.00     0.224 C 
HETATM   17  N   UNL     1      -6.039   0.493 -33.938  1.00  0.00    -0.326 N 
HETATM   18  H   UNL     1      -5.473   1.044 -34.583  1.00  0.00     0.169 HD
HETATM   19  O   UNL     1      -6.811   2.495 -33.302  1.00  0.00    -0.273 OA
BRANCH  17  20
HETATM   20  C   UNL     1      -5.894  -0.903 -34.125  1.00  0.00     0.056 A 
HETATM   21  C   UNL     1      -6.885  -1.748 -34.631  1.00  0.00     0.031 A 
HETATM   22  C   UNL     1      -6.634  -3.116 -34.813  1.00  0.00     0.002 A 
HETATM   23  C   UNL     1      -5.391  -3.657 -34.497  1.00  0.00     0.002 A 
HETATM   24  C   UNL     1      -4.387  -2.833 -34.001  1.00  0.00     0.026 A 
HETATM   25  C   UNL     1      -4.635  -1.470 -33.822  1.00  0.00     0.060 A 
HETATM   26 CL   UNL     1      -3.344  -0.487 -33.213  1.00  0.00    -0.082 Cl
ENDBRANCH  17  20
ENDBRANCH  15  16
ENDBRANCH   1  15
TORSDOF 3
ENDMDL
MODEL 3
REMARK VINA RESULT:      -7.8      7.852     10.419
REMARK  3 active torsions:
REMARK  status: ('A' for Active; 'I' for Inactive)
REMARK    1  A    between atoms: C_3  and  N_4 
REMARK       I    between atoms: N_4  and  C_5 
REMARK    2  A    between atoms: C_5  and  C_6 
REMARK    3  A    between atoms: C_6  and  C_7 
ROOT
HETATM    1  C   UNL     1      -1.241   6.245 -31.837  1.00  0.00     0.286 C 
HETATM    2  N   UNL     1      -1.113   4.860 -32.466  1.00  0.00    -0.056 N 
HETATM    3  H   UNL     1      -0.267   4.918 -33.073  1.00  0.00     0.278 HD
HETATM    4  H   UNL     1      -0.908   4.145 -31.760  1.00  0.00     0.278 HD
HETATM    5  C   UNL     1      -2.266   4.456 -33.340  1.00  0.00     0.209 C 
HETATM    6  C   UNL     1      -2.511   5.553 -34.404  1.00  0.00     0.115 C 
HETATM    7  N   UNL     1      -2.582   6.897 -33.830  1.00  0.00    -0.353 N 
HETATM    8  C   UNL     1      -1.752   7.320 -32.819  1.00  0.00     0.249 C 
HETATM    9  O   UNL     1      -1.533   8.517 -32.661  1.00  0.00    -0.271 OA
HETATM   10  C   UNL     1      -3.498   4.161 -32.482  1.00  0.00     0.035 C 
HETATM   11  C   UNL     1      -4.707   3.833 -33.355  1.00  0.00     0.002 C 
HETATM   12  C   UNL     1      -4.985   4.944 -34.362  1.00  0.00     0.002 C 
HETATM   13  C   UNL     1      -3.762   5.240 -35.232  1.00  0.00     0.027 C 
HETATM   14  H   UNL     1      -2.842   7.660 -34.452  1.00  0.00     0.163 HD
ENDROOT
BRANCH   1  15
HETATM   15  C   UNL     1       0.077   6.670 -31.170  1.00  0.00     0.146 C 
BRANCH  15  16
HETATM   16  C   UNL     1       0.379   5.799 -29.979  1.00  0.00     0.224 C 
HETATM   17  N   UNL     1       0.549   6.299 -28.731  1.00  0.00    -0.326 N 
HETATM   18  H   UNL     1       0.859   5.585 -28.070  1.00  0.00     0.169 HD
HETATM   19  O   UNL     1       0.426   4.572 -30.149  1.00  0.00    -0.273 OA
BRANCH  17  20
HETATM   20  C   UNL     1       0.395   7.575 -28.138  1.00  0.00     0.056 A 
HETATM   21  C   UNL     1       1.449   8.411 -27.759  1.00  0.00     0.031 A 
HETATM   22  C   UNL     1       1.195   9.676 -27.209  1.00  0.00     0.002 A 
HETATM   23  C   UNL     1      -0.112  10.125 -27.035  1.00  0.00     0.002 A 
HETATM   24  C   UNL     1      -1.174   9.313 -27.414  1.00  0.00     0.026 A 
HETATM   25  C   UNL     1      -0.923   8.054 -27.964  1.00  0.00     0.060 A 
HETATM   26 CL   UNL     1      -2.285   7.090 -28.431  1.00  0.00    -0.082 Cl
ENDBRANCH  17  20
ENDBRANCH  15  16
ENDBRANCH   1  15
TORSDOF 3
ENDMDL
MODEL 4
REMARK VINA RESULT:      -7.7      3.831      6.227
REMARK  3 active torsions:
REMARK  status: ('A' for Active; 'I' for Inactive)
REMARK    1  A    between atoms: C_3  and  N_4 
REMARK       I    between atoms: N_4  and  C_5 
REMARK    2  A    between atoms: C_5  and  C_6 
REMARK    3  A    between atoms: C_6  and  C_7 
ROOT
HETATM    1  C   UNL     1      -4.729   1.728 -31.985  1.00  0.00     0.286 C 
HETATM    2  N   UNL     1      -6.229   1.977 -32.119  1.00  0.00    -0.056 N 
HETATM    3  H   UNL     1      -6.610   1.844 -31.157  1.00  0.00     0.278 HD
HETATM    4  H   UNL     1      -6.427   2.951 -32.371  1.00  0.00     0.278 HD
HETATM    5  C   UNL     1      -6.949   1.017 -33.022  1.00  0.00     0.209 C 
HETATM    6  C   UNL     1      -6.642  -0.433 -32.578  1.00  0.00     0.115 C 
HETATM    7  N   UNL     1      -5.211  -0.679 -32.391  1.00  0.00    -0.353 N 
HETATM    8  C   UNL     1      -4.367   0.238 -31.812  1.00  0.00     0.249 C 
HETATM    9  O   UNL     1      -3.323  -0.131 -31.285  1.00  0.00    -0.271 OA
HETATM   10  C   UNL     1      -6.581   1.293 -34.483  1.00  0.00     0.035 C 
HETATM   11  C   UNL     1      -7.233   0.274 -35.413  1.00  0.00     0.002 C 
HETATM   12  C   UNL     1      -6.878  -1.155 -35.011  1.00  0.00     0.002 C 
HETATM   13  C   UNL     1      -7.251  -1.443 -33.556  1.00  0.00     0.027 C 
HETATM   14  H   UNL     1      -4.922  -1.637 -32.198  1.00  0.00     0.163 HD
ENDROOT
BRANCH   1  15
HETATM   15  C   UNL     1      -4.126   2.590 -30.865  1.00  0.00     0.146 C 
BRANCH  15  16
HETATM   16  C   UNL     1      -4.813   3.928 -30.790  1.00  0.00     0.224 C 
HETATM   17  N   UNL     1      -4.435   4.988 -31.544  1.00  0.00    -0.326 N 
HETATM   18  H   UNL     1      -4.931   5.842 -31.284  1.00  0.00     0.169 HD
HETATM   19  O   UNL     1      -5.793   4.041 -30.039  1.00  0.00    -0.273 OA
BRANCH  17  20
HETATM   20  C   UNL     1      -3.516   5.182 -32.604  1.00  0.00     0.056 A 
HETATM   21  C   UNL     1      -2.137   5.341 -32.446  1.00  0.00     0.031 A 
HETATM   22  C   UNL     1      -1.303   5.492 -33.563  1.00  0.00     0.002 A 
HETATM   23  C   UNL     1      -1.831   5.483 -34.851  1.00  0.00     0.002 A 
HETATM   24  C   UNL     1      -3.200   5.316 -35.031  1.00  0.00     0.026 A 
HETATM   25  C   UNL     1      -4.032   5.163 -33.920  1.00  0.00     0.060 A 
HETATM   26 CL   UNL     1      -5.728   4.946 -34.204  1.00  0.00    -0.082 Cl
ENDBRANCH  17  20
ENDBRANCH  15  16
ENDBRANCH   1  15
TORSDOF 3
ENDMDL
MODEL 5
REMARK VINA RESULT:      -7.7      3.651      4.912
REMARK  3 active torsions:
REMARK  status: ('A' for Active; 'I' for Inactive)
REMARK    1  A    between atoms: C_3  and  N_4 
REMARK       I    between atoms: N_4  and  C_5 
REMARK    2  A    between atoms: C_5  and  C_6 
REMARK    3  A    between atoms: C_6  and  C_7 
ROOT
HETATM    1  C   UNL     1      -5.551   3.331 -33.608  1.00  0.00     0.286 C 
HETATM    2  N   UNL     1      -4.598   3.063 -32.447  1.00  0.00    -0.056 N 
HETATM    3  H   UNL     1      -5.206   3.041 -31.600  1.00  0.00     0.278 HD
HETATM    4  H   UNL     1      -4.174   2.132 -32.517  1.00  0.00     0.278 HD
HETATM    5  C   UNL     1      -3.560   4.126 -32.226  1.00  0.00     0.209 C 
HETATM    6  C   UNL     1      -4.255   5.502 -32.096  1.00  0.00     0.115 C 
HETATM    7  N   UNL     1      -5.215   5.758 -33.170  1.00  0.00    -0.353 N 
HETATM    8  C   UNL     1      -6.055   4.788 -33.665  1.00  0.00     0.249 C 
HETATM    9  O   UNL     1      -7.102   5.104 -34.221  1.00  0.00    -0.271 OA
HETATM   10  C   UNL     1      -2.514   4.080 -33.343  1.00  0.00     0.035 C 
HETATM   11  C   UNL     1      -1.497   5.207 -33.186  1.00  0.00     0.002 C 
HETATM   12  C   UNL     1      -2.181   6.570 -33.121  1.00  0.00     0.002 C 
HETATM   13  C   UNL     1      -3.221   6.629 -32.001  1.00  0.00     0.027 C 
HETATM   14  H   UNL     1      -5.638   6.683 -33.211  1.00  0.00     0.163 HD
ENDROOT
BRANCH   1  15
HETATM   15  C   UNL     1      -6.717   2.330 -33.605  1.00  0.00     0.146 C 
BRANCH  15  16
HETATM   16  C   UNL     1      -6.837   1.652 -32.266  1.00  0.00     0.224 C 
HETATM   17  N   UNL     1      -6.683   0.315 -32.106  1.00  0.00    -0.326 N 
HETATM   18  H   UNL     1      -6.910   0.013 -31.157  1.00  0.00     0.169 HD
HETATM   19  O   UNL     1      -7.039   2.359 -31.269  1.00  0.00    -0.273 OA
BRANCH  17  20
HETATM   20  C   UNL     1      -6.280  -0.751 -32.946  1.00  0.00     0.056 A 
HETATM   21  C   UNL     1      -7.116  -1.417 -33.846  1.00  0.00     0.031 A 
HETATM   22  C   UNL     1      -6.615  -2.441 -34.663  1.00  0.00     0.002 A 
HETATM   23  C   UNL     1      -5.274  -2.810 -34.597  1.00  0.00     0.002 A 
HETATM   24  C   UNL     1      -4.423  -2.154 -33.715  1.00  0.00     0.026 A 
HETATM   25  C   UNL     1      -4.920  -1.132 -32.902  1.00  0.00     0.060 A 
HETATM   26 CL   UNL     1      -3.812  -0.340 -31.831  1.00  0.00    -0.082 Cl
ENDBRANCH  17  20
ENDBRANCH  15  16
ENDBRANCH   1  15
TORSDOF 3
ENDMDL
MODEL 6
REMARK VINA RESULT:      -7.7      1.938      2.430
REMARK  3 active torsions:
REMARK  status: ('A' for Active; 'I' for Inactive)
REMARK    1  A    between atoms: C_3  and  N_4 
REMARK       I    between atoms: N_4  and  C_5 
REMARK    2  A    between atoms: C_5  and  C_6 
REMARK    3  A    between atoms: C_6  and  C_7 
ROOT
HETATM    1  C   UNL     1      -7.001   0.265 -32.040  1.00  0.00     0.286 C 
HETATM    2  N   UNL     1      -7.068   0.403 -33.558  1.00  0.00    -0.056 N 
HETATM    3  H   UNL     1      -6.154   0.824 -33.831  1.00  0.00     0.278 HD
HETATM    4  H   UNL     1      -7.105  -0.514 -34.016  1.00  0.00     0.278 HD
HETATM    5  C   UNL     1      -8.150   1.314 -34.062  1.00  0.00     0.209 C 
HETATM    6  C   UNL     1      -8.028   2.690 -33.363  1.00  0.00     0.115 C 
HETATM    7  N   UNL     1      -7.907   2.580 -31.909  1.00  0.00    -0.353 N 
HETATM    8  C   UNL     1      -7.152   1.608 -31.295  1.00  0.00     0.249 C 
HETATM    9  O   UNL     1      -6.724   1.786 -30.160  1.00  0.00    -0.271 OA
HETATM   10  C   UNL     1      -9.521   0.659 -33.871  1.00  0.00     0.035 C 
HETATM   11  C   UNL     1     -10.642   1.604 -34.296  1.00  0.00     0.002 C 
HETATM   12  C   UNL     1     -10.556   2.937 -33.559  1.00  0.00     0.002 C 
HETATM   13  C   UNL     1      -9.194   3.605 -33.752  1.00  0.00     0.027 C 
HETATM   14  H   UNL     1      -7.925   3.444 -31.370  1.00  0.00     0.163 HD
ENDROOT
BRANCH   1  15
HETATM   15  C   UNL     1      -5.727  -0.479 -31.610  1.00  0.00     0.146 C 
BRANCH  15  16
HETATM   16  C   UNL     1      -4.590  -0.180 -32.550  1.00  0.00     0.224 C 
HETATM   17  N   UNL     1      -4.092  -1.100 -33.413  1.00  0.00    -0.326 N 
HETATM   18  H   UNL     1      -3.254  -0.765 -33.890  1.00  0.00     0.169 HD
HETATM   19  O   UNL     1      -4.127   0.969 -32.562  1.00  0.00    -0.273 OA
BRANCH  17  20
HETATM   20  C   UNL     1      -4.467  -2.408 -33.802  1.00  0.00     0.056 A 
HETATM   21  C   UNL     1      -5.362  -2.708 -34.833  1.00  0.00     0.031 A 
HETATM   22  C   UNL     1      -5.645  -4.040 -35.168  1.00  0.00     0.002 A 
HETATM   23  C   UNL     1      -5.037  -5.089 -34.483  1.00  0.00     0.002 A 
HETATM   24  C   UNL     1      -4.137  -4.813 -33.461  1.00  0.00     0.026 A 
HETATM   25  C   UNL     1      -3.852  -3.487 -33.128  1.00  0.00     0.060 A 
HETATM   26 CL   UNL     1      -2.712  -3.201 -31.854  1.00  0.00    -0.082 Cl
ENDBRANCH  17  20
ENDBRANCH  15  16
ENDBRANCH   1  15
TORSDOF 3
ENDMDL
MODEL 7
REMARK VINA RESULT:      -7.5      2.374      3.787
REMARK  3 active torsions:
REMARK  status: ('A' for Active; 'I' for Inactive)
REMARK    1  A    between atoms: C_3  and  N_4 
REMARK       I    between atoms: N_4  and  C_5 
REMARK    2  A    between atoms: C_5  and  C_6 
REMARK    3  A    between atoms: C_6  and  C_7 
ROOT
HETATM    1  C   UNL     1      -7.474   2.233 -33.289  1.00  0.00     0.286 C 
HETATM    2  N   UNL     1      -8.405   2.023 -32.097  1.00  0.00    -0.056 N 
HETATM    3  H   UNL     1      -8.201   1.056 -31.764  1.00  0.00     0.278 HD
HETATM    4  H   UNL     1      -8.165   2.648 -31.320  1.00  0.00     0.278 HD
HETATM    5  C   UNL     1      -9.870   2.086 -32.423  1.00  0.00     0.209 C 
HETATM    6  C   UNL     1     -10.181   1.104 -33.577  1.00  0.00     0.115 C 
HETATM    7  N   UNL     1      -9.265   1.249 -34.710  1.00  0.00    -0.353 N 
HETATM    8  C   UNL     1      -7.917   1.470 -34.555  1.00  0.00     0.249 C 
HETATM    9  O   UNL     1      -7.135   1.163 -35.449  1.00  0.00    -0.271 OA
HETATM   10  C   UNL     1     -10.279   3.529 -32.730  1.00  0.00     0.035 C 
HETATM   11  C   UNL     1     -11.744   3.604 -33.149  1.00  0.00     0.002 C 
HETATM   12  C   UNL     1     -12.035   2.681 -34.329  1.00  0.00     0.002 C 
HETATM   13  C   UNL     1     -11.639   1.235 -34.027  1.00  0.00     0.027 C 
HETATM   14  H   UNL     1      -9.468   0.709 -35.549  1.00  0.00     0.163 HD
ENDROOT
BRANCH   1  15
HETATM   15  C   UNL     1      -6.019   1.910 -32.914  1.00  0.00     0.146 C 
BRANCH  15  16
HETATM   16  C   UNL     1      -5.965   0.995 -31.719  1.00  0.00     0.224 C 
HETATM   17  N   UNL     1      -5.954  -0.356 -31.831  1.00  0.00    -0.326 N 
HETATM   18  H   UNL     1      -6.031  -0.817 -30.924  1.00  0.00     0.169 HD
HETATM   19  O   UNL     1      -5.879   1.507 -30.594  1.00  0.00    -0.273 OA
BRANCH  17  20
HETATM   20  C   UNL     1      -5.860  -1.267 -32.911  1.00  0.00     0.056 A 
HETATM   21  C   UNL     1      -6.938  -1.700 -33.686  1.00  0.00     0.031 A 
HETATM   22  C   UNL     1      -6.739  -2.580 -34.760  1.00  0.00     0.002 A 
HETATM   23  C   UNL     1      -5.462  -3.035 -35.077  1.00  0.00     0.002 A 
HETATM   24  C   UNL     1      -4.373  -2.608 -34.325  1.00  0.00     0.026 A 
HETATM   25  C   UNL     1      -4.570  -1.730 -33.257  1.00  0.00     0.060 A 
HETATM   26 CL   UNL     1      -3.176  -1.221 -32.362  1.00  0.00    -0.082 Cl
ENDBRANCH  17  20
ENDBRANCH  15  16
ENDBRANCH   1  15
TORSDOF 3
ENDMDL
MODEL 8
REMARK VINA RESULT:      -7.4      2.712      6.534
REMARK  3 active torsions:
REMARK  status: ('A' for Active; 'I' for Inactive)
REMARK    1  A    between atoms: C_3  and  N_4 
REMARK       I    between atoms: N_4  and  C_5 
REMARK    2  A    between atoms: C_5  and  C_6 
REMARK    3  A    between atoms: C_6  and  C_7 
ROOT
HETATM    1  C   UNL     1      -7.064   1.800 -33.320  1.00  0.00     0.286 C 
HETATM    2  N   UNL     1      -7.635   0.516 -32.725  1.00  0.00    -0.056 N 
HETATM    3  H   UNL     1      -7.752   0.720 -31.708  1.00  0.00     0.278 HD
HETATM    4  H   UNL     1      -8.575   0.321 -33.085  1.00  0.00     0.278 HD
HETATM    5  C   UNL     1      -6.740  -0.685 -32.841  1.00  0.00     0.209 C 
HETATM    6  C   UNL     1      -5.348  -0.345 -32.254  1.00  0.00     0.115 C 
HETATM    7  N   UNL     1      -4.805   0.912 -32.770  1.00  0.00    -0.353 N 
HETATM    8  C   UNL     1      -5.579   2.031 -32.973  1.00  0.00     0.249 C 
HETATM    9  O   UNL     1      -5.063   3.143 -32.980  1.00  0.00    -0.271 OA
HETATM   10  C   UNL     1      -6.683  -1.160 -34.295  1.00  0.00     0.035 C 
HETATM   11  C   UNL     1      -5.711  -2.325 -34.452  1.00  0.00     0.002 C 
HETATM   12  C   UNL     1      -4.322  -1.967 -33.930  1.00  0.00     0.002 C 
HETATM   13  C   UNL     1      -4.367  -1.501 -32.474  1.00  0.00     0.027 C 
HETATM   14  H   UNL     1      -3.850   1.152 -32.509  1.00  0.00     0.163 HD
ENDROOT
BRANCH   1  15
HETATM   15  C   UNL     1      -7.928   3.013 -32.940  1.00  0.00     0.146 C 
BRANCH  15  16
HETATM   16  C   UNL     1      -8.869   2.670 -31.817  1.00  0.00     0.224 C 
HETATM   17  N   UNL     1     -10.213   2.608 -31.981  1.00  0.00    -0.326 N 
HETATM   18  H   UNL     1     -10.703   2.475 -31.095  1.00  0.00     0.169 HD
HETATM   19  O   UNL     1      -8.384   2.389 -30.712  1.00  0.00    -0.273 OA
BRANCH  17  20
HETATM   20  C   UNL     1     -11.087   2.681 -33.092  1.00  0.00     0.056 A 
HETATM   21  C   UNL     1     -11.556   3.868 -33.662  1.00  0.00     0.031 A 
HETATM   22  C   UNL     1     -12.393   3.839 -34.786  1.00  0.00     0.002 A 
HETATM   23  C   UNL     1     -12.770   2.628 -35.360  1.00  0.00     0.002 A 
HETATM   24  C   UNL     1     -12.307   1.436 -34.815  1.00  0.00     0.026 A 
HETATM   25  C   UNL     1     -11.471   1.463 -33.697  1.00  0.00     0.060 A 
HETATM   26 CL   UNL     1     -10.914  -0.053 -33.068  1.00  0.00    -0.082 Cl
ENDBRANCH  17  20
ENDBRANCH  15  16
ENDBRANCH   1  15
TORSDOF 3
ENDMDL
MODEL 9
REMARK VINA RESULT:      -7.4      4.572      6.019
REMARK  3 active torsions:
REMARK  status: ('A' for Active; 'I' for Inactive)
REMARK    1  A    between atoms: C_3  and  N_4 
REMARK       I    between atoms: N_4  and  C_5 
REMARK    2  A    between atoms: C_5  and  C_6 
REMARK    3  A    between atoms: C_6  and  C_7 
ROOT
HETATM    1  C   UNL     1      -4.093   4.467 -33.365  1.00  0.00     0.286 C 
HETATM    2  N   UNL     1      -4.156   5.002 -31.937  1.00  0.00    -0.056 N 
HETATM    3  H   UNL     1      -4.978   5.644 -31.927  1.00  0.00     0.278 HD
HETATM    4  H   UNL     1      -4.370   4.257 -31.266  1.00  0.00     0.278 HD
HETATM    5  C   UNL     1      -2.958   5.801 -31.509  1.00  0.00     0.209 C 
HETATM    6  C   UNL     1      -2.701   6.929 -32.537  1.00  0.00     0.115 C 
HETATM    7  N   UNL     1      -2.690   6.447 -33.919  1.00  0.00    -0.353 N 
HETATM    8  C   UNL     1      -3.572   5.501 -34.385  1.00  0.00     0.249 C 
HETATM    9  O   UNL     1      -3.830   5.436 -35.582  1.00  0.00    -0.271 OA
HETATM   10  C   UNL     1      -1.754   4.877 -31.311  1.00  0.00     0.035 C 
HETATM   11  C   UNL     1      -0.503   5.678 -30.961  1.00  0.00     0.002 C 
HETATM   12  C   UNL     1      -0.215   6.749 -32.009  1.00  0.00     0.002 C 
HETATM   13  C   UNL     1      -1.409   7.684 -32.207  1.00  0.00     0.027 C 
HETATM   14  H   UNL     1      -2.426   7.111 -34.645  1.00  0.00     0.163 HD
ENDROOT
BRANCH   1  15
HETATM   15  C   UNL     1      -5.448   3.883 -33.794  1.00  0.00     0.146 C 
BRANCH  15  16
HETATM   16  C   UNL     1      -6.196   3.339 -32.606  1.00  0.00     0.224 C 
HETATM   17  N   UNL     1      -6.167   2.029 -32.259  1.00  0.00    -0.326 N 
HETATM   18  H   UNL     1      -6.819   1.817 -31.502  1.00  0.00     0.169 HD
HETATM   19  O   UNL     1      -6.825   4.136 -31.896  1.00  0.00    -0.273 OA
BRANCH  17  20
HETATM   20  C   UNL     1      -5.444   0.896 -32.702  1.00  0.00     0.056 A 
HETATM   21  C   UNL     1      -4.138   0.581 -32.315  1.00  0.00     0.031 A 
HETATM   22  C   UNL     1      -3.516  -0.586 -32.782  1.00  0.00     0.002 A 
HETATM   23  C   UNL     1      -4.188  -1.456 -33.637  1.00  0.00     0.002 A 
HETATM   24  C   UNL     1      -5.491  -1.167 -34.026  1.00  0.00     0.026 A 
HETATM   25  C   UNL     1      -6.113  -0.007 -33.560  1.00  0.00     0.060 A 
HETATM   26 CL   UNL     1      -7.742   0.296 -34.068  1.00  0.00    -0.082 Cl
ENDBRANCH  17  20
ENDBRANCH  15  16
ENDBRANCH   1  15
TORSDOF 3
ENDMDL
MODEL 10
REMARK VINA RESULT:      -7.3     14.198     16.241
REMARK  3 active torsions:
REMARK  status: ('A' for Active; 'I' for Inactive)
REMARK    1  A    between atoms: C_3  and  N_4 
REMARK       I    between atoms: N_4  and  C_5 
REMARK    2  A    between atoms: C_5  and  C_6 
REMARK    3  A    between atoms: C_6  and  C_7 
ROOT
HETATM    1  C   UNL     1      -3.663 -15.101 -37.596  1.00  0.00     0.286 C 
HETATM    2  N   UNL     1      -2.862 -13.827 -37.344  1.00  0.00    -0.056 N 
HETATM    3  H   UNL     1      -3.508 -13.048 -37.599  1.00  0.00     0.278 HD
HETATM    4  H   UNL     1      -2.652 -13.707 -36.348  1.00  0.00     0.278 HD
HETATM    5  C   UNL     1      -1.629 -13.680 -38.189  1.00  0.00     0.209 C 
HETATM    6  C   UNL     1      -2.007 -13.838 -39.681  1.00  0.00     0.115 C 
HETATM    7  N   UNL     1      -2.823 -15.025 -39.938  1.00  0.00    -0.353 N 
HETATM    8  C   UNL     1      -3.826 -15.437 -39.093  1.00  0.00     0.249 C 
HETATM    9  O   UNL     1      -4.742 -16.133 -39.518  1.00  0.00    -0.271 OA
HETATM   10  C   UNL     1      -0.555 -14.671 -37.729  1.00  0.00     0.035 C 
HETATM   11  C   UNL     1       0.675 -14.600 -38.629  1.00  0.00     0.002 C 
HETATM   12  C   UNL     1       0.308 -14.818 -40.094  1.00  0.00     0.002 C 
HETATM   13  C   UNL     1      -0.756 -13.826 -40.565  1.00  0.00     0.027 C 
HETATM   14  H   UNL     1      -3.026 -15.253 -40.910  1.00  0.00     0.163 HD
ENDROOT
BRANCH   1  15
HETATM   15  C   UNL     1      -5.020 -15.049 -36.877  1.00  0.00     0.146 C 
BRANCH  15  16
HETATM   16  C   UNL     1      -5.303 -13.661 -36.367  1.00  0.00     0.224 C 
HETATM   17  N   UNL     1      -6.173 -12.820 -36.978  1.00  0.00    -0.326 N 
HETATM   18  H   UNL     1      -6.157 -11.886 -36.567  1.00  0.00     0.169 HD
HETATM   19  O   UNL     1      -4.749 -13.299 -35.320  1.00  0.00    -0.273 OA
BRANCH  17  20
HETATM   20  C   UNL     1      -7.093 -12.941 -38.047  1.00  0.00     0.056 A 
HETATM   21  C   UNL     1      -8.416 -13.372 -37.915  1.00  0.00     0.031 A 
HETATM   22  C   UNL     1      -9.264 -13.426 -39.031  1.00  0.00     0.002 A 
HETATM   23  C   UNL     1      -8.806 -13.047 -40.290  1.00  0.00     0.002 A 
HETATM   24  C   UNL     1      -7.497 -12.606 -40.441  1.00  0.00     0.026 A 
HETATM   25  C   UNL     1      -6.652 -12.549 -39.331  1.00  0.00     0.060 A 
HETATM   26 CL   UNL     1      -5.033 -11.979 -39.575  1.00  0.00    -0.082 Cl
ENDBRANCH  17  20
ENDBRANCH  15  16
ENDBRANCH   1  15
TORSDOF 3
ENDMDL
