MODEL 1
REMARK VINA RESULT:      -9.4      0.000      0.000
REMARK  7 active torsions:
REMARK  status: ('A' for Active; 'I' for Inactive)
REMARK    1  A    between atoms: C_2  and  O_3 
REMARK    2  A    between atoms: O_3  and  C_4 
REMARK    3  A    between atoms: C_7  and  N_8 
REMARK    4  A    between atoms: C_9  and  C_11 
REMARK    5  A    between atoms: C_9  and  O_10 
REMARK       I    between atoms: C_11  and  N_12 
REMARK    6  A    between atoms: N_12  and  C_13 
REMARK    7  A    between atoms: C_13  and  C_14 
ROOT
HETATM    1  N   UNL     1      -7.731   3.924 -33.398  1.00  0.00    -0.254 N 
HETATM    2  C   UNL     1      -7.939   2.798 -32.466  1.00  0.00     0.256 C 
HETATM    3  C   UNL     1      -9.083   1.887 -32.870  1.00  0.00     0.034 A 
HETATM    4  C   UNL     1     -10.062   2.396 -33.715  1.00  0.00     0.048 A 
HETATM    5  N   UNL     1      -9.925   3.687 -34.203  1.00  0.00    -0.308 N 
HETATM    6  C   UNL     1      -8.814   4.467 -34.075  1.00  0.00     0.330 C 
HETATM    7  O   UNL     1      -8.822   5.569 -34.627  1.00  0.00    -0.246 OA
HETATM    8  C   UNL     1      -9.255   0.586 -32.360  1.00  0.00     0.015 A 
HETATM    9  C   UNL     1     -10.362  -0.184 -32.728  1.00  0.00     0.001 A 
HETATM   10  C   UNL     1     -11.324   0.343 -33.585  1.00  0.00     0.002 A 
HETATM   11  C   UNL     1     -11.180   1.640 -34.075  1.00  0.00     0.030 A 
HETATM   12  H   UNL     1     -10.650   4.089 -34.784  1.00  0.00     0.170 HD
ENDROOT
BRANCH   2  13
HETATM   13  C   UNL     1      -6.630   1.936 -32.217  1.00  0.00     0.279 C 
HETATM   14  N   UNL     1      -6.197   1.244 -33.338  1.00  0.00    -0.352 N 
HETATM   15  H   UNL     1      -6.560   1.561 -34.232  1.00  0.00     0.162 HD
HETATM   16  O   UNL     1      -6.059   1.843 -31.131  1.00  0.00    -0.268 OA
BRANCH  14  17
HETATM   17  C   UNL     1      -4.994   0.453 -33.312  1.00  0.00     0.161 C 
BRANCH  17  18
HETATM   18  C   UNL     1      -5.280  -0.964 -33.726  1.00  0.00    -0.038 A 
HETATM   19  C   UNL     1      -4.282  -1.947 -33.634  1.00  0.00     0.048 A 
HETATM   20  C   UNL     1      -4.594  -3.229 -34.036  1.00  0.00     0.105 A 
HETATM   21  C   UNL     1      -5.837  -3.556 -34.523  1.00  0.00     0.105 A 
HETATM   22  O   UNL     1      -3.751  -4.297 -34.007  1.00  0.00    -0.323 OA
HETATM   23  O   UNL     1      -5.935  -4.870 -34.858  1.00  0.00    -0.323 OA
HETATM   24  C   UNL     1      -6.839  -2.618 -34.642  1.00  0.00     0.040 A 
HETATM   25  C   UNL     1      -4.612  -5.336 -34.519  1.00  0.00     0.352 A 
HETATM   26  C   UNL     1      -6.552  -1.308 -34.241  1.00  0.00     0.012 A 
ENDBRANCH  17  18
ENDBRANCH  14  17
ENDBRANCH   2  13
BRANCH   2  27
HETATM   27  O   UNL     1      -8.345   3.376 -31.210  1.00  0.00    -0.359 OA
HETATM   28  H   UNL     1      -7.829   2.889 -30.548  1.00  0.00     0.213 HD
ENDBRANCH   2  27
BRANCH   1  29
HETATM   29  C   UNL     1      -6.545   4.714 -33.269  1.00  0.00     0.043 A 
HETATM   30  C   UNL     1      -6.402   5.636 -32.226  1.00  0.00     0.032 A 
HETATM   31  C   UNL     1      -5.229   6.388 -32.104  1.00  0.00     0.039 A 
HETATM   32  C   UNL     1      -4.194   6.252 -33.031  1.00  0.00     0.068 A 
HETATM   33  C   UNL     1      -4.346   5.360 -34.090  1.00  0.00     0.039 A 
HETATM   34  C   UNL     1      -5.518   4.604 -34.211  1.00  0.00     0.032 A 
BRANCH  32  35
HETATM   35  O   UNL     1      -3.105   7.045 -32.799  1.00  0.00    -0.352 OA
BRANCH  35  36
HETATM   36  C   UNL     1      -2.118   7.104 -33.827  1.00  0.00     0.171 C 
HETATM   37  C   UNL     1      -0.786   6.692 -33.226  1.00  0.00     0.034 C 
ENDBRANCH  35  36
ENDBRANCH  32  35
ENDBRANCH   1  29
TORSDOF 7
ENDMDL
MODEL 2
REMARK VINA RESULT:      -9.4      1.755      2.400
REMARK  7 active torsions:
REMARK  status: ('A' for Active; 'I' for Inactive)
REMARK    1  A    between atoms: C_2  and  O_3 
REMARK    2  A    between atoms: O_3  and  C_4 
REMARK    3  A    between atoms: C_7  and  N_8 
REMARK    4  A    between atoms: C_9  and  C_11 
REMARK    5  A    between atoms: C_9  and  O_10 
REMARK       I    between atoms: C_11  and  N_12 
REMARK    6  A    between atoms: N_12  and  C_13 
REMARK    7  A    between atoms: C_13  and  C_14 
ROOT
HETATM    1  N   UNL     1      -5.870   3.430 -32.816  1.00  0.00    -0.254 N 
HETATM    2  C   UNL     1      -6.426   2.388 -31.930  1.00  0.00     0.256 C 
HETATM    3  C   UNL     1      -7.657   1.708 -32.501  1.00  0.00     0.034 A 
HETATM    4  C   UNL     1      -8.386   2.380 -33.475  1.00  0.00     0.048 A 
HETATM    5  N   UNL     1      -7.931   3.609 -33.930  1.00  0.00    -0.308 N 
HETATM    6  C   UNL     1      -6.718   4.159 -33.638  1.00  0.00     0.330 C 
HETATM    7  O   UNL     1      -6.431   5.229 -34.178  1.00  0.00    -0.246 OA
HETATM    8  C   UNL     1      -8.152   0.478 -32.030  1.00  0.00     0.015 A 
HETATM    9  C   UNL     1      -9.324  -0.070 -32.558  1.00  0.00     0.001 A 
HETATM   10  C   UNL     1     -10.032   0.616 -33.542  1.00  0.00     0.002 A 
HETATM   11  C   UNL     1      -9.568   1.849 -33.997  1.00  0.00     0.030 A 
HETATM   12  H   UNL     1      -8.473   4.131 -34.606  1.00  0.00     0.170 HD
ENDROOT
BRANCH   2  13
HETATM   13  C   UNL     1      -5.361   1.292 -31.501  1.00  0.00     0.279 C 
HETATM   14  N   UNL     1      -4.814   0.598 -32.569  1.00  0.00    -0.352 N 
HETATM   15  H   UNL     1      -4.918   1.024 -33.485  1.00  0.00     0.162 HD
HETATM   16  O   UNL     1      -5.062   1.038 -30.334  1.00  0.00    -0.268 OA
BRANCH  14  17
HETATM   17  C   UNL     1      -3.791  -0.396 -32.372  1.00  0.00     0.161 C 
BRANCH  17  18
HETATM   18  C   UNL     1      -4.178  -1.695 -33.024  1.00  0.00    -0.038 A 
HETATM   19  C   UNL     1      -5.325  -1.771 -33.831  1.00  0.00     0.048 A 
HETATM   20  C   UNL     1      -5.641  -2.988 -34.398  1.00  0.00     0.105 A 
HETATM   21  C   UNL     1      -4.874  -4.109 -34.185  1.00  0.00     0.105 A 
HETATM   22  O   UNL     1      -6.706  -3.233 -35.207  1.00  0.00    -0.323 OA
HETATM   23  O   UNL     1      -5.358  -5.200 -34.837  1.00  0.00    -0.323 OA
HETATM   24  C   UNL     1      -3.751  -4.079 -33.389  1.00  0.00     0.040 A 
HETATM   25  C   UNL     1      -6.514  -4.635 -35.491  1.00  0.00     0.352 A 
HETATM   26  C   UNL     1      -3.404  -2.858 -32.800  1.00  0.00     0.012 A 
ENDBRANCH  17  18
ENDBRANCH  14  17
ENDBRANCH   2  13
BRANCH   2  27
HETATM   27  O   UNL     1      -6.886   3.061 -30.743  1.00  0.00    -0.359 OA
HETATM   28  H   UNL     1      -6.507   2.543 -30.015  1.00  0.00     0.213 HD
ENDBRANCH   2  27
BRANCH   1  29
HETATM   29  C   UNL     1      -4.583   3.977 -32.511  1.00  0.00     0.043 A 
HETATM   30  C   UNL     1      -3.479   3.726 -33.333  1.00  0.00     0.032 A 
HETATM   31  C   UNL     1      -2.232   4.282 -33.031  1.00  0.00     0.039 A 
HETATM   32  C   UNL     1      -2.061   5.075 -31.894  1.00  0.00     0.068 A 
HETATM   33  C   UNL     1      -3.150   5.299 -31.055  1.00  0.00     0.039 A 
HETATM   34  C   UNL     1      -4.399   4.746 -31.358  1.00  0.00     0.032 A 
BRANCH  32  35
HETATM   35  O   UNL     1      -0.794   5.555 -31.713  1.00  0.00    -0.352 OA
BRANCH  35  36
HETATM   36  C   UNL     1      -0.225   5.404 -30.414  1.00  0.00     0.171 C 
HETATM   37  C   UNL     1       0.230   6.771 -29.936  1.00  0.00     0.034 C 
ENDBRANCH  35  36
ENDBRANCH  32  35
ENDBRANCH   1  29
TORSDOF 7
ENDMDL
MODEL 3
REMARK VINA RESULT:      -9.0      2.057      7.566
REMARK  7 active torsions:
REMARK  status: ('A' for Active; 'I' for Inactive)
REMARK    1  A    between atoms: C_2  and  O_3 
REMARK    2  A    between atoms: O_3  and  C_4 
REMARK    3  A    between atoms: C_7  and  N_8 
REMARK    4  A    between atoms: C_9  and  C_11 
REMARK    5  A    between atoms: C_9  and  O_10 
REMARK       I    between atoms: C_11  and  N_12 
REMARK    6  A    between atoms: N_12  and  C_13 
REMARK    7  A    between atoms: C_13  and  C_14 
ROOT
HETATM    1  N   UNL     1      -7.861   1.348 -32.433  1.00  0.00    -0.254 N 
HETATM    2  C   UNL     1      -7.237   2.683 -32.344  1.00  0.00     0.256 C 
HETATM    3  C   UNL     1      -7.992   3.640 -31.442  1.00  0.00     0.034 A 
HETATM    4  C   UNL     1      -9.335   3.384 -31.188  1.00  0.00     0.048 A 
HETATM    5  N   UNL     1      -9.913   2.238 -31.716  1.00  0.00    -0.308 N 
HETATM    6  C   UNL     1      -9.239   1.223 -32.328  1.00  0.00     0.330 C 
HETATM    7  O   UNL     1      -9.888   0.237 -32.681  1.00  0.00    -0.246 OA
HETATM    8  C   UNL     1      -7.433   4.823 -30.924  1.00  0.00     0.015 A 
HETATM    9  C   UNL     1      -8.198   5.694 -30.145  1.00  0.00     0.001 A 
HETATM   10  C   UNL     1      -9.538   5.410 -29.894  1.00  0.00     0.002 A 
HETATM   11  C   UNL     1     -10.113   4.257 -30.425  1.00  0.00     0.030 A 
HETATM   12  H   UNL     1     -10.899   2.059 -31.579  1.00  0.00     0.170 HD
ENDROOT
BRANCH   2  13
HETATM   13  C   UNL     1      -5.709   2.637 -31.916  1.00  0.00     0.279 C 
HETATM   14  N   UNL     1      -4.831   2.914 -32.953  1.00  0.00    -0.352 N 
HETATM   15  H   UNL     1      -5.225   3.378 -33.765  1.00  0.00     0.162 HD
HETATM   16  O   UNL     1      -5.316   2.346 -30.786  1.00  0.00    -0.268 OA
BRANCH  14  17
HETATM   17  C   UNL     1      -3.409   2.971 -32.734  1.00  0.00     0.161 C 
BRANCH  17  18
HETATM   18  C   UNL     1      -2.901   4.377 -32.903  1.00  0.00    -0.038 A 
HETATM   19  C   UNL     1      -3.038   5.312 -31.865  1.00  0.00     0.048 A 
HETATM   20  C   UNL     1      -2.566   6.591 -32.075  1.00  0.00     0.105 A 
HETATM   21  C   UNL     1      -1.980   6.963 -33.262  1.00  0.00     0.105 A 
HETATM   22  O   UNL     1      -2.612   7.611 -31.177  1.00  0.00    -0.323 OA
HETATM   23  O   UNL     1      -1.581   8.263 -33.259  1.00  0.00    -0.323 OA
HETATM   24  C   UNL     1      -1.840   6.079 -34.309  1.00  0.00     0.040 A 
HETATM   25  C   UNL     1      -1.976   8.665 -31.930  1.00  0.00     0.352 A 
HETATM   26  C   UNL     1      -2.311   4.775 -34.126  1.00  0.00     0.012 A 
ENDBRANCH  17  18
ENDBRANCH  14  17
ENDBRANCH   2  13
BRANCH   2  27
HETATM   27  O   UNL     1      -7.320   3.262 -33.660  1.00  0.00    -0.359 OA
HETATM   28  H   UNL     1      -6.769   4.059 -33.603  1.00  0.00     0.213 HD
ENDBRANCH   2  27
BRANCH   1  29
HETATM   29  C   UNL     1      -7.128   0.285 -33.053  1.00  0.00     0.043 A 
HETATM   30  C   UNL     1      -7.206   0.062 -34.431  1.00  0.00     0.032 A 
HETATM   31  C   UNL     1      -6.470  -0.969 -35.023  1.00  0.00     0.039 A 
HETATM   32  C   UNL     1      -5.666  -1.808 -34.248  1.00  0.00     0.068 A 
HETATM   33  C   UNL     1      -5.612  -1.610 -32.870  1.00  0.00     0.039 A 
HETATM   34  C   UNL     1      -6.345  -0.576 -32.278  1.00  0.00     0.032 A 
BRANCH  32  35
HETATM   35  O   UNL     1      -5.001  -2.775 -34.948  1.00  0.00    -0.352 OA
BRANCH  35  36
HETATM   36  C   UNL     1      -5.280  -4.131 -34.600  1.00  0.00     0.171 C 
HETATM   37  C   UNL     1      -6.532  -4.561 -35.343  1.00  0.00     0.034 C 
ENDBRANCH  35  36
ENDBRANCH  32  35
ENDBRANCH   1  29
TORSDOF 7
ENDMDL
MODEL 4
REMARK VINA RESULT:      -8.7      2.794      7.643
REMARK  7 active torsions:
REMARK  status: ('A' for Active; 'I' for Inactive)
REMARK    1  A    between atoms: C_2  and  O_3 
REMARK    2  A    between atoms: O_3  and  C_4 
REMARK    3  A    between atoms: C_7  and  N_8 
REMARK    4  A    between atoms: C_9  and  C_11 
REMARK    5  A    between atoms: C_9  and  O_10 
REMARK       I    between atoms: C_11  and  N_12 
REMARK    6  A    between atoms: N_12  and  C_13 
REMARK    7  A    between atoms: C_13  and  C_14 
ROOT
HETATM    1  N   UNL     1      -6.877   1.715 -32.539  1.00  0.00    -0.254 N 
HETATM    2  C   UNL     1      -8.159   1.650 -31.809  1.00  0.00     0.256 C 
HETATM    3  C   UNL     1      -8.654   3.005 -31.341  1.00  0.00     0.034 A 
HETATM    4  C   UNL     1      -7.728   4.033 -31.208  1.00  0.00     0.048 A 
HETATM    5  N   UNL     1      -6.407   3.800 -31.563  1.00  0.00    -0.308 N 
HETATM    6  C   UNL     1      -5.947   2.692 -32.211  1.00  0.00     0.330 C 
HETATM    7  O   UNL     1      -4.755   2.665 -32.521  1.00  0.00    -0.246 OA
HETATM    8  C   UNL     1      -9.982   3.252 -30.945  1.00  0.00     0.015 A 
HETATM    9  C   UNL     1     -10.363   4.509 -30.469  1.00  0.00     0.001 A 
HETATM   10  C   UNL     1      -9.421   5.527 -30.355  1.00  0.00     0.002 A 
HETATM   11  C   UNL     1      -8.096   5.288 -30.716  1.00  0.00     0.030 A 
HETATM   12  H   UNL     1      -5.711   4.523 -31.431  1.00  0.00     0.170 HD
ENDROOT
BRANCH   2  13
HETATM   13  C   UNL     1      -9.307   0.911 -32.618  1.00  0.00     0.279 C 
HETATM   14  N   UNL     1      -9.839   1.671 -33.650  1.00  0.00    -0.352 N 
HETATM   15  H   UNL     1      -9.283   2.461 -33.960  1.00  0.00     0.162 HD
HETATM   16  O   UNL     1      -9.730  -0.213 -32.350  1.00  0.00    -0.268 OA
BRANCH  14  17
HETATM   17  C   UNL     1     -10.853   1.140 -34.525  1.00  0.00     0.161 C 
BRANCH  17  18
HETATM   18  C   UNL     1     -12.225   1.395 -33.963  1.00  0.00    -0.038 A 
HETATM   19  C   UNL     1     -12.535   2.633 -33.377  1.00  0.00     0.048 A 
HETATM   20  C   UNL     1     -13.804   2.811 -32.868  1.00  0.00     0.105 A 
HETATM   21  C   UNL     1     -14.752   1.817 -32.917  1.00  0.00     0.105 A 
HETATM   22  O   UNL     1     -14.270   3.944 -32.277  1.00  0.00    -0.323 OA
HETATM   23  O   UNL     1     -15.935   2.200 -32.365  1.00  0.00    -0.323 OA
HETATM   24  C   UNL     1     -14.483   0.585 -33.471  1.00  0.00     0.040 A 
HETATM   25  C   UNL     1     -15.625   3.553 -31.971  1.00  0.00     0.352 A 
HETATM   26  C   UNL     1     -13.204   0.374 -33.995  1.00  0.00     0.012 A 
ENDBRANCH  17  18
ENDBRANCH  14  17
ENDBRANCH   2  13
BRANCH   2  27
HETATM   27  O   UNL     1      -7.906   0.905 -30.602  1.00  0.00    -0.359 OA
HETATM   28  H   UNL     1      -7.654   1.583 -29.955  1.00  0.00     0.213 HD
ENDBRANCH   2  27
BRANCH   1  29
HETATM   29  C   UNL     1      -6.423   0.552 -33.237  1.00  0.00     0.043 A 
HETATM   30  C   UNL     1      -5.577  -0.377 -32.620  1.00  0.00     0.032 A 
HETATM   31  C   UNL     1      -5.156  -1.517 -33.311  1.00  0.00     0.039 A 
HETATM   32  C   UNL     1      -5.550  -1.737 -34.633  1.00  0.00     0.068 A 
HETATM   33  C   UNL     1      -6.364  -0.798 -35.262  1.00  0.00     0.039 A 
HETATM   34  C   UNL     1      -6.789   0.342 -34.570  1.00  0.00     0.032 A 
BRANCH  32  35
HETATM   35  O   UNL     1      -5.069  -2.887 -35.193  1.00  0.00    -0.352 OA
BRANCH  35  36
HETATM   36  C   UNL     1      -5.478  -4.117 -34.597  1.00  0.00     0.171 C 
HETATM   37  C   UNL     1      -6.782  -4.544 -35.245  1.00  0.00     0.034 C 
ENDBRANCH  35  36
ENDBRANCH  32  35
ENDBRANCH   1  29
TORSDOF 7
ENDMDL
MODEL 5
REMARK VINA RESULT:      -8.6      2.684      6.906
REMARK  7 active torsions:
REMARK  status: ('A' for Active; 'I' for Inactive)
REMARK    1  A    between atoms: C_2  and  O_3 
REMARK    2  A    between atoms: O_3  and  C_4 
REMARK    3  A    between atoms: C_7  and  N_8 
REMARK    4  A    between atoms: C_9  and  C_11 
REMARK    5  A    between atoms: C_9  and  O_10 
REMARK       I    between atoms: C_11  and  N_12 
REMARK    6  A    between atoms: N_12  and  C_13 
REMARK    7  A    between atoms: C_13  and  C_14 
ROOT
HETATM    1  N   UNL     1      -5.608   0.875 -32.641  1.00  0.00    -0.254 N 
HETATM    2  C   UNL     1      -6.536   0.261 -33.611  1.00  0.00     0.256 C 
HETATM    3  C   UNL     1      -6.182  -1.173 -33.956  1.00  0.00     0.034 A 
HETATM    4  C   UNL     1      -4.875  -1.597 -33.745  1.00  0.00     0.048 A 
HETATM    5  N   UNL     1      -3.966  -0.718 -33.174  1.00  0.00    -0.308 N 
HETATM    6  C   UNL     1      -4.275   0.491 -32.625  1.00  0.00     0.330 C 
HETATM    7  O   UNL     1      -3.363   1.126 -32.092  1.00  0.00    -0.246 OA
HETATM    8  C   UNL     1      -7.081  -2.069 -34.566  1.00  0.00     0.015 A 
HETATM    9  C   UNL     1      -6.678  -3.361 -34.911  1.00  0.00     0.001 A 
HETATM   10  C   UNL     1      -5.366  -3.768 -34.679  1.00  0.00     0.002 A 
HETATM   11  C   UNL     1      -4.458  -2.881 -34.103  1.00  0.00     0.030 A 
HETATM   12  H   UNL     1      -3.000  -0.995 -33.054  1.00  0.00     0.170 HD
ENDROOT
BRANCH   2  13
HETATM   13  C   UNL     1      -8.058   0.345 -33.168  1.00  0.00     0.279 C 
HETATM   14  N   UNL     1      -8.877   0.962 -34.101  1.00  0.00    -0.352 N 
HETATM   15  H   UNL     1      -8.510   1.036 -35.044  1.00  0.00     0.162 HD
HETATM   16  O   UNL     1      -8.487  -0.058 -32.086  1.00  0.00    -0.268 OA
BRANCH  14  17
HETATM   17  C   UNL     1     -10.297   1.077 -33.890  1.00  0.00     0.161 C 
BRANCH  17  18
HETATM   18  C   UNL     1     -10.790   2.431 -34.324  1.00  0.00    -0.038 A 
HETATM   19  C   UNL     1      -9.881   3.463 -34.604  1.00  0.00     0.048 A 
HETATM   20  C   UNL     1     -10.386   4.688 -34.988  1.00  0.00     0.105 A 
HETATM   21  C   UNL     1     -11.737   4.915 -35.094  1.00  0.00     0.105 A 
HETATM   22  O   UNL     1      -9.648   5.787 -35.301  1.00  0.00    -0.323 OA
HETATM   23  O   UNL     1     -12.020   6.185 -35.489  1.00  0.00    -0.323 OA
HETATM   24  C   UNL     1     -12.662   3.933 -34.814  1.00  0.00     0.040 A 
HETATM   25  C   UNL     1     -10.691   6.729 -35.629  1.00  0.00     0.352 A 
HETATM   26  C   UNL     1     -12.180   2.680 -34.422  1.00  0.00     0.012 A 
ENDBRANCH  17  18
ENDBRANCH  14  17
ENDBRANCH   2  13
BRANCH   2  27
HETATM   27  O   UNL     1      -6.383   0.992 -34.843  1.00  0.00    -0.359 OA
HETATM   28  H   UNL     1      -5.823   1.747 -34.602  1.00  0.00     0.213 HD
ENDBRANCH   2  27
BRANCH   1  29
HETATM   29  C   UNL     1      -5.961   2.131 -32.051  1.00  0.00     0.043 A 
HETATM   30  C   UNL     1      -5.989   3.303 -32.813  1.00  0.00     0.032 A 
HETATM   31  C   UNL     1      -6.352   4.519 -32.226  1.00  0.00     0.039 A 
HETATM   32  C   UNL     1      -6.668   4.589 -30.867  1.00  0.00     0.068 A 
HETATM   33  C   UNL     1      -6.609   3.430 -30.097  1.00  0.00     0.039 A 
HETATM   34  C   UNL     1      -6.249   2.212 -30.686  1.00  0.00     0.032 A 
BRANCH  32  35
HETATM   35  O   UNL     1      -7.004   5.836 -30.418  1.00  0.00    -0.352 OA
BRANCH  35  36
HETATM   36  C   UNL     1      -8.325   6.004 -29.907  1.00  0.00     0.171 C 
HETATM   37  C   UNL     1      -8.219   6.381 -28.440  1.00  0.00     0.034 C 
ENDBRANCH  35  36
ENDBRANCH  32  35
ENDBRANCH   1  29
TORSDOF 7
ENDMDL
MODEL 6
REMARK VINA RESULT:      -8.6      2.173      8.043
REMARK  7 active torsions:
REMARK  status: ('A' for Active; 'I' for Inactive)
REMARK    1  A    between atoms: C_2  and  O_3 
REMARK    2  A    between atoms: O_3  and  C_4 
REMARK    3  A    between atoms: C_7  and  N_8 
REMARK    4  A    between atoms: C_9  and  C_11 
REMARK    5  A    between atoms: C_9  and  O_10 
REMARK       I    between atoms: C_11  and  N_12 
REMARK    6  A    between atoms: N_12  and  C_13 
REMARK    7  A    between atoms: C_13  and  C_14 
ROOT
HETATM    1  N   UNL     1      -7.340  -0.024 -33.130  1.00  0.00    -0.254 N 
HETATM    2  C   UNL     1      -6.630   0.491 -31.943  1.00  0.00     0.256 C 
HETATM    3  C   UNL     1      -5.171   0.078 -31.889  1.00  0.00     0.034 A 
HETATM    4  C   UNL     1      -4.778  -1.042 -32.612  1.00  0.00     0.048 A 
HETATM    5  N   UNL     1      -5.714  -1.698 -33.400  1.00  0.00    -0.308 N 
HETATM    6  C   UNL     1      -6.968  -1.243 -33.680  1.00  0.00     0.330 C 
HETATM    7  O   UNL     1      -7.657  -1.909 -34.456  1.00  0.00    -0.246 OA
HETATM    8  C   UNL     1      -4.216   0.710 -31.071  1.00  0.00     0.015 A 
HETATM    9  C   UNL     1      -2.899   0.246 -31.022  1.00  0.00     0.001 A 
HETATM   10  C   UNL     1      -2.525  -0.871 -31.765  1.00  0.00     0.002 A 
HETATM   11  C   UNL     1      -3.468  -1.525 -32.556  1.00  0.00     0.030 A 
HETATM   12  H   UNL     1      -5.456  -2.540 -33.898  1.00  0.00     0.170 HD
ENDROOT
BRANCH   2  13
HETATM   13  C   UNL     1      -6.746   2.065 -31.774  1.00  0.00     0.279 C 
HETATM   14  N   UNL     1      -6.030   2.782 -32.720  1.00  0.00    -0.352 N 
HETATM   15  H   UNL     1      -5.755   2.275 -33.556  1.00  0.00     0.162 HD
HETATM   16  O   UNL     1      -7.374   2.619 -30.871  1.00  0.00    -0.268 OA
BRANCH  14  17
HETATM   17  C   UNL     1      -6.065   4.221 -32.753  1.00  0.00     0.161 C 
BRANCH  17  18
HETATM   18  C   UNL     1      -4.671   4.787 -32.724  1.00  0.00    -0.038 A 
HETATM   19  C   UNL     1      -4.467   6.169 -32.587  1.00  0.00     0.048 A 
HETATM   20  C   UNL     1      -3.170   6.637 -32.577  1.00  0.00     0.105 A 
HETATM   21  C   UNL     1      -2.093   5.792 -32.703  1.00  0.00     0.105 A 
HETATM   22  O   UNL     1      -2.797   7.938 -32.446  1.00  0.00    -0.323 OA
HETATM   23  O   UNL     1      -0.906   6.456 -32.664  1.00  0.00    -0.323 OA
HETATM   24  C   UNL     1      -2.251   4.432 -32.854  1.00  0.00     0.040 A 
HETATM   25  C   UNL     1      -1.360   7.815 -32.491  1.00  0.00     0.352 A 
HETATM   26  C   UNL     1      -3.555   3.928 -32.868  1.00  0.00     0.012 A 
ENDBRANCH  17  18
ENDBRANCH  14  17
ENDBRANCH   2  13
BRANCH   2  27
HETATM   27  O   UNL     1      -7.241  -0.133 -30.797  1.00  0.00    -0.359 OA
HETATM   28  H   UNL     1      -8.141   0.228 -30.783  1.00  0.00     0.213 HD
ENDBRANCH   2  27
BRANCH   1  29
HETATM   29  C   UNL     1      -8.645   0.485 -33.427  1.00  0.00     0.043 A 
HETATM   30  C   UNL     1      -8.817   1.558 -34.308  1.00  0.00     0.032 A 
HETATM   31  C   UNL     1     -10.100   2.032 -34.601  1.00  0.00     0.039 A 
HETATM   32  C   UNL     1     -11.226   1.462 -34.002  1.00  0.00     0.068 A 
HETATM   33  C   UNL     1     -11.055   0.415 -33.099  1.00  0.00     0.039 A 
HETATM   34  C   UNL     1      -9.772  -0.062 -32.808  1.00  0.00     0.032 A 
BRANCH  32  35
HETATM   35  O   UNL     1     -12.418   2.018 -34.372  1.00  0.00    -0.352 OA
BRANCH  35  36
HETATM   36  C   UNL     1     -13.528   1.133 -34.514  1.00  0.00     0.171 C 
HETATM   37  C   UNL     1     -14.564   1.505 -33.468  1.00  0.00     0.034 C 
ENDBRANCH  35  36
ENDBRANCH  32  35
ENDBRANCH   1  29
TORSDOF 7
ENDMDL
MODEL 7
REMARK VINA RESULT:      -8.5      2.797      5.928
REMARK  7 active torsions:
REMARK  status: ('A' for Active; 'I' for Inactive)
REMARK    1  A    between atoms: C_2  and  O_3 
REMARK    2  A    between atoms: O_3  and  C_4 
REMARK    3  A    between atoms: C_7  and  N_8 
REMARK    4  A    between atoms: C_9  and  C_11 
REMARK    5  A    between atoms: C_9  and  O_10 
REMARK       I    between atoms: C_11  and  N_12 
REMARK    6  A    between atoms: N_12  and  C_13 
REMARK    7  A    between atoms: C_13  and  C_14 
ROOT
HETATM    1  N   UNL     1     -10.271   1.683 -33.441  1.00  0.00    -0.254 N 
HETATM    2  C   UNL     1     -10.129   3.116 -33.765  1.00  0.00     0.256 C 
HETATM    3  C   UNL     1     -11.292   3.960 -33.278  1.00  0.00     0.034 A 
HETATM    4  C   UNL     1     -12.506   3.328 -33.033  1.00  0.00     0.048 A 
HETATM    5  N   UNL     1     -12.591   1.951 -33.182  1.00  0.00    -0.308 N 
HETATM    6  C   UNL     1     -11.534   1.112 -33.380  1.00  0.00     0.330 C 
HETATM    7  O   UNL     1     -11.767  -0.098 -33.423  1.00  0.00    -0.246 OA
HETATM    8  C   UNL     1     -11.235   5.361 -33.153  1.00  0.00     0.015 A 
HETATM    9  C   UNL     1     -12.358   6.089 -32.753  1.00  0.00     0.001 A 
HETATM   10  C   UNL     1     -13.561   5.433 -32.501  1.00  0.00     0.002 A 
HETATM   11  C   UNL     1     -13.639   4.049 -32.650  1.00  0.00     0.030 A 
HETATM   12  H   UNL     1     -13.477   1.481 -33.051  1.00  0.00     0.170 HD
ENDROOT
BRANCH   2  13
HETATM   13  C   UNL     1      -8.763   3.745 -33.257  1.00  0.00     0.279 C 
HETATM   14  N   UNL     1      -8.520   3.535 -31.908  1.00  0.00    -0.352 N 
HETATM   15  H   UNL     1      -9.057   2.797 -31.463  1.00  0.00     0.162 HD
HETATM   16  O   UNL     1      -7.994   4.395 -33.966  1.00  0.00    -0.268 OA
BRANCH  14  17
HETATM   17  C   UNL     1      -7.302   3.988 -31.287  1.00  0.00     0.161 C 
BRANCH  17  18
HETATM   18  C   UNL     1      -6.346   2.842 -31.096  1.00  0.00    -0.038 A 
HETATM   19  C   UNL     1      -5.371   2.560 -32.065  1.00  0.00     0.048 A 
HETATM   20  C   UNL     1      -4.526   1.492 -31.846  1.00  0.00     0.105 A 
HETATM   21  C   UNL     1      -4.624   0.708 -30.720  1.00  0.00     0.105 A 
HETATM   22  O   UNL     1      -3.527   1.087 -32.675  1.00  0.00    -0.323 OA
HETATM   23  O   UNL     1      -3.696  -0.286 -30.698  1.00  0.00    -0.323 OA
HETATM   24  C   UNL     1      -5.576   0.943 -29.753  1.00  0.00     0.040 A 
HETATM   25  C   UNL     1      -2.997  -0.033 -31.936  1.00  0.00     0.352 A 
HETATM   26  C   UNL     1      -6.447   2.020 -29.948  1.00  0.00     0.012 A 
ENDBRANCH  17  18
ENDBRANCH  14  17
ENDBRANCH   2  13
BRANCH   2  27
HETATM   27  O   UNL     1     -10.167   3.217 -35.201  1.00  0.00    -0.359 OA
HETATM   28  H   UNL     1     -10.584   4.077 -35.367  1.00  0.00     0.213 HD
ENDBRANCH   2  27
BRANCH   1  29
HETATM   29  C   UNL     1      -9.144   0.820 -33.627  1.00  0.00     0.043 A 
HETATM   30  C   UNL     1      -8.633   0.566 -34.905  1.00  0.00     0.032 A 
HETATM   31  C   UNL     1      -7.521  -0.266 -35.068  1.00  0.00     0.039 A 
HETATM   32  C   UNL     1      -6.917  -0.875 -33.966  1.00  0.00     0.068 A 
HETATM   33  C   UNL     1      -7.444  -0.651 -32.696  1.00  0.00     0.039 A 
HETATM   34  C   UNL     1      -8.555   0.184 -32.531  1.00  0.00     0.032 A 
BRANCH  32  35
HETATM   35  O   UNL     1      -5.841  -1.664 -34.262  1.00  0.00    -0.352 OA
BRANCH  35  36
HETATM   36  C   UNL     1      -6.024  -2.652 -35.274  1.00  0.00     0.171 C 
HETATM   37  C   UNL     1      -6.781  -3.818 -34.664  1.00  0.00     0.034 C 
ENDBRANCH  35  36
ENDBRANCH  32  35
ENDBRANCH   1  29
TORSDOF 7
ENDMDL
MODEL 8
REMARK VINA RESULT:      -8.4      2.673      6.352
REMARK  7 active torsions:
REMARK  status: ('A' for Active; 'I' for Inactive)
REMARK    1  A    between atoms: C_2  and  O_3 
REMARK    2  A    between atoms: O_3  and  C_4 
REMARK    3  A    between atoms: C_7  and  N_8 
REMARK    4  A    between atoms: C_9  and  C_11 
REMARK    5  A    between atoms: C_9  and  O_10 
REMARK       I    between atoms: C_11  and  N_12 
REMARK    6  A    between atoms: N_12  and  C_13 
REMARK    7  A    between atoms: C_13  and  C_14 
ROOT
HETATM    1  N   UNL     1      -7.422   2.927 -32.533  1.00  0.00    -0.254 N 
HETATM    2  C   UNL     1      -6.818   1.704 -31.967  1.00  0.00     0.256 C 
HETATM    3  C   UNL     1      -6.664   0.586 -32.980  1.00  0.00     0.034 A 
HETATM    4  C   UNL     1      -7.469   0.610 -34.114  1.00  0.00     0.048 A 
HETATM    5  N   UNL     1      -8.331   1.680 -34.305  1.00  0.00    -0.308 N 
HETATM    6  C   UNL     1      -8.345   2.825 -33.564  1.00  0.00     0.330 C 
HETATM    7  O   UNL     1      -9.127   3.716 -33.904  1.00  0.00    -0.246 OA
HETATM    8  C   UNL     1      -5.820  -0.524 -32.789  1.00  0.00     0.015 A 
HETATM    9  C   UNL     1      -5.765  -1.551 -33.734  1.00  0.00     0.001 A 
HETATM   10  C   UNL     1      -6.572  -1.499 -34.868  1.00  0.00     0.002 A 
HETATM   11  C   UNL     1      -7.434  -0.421 -35.056  1.00  0.00     0.030 A 
HETATM   12  H   UNL     1      -8.956   1.692 -35.101  1.00  0.00     0.170 HD
ENDROOT
BRANCH   2  13
HETATM   13  C   UNL     1      -5.429   1.965 -31.244  1.00  0.00     0.279 C 
HETATM   14  N   UNL     1      -4.454   2.487 -32.080  1.00  0.00    -0.352 N 
HETATM   15  H   UNL     1      -4.780   2.903 -32.947  1.00  0.00     0.162 HD
HETATM   16  O   UNL     1      -5.204   1.699 -30.063  1.00  0.00    -0.268 OA
BRANCH  14  17
HETATM   17  C   UNL     1      -3.149   2.837 -31.582  1.00  0.00     0.161 C 
BRANCH  17  18
HETATM   18  C   UNL     1      -2.776   4.231 -32.005  1.00  0.00    -0.038 A 
HETATM   19  C   UNL     1      -2.963   5.314 -31.131  1.00  0.00     0.048 A 
HETATM   20  C   UNL     1      -2.613   6.573 -31.572  1.00  0.00     0.105 A 
HETATM   21  C   UNL     1      -2.102   6.786 -32.830  1.00  0.00     0.105 A 
HETATM   22  O   UNL     1      -2.722   7.724 -30.855  1.00  0.00    -0.323 OA
HETATM   23  O   UNL     1      -1.821   8.096 -33.062  1.00  0.00    -0.323 OA
HETATM   24  C   UNL     1      -1.917   5.752 -33.722  1.00  0.00     0.040 A 
HETATM   25  C   UNL     1      -2.207   8.683 -31.801  1.00  0.00     0.352 A 
HETATM   26  C   UNL     1      -2.262   4.463 -33.303  1.00  0.00     0.012 A 
ENDBRANCH  17  18
ENDBRANCH  14  17
ENDBRANCH   2  13
BRANCH   2  27
HETATM   27  O   UNL     1      -7.749   1.201 -30.990  1.00  0.00    -0.359 OA
HETATM   28  H   UNL     1      -8.503   1.810 -31.046  1.00  0.00     0.213 HD
ENDBRANCH   2  27
BRANCH   1  29
HETATM   29  C   UNL     1      -7.403   4.128 -31.754  1.00  0.00     0.043 A 
HETATM   30  C   UNL     1      -8.185   4.254 -30.601  1.00  0.00     0.032 A 
HETATM   31  C   UNL     1      -8.142   5.427 -29.842  1.00  0.00     0.039 A 
HETATM   32  C   UNL     1      -7.338   6.501 -30.233  1.00  0.00     0.068 A 
HETATM   33  C   UNL     1      -6.583   6.392 -31.399  1.00  0.00     0.039 A 
HETATM   34  C   UNL     1      -6.624   5.216 -32.157  1.00  0.00     0.032 A 
BRANCH  32  35
HETATM   35  O   UNL     1      -7.388   7.588 -29.406  1.00  0.00    -0.352 OA
BRANCH  35  36
HETATM   36  C   UNL     1      -6.877   7.418 -28.085  1.00  0.00     0.171 C 
HETATM   37  C   UNL     1      -5.368   7.573 -28.139  1.00  0.00     0.034 C 
ENDBRANCH  35  36
ENDBRANCH  32  35
ENDBRANCH   1  29
TORSDOF 7
ENDMDL
MODEL 9
REMARK VINA RESULT:      -8.2      2.475      7.582
REMARK  7 active torsions:
REMARK  status: ('A' for Active; 'I' for Inactive)
REMARK    1  A    between atoms: C_2  and  O_3 
REMARK    2  A    between atoms: O_3  and  C_4 
REMARK    3  A    between atoms: C_7  and  N_8 
REMARK    4  A    between atoms: C_9  and  C_11 
REMARK    5  A    between atoms: C_9  and  O_10 
REMARK       I    between atoms: C_11  and  N_12 
REMARK    6  A    between atoms: N_12  and  C_13 
REMARK    7  A    between atoms: C_13  and  C_14 
ROOT
HETATM    1  N   UNL     1      -5.857   1.573 -32.150  1.00  0.00    -0.254 N 
HETATM    2  C   UNL     1      -7.070   1.654 -31.312  1.00  0.00     0.256 C 
HETATM    3  C   UNL     1      -7.424   3.071 -30.902  1.00  0.00     0.034 A 
HETATM    4  C   UNL     1      -6.419   4.032 -30.922  1.00  0.00     0.048 A 
HETATM    5  N   UNL     1      -5.155   3.675 -31.370  1.00  0.00    -0.308 N 
HETATM    6  C   UNL     1      -4.835   2.495 -31.973  1.00  0.00     0.330 C 
HETATM    7  O   UNL     1      -3.680   2.356 -32.380  1.00  0.00    -0.246 OA
HETATM    8  C   UNL     1      -8.690   3.444 -30.414  1.00  0.00     0.015 A 
HETATM    9  C   UNL     1      -8.938   4.755 -29.998  1.00  0.00     0.001 A 
HETATM   10  C   UNL     1      -7.919   5.703 -30.038  1.00  0.00     0.002 A 
HETATM   11  C   UNL     1      -6.652   5.340 -30.492  1.00  0.00     0.030 A 
HETATM   12  H   UNL     1      -4.401   4.349 -31.349  1.00  0.00     0.170 HD
ENDROOT
BRANCH   2  13
HETATM   13  C   UNL     1      -8.336   0.955 -31.966  1.00  0.00     0.279 C 
HETATM   14  N   UNL     1      -8.743   1.539 -33.156  1.00  0.00    -0.352 N 
HETATM   15  H   UNL     1      -8.064   2.135 -33.621  1.00  0.00     0.162 HD
HETATM   16  O   UNL     1      -8.940   0.007 -31.464  1.00  0.00    -0.268 OA
BRANCH  14  17
HETATM   17  C   UNL     1      -9.841   1.002 -33.917  1.00  0.00     0.161 C 
BRANCH  17  18
HETATM   18  C   UNL     1     -10.722   2.108 -34.431  1.00  0.00    -0.038 A 
HETATM   19  C   UNL     1     -10.283   3.441 -34.396  1.00  0.00     0.048 A 
HETATM   20  C   UNL     1     -11.134   4.418 -34.870  1.00  0.00     0.105 A 
HETATM   21  C   UNL     1     -12.383   4.118 -35.359  1.00  0.00     0.105 A 
HETATM   22  O   UNL     1     -10.865   5.750 -34.916  1.00  0.00    -0.323 OA
HETATM   23  O   UNL     1     -13.056   5.223 -35.778  1.00  0.00    -0.323 OA
HETATM   24  C   UNL     1     -12.856   2.825 -35.397  1.00  0.00     0.040 A 
HETATM   25  C   UNL     1     -12.083   6.253 -35.503  1.00  0.00     0.352 A 
HETATM   26  C   UNL     1     -12.015   1.812 -34.923  1.00  0.00     0.012 A 
ENDBRANCH  17  18
ENDBRANCH  14  17
ENDBRANCH   2  13
BRANCH   2  27
HETATM   27  O   UNL     1      -6.763   0.972 -30.081  1.00  0.00    -0.359 OA
HETATM   28  H   UNL     1      -6.550   1.688 -29.461  1.00  0.00     0.213 HD
ENDBRANCH   2  27
BRANCH   1  29
HETATM   29  C   UNL     1      -5.551   0.335 -32.800  1.00  0.00     0.043 A 
HETATM   30  C   UNL     1      -6.020   0.060 -34.088  1.00  0.00     0.032 A 
HETATM   31  C   UNL     1      -5.697  -1.147 -34.715  1.00  0.00     0.039 A 
HETATM   32  C   UNL     1      -4.924  -2.108 -34.059  1.00  0.00     0.068 A 
HETATM   33  C   UNL     1      -4.483  -1.852 -32.763  1.00  0.00     0.039 A 
HETATM   34  C   UNL     1      -4.803  -0.642 -32.136  1.00  0.00     0.032 A 
BRANCH  32  35
HETATM   35  O   UNL     1      -4.682  -3.243 -34.781  1.00  0.00    -0.352 OA
BRANCH  35  36
HETATM   36  C   UNL     1      -5.420  -4.409 -34.419  1.00  0.00     0.171 C 
HETATM   37  C   UNL     1      -6.615  -4.519 -35.348  1.00  0.00     0.034 C 
ENDBRANCH  35  36
ENDBRANCH  32  35
ENDBRANCH   1  29
TORSDOF 7
ENDMDL
MODEL 10
REMARK VINA RESULT:      -8.2      3.188      6.922
REMARK  7 active torsions:
REMARK  status: ('A' for Active; 'I' for Inactive)
REMARK    1  A    between atoms: C_2  and  O_3 
REMARK    2  A    between atoms: O_3  and  C_4 
REMARK    3  A    between atoms: C_7  and  N_8 
REMARK    4  A    between atoms: C_9  and  C_11 
REMARK    5  A    between atoms: C_9  and  O_10 
REMARK       I    between atoms: C_11  and  N_12 
REMARK    6  A    between atoms: N_12  and  C_13 
REMARK    7  A    between atoms: C_13  and  C_14 
ROOT
HETATM    1  N   UNL     1      -4.414   5.925 -31.214  1.00  0.00    -0.254 N 
HETATM    2  C   UNL     1      -3.133   5.587 -31.864  1.00  0.00     0.256 C 
HETATM    3  C   UNL     1      -1.920   6.058 -31.084  1.00  0.00     0.034 A 
HETATM    4  C   UNL     1      -2.086   7.094 -30.172  1.00  0.00     0.048 A 
HETATM    5  N   UNL     1      -3.357   7.612 -29.966  1.00  0.00    -0.308 N 
HETATM    6  C   UNL     1      -4.515   7.080 -30.450  1.00  0.00     0.330 C 
HETATM    7  O   UNL     1      -5.573   7.619 -30.120  1.00  0.00    -0.246 OA
HETATM    8  C   UNL     1      -0.619   5.567 -31.302  1.00  0.00     0.015 A 
HETATM    9  C   UNL     1       0.467   6.082 -30.590  1.00  0.00     0.001 A 
HETATM   10  C   UNL     1       0.275   7.112 -29.673  1.00  0.00     0.002 A 
HETATM   11  C   UNL     1      -1.004   7.627 -29.469  1.00  0.00     0.030 A 
HETATM   12  H   UNL     1      -3.489   8.396 -29.340  1.00  0.00     0.170 HD
ENDROOT
BRANCH   2  13
HETATM   13  C   UNL     1      -2.986   4.042 -32.200  1.00  0.00     0.279 C 
HETATM   14  N   UNL     1      -3.332   3.207 -31.148  1.00  0.00    -0.352 N 
HETATM   15  H   UNL     1      -3.890   3.622 -30.409  1.00  0.00     0.162 HD
HETATM   16  O   UNL     1      -2.568   3.604 -33.272  1.00  0.00    -0.268 OA
BRANCH  14  17
HETATM   17  C   UNL     1      -3.312   1.775 -31.292  1.00  0.00     0.161 C 
BRANCH  17  18
HETATM   18  C   UNL     1      -4.674   1.260 -31.669  1.00  0.00    -0.038 A 
HETATM   19  C   UNL     1      -5.131   1.360 -32.993  1.00  0.00     0.048 A 
HETATM   20  C   UNL     1      -6.392   0.882 -33.283  1.00  0.00     0.105 A 
HETATM   21  C   UNL     1      -7.198   0.326 -32.318  1.00  0.00     0.105 A 
HETATM   22  O   UNL     1      -6.982   0.895 -34.508  1.00  0.00    -0.323 OA
HETATM   23  O   UNL     1      -8.395  -0.084 -32.816  1.00  0.00    -0.323 OA
HETATM   24  C   UNL     1      -6.792   0.223 -31.006  1.00  0.00     0.040 A 
HETATM   25  C   UNL     1      -8.247   0.270 -34.207  1.00  0.00     0.352 A 
HETATM   26  C   UNL     1      -5.518   0.699 -30.681  1.00  0.00     0.012 A 
ENDBRANCH  17  18
ENDBRANCH  14  17
ENDBRANCH   2  13
BRANCH   2  27
HETATM   27  O   UNL     1      -3.094   6.324 -33.101  1.00  0.00    -0.359 OA
HETATM   28  H   UNL     1      -3.114   5.637 -33.786  1.00  0.00     0.213 HD
ENDBRANCH   2  27
BRANCH   1  29
HETATM   29  C   UNL     1      -5.618   5.335 -31.715  1.00  0.00     0.043 A 
HETATM   30  C   UNL     1      -6.061   5.594 -33.017  1.00  0.00     0.032 A 
HETATM   31  C   UNL     1      -7.230   4.996 -33.497  1.00  0.00     0.039 A 
HETATM   32  C   UNL     1      -7.987   4.152 -32.681  1.00  0.00     0.068 A 
HETATM   33  C   UNL     1      -7.568   3.918 -31.374  1.00  0.00     0.039 A 
HETATM   34  C   UNL     1      -6.396   4.514 -30.894  1.00  0.00     0.032 A 
BRANCH  32  35
HETATM   35  O   UNL     1      -9.106   3.634 -33.271  1.00  0.00    -0.352 OA
BRANCH  35  36
HETATM   36  C   UNL     1     -10.071   3.031 -32.409  1.00  0.00     0.171 C 
HETATM   37  C   UNL     1     -11.148   2.402 -33.274  1.00  0.00     0.034 C 
ENDBRANCH  35  36
ENDBRANCH  32  35
ENDBRANCH   1  29
TORSDOF 7
ENDMDL
