MODEL 1
REMARK VINA RESULT:      -7.6      0.000      0.000
REMARK  3 active torsions:
REMARK  status: ('A' for Active; 'I' for Inactive)
REMARK    1  A    between atoms: C_2  and  C_3 
REMARK    2  A    between atoms: C_3  and  C_4 
REMARK    3  A    between atoms: C_24  and  N_25 
ROOT
HETATM    1  C   UNL     1      -7.904   3.431 -30.866  1.00  0.00     0.067 A 
HETATM    2  N   UNL     1      -7.988   4.743 -30.586  1.00  0.00    -0.177 NA
HETATM    3  N   UNL     1      -6.722   5.191 -30.674  1.00  0.00    -0.256 N 
HETATM    4  H   UNL     1      -6.533   6.169 -30.481  1.00  0.00     0.191 HD
HETATM    5  C   UNL     1      -5.841   4.210 -30.986  1.00  0.00     0.176 A 
HETATM    6  C   UNL     1      -6.565   3.055 -31.152  1.00  0.00     0.049 A 
HETATM    7  C   UNL     1      -5.849   1.790 -31.481  1.00  0.00     0.144 A 
HETATM    8  C   UNL     1      -6.228   0.655 -30.491  1.00  0.00     0.246 A 
HETATM    9  O   UNL     1      -6.009   0.605 -29.291  1.00  0.00    -0.271 OA
HETATM   10  N   UNL     1      -6.861  -0.339 -31.229  1.00  0.00    -0.325 N 
HETATM   11  C   UNL     1      -6.964   0.008 -32.568  1.00  0.00     0.043 A 
HETATM   12  C   UNL     1      -6.397   1.272 -32.800  1.00  0.00     0.003 A 
HETATM   13  C   UNL     1      -7.546  -0.752 -33.561  1.00  0.00     0.030 A 
HETATM   14  C   UNL     1      -7.560  -0.219 -34.847  1.00  0.00     0.003 A 
HETATM   15  C   UNL     1      -6.996   1.043 -35.106  1.00  0.00     0.007 A 
HETATM   16  C   UNL     1      -6.397   1.807 -34.089  1.00  0.00    -0.051 A 
HETATM   17  C   UNL     1      -5.814   3.150 -34.419  1.00  0.00     0.049 C 
HETATM   18  C   UNL     1      -4.339   1.998 -31.462  1.00  0.00     0.081 A 
HETATM   19  C   UNL     1      -3.465   0.759 -31.576  1.00  0.00     0.021 C 
HETATM   20  N   UNL     1      -2.741  -0.268 -31.670  1.00  0.00    -0.096 N 
HETATM   21  C   UNL     1      -3.760   3.212 -31.265  1.00  0.00     0.140 A 
HETATM   22  O   UNL     1      -4.526   4.375 -31.070  1.00  0.00    -0.279 OA
HETATM   23  H   UNL     1      -7.192  -1.200 -30.817  1.00  0.00     0.169 HD
ENDROOT
BRANCH  21  24
HETATM   24  N   UNL     1      -2.405   3.454 -31.218  1.00  0.00    -0.282 NA
HETATM   25  H   UNL     1      -2.127   4.426 -31.329  1.00  0.00     0.126 HD
HETATM   26  H   UNL     1      -1.888   2.830 -31.833  1.00  0.00     0.126 HD
ENDBRANCH  21  24
BRANCH   1  27
HETATM   27  C   UNL     1      -9.121   2.558 -30.787  1.00  0.00     0.061 C 
BRANCH  27  28
HETATM   28  C   UNL     1     -10.182   2.847 -31.853  1.00  0.00     0.002 C 
HETATM   29  C   UNL     1     -10.168   1.787 -32.945  1.00  0.00     0.005 C 
ENDBRANCH  27  28
ENDBRANCH   1  27
TORSDOF 3
ENDMDL
MODEL 2
REMARK VINA RESULT:      -7.3      1.904      5.029
REMARK  3 active torsions:
REMARK  status: ('A' for Active; 'I' for Inactive)
REMARK    1  A    between atoms: C_2  and  C_3 
REMARK    2  A    between atoms: C_3  and  C_4 
REMARK    3  A    between atoms: C_24  and  N_25 
ROOT
HETATM    1  C   UNL     1      -6.211  -0.173 -33.220  1.00  0.00     0.067 A 
HETATM    2  N   UNL     1      -7.117  -0.994 -33.779  1.00  0.00    -0.177 NA
HETATM    3  N   UNL     1      -8.306  -0.524 -33.360  1.00  0.00    -0.256 N 
HETATM    4  H   UNL     1      -9.152  -1.005 -33.647  1.00  0.00     0.191 HD
HETATM    5  C   UNL     1      -8.186   0.554 -32.548  1.00  0.00     0.176 A 
HETATM    6  C   UNL     1      -6.846   0.839 -32.453  1.00  0.00     0.049 A 
HETATM    7  C   UNL     1      -6.405   1.975 -31.594  1.00  0.00     0.144 A 
HETATM    8  C   UNL     1      -5.322   1.524 -30.576  1.00  0.00     0.246 A 
HETATM    9  O   UNL     1      -5.441   0.724 -29.662  1.00  0.00    -0.271 OA
HETATM   10  N   UNL     1      -4.158   2.224 -30.880  1.00  0.00    -0.325 N 
HETATM   11  C   UNL     1      -4.335   3.056 -31.975  1.00  0.00     0.043 A 
HETATM   12  C   UNL     1      -5.645   2.956 -32.470  1.00  0.00     0.003 A 
HETATM   13  C   UNL     1      -3.377   3.875 -32.535  1.00  0.00     0.030 A 
HETATM   14  C   UNL     1      -3.751   4.628 -33.644  1.00  0.00     0.003 A 
HETATM   15  C   UNL     1      -5.057   4.549 -34.157  1.00  0.00     0.007 A 
HETATM   16  C   UNL     1      -6.031   3.718 -33.574  1.00  0.00    -0.051 A 
HETATM   17  C   UNL     1      -7.409   3.667 -34.165  1.00  0.00     0.049 C 
HETATM   18  C   UNL     1      -7.586   2.581 -30.843  1.00  0.00     0.081 A 
HETATM   19  C   UNL     1      -7.273   3.614 -29.773  1.00  0.00     0.021 C 
HETATM   20  N   UNL     1      -7.013   4.470 -28.885  1.00  0.00    -0.096 N 
HETATM   21  C   UNL     1      -8.871   2.178 -31.032  1.00  0.00     0.140 A 
HETATM   22  O   UNL     1      -9.202   1.165 -31.951  1.00  0.00    -0.279 OA
HETATM   23  H   UNL     1      -3.305   2.122 -30.348  1.00  0.00     0.169 HD
ENDROOT
BRANCH  21  24
HETATM   24  N   UNL     1      -9.971   2.674 -30.369  1.00  0.00    -0.282 NA
HETATM   25  H   UNL     1     -10.874   2.385 -30.737  1.00  0.00     0.126 HD
HETATM   26  H   UNL     1      -9.909   3.681 -30.236  1.00  0.00     0.126 HD
ENDBRANCH  21  24
BRANCH   1  27
HETATM   27  C   UNL     1      -4.744  -0.430 -33.393  1.00  0.00     0.061 C 
BRANCH  27  28
HETATM   28  C   UNL     1      -4.163  -1.469 -32.431  1.00  0.00     0.002 C 
HETATM   29  C   UNL     1      -2.841  -0.998 -31.843  1.00  0.00     0.005 C 
ENDBRANCH  27  28
ENDBRANCH   1  27
TORSDOF 3
ENDMDL
MODEL 3
REMARK VINA RESULT:      -7.3      1.909      4.494
REMARK  3 active torsions:
REMARK  status: ('A' for Active; 'I' for Inactive)
REMARK    1  A    between atoms: C_2  and  C_3 
REMARK    2  A    between atoms: C_3  and  C_4 
REMARK    3  A    between atoms: C_24  and  N_25 
ROOT
HETATM    1  C   UNL     1      -5.986   0.820 -33.721  1.00  0.00     0.067 A 
HETATM    2  N   UNL     1      -5.269  -0.317 -33.689  1.00  0.00    -0.177 NA
HETATM    3  N   UNL     1      -4.173  -0.008 -32.971  1.00  0.00    -0.256 N 
HETATM    4  H   UNL     1      -3.464  -0.719 -32.827  1.00  0.00     0.191 HD
HETATM    5  C   UNL     1      -4.164   1.284 -32.561  1.00  0.00     0.176 A 
HETATM    6  C   UNL     1      -5.336   1.853 -32.997  1.00  0.00     0.049 A 
HETATM    7  C   UNL     1      -5.593   3.293 -32.710  1.00  0.00     0.144 A 
HETATM    8  C   UNL     1      -5.945   4.072 -34.007  1.00  0.00     0.246 A 
HETATM    9  O   UNL     1      -5.231   4.271 -34.976  1.00  0.00    -0.271 OA
HETATM   10  N   UNL     1      -7.248   4.537 -33.865  1.00  0.00    -0.325 N 
HETATM   11  C   UNL     1      -7.800   4.146 -32.653  1.00  0.00     0.043 A 
HETATM   12  C   UNL     1      -6.882   3.386 -31.910  1.00  0.00     0.003 A 
HETATM   13  C   UNL     1      -9.073   4.435 -32.211  1.00  0.00     0.030 A 
HETATM   14  C   UNL     1      -9.444   3.938 -30.964  1.00  0.00     0.003 A 
HETATM   15  C   UNL     1      -8.542   3.178 -30.199  1.00  0.00     0.007 A 
HETATM   16  C   UNL     1      -7.242   2.896 -30.654  1.00  0.00    -0.051 A 
HETATM   17  C   UNL     1      -6.321   2.076 -29.800  1.00  0.00     0.049 C 
HETATM   18  C   UNL     1      -4.386   3.940 -32.041  1.00  0.00     0.081 A 
HETATM   19  C   UNL     1      -4.413   5.450 -31.869  1.00  0.00     0.021 C 
HETATM   20  N   UNL     1      -4.434   6.702 -31.726  1.00  0.00    -0.096 N 
HETATM   21  C   UNL     1      -3.276   3.242 -31.679  1.00  0.00     0.140 A 
HETATM   22  O   UNL     1      -3.169   1.856 -31.895  1.00  0.00    -0.279 OA
HETATM   23  H   UNL     1      -7.710   5.093 -34.570  1.00  0.00     0.169 HD
ENDROOT
BRANCH  21  24
HETATM   24  N   UNL     1      -2.151   3.777 -31.092  1.00  0.00    -0.282 NA
HETATM   25  H   UNL     1      -2.265   4.098 -30.133  1.00  0.00     0.126 HD
HETATM   26  H   UNL     1      -1.710   4.476 -31.686  1.00  0.00     0.126 HD
ENDBRANCH  21  24
BRANCH   1  27
HETATM   27  C   UNL     1      -7.258   0.893 -34.511  1.00  0.00     0.061 C 
BRANCH  27  28
HETATM   28  C   UNL     1      -8.519   0.529 -33.723  1.00  0.00     0.002 C 
HETATM   29  C   UNL     1      -9.714   1.350 -34.184  1.00  0.00     0.005 C 
ENDBRANCH  27  28
ENDBRANCH   1  27
TORSDOF 3
ENDMDL
MODEL 4
REMARK VINA RESULT:      -7.1      2.188      3.242
REMARK  3 active torsions:
REMARK  status: ('A' for Active; 'I' for Inactive)
REMARK    1  A    between atoms: C_2  and  C_3 
REMARK    2  A    between atoms: C_3  and  C_4 
REMARK    3  A    between atoms: C_24  and  N_25 
ROOT
HETATM    1  C   UNL     1      -8.357   4.757 -31.880  1.00  0.00     0.067 A 
HETATM    2  N   UNL     1      -9.098   5.412 -32.790  1.00  0.00    -0.177 NA
HETATM    3  N   UNL     1      -8.226   5.760 -33.753  1.00  0.00    -0.256 N 
HETATM    4  H   UNL     1      -8.561   6.290 -34.551  1.00  0.00     0.191 HD
HETATM    5  C   UNL     1      -6.960   5.361 -33.481  1.00  0.00     0.176 A 
HETATM    6  C   UNL     1      -7.000   4.678 -32.290  1.00  0.00     0.049 A 
HETATM    7  C   UNL     1      -5.733   4.136 -31.721  1.00  0.00     0.144 A 
HETATM    8  C   UNL     1      -5.530   4.603 -30.253  1.00  0.00     0.246 A 
HETATM    9  O   UNL     1      -5.365   5.741 -29.847  1.00  0.00    -0.271 OA
HETATM   10  N   UNL     1      -5.550   3.464 -29.455  1.00  0.00    -0.325 N 
HETATM   11  C   UNL     1      -5.759   2.317 -30.207  1.00  0.00     0.043 A 
HETATM   12  C   UNL     1      -5.894   2.633 -31.569  1.00  0.00     0.003 A 
HETATM   13  C   UNL     1      -5.841   1.030 -29.720  1.00  0.00     0.030 A 
HETATM   14  C   UNL     1      -6.069   0.012 -30.641  1.00  0.00     0.003 A 
HETATM   15  C   UNL     1      -6.205   0.301 -32.010  1.00  0.00     0.007 A 
HETATM   16  C   UNL     1      -6.111   1.616 -32.500  1.00  0.00    -0.051 A 
HETATM   17  C   UNL     1      -6.267   1.870 -33.970  1.00  0.00     0.049 C 
HETATM   18  C   UNL     1      -4.533   4.562 -32.560  1.00  0.00     0.081 A 
HETATM   19  C   UNL     1      -3.152   4.262 -31.999  1.00  0.00     0.021 C 
HETATM   20  N   UNL     1      -2.007   4.014 -31.535  1.00  0.00    -0.096 N 
HETATM   21  C   UNL     1      -4.650   5.260 -33.721  1.00  0.00     0.140 A 
HETATM   22  O   UNL     1      -5.903   5.634 -34.237  1.00  0.00    -0.279 OA
HETATM   23  H   UNL     1      -5.420   3.496 -28.454  1.00  0.00     0.169 HD
ENDROOT
BRANCH  21  24
HETATM   24  N   UNL     1      -3.602   5.687 -34.506  1.00  0.00    -0.282 NA
HETATM   25  H   UNL     1      -2.848   6.161 -34.015  1.00  0.00     0.126 HD
HETATM   26  H   UNL     1      -3.926   6.209 -35.317  1.00  0.00     0.126 HD
ENDBRANCH  21  24
BRANCH   1  27
HETATM   27  C   UNL     1      -8.974   4.278 -30.601  1.00  0.00     0.061 C 
BRANCH  27  28
HETATM   28  C   UNL     1      -9.313   2.785 -30.578  1.00  0.00     0.002 C 
HETATM   29  C   UNL     1      -9.673   2.280 -31.967  1.00  0.00     0.005 C 
ENDBRANCH  27  28
ENDBRANCH   1  27
TORSDOF 3
ENDMDL
MODEL 5
REMARK VINA RESULT:      -7.1      2.219      4.757
REMARK  3 active torsions:
REMARK  status: ('A' for Active; 'I' for Inactive)
REMARK    1  A    between atoms: C_2  and  C_3 
REMARK    2  A    between atoms: C_3  and  C_4 
REMARK    3  A    between atoms: C_24  and  N_25 
ROOT
HETATM    1  C   UNL     1      -3.905   4.198 -31.875  1.00  0.00     0.067 A 
HETATM    2  N   UNL     1      -3.299   4.983 -30.967  1.00  0.00    -0.177 NA
HETATM    3  N   UNL     1      -4.279   5.340 -30.117  1.00  0.00    -0.256 N 
HETATM    4  H   UNL     1      -4.057   5.959 -29.344  1.00  0.00     0.191 HD
HETATM    5  C   UNL     1      -5.483   4.821 -30.460  1.00  0.00     0.176 A 
HETATM    6  C   UNL     1      -5.285   4.047 -31.577  1.00  0.00     0.049 A 
HETATM    7  C   UNL     1      -6.452   3.363 -32.202  1.00  0.00     0.144 A 
HETATM    8  C   UNL     1      -6.551   3.689 -33.717  1.00  0.00     0.246 A 
HETATM    9  O   UNL     1      -6.759   4.773 -34.237  1.00  0.00    -0.271 OA
HETATM   10  N   UNL     1      -6.378   2.493 -34.406  1.00  0.00    -0.325 N 
HETATM   11  C   UNL     1      -6.158   1.433 -33.539  1.00  0.00     0.043 A 
HETATM   12  C   UNL     1      -6.172   1.870 -32.204  1.00  0.00     0.003 A 
HETATM   13  C   UNL     1      -5.941   0.120 -33.901  1.00  0.00     0.030 A 
HETATM   14  C   UNL     1      -5.727  -0.798 -32.876  1.00  0.00     0.003 A 
HETATM   15  C   UNL     1      -5.739  -0.386 -31.532  1.00  0.00     0.007 A 
HETATM   16  C   UNL     1      -5.971   0.953 -31.171  1.00  0.00    -0.051 A 
HETATM   17  C   UNL     1      -5.969   1.339 -29.722  1.00  0.00     0.049 C 
HETATM   18  C   UNL     1      -7.752   3.761 -31.511  1.00  0.00     0.081 A 
HETATM   19  C   UNL     1      -9.050   3.308 -32.159  1.00  0.00     0.021 C 
HETATM   20  N   UNL     1     -10.128   2.934 -32.695  1.00  0.00    -0.096 N 
HETATM   21  C   UNL     1      -7.792   4.559 -30.411  1.00  0.00     0.140 A 
HETATM   22  O   UNL     1      -6.621   5.072 -29.825  1.00  0.00    -0.279 OA
HETATM   23  H   UNL     1      -6.417   2.432 -35.414  1.00  0.00     0.169 HD
ENDROOT
BRANCH  21  24
HETATM   24  N   UNL     1      -8.935   4.966 -29.760  1.00  0.00    -0.282 NA
HETATM   25  H   UNL     1      -9.363   5.819 -30.112  1.00  0.00     0.126 HD
HETATM   26  H   UNL     1      -8.809   4.983 -28.750  1.00  0.00     0.126 HD
ENDBRANCH  21  24
BRANCH   1  27
HETATM   27  C   UNL     1      -3.140   3.665 -33.049  1.00  0.00     0.061 C 
BRANCH  27  28
HETATM   28  C   UNL     1      -2.386   4.727 -33.853  1.00  0.00     0.002 C 
HETATM   29  C   UNL     1      -3.258   5.306 -34.957  1.00  0.00     0.005 C 
ENDBRANCH  27  28
ENDBRANCH   1  27
TORSDOF 3
ENDMDL
MODEL 6
REMARK VINA RESULT:      -7.0      2.699      5.725
REMARK  3 active torsions:
REMARK  status: ('A' for Active; 'I' for Inactive)
REMARK    1  A    between atoms: C_2  and  C_3 
REMARK    2  A    between atoms: C_3  and  C_4 
REMARK    3  A    between atoms: C_24  and  N_25 
ROOT
HETATM    1  C   UNL     1      -4.900   1.805 -32.712  1.00  0.00     0.067 A 
HETATM    2  N   UNL     1      -5.571   0.901 -33.447  1.00  0.00    -0.177 NA
HETATM    3  N   UNL     1      -6.538   1.610 -34.059  1.00  0.00    -0.256 N 
HETATM    4  H   UNL     1      -7.193   1.125 -34.664  1.00  0.00     0.191 HD
HETATM    5  C   UNL     1      -6.511   2.923 -33.728  1.00  0.00     0.176 A 
HETATM    6  C   UNL     1      -5.446   3.105 -32.881  1.00  0.00     0.049 A 
HETATM    7  C   UNL     1      -5.181   4.463 -32.328  1.00  0.00     0.144 A 
HETATM    8  C   UNL     1      -5.074   4.429 -30.779  1.00  0.00     0.246 A 
HETATM    9  O   UNL     1      -5.947   4.143 -29.975  1.00  0.00    -0.271 OA
HETATM   10  N   UNL     1      -3.779   4.813 -30.449  1.00  0.00    -0.325 N 
HETATM   11  C   UNL     1      -3.020   5.073 -31.581  1.00  0.00     0.043 A 
HETATM   12  C   UNL     1      -3.779   4.872 -32.746  1.00  0.00     0.003 A 
HETATM   13  C   UNL     1      -1.698   5.464 -31.600  1.00  0.00     0.030 A 
HETATM   14  C   UNL     1      -1.109   5.664 -32.845  1.00  0.00     0.003 A 
HETATM   15  C   UNL     1      -1.848   5.473 -34.026  1.00  0.00     0.007 A 
HETATM   16  C   UNL     1      -3.199   5.083 -33.998  1.00  0.00    -0.051 A 
HETATM   17  C   UNL     1      -3.940   4.889 -35.288  1.00  0.00     0.049 C 
HETATM   18  C   UNL     1      -6.275   5.442 -32.741  1.00  0.00     0.081 A 
HETATM   19  C   UNL     1      -6.259   6.816 -32.090  1.00  0.00     0.021 C 
HETATM   20  N   UNL     1      -6.246   7.955 -31.552  1.00  0.00    -0.096 N 
HETATM   21  C   UNL     1      -7.289   5.109 -33.583  1.00  0.00     0.140 A 
HETATM   22  O   UNL     1      -7.394   3.823 -34.144  1.00  0.00    -0.279 OA
HETATM   23  H   UNL     1      -3.458   4.890 -29.494  1.00  0.00     0.169 HD
ENDROOT
BRANCH  21  24
HETATM   24  N   UNL     1      -8.312   5.944 -33.973  1.00  0.00    -0.282 NA
HETATM   25  H   UNL     1      -8.460   6.762 -33.386  1.00  0.00     0.126 HD
HETATM   26  H   UNL     1      -9.173   5.431 -34.149  1.00  0.00     0.126 HD
ENDBRANCH  21  24
BRANCH   1  27
HETATM   27  C   UNL     1      -3.783   1.372 -31.812  1.00  0.00     0.061 C 
BRANCH  27  28
HETATM   28  C   UNL     1      -3.963  -0.019 -31.197  1.00  0.00     0.002 C 
HETATM   29  C   UNL     1      -2.978  -1.015 -31.789  1.00  0.00     0.005 C 
ENDBRANCH  27  28
ENDBRANCH   1  27
TORSDOF 3
ENDMDL
MODEL 7
REMARK VINA RESULT:      -6.8      2.292      4.730
REMARK  3 active torsions:
REMARK  status: ('A' for Active; 'I' for Inactive)
REMARK    1  A    between atoms: C_2  and  C_3 
REMARK    2  A    between atoms: C_3  and  C_4 
REMARK    3  A    between atoms: C_24  and  N_25 
ROOT
HETATM    1  C   UNL     1      -5.540   2.658 -31.034  1.00  0.00     0.067 A 
HETATM    2  N   UNL     1      -5.428   2.890 -29.715  1.00  0.00    -0.177 NA
HETATM    3  N   UNL     1      -6.623   3.392 -29.355  1.00  0.00    -0.256 N 
HETATM    4  H   UNL     1      -6.770   3.665 -28.388  1.00  0.00     0.191 HD
HETATM    5  C   UNL     1      -7.481   3.499 -30.398  1.00  0.00     0.176 A 
HETATM    6  C   UNL     1      -6.835   3.004 -31.504  1.00  0.00     0.049 A 
HETATM    7  C   UNL     1      -7.534   3.017 -32.820  1.00  0.00     0.144 A 
HETATM    8  C   UNL     1      -6.672   3.710 -33.910  1.00  0.00     0.246 A 
HETATM    9  O   UNL     1      -6.318   4.878 -33.953  1.00  0.00    -0.271 OA
HETATM   10  N   UNL     1      -6.377   2.750 -34.871  1.00  0.00    -0.325 N 
HETATM   11  C   UNL     1      -6.916   1.515 -34.541  1.00  0.00     0.043 A 
HETATM   12  C   UNL     1      -7.611   1.585 -33.322  1.00  0.00     0.003 A 
HETATM   13  C   UNL     1      -6.798   0.355 -35.276  1.00  0.00     0.030 A 
HETATM   14  C   UNL     1      -7.405  -0.789 -34.766  1.00  0.00     0.003 A 
HETATM   15  C   UNL     1      -8.109  -0.745 -33.549  1.00  0.00     0.007 A 
HETATM   16  C   UNL     1      -8.232   0.445 -32.810  1.00  0.00    -0.051 A 
HETATM   17  C   UNL     1      -8.991   0.436 -31.516  1.00  0.00     0.049 C 
HETATM   18  C   UNL     1      -8.882   3.722 -32.714  1.00  0.00     0.081 A 
HETATM   19  C   UNL     1      -9.626   3.998 -34.011  1.00  0.00     0.021 C 
HETATM   20  N   UNL     1     -10.243   4.227 -35.085  1.00  0.00    -0.096 N 
HETATM   21  C   UNL     1      -9.390   4.179 -31.538  1.00  0.00     0.140 A 
HETATM   22  O   UNL     1      -8.699   4.023 -30.322  1.00  0.00    -0.279 OA
HETATM   23  H   UNL     1      -5.838   2.954 -35.701  1.00  0.00     0.169 HD
ENDROOT
BRANCH  21  24
HETATM   24  N   UNL     1     -10.588   4.839 -31.387  1.00  0.00    -0.282 NA
HETATM   25  H   UNL     1     -10.521   5.834 -31.184  1.00  0.00     0.126 HD
HETATM   26  H   UNL     1     -11.209   4.353 -30.744  1.00  0.00     0.126 HD
ENDBRANCH  21  24
BRANCH   1  27
HETATM   27  C   UNL     1      -4.364   2.163 -31.821  1.00  0.00     0.061 C 
BRANCH  27  28
HETATM   28  C   UNL     1      -3.829   0.799 -31.376  1.00  0.00     0.002 C 
HETATM   29  C   UNL     1      -4.834  -0.307 -31.662  1.00  0.00     0.005 C 
ENDBRANCH  27  28
ENDBRANCH   1  27
TORSDOF 3
ENDMDL
MODEL 8
REMARK VINA RESULT:      -6.7      2.653      4.943
REMARK  3 active torsions:
REMARK  status: ('A' for Active; 'I' for Inactive)
REMARK    1  A    between atoms: C_2  and  C_3 
REMARK    2  A    between atoms: C_3  and  C_4 
REMARK    3  A    between atoms: C_24  and  N_25 
ROOT
HETATM    1  C   UNL     1      -8.897   1.302 -33.345  1.00  0.00     0.067 A 
HETATM    2  N   UNL     1      -9.565   1.084 -34.491  1.00  0.00    -0.177 NA
HETATM    3  N   UNL     1      -9.836   2.313 -34.967  1.00  0.00    -0.256 N 
HETATM    4  H   UNL     1     -10.360   2.401 -35.831  1.00  0.00     0.191 HD
HETATM    5  C   UNL     1      -9.376   3.299 -34.159  1.00  0.00     0.176 A 
HETATM    6  C   UNL     1      -8.731   2.692 -33.110  1.00  0.00     0.049 A 
HETATM    7  C   UNL     1      -8.138   3.538 -32.036  1.00  0.00     0.144 A 
HETATM    8  C   UNL     1      -8.636   3.097 -30.632  1.00  0.00     0.246 A 
HETATM    9  O   UNL     1      -9.775   3.136 -30.196  1.00  0.00    -0.271 OA
HETATM   10  N   UNL     1      -7.524   2.655 -29.923  1.00  0.00    -0.325 N 
HETATM   11  C   UNL     1      -6.369   2.730 -30.688  1.00  0.00     0.043 A 
HETATM   12  C   UNL     1      -6.651   3.233 -31.968  1.00  0.00     0.003 A 
HETATM   13  C   UNL     1      -5.103   2.359 -30.285  1.00  0.00     0.030 A 
HETATM   14  C   UNL     1      -4.072   2.501 -31.209  1.00  0.00     0.003 A 
HETATM   15  C   UNL     1      -4.328   3.005 -32.496  1.00  0.00     0.007 A 
HETATM   16  C   UNL     1      -5.620   3.389 -32.896  1.00  0.00    -0.051 A 
HETATM   17  C   UNL     1      -5.839   3.917 -34.283  1.00  0.00     0.049 C 
HETATM   18  C   UNL     1      -8.472   5.010 -32.254  1.00  0.00     0.081 A 
HETATM   19  C   UNL     1      -8.113   5.977 -31.137  1.00  0.00     0.021 C 
HETATM   20  N   UNL     1      -7.816   6.779 -30.211  1.00  0.00    -0.096 N 
HETATM   21  C   UNL     1      -9.140   5.465 -33.347  1.00  0.00     0.140 A 
HETATM   22  O   UNL     1      -9.568   4.596 -34.368  1.00  0.00    -0.279 OA
HETATM   23  H   UNL     1      -7.578   2.329 -28.968  1.00  0.00     0.169 HD
ENDROOT
BRANCH  21  24
HETATM   24  N   UNL     1      -9.485   6.776 -33.586  1.00  0.00    -0.282 NA
HETATM   25  H   UNL     1      -8.901   7.475 -33.132  1.00  0.00     0.126 HD
HETATM   26  H   UNL     1     -10.477   6.940 -33.432  1.00  0.00     0.126 HD
ENDBRANCH  21  24
BRANCH   1  27
HETATM   27  C   UNL     1      -8.491   0.153 -32.473  1.00  0.00     0.061 C 
BRANCH  27  28
HETATM   28  C   UNL     1      -7.313  -0.667 -33.008  1.00  0.00     0.002 C 
HETATM   29  C   UNL     1      -6.149  -0.662 -32.029  1.00  0.00     0.005 C 
ENDBRANCH  27  28
ENDBRANCH   1  27
TORSDOF 3
ENDMDL
MODEL 9
REMARK VINA RESULT:      -6.7      2.434      4.961
REMARK  3 active torsions:
REMARK  status: ('A' for Active; 'I' for Inactive)
REMARK    1  A    between atoms: C_2  and  C_3 
REMARK    2  A    between atoms: C_3  and  C_4 
REMARK    3  A    between atoms: C_24  and  N_25 
ROOT
HETATM    1  C   UNL     1      -5.869   5.761 -30.320  1.00  0.00     0.067 A 
HETATM    2  N   UNL     1      -5.976   5.712 -28.981  1.00  0.00    -0.177 NA
HETATM    3  N   UNL     1      -6.220   4.418 -28.705  1.00  0.00    -0.256 N 
HETATM    4  H   UNL     1      -6.359   4.139 -27.739  1.00  0.00     0.191 HD
HETATM    5  C   UNL     1      -6.284   3.650 -29.820  1.00  0.00     0.176 A 
HETATM    6  C   UNL     1      -6.031   4.471 -30.891  1.00  0.00     0.049 A 
HETATM    7  C   UNL     1      -6.060   3.899 -32.266  1.00  0.00     0.144 A 
HETATM    8  C   UNL     1      -7.006   4.711 -33.194  1.00  0.00     0.246 A 
HETATM    9  O   UNL     1      -8.215   4.844 -33.097  1.00  0.00    -0.271 OA
HETATM   10  N   UNL     1      -6.220   5.261 -34.200  1.00  0.00    -0.325 N 
HETATM   11  C   UNL     1      -4.882   4.933 -34.039  1.00  0.00     0.043 A 
HETATM   12  C   UNL     1      -4.699   4.133 -32.899  1.00  0.00     0.003 A 
HETATM   13  C   UNL     1      -3.845   5.327 -34.858  1.00  0.00     0.030 A 
HETATM   14  C   UNL     1      -2.564   4.900 -34.517  1.00  0.00     0.003 A 
HETATM   15  C   UNL     1      -2.355   4.096 -33.383  1.00  0.00     0.007 A 
HETATM   16  C   UNL     1      -3.420   3.691 -32.558  1.00  0.00    -0.051 A 
HETATM   17  C   UNL     1      -3.141   2.837 -31.357  1.00  0.00     0.049 C 
HETATM   18  C   UNL     1      -6.503   2.440 -32.241  1.00  0.00     0.081 A 
HETATM   19  C   UNL     1      -6.780   1.775 -33.580  1.00  0.00     0.021 C 
HETATM   20  N   UNL     1      -7.010   1.222 -34.689  1.00  0.00    -0.096 N 
HETATM   21  C   UNL     1      -6.736   1.756 -31.090  1.00  0.00     0.140 A 
HETATM   22  O   UNL     1      -6.576   2.355 -29.827  1.00  0.00    -0.279 OA
HETATM   23  H   UNL     1      -6.602   5.824 -34.947  1.00  0.00     0.169 HD
ENDROOT
BRANCH  21  24
HETATM   24  N   UNL     1      -7.156   0.447 -31.008  1.00  0.00    -0.282 NA
HETATM   25  H   UNL     1      -7.345   0.103 -30.069  1.00  0.00     0.126 HD
HETATM   26  H   UNL     1      -6.552  -0.177 -31.536  1.00  0.00     0.126 HD
ENDBRANCH  21  24
BRANCH   1  27
HETATM   27  C   UNL     1      -5.675   7.073 -31.019  1.00  0.00     0.061 C 
BRANCH  27  28
HETATM   28  C   UNL     1      -4.246   7.329 -31.505  1.00  0.00     0.002 C 
HETATM   29  C   UNL     1      -3.222   6.812 -30.506  1.00  0.00     0.005 C 
ENDBRANCH  27  28
ENDBRANCH   1  27
TORSDOF 3
ENDMDL
MODEL 10
REMARK VINA RESULT:      -6.6      2.459      5.488
REMARK  3 active torsions:
REMARK  status: ('A' for Active; 'I' for Inactive)
REMARK    1  A    between atoms: C_2  and  C_3 
REMARK    2  A    between atoms: C_3  and  C_4 
REMARK    3  A    between atoms: C_24  and  N_25 
ROOT
HETATM    1  C   UNL     1      -6.074  -0.464 -33.490  1.00  0.00     0.067 A 
HETATM    2  N   UNL     1      -6.074  -1.115 -34.666  1.00  0.00    -0.177 NA
HETATM    3  N   UNL     1      -7.059  -0.534 -35.376  1.00  0.00    -0.256 N 
HETATM    4  H   UNL     1      -7.261  -0.880 -36.309  1.00  0.00     0.191 HD
HETATM    5  C   UNL     1      -7.688   0.450 -34.689  1.00  0.00     0.176 A 
HETATM    6  C   UNL     1      -7.063   0.554 -33.471  1.00  0.00     0.049 A 
HETATM    7  C   UNL     1      -7.562   1.551 -32.482  1.00  0.00     0.144 A 
HETATM    8  C   UNL     1      -7.854   0.885 -31.110  1.00  0.00     0.246 A 
HETATM    9  O   UNL     1      -8.692   0.035 -30.854  1.00  0.00    -0.271 OA
HETATM   10  N   UNL     1      -6.985   1.454 -30.185  1.00  0.00    -0.325 N 
HETATM   11  C   UNL     1      -6.150   2.389 -30.779  1.00  0.00     0.043 A 
HETATM   12  C   UNL     1      -6.420   2.496 -32.153  1.00  0.00     0.003 A 
HETATM   13  C   UNL     1      -5.171   3.122 -30.143  1.00  0.00     0.030 A 
HETATM   14  C   UNL     1      -4.428   4.005 -30.921  1.00  0.00     0.003 A 
HETATM   15  C   UNL     1      -4.680   4.134 -32.299  1.00  0.00     0.007 A 
HETATM   16  C   UNL     1      -5.687   3.388 -32.938  1.00  0.00    -0.051 A 
HETATM   17  C   UNL     1      -5.912   3.560 -34.411  1.00  0.00     0.049 C 
HETATM   18  C   UNL     1      -8.825   2.238 -32.991  1.00  0.00     0.081 A 
HETATM   19  C   UNL     1      -9.571   3.133 -32.015  1.00  0.00     0.021 C 
HETATM   20  N   UNL     1     -10.191   3.874 -31.205  1.00  0.00    -0.096 N 
HETATM   21  C   UNL     1      -9.341   2.018 -34.230  1.00  0.00     0.140 A 
HETATM   22  O   UNL     1      -8.733   1.134 -35.139  1.00  0.00    -0.279 OA
HETATM   23  H   UNL     1      -6.985   1.202 -29.207  1.00  0.00     0.169 HD
ENDROOT
BRANCH  21  24
HETATM   24  N   UNL     1     -10.486   2.594 -34.733  1.00  0.00    -0.282 NA
HETATM   25  H   UNL     1     -10.808   2.226 -35.626  1.00  0.00     0.126 HD
HETATM   26  H   UNL     1     -10.432   3.610 -34.728  1.00  0.00     0.126 HD
ENDBRANCH  21  24
BRANCH   1  27
HETATM   27  C   UNL     1      -5.152  -0.890 -32.387  1.00  0.00     0.061 C 
BRANCH  27  28
HETATM   28  C   UNL     1      -3.758  -0.258 -32.442  1.00  0.00     0.002 C 
HETATM   29  C   UNL     1      -3.232   0.041 -31.046  1.00  0.00     0.005 C 
ENDBRANCH  27  28
ENDBRANCH   1  27
TORSDOF 3
ENDMDL
