MODEL 1
REMARK VINA RESULT:      -9.8      0.000      0.000
REMARK  4 active torsions:
REMARK  status: ('A' for Active; 'I' for Inactive)
REMARK    1  A    between atoms: C_9  and  C_10 
REMARK    2  A    between atoms: C_20  and  C_21 
REMARK       I    between atoms: C_21  and  N_22 
REMARK    3  A    between atoms: N_22  and  C_23 
REMARK    4  A    between atoms: C_26  and  O_27 
ROOT
HETATM    1  C   UNL     1      -6.604   4.385 -29.232  1.00  0.00     0.070 C 
HETATM    2  C   UNL     1      -5.627   3.910 -30.280  1.00  0.00     0.037 C 
HETATM    3  N   UNL     1      -4.413   4.592 -30.316  1.00  0.00    -0.192 N 
HETATM    4  C   UNL     1      -3.535   4.477 -31.334  1.00  0.00     0.725 A 
HETATM    5  N   UNL     1      -3.744   3.530 -32.302  1.00  0.00    -0.084 N 
HETATM    6  N   UNL     1      -2.821   3.623 -33.281  1.00  0.00    -0.149 NA
HETATM    7  C   UNL     1      -2.045   4.599 -32.798  1.00  0.00     0.275 A 
HETATM    8  N   UNL     1      -2.447   5.150 -31.609  1.00  0.00    -0.054 NA
HETATM    9  C   UNL     1      -4.910   2.638 -32.332  1.00  0.00     0.203 C 
HETATM   10  C   UNL     1      -5.890   2.956 -31.208  1.00  0.00     0.062 C 
HETATM   11  H   UNL     1      -4.291   5.371 -29.674  1.00  0.00     0.184 HD
ENDROOT
BRANCH  10  12
HETATM   12  C   UNL     1      -7.217   2.303 -31.360  1.00  0.00     0.256 C 
HETATM   13  N   UNL     1      -8.063   2.943 -32.240  1.00  0.00    -0.323 N 
HETATM   14  H   UNL     1      -7.745   3.820 -32.631  1.00  0.00     0.169 HD
HETATM   15  O   UNL     1      -7.451   1.302 -30.694  1.00  0.00    -0.267 OA
BRANCH  13  16
HETATM   16  C   UNL     1      -9.323   2.487 -32.682  1.00  0.00     0.035 A 
HETATM   17  C   UNL     1      -9.587   1.168 -33.055  1.00  0.00     0.032 A 
HETATM   18  C   UNL     1     -10.859   0.800 -33.510  1.00  0.00     0.039 A 
HETATM   19  C   UNL     1     -11.887   1.735 -33.587  1.00  0.00     0.068 A 
HETATM   20  C   UNL     1     -11.629   3.058 -33.235  1.00  0.00     0.039 A 
HETATM   21  C   UNL     1     -10.355   3.429 -32.781  1.00  0.00     0.032 A 
BRANCH  19  22
HETATM   22  O   UNL     1     -13.080   1.253 -34.048  1.00  0.00    -0.356 OA
HETATM   23  C   UNL     1     -13.365  -0.103 -33.725  1.00  0.00     0.210 C 
ENDBRANCH  19  22
ENDBRANCH  13  16
ENDBRANCH  10  12
BRANCH   9  24
HETATM   24  C   UNL     1      -4.503   1.160 -32.409  1.00  0.00    -0.017 A 
HETATM   25  C   UNL     1      -5.121   0.175 -33.248  1.00  0.00    -0.017 A 
HETATM   26  C   UNL     1      -4.672  -1.171 -33.154  1.00  0.00    -0.025 A 
HETATM   27  C   UNL     1      -6.165   0.425 -34.173  1.00  0.00     0.013 A 
HETATM   28  C   UNL     1      -5.274  -2.183 -33.920  1.00  0.00     0.012 A 
HETATM   29  C   UNL     1      -3.622  -1.510 -32.291  1.00  0.00     0.012 A 
HETATM   30  C   UNL     1      -6.316  -1.899 -34.797  1.00  0.00     0.001 A 
HETATM   31  C   UNL     1      -6.756  -0.593 -34.928  1.00  0.00     0.001 A 
HETATM   32  C   UNL     1      -2.998  -0.545 -31.512  1.00  0.00     0.002 A 
HETATM   33  C   UNL     1      -3.434   0.772 -31.569  1.00  0.00     0.010 A 
ENDBRANCH   9  24
TORSDOF 4
ENDMDL
MODEL 2
REMARK VINA RESULT:      -9.1      2.830      6.271
REMARK  4 active torsions:
REMARK  status: ('A' for Active; 'I' for Inactive)
REMARK    1  A    between atoms: C_9  and  C_10 
REMARK    2  A    between atoms: C_20  and  C_21 
REMARK       I    between atoms: C_21  and  N_22 
REMARK    3  A    between atoms: N_22  and  C_23 
REMARK    4  A    between atoms: C_26  and  O_27 
ROOT
HETATM    1  C   UNL     1     -10.274   0.734 -33.273  1.00  0.00     0.070 C 
HETATM    2  C   UNL     1      -9.489   2.022 -33.224  1.00  0.00     0.037 C 
HETATM    3  N   UNL     1     -10.205   3.141 -32.807  1.00  0.00    -0.192 N 
HETATM    4  C   UNL     1      -9.744   4.402 -32.944  1.00  0.00     0.725 A 
HETATM    5  N   UNL     1      -8.452   4.608 -33.351  1.00  0.00    -0.084 N 
HETATM    6  N   UNL     1      -8.198   5.922 -33.520  1.00  0.00    -0.149 NA
HETATM    7  C   UNL     1      -9.361   6.452 -33.124  1.00  0.00     0.275 A 
HETATM    8  N   UNL     1     -10.335   5.556 -32.763  1.00  0.00    -0.054 NA
HETATM    9  C   UNL     1      -7.525   3.525 -33.700  1.00  0.00     0.203 C 
HETATM   10  C   UNL     1      -8.203   2.161 -33.634  1.00  0.00     0.062 C 
HETATM   11  H   UNL     1     -11.194   3.021 -32.608  1.00  0.00     0.184 HD
ENDROOT
BRANCH  10  12
HETATM   12  C   UNL     1      -7.419   1.064 -34.261  1.00  0.00     0.256 C 
HETATM   13  N   UNL     1      -6.944   0.129 -33.369  1.00  0.00    -0.323 N 
HETATM   14  H   UNL     1      -7.097   0.309 -32.386  1.00  0.00     0.169 HD
HETATM   15  O   UNL     1      -7.243   1.096 -35.474  1.00  0.00    -0.267 OA
BRANCH  13  16
HETATM   16  C   UNL     1      -6.289  -1.082 -33.683  1.00  0.00     0.035 A 
HETATM   17  C   UNL     1      -4.940  -1.329 -33.422  1.00  0.00     0.032 A 
HETATM   18  C   UNL     1      -4.357  -2.547 -33.789  1.00  0.00     0.039 A 
HETATM   19  C   UNL     1      -5.111  -3.540 -34.409  1.00  0.00     0.068 A 
HETATM   20  C   UNL     1      -6.453  -3.297 -34.691  1.00  0.00     0.039 A 
HETATM   21  C   UNL     1      -7.038  -2.076 -34.326  1.00  0.00     0.032 A 
BRANCH  19  22
HETATM   22  O   UNL     1      -4.427  -4.682 -34.719  1.00  0.00    -0.356 OA
HETATM   23  C   UNL     1      -3.341  -5.005 -33.859  1.00  0.00     0.210 C 
ENDBRANCH  19  22
ENDBRANCH  13  16
ENDBRANCH  10  12
BRANCH   9  24
HETATM   24  C   UNL     1      -6.213   3.612 -32.909  1.00  0.00    -0.017 A 
HETATM   25  C   UNL     1      -4.981   4.150 -33.406  1.00  0.00    -0.017 A 
HETATM   26  C   UNL     1      -3.832   4.096 -32.569  1.00  0.00    -0.025 A 
HETATM   27  C   UNL     1      -4.798   4.733 -34.685  1.00  0.00     0.013 A 
HETATM   28  C   UNL     1      -2.589   4.568 -33.025  1.00  0.00     0.012 A 
HETATM   29  C   UNL     1      -3.922   3.568 -31.275  1.00  0.00     0.012 A 
HETATM   30  C   UNL     1      -2.449   5.109 -34.300  1.00  0.00     0.001 A 
HETATM   31  C   UNL     1      -3.555   5.197 -35.127  1.00  0.00     0.001 A 
HETATM   32  C   UNL     1      -5.126   3.086 -30.782  1.00  0.00     0.002 A 
HETATM   33  C   UNL     1      -6.257   3.107 -31.589  1.00  0.00     0.010 A 
ENDBRANCH   9  24
TORSDOF 4
ENDMDL
MODEL 3
REMARK VINA RESULT:      -9.1      1.792      2.900
REMARK  4 active torsions:
REMARK  status: ('A' for Active; 'I' for Inactive)
REMARK    1  A    between atoms: C_9  and  C_10 
REMARK    2  A    between atoms: C_20  and  C_21 
REMARK       I    between atoms: C_21  and  N_22 
REMARK    3  A    between atoms: N_22  and  C_23 
REMARK    4  A    between atoms: C_26  and  O_27 
ROOT
HETATM    1  C   UNL     1      -7.634   4.700 -29.886  1.00  0.00     0.070 C 
HETATM    2  C   UNL     1      -7.039   4.310 -31.217  1.00  0.00     0.037 C 
HETATM    3  N   UNL     1      -5.851   4.955 -31.551  1.00  0.00    -0.192 N 
HETATM    4  C   UNL     1      -5.320   4.923 -32.790  1.00  0.00     0.725 A 
HETATM    5  N   UNL     1      -5.861   4.092 -33.736  1.00  0.00    -0.084 N 
HETATM    6  N   UNL     1      -5.264   4.261 -34.933  1.00  0.00    -0.149 NA
HETATM    7  C   UNL     1      -4.322   5.156 -34.615  1.00  0.00     0.275 A 
HETATM    8  N   UNL     1      -4.322   5.589 -33.314  1.00  0.00    -0.054 NA
HETATM    9  C   UNL     1      -7.036   3.244 -33.499  1.00  0.00     0.203 C 
HETATM   10  C   UNL     1      -7.621   3.470 -32.109  1.00  0.00     0.062 C 
HETATM   11  H   UNL     1      -5.498   5.657 -30.905  1.00  0.00     0.184 HD
ENDROOT
BRANCH  10  12
HETATM   12  C   UNL     1      -8.972   2.878 -31.918  1.00  0.00     0.256 C 
HETATM   13  N   UNL     1      -9.932   3.377 -32.770  1.00  0.00    -0.323 N 
HETATM   14  H   UNL     1      -9.660   4.138 -33.378  1.00  0.00     0.169 HD
HETATM   15  O   UNL     1      -9.120   2.044 -31.032  1.00  0.00    -0.267 OA
BRANCH  13  16
HETATM   16  C   UNL     1     -11.259   2.915 -32.910  1.00  0.00     0.035 A 
HETATM   17  C   UNL     1     -12.371   3.563 -32.370  1.00  0.00     0.032 A 
HETATM   18  C   UNL     1     -13.653   3.026 -32.531  1.00  0.00     0.039 A 
HETATM   19  C   UNL     1     -13.848   1.845 -33.241  1.00  0.00     0.068 A 
HETATM   20  C   UNL     1     -12.743   1.180 -33.769  1.00  0.00     0.039 A 
HETATM   21  C   UNL     1     -11.457   1.716 -33.607  1.00  0.00     0.032 A 
BRANCH  19  22
HETATM   22  O   UNL     1     -15.145   1.423 -33.326  1.00  0.00    -0.356 OA
HETATM   23  C   UNL     1     -16.075   2.114 -32.500  1.00  0.00     0.210 C 
ENDBRANCH  19  22
ENDBRANCH  13  16
ENDBRANCH  10  12
BRANCH   9  24
HETATM   24  C   UNL     1      -6.761   1.771 -33.832  1.00  0.00    -0.017 A 
HETATM   25  C   UNL     1      -5.693   0.986 -33.288  1.00  0.00    -0.017 A 
HETATM   26  C   UNL     1      -5.531  -0.349 -33.752  1.00  0.00    -0.025 A 
HETATM   27  C   UNL     1      -4.760   1.431 -32.319  1.00  0.00     0.013 A 
HETATM   28  C   UNL     1      -4.473  -1.147 -33.285  1.00  0.00     0.012 A 
HETATM   29  C   UNL     1      -6.424  -0.889 -34.686  1.00  0.00     0.012 A 
HETATM   30  C   UNL     1      -3.562  -0.660 -32.352  1.00  0.00     0.001 A 
HETATM   31  C   UNL     1      -3.710   0.626 -31.864  1.00  0.00     0.001 A 
HETATM   32  C   UNL     1      -7.483  -0.138 -35.178  1.00  0.00     0.002 A 
HETATM   33  C   UNL     1      -7.648   1.175 -34.758  1.00  0.00     0.010 A 
ENDBRANCH   9  24
TORSDOF 4
ENDMDL
MODEL 4
REMARK VINA RESULT:      -9.0      2.838      6.588
REMARK  4 active torsions:
REMARK  status: ('A' for Active; 'I' for Inactive)
REMARK    1  A    between atoms: C_9  and  C_10 
REMARK    2  A    between atoms: C_20  and  C_21 
REMARK       I    between atoms: C_21  and  N_22 
REMARK    3  A    between atoms: N_22  and  C_23 
REMARK    4  A    between atoms: C_26  and  O_27 
ROOT
HETATM    1  C   UNL     1     -11.421   0.333 -33.467  1.00  0.00     0.070 C 
HETATM    2  C   UNL     1     -10.621   1.612 -33.531  1.00  0.00     0.037 C 
HETATM    3  N   UNL     1     -11.326   2.735 -33.958  1.00  0.00    -0.192 N 
HETATM    4  C   UNL     1     -10.725   3.889 -34.314  1.00  0.00     0.725 A 
HETATM    5  N   UNL     1      -9.381   4.045 -34.096  1.00  0.00    -0.084 N 
HETATM    6  N   UNL     1      -8.939   5.217 -34.597  1.00  0.00    -0.149 NA
HETATM    7  C   UNL     1     -10.087   5.747 -35.035  1.00  0.00     0.275 A 
HETATM    8  N   UNL     1     -11.204   4.966 -34.882  1.00  0.00    -0.054 NA
HETATM    9  C   UNL     1      -8.521   3.000 -33.528  1.00  0.00     0.203 C 
HETATM   10  C   UNL     1      -9.289   1.705 -33.293  1.00  0.00     0.062 C 
HETATM   11  H   UNL     1     -12.298   2.607 -34.229  1.00  0.00     0.184 HD
ENDROOT
BRANCH  10  12
HETATM   12  C   UNL     1      -8.423   0.530 -33.009  1.00  0.00     0.256 C 
HETATM   13  N   UNL     1      -7.729   0.063 -34.104  1.00  0.00    -0.323 N 
HETATM   14  H   UNL     1      -7.926   0.498 -34.995  1.00  0.00     0.169 HD
HETATM   15  O   UNL     1      -8.419   0.073 -31.872  1.00  0.00    -0.267 OA
BRANCH  13  16
HETATM   16  C   UNL     1      -6.739  -0.943 -34.110  1.00  0.00     0.035 A 
HETATM   17  C   UNL     1      -5.425  -0.746 -33.683  1.00  0.00     0.032 A 
HETATM   18  C   UNL     1      -4.494  -1.790 -33.746  1.00  0.00     0.039 A 
HETATM   19  C   UNL     1      -4.862  -3.046 -34.221  1.00  0.00     0.068 A 
HETATM   20  C   UNL     1      -6.166  -3.248 -34.667  1.00  0.00     0.039 A 
HETATM   21  C   UNL     1      -7.100  -2.203 -34.606  1.00  0.00     0.032 A 
BRANCH  19  22
HETATM   22  O   UNL     1      -3.863  -3.979 -34.234  1.00  0.00    -0.356 OA
HETATM   23  C   UNL     1      -3.366  -4.371 -32.960  1.00  0.00     0.210 C 
ENDBRANCH  19  22
ENDBRANCH  13  16
ENDBRANCH  10  12
BRANCH   9  24
HETATM   24  C   UNL     1      -7.742   3.498 -32.302  1.00  0.00    -0.017 A 
HETATM   25  C   UNL     1      -6.321   3.415 -32.135  1.00  0.00    -0.017 A 
HETATM   26  C   UNL     1      -5.757   3.861 -30.908  1.00  0.00    -0.025 A 
HETATM   27  C   UNL     1      -5.411   2.910 -33.097  1.00  0.00     0.013 A 
HETATM   28  C   UNL     1      -4.375   3.760 -30.675  1.00  0.00     0.012 A 
HETATM   29  C   UNL     1      -6.573   4.407 -29.909  1.00  0.00     0.012 A 
HETATM   30  C   UNL     1      -3.520   3.232 -31.637  1.00  0.00     0.001 A 
HETATM   31  C   UNL     1      -4.037   2.814 -32.851  1.00  0.00     0.001 A 
HETATM   32  C   UNL     1      -7.944   4.524 -30.092  1.00  0.00     0.002 A 
HETATM   33  C   UNL     1      -8.522   4.075 -31.272  1.00  0.00     0.010 A 
ENDBRANCH   9  24
TORSDOF 4
ENDMDL
MODEL 5
REMARK VINA RESULT:      -8.7      2.152      5.795
REMARK  4 active torsions:
REMARK  status: ('A' for Active; 'I' for Inactive)
REMARK    1  A    between atoms: C_9  and  C_10 
REMARK    2  A    between atoms: C_20  and  C_21 
REMARK       I    between atoms: C_21  and  N_22 
REMARK    3  A    between atoms: N_22  and  C_23 
REMARK    4  A    between atoms: C_26  and  O_27 
ROOT
HETATM    1  C   UNL     1      -3.342   3.814 -32.706  1.00  0.00     0.070 C 
HETATM    2  C   UNL     1      -4.663   3.948 -31.987  1.00  0.00     0.037 C 
HETATM    3  N   UNL     1      -4.683   4.868 -30.942  1.00  0.00    -0.192 N 
HETATM    4  C   UNL     1      -5.684   4.935 -30.040  1.00  0.00     0.725 A 
HETATM    5  N   UNL     1      -6.819   4.193 -30.235  1.00  0.00    -0.084 N 
HETATM    6  N   UNL     1      -7.666   4.314 -29.191  1.00  0.00    -0.149 NA
HETATM    7  C   UNL     1      -7.007   5.203 -28.440  1.00  0.00     0.275 A 
HETATM    8  N   UNL     1      -5.789   5.609 -28.923  1.00  0.00    -0.054 NA
HETATM    9  C   UNL     1      -7.008   3.273 -31.364  1.00  0.00     0.203 C 
HETATM   10  C   UNL     1      -5.760   3.188 -32.234  1.00  0.00     0.062 C 
HETATM   11  H   UNL     1      -3.814   5.344 -30.717  1.00  0.00     0.184 HD
ENDROOT
BRANCH  10  12
HETATM   12  C   UNL     1      -5.775   2.061 -33.205  1.00  0.00     0.256 C 
HETATM   13  N   UNL     1      -5.407   0.848 -32.666  1.00  0.00    -0.323 N 
HETATM   14  H   UNL     1      -5.091   0.845 -31.706  1.00  0.00     0.169 HD
HETATM   15  O   UNL     1      -6.076   2.302 -34.368  1.00  0.00    -0.267 OA
BRANCH  13  16
HETATM   16  C   UNL     1      -5.456  -0.410 -33.307  1.00  0.00     0.035 A 
HETATM   17  C   UNL     1      -6.634  -1.013 -33.750  1.00  0.00     0.032 A 
HETATM   18  C   UNL     1      -6.601  -2.276 -34.352  1.00  0.00     0.039 A 
HETATM   19  C   UNL     1      -5.396  -2.948 -34.534  1.00  0.00     0.068 A 
HETATM   20  C   UNL     1      -4.217  -2.363 -34.079  1.00  0.00     0.039 A 
HETATM   21  C   UNL     1      -4.248  -1.099 -33.473  1.00  0.00     0.032 A 
BRANCH  19  22
HETATM   22  O   UNL     1      -5.497  -4.173 -35.132  1.00  0.00    -0.356 OA
HETATM   23  C   UNL     1      -6.818  -4.606 -35.436  1.00  0.00     0.210 C 
ENDBRANCH  19  22
ENDBRANCH  13  16
ENDBRANCH  10  12
BRANCH   9  24
HETATM   24  C   UNL     1      -8.296   3.575 -32.143  1.00  0.00    -0.017 A 
HETATM   25  C   UNL     1      -9.254   2.596 -32.566  1.00  0.00    -0.017 A 
HETATM   26  C   UNL     1     -10.365   3.029 -33.342  1.00  0.00    -0.025 A 
HETATM   27  C   UNL     1      -9.188   1.209 -32.285  1.00  0.00     0.013 A 
HETATM   28  C   UNL     1     -11.309   2.105 -33.821  1.00  0.00     0.012 A 
HETATM   29  C   UNL     1     -10.534   4.387 -33.643  1.00  0.00     0.012 A 
HETATM   30  C   UNL     1     -11.191   0.747 -33.544  1.00  0.00     0.001 A 
HETATM   31  C   UNL     1     -10.134   0.300 -32.770  1.00  0.00     0.001 A 
HETATM   32  C   UNL     1      -9.626   5.336 -33.195  1.00  0.00     0.002 A 
HETATM   33  C   UNL     1      -8.521   4.935 -32.455  1.00  0.00     0.010 A 
ENDBRANCH   9  24
TORSDOF 4
ENDMDL
MODEL 6
REMARK VINA RESULT:      -8.7      3.181      5.835
REMARK  4 active torsions:
REMARK  status: ('A' for Active; 'I' for Inactive)
REMARK    1  A    between atoms: C_9  and  C_10 
REMARK    2  A    between atoms: C_20  and  C_21 
REMARK       I    between atoms: C_21  and  N_22 
REMARK    3  A    between atoms: N_22  and  C_23 
REMARK    4  A    between atoms: C_26  and  O_27 
ROOT
HETATM    1  C   UNL     1      -5.915   1.306 -29.490  1.00  0.00     0.070 C 
HETATM    2  C   UNL     1      -5.757   2.678 -30.100  1.00  0.00     0.037 C 
HETATM    3  N   UNL     1      -5.693   3.731 -29.191  1.00  0.00    -0.192 N 
HETATM    4  C   UNL     1      -5.807   5.025 -29.555  1.00  0.00     0.725 A 
HETATM    5  N   UNL     1      -5.818   5.354 -30.885  1.00  0.00    -0.084 N 
HETATM    6  N   UNL     1      -6.032   6.674 -31.059  1.00  0.00    -0.149 NA
HETATM    7  C   UNL     1      -6.065   7.089 -29.788  1.00  0.00     0.275 A 
HETATM    8  N   UNL     1      -5.932   6.111 -28.836  1.00  0.00    -0.054 NA
HETATM    9  C   UNL     1      -5.757   4.365 -31.970  1.00  0.00     0.203 C 
HETATM   10  C   UNL     1      -5.765   2.939 -31.431  1.00  0.00     0.062 C 
HETATM   11  H   UNL     1      -5.795   3.509 -28.204  1.00  0.00     0.184 HD
ENDROOT
BRANCH  10  12
HETATM   12  C   UNL     1      -6.010   1.902 -32.469  1.00  0.00     0.256 C 
HETATM   13  N   UNL     1      -5.268   0.754 -32.305  1.00  0.00    -0.323 N 
HETATM   14  H   UNL     1      -4.582   0.749 -31.561  1.00  0.00     0.169 HD
HETATM   15  O   UNL     1      -6.803   2.157 -33.368  1.00  0.00    -0.267 OA
BRANCH  13  16
HETATM   16  C   UNL     1      -5.384  -0.440 -33.049  1.00  0.00     0.035 A 
HETATM   17  C   UNL     1      -4.295  -1.206 -33.469  1.00  0.00     0.032 A 
HETATM   18  C   UNL     1      -4.493  -2.365 -34.227  1.00  0.00     0.039 A 
HETATM   19  C   UNL     1      -5.777  -2.785 -34.567  1.00  0.00     0.068 A 
HETATM   20  C   UNL     1      -6.869  -2.019 -34.169  1.00  0.00     0.039 A 
HETATM   21  C   UNL     1      -6.672  -0.855 -33.410  1.00  0.00     0.032 A 
BRANCH  19  22
HETATM   22  O   UNL     1      -5.837  -3.930 -35.311  1.00  0.00    -0.356 OA
HETATM   23  C   UNL     1      -5.181  -5.064 -34.755  1.00  0.00     0.210 C 
ENDBRANCH  19  22
ENDBRANCH  13  16
ENDBRANCH  10  12
BRANCH   9  24
HETATM   24  C   UNL     1      -4.615   4.658 -32.952  1.00  0.00    -0.017 A 
HETATM   25  C   UNL     1      -3.238   4.832 -32.592  1.00  0.00    -0.017 A 
HETATM   26  C   UNL     1      -2.309   5.168 -33.615  1.00  0.00    -0.025 A 
HETATM   27  C   UNL     1      -2.712   4.707 -31.282  1.00  0.00     0.013 A 
HETATM   28  C   UNL     1      -0.956   5.395 -33.308  1.00  0.00     0.012 A 
HETATM   29  C   UNL     1      -2.729   5.282 -34.946  1.00  0.00     0.012 A 
HETATM   30  C   UNL     1      -0.486   5.287 -32.003  1.00  0.00     0.001 A 
HETATM   31  C   UNL     1      -1.363   4.937 -30.991  1.00  0.00     0.001 A 
HETATM   32  C   UNL     1      -4.055   5.071 -35.297  1.00  0.00     0.002 A 
HETATM   33  C   UNL     1      -4.987   4.765 -34.312  1.00  0.00     0.010 A 
ENDBRANCH   9  24
TORSDOF 4
ENDMDL
MODEL 7
REMARK VINA RESULT:      -8.4      2.626      6.607
REMARK  4 active torsions:
REMARK  status: ('A' for Active; 'I' for Inactive)
REMARK    1  A    between atoms: C_9  and  C_10 
REMARK    2  A    between atoms: C_20  and  C_21 
REMARK       I    between atoms: C_21  and  N_22 
REMARK    3  A    between atoms: N_22  and  C_23 
REMARK    4  A    between atoms: C_26  and  O_27 
ROOT
HETATM    1  C   UNL     1      -5.313   4.411 -34.429  1.00  0.00     0.070 C 
HETATM    2  C   UNL     1      -6.541   4.152 -33.590  1.00  0.00     0.037 C 
HETATM    3  N   UNL     1      -7.045   5.260 -32.913  1.00  0.00    -0.192 N 
HETATM    4  C   UNL     1      -7.967   5.166 -31.933  1.00  0.00     0.725 A 
HETATM    5  N   UNL     1      -8.574   3.962 -31.689  1.00  0.00    -0.084 N 
HETATM    6  N   UNL     1      -9.393   4.035 -30.621  1.00  0.00    -0.149 NA
HETATM    7  C   UNL     1      -9.287   5.334 -30.317  1.00  0.00     0.275 A 
HETATM    8  N   UNL     1      -8.424   6.062 -31.094  1.00  0.00    -0.054 NA
HETATM    9  C   UNL     1      -8.249   2.725 -32.412  1.00  0.00     0.203 C 
HETATM   10  C   UNL     1      -7.104   2.933 -33.396  1.00  0.00     0.062 C 
HETATM   11  H   UNL     1      -6.536   6.136 -32.998  1.00  0.00     0.184 HD
ENDROOT
BRANCH  10  12
HETATM   12  C   UNL     1      -6.529   1.670 -33.931  1.00  0.00     0.256 C 
HETATM   13  N   UNL     1      -5.801   0.948 -33.012  1.00  0.00    -0.323 N 
HETATM   14  H   UNL     1      -5.658   1.368 -32.103  1.00  0.00     0.169 HD
HETATM   15  O   UNL     1      -6.720   1.400 -35.111  1.00  0.00    -0.267 OA
BRANCH  13  16
HETATM   16  C   UNL     1      -5.255  -0.342 -33.192  1.00  0.00     0.035 A 
HETATM   17  C   UNL     1      -4.120  -0.807 -32.528  1.00  0.00     0.032 A 
HETATM   18  C   UNL     1      -3.625  -2.091 -32.782  1.00  0.00     0.039 A 
HETATM   19  C   UNL     1      -4.261  -2.934 -33.691  1.00  0.00     0.068 A 
HETATM   20  C   UNL     1      -5.384  -2.472 -34.373  1.00  0.00     0.039 A 
HETATM   21  C   UNL     1      -5.880  -1.185 -34.120  1.00  0.00     0.032 A 
BRANCH  19  22
HETATM   22  O   UNL     1      -3.680  -4.160 -33.852  1.00  0.00    -0.356 OA
HETATM   23  C   UNL     1      -4.549  -5.206 -34.270  1.00  0.00     0.210 C 
ENDBRANCH  19  22
ENDBRANCH  13  16
ENDBRANCH  10  12
BRANCH   9  24
HETATM   24  C   UNL     1      -9.495   2.074 -33.028  1.00  0.00    -0.017 A 
HETATM   25  C   UNL     1     -10.359   2.689 -33.991  1.00  0.00    -0.017 A 
HETATM   26  C   UNL     1     -11.515   1.978 -34.415  1.00  0.00    -0.025 A 
HETATM   27  C   UNL     1     -10.167   3.971 -34.564  1.00  0.00     0.013 A 
HETATM   28  C   UNL     1     -12.420   2.554 -35.323  1.00  0.00     0.012 A 
HETATM   29  C   UNL     1     -11.773   0.690 -33.929  1.00  0.00     0.012 A 
HETATM   30  C   UNL     1     -12.206   3.828 -35.841  1.00  0.00     0.001 A 
HETATM   31  C   UNL     1     -11.076   4.533 -35.466  1.00  0.00     0.001 A 
HETATM   32  C   UNL     1     -10.911   0.080 -33.028  1.00  0.00     0.002 A 
HETATM   33  C   UNL     1      -9.787   0.764 -32.582  1.00  0.00     0.010 A 
ENDBRANCH   9  24
TORSDOF 4
ENDMDL
MODEL 8
REMARK VINA RESULT:      -8.2      3.917      6.540
REMARK  4 active torsions:
REMARK  status: ('A' for Active; 'I' for Inactive)
REMARK    1  A    between atoms: C_9  and  C_10 
REMARK    2  A    between atoms: C_20  and  C_21 
REMARK       I    between atoms: C_21  and  N_22 
REMARK    3  A    between atoms: N_22  and  C_23 
REMARK    4  A    between atoms: C_26  and  O_27 
ROOT
HETATM    1  C   UNL     1      -6.349   5.976 -27.891  1.00  0.00     0.070 C 
HETATM    2  C   UNL     1      -5.568   6.882 -28.811  1.00  0.00     0.037 C 
HETATM    3  N   UNL     1      -5.407   8.191 -28.364  1.00  0.00    -0.192 N 
HETATM    4  C   UNL     1      -4.966   9.190 -29.156  1.00  0.00     0.725 A 
HETATM    5  N   UNL     1      -4.488   8.898 -30.408  1.00  0.00    -0.084 N 
HETATM    6  N   UNL     1      -4.180  10.023 -31.086  1.00  0.00    -0.149 NA
HETATM    7  C   UNL     1      -4.427  10.949 -30.153  1.00  0.00     0.275 A 
HETATM    8  N   UNL     1      -4.910  10.482 -28.958  1.00  0.00    -0.054 NA
HETATM    9  C   UNL     1      -4.464   7.545 -30.976  1.00  0.00     0.203 C 
HETATM   10  C   UNL     1      -5.110   6.530 -30.039  1.00  0.00     0.062 C 
HETATM   11  H   UNL     1      -5.854   8.448 -27.488  1.00  0.00     0.184 HD
ENDROOT
BRANCH  10  12
HETATM   12  C   UNL     1      -5.391   5.214 -30.673  1.00  0.00     0.256 C 
HETATM   13  N   UNL     1      -4.423   4.261 -30.445  1.00  0.00    -0.323 N 
HETATM   14  H   UNL     1      -3.592   4.556 -29.949  1.00  0.00     0.169 HD
HETATM   15  O   UNL     1      -6.409   5.099 -31.344  1.00  0.00    -0.267 OA
BRANCH  13  16
HETATM   16  C   UNL     1      -4.480   2.897 -30.804  1.00  0.00     0.035 A 
HETATM   17  C   UNL     1      -5.345   1.972 -30.216  1.00  0.00     0.032 A 
HETATM   18  C   UNL     1      -5.323   0.629 -30.609  1.00  0.00     0.039 A 
HETATM   19  C   UNL     1      -4.449   0.192 -31.601  1.00  0.00     0.068 A 
HETATM   20  C   UNL     1      -3.568   1.102 -32.180  1.00  0.00     0.039 A 
HETATM   21  C   UNL     1      -3.589   2.448 -31.786  1.00  0.00     0.032 A 
BRANCH  19  22
HETATM   22  O   UNL     1      -4.522  -1.142 -31.894  1.00  0.00    -0.356 OA
HETATM   23  C   UNL     1      -4.247  -1.494 -33.244  1.00  0.00     0.210 C 
ENDBRANCH  19  22
ENDBRANCH  13  16
ENDBRANCH  10  12
BRANCH   9  24
HETATM   24  C   UNL     1      -3.063   7.148 -31.460  1.00  0.00    -0.017 A 
HETATM   25  C   UNL     1      -2.775   6.454 -32.681  1.00  0.00    -0.017 A 
HETATM   26  C   UNL     1      -1.426   6.097 -32.954  1.00  0.00    -0.025 A 
HETATM   27  C   UNL     1      -3.734   6.075 -33.654  1.00  0.00     0.013 A 
HETATM   28  C   UNL     1      -1.096   5.376 -34.114  1.00  0.00     0.012 A 
HETATM   29  C   UNL     1      -0.404   6.457 -32.067  1.00  0.00     0.012 A 
HETATM   30  C   UNL     1      -2.073   5.001 -35.031  1.00  0.00     0.001 A 
HETATM   31  C   UNL     1      -3.391   5.357 -34.804  1.00  0.00     0.001 A 
HETATM   32  C   UNL     1      -0.681   7.166 -30.907  1.00  0.00     0.002 A 
HETATM   33  C   UNL     1      -1.994   7.506 -30.606  1.00  0.00     0.010 A 
ENDBRANCH   9  24
TORSDOF 4
ENDMDL
MODEL 9
REMARK VINA RESULT:      -8.2      2.906      6.874
REMARK  4 active torsions:
REMARK  status: ('A' for Active; 'I' for Inactive)
REMARK    1  A    between atoms: C_9  and  C_10 
REMARK    2  A    between atoms: C_20  and  C_21 
REMARK       I    between atoms: C_21  and  N_22 
REMARK    3  A    between atoms: N_22  and  C_23 
REMARK    4  A    between atoms: C_26  and  O_27 
ROOT
HETATM    1  C   UNL     1     -11.248   0.550 -33.291  1.00  0.00     0.070 C 
HETATM    2  C   UNL     1     -10.421   1.804 -33.436  1.00  0.00     0.037 C 
HETATM    3  N   UNL     1     -11.121   2.936 -33.847  1.00  0.00    -0.192 N 
HETATM    4  C   UNL     1     -10.513   4.064 -34.269  1.00  0.00     0.725 A 
HETATM    5  N   UNL     1      -9.154   4.188 -34.138  1.00  0.00    -0.084 N 
HETATM    6  N   UNL     1      -8.714   5.335 -34.695  1.00  0.00    -0.149 NA
HETATM    7  C   UNL     1      -9.872   5.886 -35.075  1.00  0.00     0.275 A 
HETATM    8  N   UNL     1     -10.997   5.140 -34.834  1.00  0.00    -0.054 NA
HETATM    9  C   UNL     1      -8.288   3.133 -33.597  1.00  0.00     0.203 C 
HETATM   10  C   UNL     1      -9.074   1.866 -33.283  1.00  0.00     0.062 C 
HETATM   11  H   UNL     1     -12.110   2.828 -34.055  1.00  0.00     0.184 HD
ENDROOT
BRANCH  10  12
HETATM   12  C   UNL     1      -8.223   0.674 -33.023  1.00  0.00     0.256 C 
HETATM   13  N   UNL     1      -7.589   0.180 -34.141  1.00  0.00    -0.323 N 
HETATM   14  H   UNL     1      -7.815   0.609 -35.028  1.00  0.00     0.169 HD
HETATM   15  O   UNL     1      -8.179   0.230 -31.882  1.00  0.00    -0.267 OA
BRANCH  13  16
HETATM   16  C   UNL     1      -6.623  -0.850 -34.178  1.00  0.00     0.035 A 
HETATM   17  C   UNL     1      -5.305  -0.698 -33.745  1.00  0.00     0.032 A 
HETATM   18  C   UNL     1      -4.399  -1.761 -33.840  1.00  0.00     0.039 A 
HETATM   19  C   UNL     1      -4.797  -2.992 -34.354  1.00  0.00     0.068 A 
HETATM   20  C   UNL     1      -6.105  -3.149 -34.807  1.00  0.00     0.039 A 
HETATM   21  C   UNL     1      -7.013  -2.084 -34.714  1.00  0.00     0.032 A 
BRANCH  19  22
HETATM   22  O   UNL     1      -3.820  -3.948 -34.396  1.00  0.00    -0.356 OA
HETATM   23  C   UNL     1      -3.411  -4.468 -33.137  1.00  0.00     0.210 C 
ENDBRANCH  19  22
ENDBRANCH  13  16
ENDBRANCH  10  12
BRANCH   9  24
HETATM   24  C   UNL     1      -7.422   3.639 -32.435  1.00  0.00    -0.017 A 
HETATM   25  C   UNL     1      -7.900   4.402 -31.319  1.00  0.00    -0.017 A 
HETATM   26  C   UNL     1      -6.956   4.855 -30.356  1.00  0.00    -0.025 A 
HETATM   27  C   UNL     1      -9.252   4.760 -31.090  1.00  0.00     0.013 A 
HETATM   28  C   UNL     1      -7.365   5.645 -29.268  1.00  0.00     0.012 A 
HETATM   29  C   UNL     1      -5.601   4.523 -30.480  1.00  0.00     0.012 A 
HETATM   30  C   UNL     1      -8.700   5.997 -29.095  1.00  0.00     0.001 A 
HETATM   31  C   UNL     1      -9.644   5.548 -30.003  1.00  0.00     0.001 A 
HETATM   32  C   UNL     1      -5.149   3.748 -31.540  1.00  0.00     0.002 A 
HETATM   33  C   UNL     1      -6.048   3.313 -32.505  1.00  0.00     0.010 A 
ENDBRANCH   9  24
TORSDOF 4
ENDMDL
MODEL 10
REMARK VINA RESULT:      -8.1      4.020      7.244
REMARK  4 active torsions:
REMARK  status: ('A' for Active; 'I' for Inactive)
REMARK    1  A    between atoms: C_9  and  C_10 
REMARK    2  A    between atoms: C_20  and  C_21 
REMARK       I    between atoms: C_21  and  N_22 
REMARK    3  A    between atoms: N_22  and  C_23 
REMARK    4  A    between atoms: C_26  and  O_27 
ROOT
HETATM    1  C   UNL     1      -6.025   5.667 -27.933  1.00  0.00     0.070 C 
HETATM    2  C   UNL     1      -5.378   6.631 -28.898  1.00  0.00     0.037 C 
HETATM    3  N   UNL     1      -5.239   7.937 -28.434  1.00  0.00    -0.192 N 
HETATM    4  C   UNL     1      -4.923   8.973 -29.237  1.00  0.00     0.725 A 
HETATM    5  N   UNL     1      -4.552   8.734 -30.535  1.00  0.00    -0.084 N 
HETATM    6  N   UNL     1      -4.363   9.887 -31.209  1.00  0.00    -0.149 NA
HETATM    7  C   UNL     1      -4.566  10.779 -30.233  1.00  0.00     0.275 A 
HETATM    8  N   UNL     1      -4.911  10.263 -29.011  1.00  0.00    -0.054 NA
HETATM    9  C   UNL     1      -4.517   7.396 -31.138  1.00  0.00     0.203 C 
HETATM   10  C   UNL     1      -5.022   6.330 -30.172  1.00  0.00     0.062 C 
HETATM   11  H   UNL     1      -5.613   8.152 -27.513  1.00  0.00     0.184 HD
ENDROOT
BRANCH  10  12
HETATM   12  C   UNL     1      -5.297   5.015 -30.812  1.00  0.00     0.256 C 
HETATM   13  N   UNL     1      -4.342   4.056 -30.561  1.00  0.00    -0.323 N 
HETATM   14  H   UNL     1      -3.520   4.344 -30.047  1.00  0.00     0.169 HD
HETATM   15  O   UNL     1      -6.301   4.907 -31.506  1.00  0.00    -0.267 OA
BRANCH  13  16
HETATM   16  C   UNL     1      -4.401   2.692 -30.920  1.00  0.00     0.035 A 
HETATM   17  C   UNL     1      -5.270   1.769 -30.337  1.00  0.00     0.032 A 
HETATM   18  C   UNL     1      -5.249   0.426 -30.730  1.00  0.00     0.039 A 
HETATM   19  C   UNL     1      -4.372  -0.014 -31.718  1.00  0.00     0.068 A 
HETATM   20  C   UNL     1      -3.487   0.895 -32.294  1.00  0.00     0.039 A 
HETATM   21  C   UNL     1      -3.506   2.241 -31.900  1.00  0.00     0.032 A 
BRANCH  19  22
HETATM   22  O   UNL     1      -4.446  -1.347 -32.012  1.00  0.00    -0.356 OA
HETATM   23  C   UNL     1      -3.218  -2.062 -31.956  1.00  0.00     0.210 C 
ENDBRANCH  19  22
ENDBRANCH  13  16
ENDBRANCH  10  12
BRANCH   9  24
HETATM   24  C   UNL     1      -3.149   7.081 -31.761  1.00  0.00    -0.017 A 
HETATM   25  C   UNL     1      -1.903   7.063 -31.054  1.00  0.00    -0.017 A 
HETATM   26  C   UNL     1      -0.711   6.820 -31.790  1.00  0.00    -0.025 A 
HETATM   27  C   UNL     1      -1.747   7.281 -29.662  1.00  0.00     0.013 A 
HETATM   28  C   UNL     1       0.542   6.837 -31.154  1.00  0.00     0.012 A 
HETATM   29  C   UNL     1      -0.767   6.562 -33.166  1.00  0.00     0.012 A 
HETATM   30  C   UNL     1       0.652   7.082 -29.788  1.00  0.00     0.001 A 
HETATM   31  C   UNL     1      -0.493   7.296 -29.042  1.00  0.00     0.001 A 
HETATM   32  C   UNL     1      -1.981   6.537 -33.839  1.00  0.00     0.002 A 
HETATM   33  C   UNL     1      -3.157   6.795 -33.146  1.00  0.00     0.010 A 
ENDBRANCH   9  24
TORSDOF 4
ENDMDL
