MODEL 1
REMARK VINA RESULT:      -7.7      0.000      0.000
REMARK  6 active torsions:
REMARK  status: ('A' for Active; 'I' for Inactive)
REMARK    1  A    between atoms: C_3  and  N_4 
REMARK    2  A    between atoms: N_4  and  C_5 
REMARK    3  A    between atoms: C_5  and  C_6 
REMARK    4  A    between atoms: N_8  and  C_10 
REMARK    5  A    between atoms: C_10  and  C_11 
REMARK    6  A    between atoms: C_12  and  O_13 
ROOT
HETATM    1  C   UNL     1      -6.679  -0.237 -32.210  1.00  0.00     0.026 C 
HETATM    2  C   UNL     1      -7.567   0.167 -33.382  1.00  0.00     0.241 C 
HETATM    3  N   UNL     1      -8.753   0.832 -32.727  1.00  0.00    -0.067 N 
HETATM    4  H   UNL     1      -8.960   1.710 -33.242  1.00  0.00     0.280 HD
HETATM    5  C   UNL     1      -8.373   1.186 -31.308  1.00  0.00     0.235 C 
HETATM    6  C   UNL     1      -6.874   0.934 -31.250  1.00  0.00     0.035 C 
ENDROOT
BRANCH   3   7
HETATM    7  C   UNL     1     -10.056   0.074 -32.831  1.00  0.00     0.276 C 
BRANCH   7   8
HETATM    8  C   UNL     1     -11.143   0.856 -33.516  1.00  0.00     0.002 A 
HETATM    9  C   UNL     1     -12.443   0.344 -33.632  1.00  0.00     0.073 A 
HETATM   10  C   UNL     1     -13.447   1.052 -34.290  1.00  0.00     0.038 A 
HETATM   11  C   UNL     1     -13.157   2.299 -34.844  1.00  0.00     0.022 A 
HETATM   12  C   UNL     1     -11.869   2.821 -34.741  1.00  0.00     0.011 A 
HETATM   13 BR   UNL     1     -11.478   4.513 -35.483  1.00  0.00    -0.051 Br
HETATM   14  C   UNL     1     -10.863   2.106 -34.089  1.00  0.00     0.030 A 
BRANCH   9  15
HETATM   15  O   UNL     1     -12.715  -0.869 -33.056  1.00  0.00    -0.360 OA
HETATM   16  H   UNL     1     -11.863  -1.348 -32.965  1.00  0.00     0.217 HD
ENDBRANCH   9  15
ENDBRANCH   7   8
ENDBRANCH   3   7
BRANCH   1  17
HETATM   17  C   UNL     1      -5.220  -0.493 -32.612  1.00  0.00     0.100 C 
BRANCH  17  18
HETATM   18  N   UNL     1      -5.178  -1.054 -33.959  1.00  0.00    -0.279 NA
HETATM   19  H   UNL     1      -4.492  -0.587 -34.558  1.00  0.00     0.129 HD
BRANCH  18  20
HETATM   20  C   UNL     1      -5.135  -2.427 -34.208  1.00  0.00     0.079 A 
HETATM   21  C   UNL     1      -6.237  -3.049 -34.814  1.00  0.00     0.042 A 
HETATM   22  C   UNL     1      -6.237  -4.424 -35.041  1.00  0.00     0.005 A 
HETATM   23  C   UNL     1      -5.146  -5.179 -34.638  1.00  0.00     0.017 A 
HETATM   24  C   UNL     1      -4.090  -4.541 -34.006  1.00  0.00     0.089 A 
HETATM   25  N   UNL     1      -4.121  -3.212 -33.807  1.00  0.00    -0.357 N 
HETATM   26  H   UNL     1      -3.342  -2.791 -33.315  1.00  0.00     0.166 HD
ENDBRANCH  18  20
ENDBRANCH  17  18
ENDBRANCH   1  17
TORSDOF 6
ENDMDL
MODEL 2
REMARK VINA RESULT:      -7.7      3.427      7.663
REMARK  6 active torsions:
REMARK  status: ('A' for Active; 'I' for Inactive)
REMARK    1  A    between atoms: C_3  and  N_4 
REMARK    2  A    between atoms: N_4  and  C_5 
REMARK    3  A    between atoms: C_5  and  C_6 
REMARK    4  A    between atoms: N_8  and  C_10 
REMARK    5  A    between atoms: C_10  and  C_11 
REMARK    6  A    between atoms: C_12  and  O_13 
ROOT
HETATM    1  C   UNL     1      -7.567   1.203 -32.031  1.00  0.00     0.026 C 
HETATM    2  C   UNL     1      -6.817  -0.118 -31.896  1.00  0.00     0.241 C 
HETATM    3  N   UNL     1      -5.363   0.288 -31.888  1.00  0.00    -0.067 N 
HETATM    4  H   UNL     1      -4.886  -0.228 -31.123  1.00  0.00     0.280 HD
HETATM    5  C   UNL     1      -5.287   1.767 -31.590  1.00  0.00     0.235 C 
HETATM    6  C   UNL     1      -6.706   2.139 -31.186  1.00  0.00     0.035 C 
ENDROOT
BRANCH   3   7
HETATM    7  C   UNL     1      -4.571  -0.124 -33.107  1.00  0.00     0.276 C 
BRANCH   7   8
HETATM    8  C   UNL     1      -4.410  -1.614 -33.234  1.00  0.00     0.002 A 
HETATM    9  C   UNL     1      -3.471  -2.311 -32.461  1.00  0.00     0.073 A 
HETATM   10  C   UNL     1      -3.298  -3.687 -32.595  1.00  0.00     0.038 A 
HETATM   11  C   UNL     1      -4.076  -4.390 -33.515  1.00  0.00     0.022 A 
HETATM   12  C   UNL     1      -5.011  -3.712 -34.293  1.00  0.00     0.011 A 
HETATM   13 BR   UNL     1      -6.072  -4.665 -35.532  1.00  0.00    -0.051 Br
HETATM   14  C   UNL     1      -5.177  -2.332 -34.164  1.00  0.00     0.030 A 
BRANCH   9  15
HETATM   15  O   UNL     1      -2.737  -1.607 -31.544  1.00  0.00    -0.360 OA
HETATM   16  H   UNL     1      -1.804  -1.612 -31.847  1.00  0.00     0.217 HD
ENDBRANCH   9  15
ENDBRANCH   7   8
ENDBRANCH   3   7
BRANCH   1  17
HETATM   17  C   UNL     1      -9.034   1.119 -31.589  1.00  0.00     0.100 C 
BRANCH  17  18
HETATM   18  N   UNL     1      -9.735   0.143 -32.419  1.00  0.00    -0.279 NA
HETATM   19  H   UNL     1      -9.950  -0.721 -31.913  1.00  0.00     0.129 HD
BRANCH  18  20
HETATM   20  C   UNL     1     -10.824   0.477 -33.227  1.00  0.00     0.079 A 
HETATM   21  C   UNL     1     -10.707   1.546 -34.129  1.00  0.00     0.042 A 
HETATM   22  C   UNL     1     -11.789   1.925 -34.920  1.00  0.00     0.005 A 
HETATM   23  C   UNL     1     -12.994   1.251 -34.791  1.00  0.00     0.017 A 
HETATM   24  C   UNL     1     -13.090   0.226 -33.864  1.00  0.00     0.089 A 
HETATM   25  N   UNL     1     -12.025  -0.117 -33.118  1.00  0.00    -0.357 N 
HETATM   26  H   UNL     1     -12.146  -0.851 -32.432  1.00  0.00     0.166 HD
ENDBRANCH  18  20
ENDBRANCH  17  18
ENDBRANCH   1  17
TORSDOF 6
ENDMDL
MODEL 3
REMARK VINA RESULT:      -7.7      5.587      7.443
REMARK  6 active torsions:
REMARK  status: ('A' for Active; 'I' for Inactive)
REMARK    1  A    between atoms: C_3  and  N_4 
REMARK    2  A    between atoms: N_4  and  C_5 
REMARK    3  A    between atoms: C_5  and  C_6 
REMARK    4  A    between atoms: N_8  and  C_10 
REMARK    5  A    between atoms: C_10  and  C_11 
REMARK    6  A    between atoms: C_12  and  O_13 
ROOT
HETATM    1  C   UNL     1      -4.814   0.729 -32.345  1.00  0.00     0.026 C 
HETATM    2  C   UNL     1      -3.580   1.625 -32.304  1.00  0.00     0.241 C 
HETATM    3  N   UNL     1      -4.141   3.007 -32.073  1.00  0.00    -0.067 N 
HETATM    4  H   UNL     1      -3.575   3.469 -31.335  1.00  0.00     0.280 HD
HETATM    5  C   UNL     1      -5.559   2.864 -31.573  1.00  0.00     0.235 C 
HETATM    6  C   UNL     1      -5.706   1.377 -31.289  1.00  0.00     0.035 C 
ENDROOT
BRANCH   3   7
HETATM    7  C   UNL     1      -4.005   3.961 -33.237  1.00  0.00     0.276 C 
BRANCH   7   8
HETATM    8  C   UNL     1      -2.856   4.920 -33.086  1.00  0.00     0.002 A 
HETATM    9  C   UNL     1      -2.613   5.918 -34.040  1.00  0.00     0.073 A 
HETATM   10  C   UNL     1      -1.534   6.791 -33.920  1.00  0.00     0.038 A 
HETATM   11  C   UNL     1      -0.675   6.674 -32.827  1.00  0.00     0.022 A 
HETATM   12  C   UNL     1      -0.900   5.685 -31.872  1.00  0.00     0.011 A 
HETATM   13 BR   UNL     1       0.256   5.532 -30.386  1.00  0.00    -0.051 Br
HETATM   14  C   UNL     1      -1.977   4.806 -31.999  1.00  0.00     0.030 A 
BRANCH   9  15
HETATM   15  O   UNL     1      -3.485   6.035 -35.091  1.00  0.00    -0.360 OA
HETATM   16  H   UNL     1      -4.358   5.707 -34.786  1.00  0.00     0.217 HD
ENDBRANCH   9  15
ENDBRANCH   7   8
ENDBRANCH   3   7
BRANCH   1  17
HETATM   17  C   UNL     1      -4.501  -0.751 -32.092  1.00  0.00     0.100 C 
BRANCH  17  18
HETATM   18  N   UNL     1      -4.098  -1.384 -33.345  1.00  0.00    -0.279 NA
HETATM   19  H   UNL     1      -3.094  -1.586 -33.378  1.00  0.00     0.129 HD
BRANCH  18  20
HETATM   20  C   UNL     1      -4.793  -2.452 -33.913  1.00  0.00     0.079 A 
HETATM   21  C   UNL     1      -6.134  -2.277 -34.289  1.00  0.00     0.042 A 
HETATM   22  C   UNL     1      -6.864  -3.336 -34.824  1.00  0.00     0.005 A 
HETATM   23  C   UNL     1      -6.260  -4.577 -34.959  1.00  0.00     0.017 A 
HETATM   24  C   UNL     1      -4.947  -4.729 -34.543  1.00  0.00     0.089 A 
HETATM   25  N   UNL     1      -4.270  -3.684 -34.034  1.00  0.00    -0.357 N 
HETATM   26  H   UNL     1      -3.323  -3.847 -33.714  1.00  0.00     0.166 HD
ENDBRANCH  18  20
ENDBRANCH  17  18
ENDBRANCH   1  17
TORSDOF 6
ENDMDL
MODEL 4
REMARK VINA RESULT:      -7.4      7.360      9.872
REMARK  6 active torsions:
REMARK  status: ('A' for Active; 'I' for Inactive)
REMARK    1  A    between atoms: C_3  and  N_4 
REMARK    2  A    between atoms: N_4  and  C_5 
REMARK    3  A    between atoms: C_5  and  C_6 
REMARK    4  A    between atoms: N_8  and  C_10 
REMARK    5  A    between atoms: C_10  and  C_11 
REMARK    6  A    between atoms: C_12  and  O_13 
ROOT
HETATM    1  C   UNL     1      -1.684   5.870 -32.068  1.00  0.00     0.026 C 
HETATM    2  C   UNL     1      -1.881   4.477 -31.480  1.00  0.00     0.241 C 
HETATM    3  N   UNL     1      -2.714   3.759 -32.515  1.00  0.00    -0.067 N 
HETATM    4  H   UNL     1      -2.304   2.817 -32.666  1.00  0.00     0.280 HD
HETATM    5  C   UNL     1      -2.629   4.534 -33.808  1.00  0.00     0.235 C 
HETATM    6  C   UNL     1      -1.538   5.563 -33.557  1.00  0.00     0.035 C 
ENDROOT
BRANCH   3   7
HETATM    7  C   UNL     1      -4.130   3.439 -32.094  1.00  0.00     0.276 C 
BRANCH   7   8
HETATM    8  C   UNL     1      -4.573   2.062 -32.505  1.00  0.00     0.002 A 
HETATM    9  C   UNL     1      -3.911   0.917 -32.039  1.00  0.00     0.073 A 
HETATM   10  C   UNL     1      -4.300  -0.360 -32.439  1.00  0.00     0.038 A 
HETATM   11  C   UNL     1      -5.371  -0.507 -33.320  1.00  0.00     0.022 A 
HETATM   12  C   UNL     1      -6.037   0.621 -33.795  1.00  0.00     0.011 A 
HETATM   13 BR   UNL     1      -7.495   0.422 -34.981  1.00  0.00    -0.051 Br
HETATM   14  C   UNL     1      -5.641   1.899 -33.400  1.00  0.00     0.030 A 
BRANCH   9  15
HETATM   15  O   UNL     1      -2.880   1.081 -31.152  1.00  0.00    -0.360 OA
HETATM   16  H   UNL     1      -2.044   1.063 -31.667  1.00  0.00     0.217 HD
ENDBRANCH   9  15
ENDBRANCH   7   8
ENDBRANCH   3   7
BRANCH   1  17
HETATM   17  C   UNL     1      -0.497   6.627 -31.457  1.00  0.00     0.100 C 
BRANCH  17  18
HETATM   18  N   UNL     1       0.025   5.874 -30.319  1.00  0.00    -0.279 NA
HETATM   19  H   UNL     1       0.864   5.337 -30.556  1.00  0.00     0.129 HD
BRANCH  18  20
HETATM   20  C   UNL     1       0.188   6.432 -29.051  1.00  0.00     0.079 A 
HETATM   21  C   UNL     1       0.912   7.626 -28.914  1.00  0.00     0.042 A 
HETATM   22  C   UNL     1       1.122   8.186 -27.656  1.00  0.00     0.005 A 
HETATM   23  C   UNL     1       0.632   7.537 -26.533  1.00  0.00     0.017 A 
HETATM   24  C   UNL     1      -0.045   6.339 -26.697  1.00  0.00     0.089 A 
HETATM   25  N   UNL     1      -0.234   5.828 -27.926  1.00  0.00    -0.357 N 
HETATM   26  H   UNL     1      -0.707   4.936 -27.998  1.00  0.00     0.166 HD
ENDBRANCH  18  20
ENDBRANCH  17  18
ENDBRANCH   1  17
TORSDOF 6
ENDMDL
MODEL 5
REMARK VINA RESULT:      -7.3      4.072      6.003
REMARK  6 active torsions:
REMARK  status: ('A' for Active; 'I' for Inactive)
REMARK    1  A    between atoms: C_3  and  N_4 
REMARK    2  A    between atoms: N_4  and  C_5 
REMARK    3  A    between atoms: C_5  and  C_6 
REMARK    4  A    between atoms: N_8  and  C_10 
REMARK    5  A    between atoms: C_10  and  C_11 
REMARK    6  A    between atoms: C_12  and  O_13 
ROOT
HETATM    1  C   UNL     1      -7.233   1.188 -34.349  1.00  0.00     0.026 C 
HETATM    2  C   UNL     1      -6.166   1.560 -33.325  1.00  0.00     0.241 C 
HETATM    3  N   UNL     1      -6.859   2.549 -32.419  1.00  0.00    -0.067 N 
HETATM    4  H   UNL     1      -6.644   2.295 -31.436  1.00  0.00     0.280 HD
HETATM    5  C   UNL     1      -8.348   2.422 -32.634  1.00  0.00     0.235 C 
HETATM    6  C   UNL     1      -8.497   1.176 -33.492  1.00  0.00     0.035 C 
ENDROOT
BRANCH   3   7
HETATM    7  C   UNL     1      -6.355   3.970 -32.511  1.00  0.00     0.276 C 
BRANCH   7   8
HETATM    8  C   UNL     1      -4.856   4.074 -32.431  1.00  0.00     0.002 A 
HETATM    9  C   UNL     1      -4.166   3.733 -31.260  1.00  0.00     0.073 A 
HETATM   10  C   UNL     1      -2.781   3.854 -31.172  1.00  0.00     0.038 A 
HETATM   11  C   UNL     1      -2.061   4.323 -32.271  1.00  0.00     0.022 A 
HETATM   12  C   UNL     1      -2.732   4.670 -33.442  1.00  0.00     0.011 A 
HETATM   13 BR   UNL     1      -1.758   5.294 -34.934  1.00  0.00    -0.051 Br
HETATM   14  C   UNL     1      -4.121   4.556 -33.525  1.00  0.00     0.030 A 
BRANCH   9  15
HETATM   15  O   UNL     1      -4.887   3.248 -30.201  1.00  0.00    -0.360 OA
HETATM   16  H   UNL     1      -5.157   4.015 -29.653  1.00  0.00     0.217 HD
ENDBRANCH   9  15
ENDBRANCH   7   8
ENDBRANCH   3   7
BRANCH   1  17
HETATM   17  C   UNL     1      -6.946  -0.132 -35.077  1.00  0.00     0.100 C 
BRANCH  17  18
HETATM   18  N   UNL     1      -5.827  -0.810 -34.428  1.00  0.00    -0.279 NA
HETATM   19  H   UNL     1      -5.691  -0.505 -33.460  1.00  0.00     0.129 HD
BRANCH  18  20
HETATM   20  C   UNL     1      -5.632  -2.190 -34.499  1.00  0.00     0.079 A 
HETATM   21  C   UNL     1      -6.724  -3.024 -34.786  1.00  0.00     0.042 A 
HETATM   22  C   UNL     1      -6.567  -4.407 -34.826  1.00  0.00     0.005 A 
HETATM   23  C   UNL     1      -5.324  -4.958 -34.553  1.00  0.00     0.017 A 
HETATM   24  C   UNL     1      -4.275  -4.111 -34.234  1.00  0.00     0.089 A 
HETATM   25  N   UNL     1      -4.460  -2.780 -34.208  1.00  0.00    -0.357 N 
HETATM   26  H   UNL     1      -3.675  -2.200 -33.941  1.00  0.00     0.166 HD
ENDBRANCH  18  20
ENDBRANCH  17  18
ENDBRANCH   1  17
TORSDOF 6
ENDMDL
MODEL 6
REMARK VINA RESULT:      -7.3      5.463      7.568
REMARK  6 active torsions:
REMARK  status: ('A' for Active; 'I' for Inactive)
REMARK    1  A    between atoms: C_3  and  N_4 
REMARK    2  A    between atoms: N_4  and  C_5 
REMARK    3  A    between atoms: C_5  and  C_6 
REMARK    4  A    between atoms: N_8  and  C_10 
REMARK    5  A    between atoms: C_10  and  C_11 
REMARK    6  A    between atoms: C_12  and  O_13 
ROOT
HETATM    1  C   UNL     1      -4.010   2.308 -31.992  1.00  0.00     0.026 C 
HETATM    2  C   UNL     1      -5.164   2.538 -31.022  1.00  0.00     0.241 C 
HETATM    3  N   UNL     1      -5.534   1.148 -30.561  1.00  0.00    -0.067 N 
HETATM    4  H   UNL     1      -5.652   1.169 -29.530  1.00  0.00     0.280 HD
HETATM    5  C   UNL     1      -4.390   0.220 -30.896  1.00  0.00     0.235 C 
HETATM    6  C   UNL     1      -3.268   1.151 -31.329  1.00  0.00     0.035 C 
ENDROOT
BRANCH   3   7
HETATM    7  C   UNL     1      -6.877   0.647 -31.037  1.00  0.00     0.276 C 
BRANCH   7   8
HETATM    8  C   UNL     1      -6.900   0.316 -32.504  1.00  0.00     0.002 A 
HETATM    9  C   UNL     1      -7.459   1.198 -33.439  1.00  0.00     0.073 A 
HETATM   10  C   UNL     1      -7.508   0.883 -34.795  1.00  0.00     0.038 A 
HETATM   11  C   UNL     1      -6.990  -0.334 -35.237  1.00  0.00     0.022 A 
HETATM   12  C   UNL     1      -6.435  -1.224 -34.320  1.00  0.00     0.011 A 
HETATM   13 BR   UNL     1      -5.724  -2.869 -34.918  1.00  0.00    -0.051 Br
HETATM   14  C   UNL     1      -6.394  -0.911 -32.961  1.00  0.00     0.030 A 
BRANCH   9  15
HETATM   15  O   UNL     1      -7.936   2.401 -32.989  1.00  0.00    -0.360 OA
HETATM   16  H   UNL     1      -8.316   2.873 -33.761  1.00  0.00     0.217 HD
ENDBRANCH   9  15
ENDBRANCH   7   8
ENDBRANCH   3   7
BRANCH   1  17
HETATM   17  C   UNL     1      -3.154   3.560 -32.229  1.00  0.00     0.100 C 
BRANCH  17  18
HETATM   18  N   UNL     1      -2.133   3.652 -31.189  1.00  0.00    -0.279 NA
HETATM   19  H   UNL     1      -1.581   2.793 -31.104  1.00  0.00     0.129 HD
BRANCH  18  20
HETATM   20  C   UNL     1      -1.282   4.751 -31.057  1.00  0.00     0.079 A 
HETATM   21  C   UNL     1      -1.208   5.691 -32.096  1.00  0.00     0.042 A 
HETATM   22  C   UNL     1      -0.340   6.777 -32.007  1.00  0.00     0.005 A 
HETATM   23  C   UNL     1       0.472   6.908 -30.891  1.00  0.00     0.017 A 
HETATM   24  C   UNL     1       0.405   5.942 -29.900  1.00  0.00     0.089 A 
HETATM   25  N   UNL     1      -0.447   4.908 -30.015  1.00  0.00    -0.357 N 
HETATM   26  H   UNL     1      -0.443   4.210 -29.283  1.00  0.00     0.166 HD
ENDBRANCH  18  20
ENDBRANCH  17  18
ENDBRANCH   1  17
TORSDOF 6
ENDMDL
MODEL 7
REMARK VINA RESULT:      -7.1      4.837      8.008
REMARK  6 active torsions:
REMARK  status: ('A' for Active; 'I' for Inactive)
REMARK    1  A    between atoms: C_3  and  N_4 
REMARK    2  A    between atoms: N_4  and  C_5 
REMARK    3  A    between atoms: C_5  and  C_6 
REMARK    4  A    between atoms: N_8  and  C_10 
REMARK    5  A    between atoms: C_10  and  C_11 
REMARK    6  A    between atoms: C_12  and  O_13 
ROOT
HETATM    1  C   UNL     1      -6.332   2.534 -32.721  1.00  0.00     0.026 C 
HETATM    2  C   UNL     1      -5.941   1.480 -33.751  1.00  0.00     0.241 C 
HETATM    3  N   UNL     1      -5.837   0.206 -32.948  1.00  0.00    -0.067 N 
HETATM    4  H   UNL     1      -6.324  -0.548 -33.470  1.00  0.00     0.280 HD
HETATM    5  C   UNL     1      -6.550   0.418 -31.633  1.00  0.00     0.235 C 
HETATM    6  C   UNL     1      -7.269   1.747 -31.809  1.00  0.00     0.035 C 
ENDROOT
BRANCH   3   7
HETATM    7  C   UNL     1      -4.440  -0.349 -32.795  1.00  0.00     0.276 C 
BRANCH   7   8
HETATM    8  C   UNL     1      -4.350  -1.819 -33.096  1.00  0.00     0.002 A 
HETATM    9  C   UNL     1      -3.390  -2.631 -32.475  1.00  0.00     0.073 A 
HETATM   10  C   UNL     1      -3.284  -3.987 -32.773  1.00  0.00     0.038 A 
HETATM   11  C   UNL     1      -4.151  -4.556 -33.706  1.00  0.00     0.022 A 
HETATM   12  C   UNL     1      -5.108  -3.763 -34.335  1.00  0.00     0.011 A 
HETATM   13 BR   UNL     1      -6.289  -4.533 -35.592  1.00  0.00    -0.051 Br
HETATM   14  C   UNL     1      -5.207  -2.402 -34.043  1.00  0.00     0.030 A 
BRANCH   9  15
HETATM   15  O   UNL     1      -2.568  -2.060 -31.541  1.00  0.00    -0.360 OA
HETATM   16  H   UNL     1      -2.586  -1.089 -31.687  1.00  0.00     0.217 HD
ENDBRANCH   9  15
ENDBRANCH   7   8
ENDBRANCH   3   7
BRANCH   1  17
HETATM   17  C   UNL     1      -6.956   3.791 -33.342  1.00  0.00     0.100 C 
BRANCH  17  18
HETATM   18  N   UNL     1      -6.181   4.963 -32.949  1.00  0.00    -0.279 NA
HETATM   19  H   UNL     1      -6.283   5.186 -31.954  1.00  0.00     0.129 HD
BRANCH  18  20
HETATM   20  C   UNL     1      -4.849   5.152 -33.319  1.00  0.00     0.079 A 
HETATM   21  C   UNL     1      -4.497   5.081 -34.676  1.00  0.00     0.042 A 
HETATM   22  C   UNL     1      -3.169   5.228 -35.072  1.00  0.00     0.005 A 
HETATM   23  C   UNL     1      -2.191   5.418 -34.108  1.00  0.00     0.017 A 
HETATM   24  C   UNL     1      -2.564   5.444 -32.774  1.00  0.00     0.089 A 
HETATM   25  N   UNL     1      -3.855   5.304 -32.427  1.00  0.00    -0.357 N 
HETATM   26  H   UNL     1      -4.080   5.298 -31.440  1.00  0.00     0.166 HD
ENDBRANCH  18  20
ENDBRANCH  17  18
ENDBRANCH   1  17
TORSDOF 6
ENDMDL
MODEL 8
REMARK VINA RESULT:      -7.0      5.169      7.781
REMARK  6 active torsions:
REMARK  status: ('A' for Active; 'I' for Inactive)
REMARK    1  A    between atoms: C_3  and  N_4 
REMARK    2  A    between atoms: N_4  and  C_5 
REMARK    3  A    between atoms: C_5  and  C_6 
REMARK    4  A    between atoms: N_8  and  C_10 
REMARK    5  A    between atoms: C_10  and  C_11 
REMARK    6  A    between atoms: C_12  and  O_13 
ROOT
HETATM    1  C   UNL     1      -6.858   3.906 -33.302  1.00  0.00     0.026 C 
HETATM    2  C   UNL     1      -6.134   2.662 -33.805  1.00  0.00     0.241 C 
HETATM    3  N   UNL     1      -7.181   1.576 -33.729  1.00  0.00    -0.067 N 
HETATM    4  H   UNL     1      -7.151   1.034 -34.614  1.00  0.00     0.280 HD
HETATM    5  C   UNL     1      -8.536   2.235 -33.615  1.00  0.00     0.235 C 
HETATM    6  C   UNL     1      -8.259   3.707 -33.876  1.00  0.00     0.035 C 
ENDROOT
BRANCH   3   7
HETATM    7  C   UNL     1      -6.935   0.515 -32.683  1.00  0.00     0.276 C 
BRANCH   7   8
HETATM    8  C   UNL     1      -6.074  -0.615 -33.176  1.00  0.00     0.002 A 
HETATM    9  C   UNL     1      -4.685  -0.608 -32.982  1.00  0.00     0.073 A 
HETATM   10  C   UNL     1      -3.880  -1.638 -33.461  1.00  0.00     0.038 A 
HETATM   11  C   UNL     1      -4.463  -2.703 -34.148  1.00  0.00     0.022 A 
HETATM   12  C   UNL     1      -5.841  -2.724 -34.353  1.00  0.00     0.011 A 
HETATM   13 BR   UNL     1      -6.633  -4.170 -35.274  1.00  0.00    -0.051 Br
HETATM   14  C   UNL     1      -6.645  -1.686 -33.879  1.00  0.00     0.030 A 
BRANCH   9  15
HETATM   15  O   UNL     1      -4.136   0.432 -32.280  1.00  0.00    -0.360 OA
HETATM   16  H   UNL     1      -4.845   0.819 -31.723  1.00  0.00     0.217 HD
ENDBRANCH   9  15
ENDBRANCH   7   8
ENDBRANCH   3   7
BRANCH   1  17
HETATM   17  C   UNL     1      -6.179   5.217 -33.723  1.00  0.00     0.100 C 
BRANCH  17  18
HETATM   18  N   UNL     1      -5.044   4.919 -34.592  1.00  0.00    -0.279 NA
HETATM   19  H   UNL     1      -5.254   5.084 -35.581  1.00  0.00     0.129 HD
BRANCH  18  20
HETATM   20  C   UNL     1      -3.748   5.360 -34.325  1.00  0.00     0.079 A 
HETATM   21  C   UNL     1      -3.537   6.289 -33.294  1.00  0.00     0.042 A 
HETATM   22  C   UNL     1      -2.259   6.775 -33.029  1.00  0.00     0.005 A 
HETATM   23  C   UNL     1      -1.196   6.352 -33.812  1.00  0.00     0.017 A 
HETATM   24  C   UNL     1      -1.442   5.465 -34.848  1.00  0.00     0.089 A 
HETATM   25  N   UNL     1      -2.687   5.012 -35.074  1.00  0.00    -0.357 N 
HETATM   26  H   UNL     1      -2.827   4.389 -35.859  1.00  0.00     0.166 HD
ENDBRANCH  18  20
ENDBRANCH  17  18
ENDBRANCH   1  17
TORSDOF 6
ENDMDL
MODEL 9
REMARK VINA RESULT:      -7.0      6.370      8.556
REMARK  6 active torsions:
REMARK  status: ('A' for Active; 'I' for Inactive)
REMARK    1  A    between atoms: C_3  and  N_4 
REMARK    2  A    between atoms: N_4  and  C_5 
REMARK    3  A    between atoms: C_5  and  C_6 
REMARK    4  A    between atoms: N_8  and  C_10 
REMARK    5  A    between atoms: C_10  and  C_11 
REMARK    6  A    between atoms: C_12  and  O_13 
ROOT
HETATM    1  C   UNL     1      -2.802   4.604 -32.149  1.00  0.00     0.026 C 
HETATM    2  C   UNL     1      -2.941   3.136 -32.538  1.00  0.00     0.241 C 
HETATM    3  N   UNL     1      -4.415   2.971 -32.819  1.00  0.00    -0.067 N 
HETATM    4  H   UNL     1      -4.520   2.437 -33.703  1.00  0.00     0.280 HD
HETATM    5  C   UNL     1      -5.014   4.344 -33.012  1.00  0.00     0.235 C 
HETATM    6  C   UNL     1      -3.811   5.271 -33.081  1.00  0.00     0.035 C 
ENDROOT
BRANCH   3   7
HETATM    7  C   UNL     1      -5.169   2.117 -31.827  1.00  0.00     0.276 C 
BRANCH   7   8
HETATM    8  C   UNL     1      -5.992   1.040 -32.477  1.00  0.00     0.002 A 
HETATM    9  C   UNL     1      -5.387  -0.026 -33.158  1.00  0.00     0.073 A 
HETATM   10  C   UNL     1      -6.146  -1.011 -33.786  1.00  0.00     0.038 A 
HETATM   11  C   UNL     1      -7.538  -0.940 -33.739  1.00  0.00     0.022 A 
HETATM   12  C   UNL     1      -8.156   0.115 -33.070  1.00  0.00     0.011 A 
HETATM   13 BR   UNL     1     -10.041   0.206 -32.996  1.00  0.00    -0.051 Br
HETATM   14  C   UNL     1      -7.394   1.105 -32.448  1.00  0.00     0.030 A 
BRANCH   9  15
HETATM   15  O   UNL     1      -4.019  -0.093 -33.169  1.00  0.00    -0.360 OA
HETATM   16  H   UNL     1      -3.768  -0.894 -33.676  1.00  0.00     0.217 HD
ENDBRANCH   9  15
ENDBRANCH   7   8
ENDBRANCH   3   7
BRANCH   1  17
HETATM   17  C   UNL     1      -1.368   5.136 -32.280  1.00  0.00     0.100 C 
BRANCH  17  18
HETATM   18  N   UNL     1      -0.578   4.687 -31.136  1.00  0.00    -0.279 NA
HETATM   19  H   UNL     1       0.203   4.084 -31.411  1.00  0.00     0.129 HD
BRANCH  18  20
HETATM   20  C   UNL     1      -0.151   5.548 -30.125  1.00  0.00     0.079 A 
HETATM   21  C   UNL     1       0.045   6.907 -30.417  1.00  0.00     0.042 A 
HETATM   22  C   UNL     1       0.507   7.782 -29.437  1.00  0.00     0.005 A 
HETATM   23  C   UNL     1       0.798   7.293 -28.172  1.00  0.00     0.017 A 
HETATM   24  C   UNL     1       0.632   5.940 -27.925  1.00  0.00     0.089 A 
HETATM   25  N   UNL     1       0.180   5.123 -28.893  1.00  0.00    -0.357 N 
HETATM   26  H   UNL     1       0.102   4.137 -28.679  1.00  0.00     0.166 HD
ENDBRANCH  18  20
ENDBRANCH  17  18
ENDBRANCH   1  17
TORSDOF 6
ENDMDL
MODEL 10
REMARK VINA RESULT:      -6.9     14.269     16.882
REMARK  6 active torsions:
REMARK  status: ('A' for Active; 'I' for Inactive)
REMARK    1  A    between atoms: C_3  and  N_4 
REMARK    2  A    between atoms: N_4  and  C_5 
REMARK    3  A    between atoms: C_5  and  C_6 
REMARK    4  A    between atoms: N_8  and  C_10 
REMARK    5  A    between atoms: C_10  and  C_11 
REMARK    6  A    between atoms: C_12  and  O_13 
ROOT
HETATM    1  C   UNL     1      -5.028 -13.067 -40.625  1.00  0.00     0.026 C 
HETATM    2  C   UNL     1      -4.958 -14.088 -39.495  1.00  0.00     0.241 C 
HETATM    3  N   UNL     1      -5.573 -13.371 -38.317  1.00  0.00    -0.067 N 
HETATM    4  H   UNL     1      -6.237 -14.019 -37.852  1.00  0.00     0.280 HD
HETATM    5  C   UNL     1      -6.347 -12.184 -38.839  1.00  0.00     0.235 C 
HETATM    6  C   UNL     1      -6.365 -12.383 -40.347  1.00  0.00     0.035 C 
ENDROOT
BRANCH   3   7
HETATM    7  C   UNL     1      -4.614 -13.024 -37.202  1.00  0.00     0.276 C 
BRANCH   7   8
HETATM    8  C   UNL     1      -3.184 -13.355 -37.526  1.00  0.00     0.002 A 
HETATM    9  C   UNL     1      -2.376 -12.463 -38.245  1.00  0.00     0.073 A 
HETATM   10  C   UNL     1      -1.059 -12.778 -38.571  1.00  0.00     0.038 A 
HETATM   11  C   UNL     1      -0.527 -14.005 -38.175  1.00  0.00     0.022 A 
HETATM   12  C   UNL     1      -1.317 -14.905 -37.463  1.00  0.00     0.011 A 
HETATM   13 BR   UNL     1      -0.595 -16.562 -36.916  1.00  0.00    -0.051 Br
HETATM   14  C   UNL     1      -2.639 -14.591 -37.144  1.00  0.00     0.030 A 
BRANCH   9  15
HETATM   15  O   UNL     1      -2.908 -11.252 -38.600  1.00  0.00    -0.360 OA
HETATM   16  H   UNL     1      -2.159 -10.638 -38.762  1.00  0.00     0.217 HD
ENDBRANCH   9  15
ENDBRANCH   7   8
ENDBRANCH   3   7
BRANCH   1  17
HETATM   17  C   UNL     1      -4.914 -13.694 -42.021  1.00  0.00     0.100 C 
BRANCH  17  18
HETATM   18  N   UNL     1      -3.504 -13.831 -42.377  1.00  0.00    -0.279 NA
HETATM   19  H   UNL     1      -2.924 -13.089 -41.975  1.00  0.00     0.129 HD
BRANCH  18  20
HETATM   20  C   UNL     1      -2.814 -15.041 -42.292  1.00  0.00     0.079 A 
HETATM   21  C   UNL     1      -1.903 -15.239 -41.243  1.00  0.00     0.042 A 
HETATM   22  C   UNL     1      -1.173 -16.422 -41.154  1.00  0.00     0.005 A 
HETATM   23  C   UNL     1      -1.335 -17.395 -42.128  1.00  0.00     0.017 A 
HETATM   24  C   UNL     1      -2.213 -17.155 -43.172  1.00  0.00     0.089 A 
HETATM   25  N   UNL     1      -2.905 -16.003 -43.226  1.00  0.00    -0.357 N 
HETATM   26  H   UNL     1      -3.514 -15.855 -44.022  1.00  0.00     0.166 HD
ENDBRANCH  18  20
ENDBRANCH  17  18
ENDBRANCH   1  17
TORSDOF 6
ENDMDL
