MODEL 1
REMARK VINA RESULT:      -7.9      0.000      0.000
REMARK  7 active torsions:
REMARK  status: ('A' for Active; 'I' for Inactive)
REMARK    1  A    between atoms: C_2  and  O_3 
REMARK    2  A    between atoms: O_3  and  C_4 
REMARK       I    between atoms: C_4  and  N_5 
REMARK    3  A    between atoms: N_5  and  C_6 
REMARK    4  A    between atoms: C_7  and  N_8 
REMARK    5  A    between atoms: C_11  and  N_12 
REMARK    6  A    between atoms: N_12  and  C_13 
REMARK    7  A    between atoms: C_13  and  C_14 
ROOT
HETATM    1  C   UNL     1     -10.919   1.474 -33.511  1.00  0.00     0.080 A 
HETATM    2  C   UNL     1     -10.161   2.154 -34.497  1.00  0.00     0.127 A 
HETATM    3  N   UNL     1      -8.964   1.650 -34.821  1.00  0.00    -0.332 N 
HETATM    4  H   UNL     1      -8.426   2.095 -35.556  1.00  0.00     0.168 HD
HETATM    5  C   UNL     1      -8.407   0.567 -34.275  1.00  0.00     0.081 A 
HETATM    6  C   UNL     1      -9.107  -0.128 -33.301  1.00  0.00     0.044 A 
HETATM    7  C   UNL     1     -10.376   0.319 -32.935  1.00  0.00     0.037 A 
ENDROOT
BRANCH   5   8
HETATM    8  N   UNL     1      -7.139   0.252 -34.735  1.00  0.00    -0.275 NA
HETATM    9  H   UNL     1      -6.706   1.091 -35.132  1.00  0.00     0.129 HD
BRANCH   8  10
HETATM   10  C   UNL     1      -6.216  -0.233 -33.697  1.00  0.00     0.132 C 
BRANCH  10  11
HETATM   11  C   UNL     1      -5.854  -1.664 -34.008  1.00  0.00    -0.045 A 
HETATM   12  C   UNL     1      -4.563  -2.153 -33.742  1.00  0.00     0.011 A 
HETATM   13  C   UNL     1      -4.231  -3.474 -34.051  1.00  0.00     0.043 A 
HETATM   14  C   UNL     1      -5.185  -4.306 -34.624  1.00  0.00     0.116 A 
HETATM   15  F   UNL     1      -4.865  -5.571 -34.920  1.00  0.00    -0.206 F 
HETATM   16  C   UNL     1      -6.466  -3.843 -34.896  1.00  0.00     0.043 A 
HETATM   17  C   UNL     1      -6.801  -2.522 -34.593  1.00  0.00     0.011 A 
ENDBRANCH  10  11
ENDBRANCH   8  10
ENDBRANCH   5   8
BRANCH   2  18
HETATM   18  N   UNL     1     -10.627   3.191 -35.280  1.00  0.00    -0.384 N 
HETATM   19  H   UNL     1     -11.573   3.028 -35.653  1.00  0.00     0.157 HD
HETATM   20  H   UNL     1     -10.512   4.156 -35.001  1.00  0.00     0.157 HD
ENDBRANCH   2  18
BRANCH   1  21
HETATM   21  N   UNL     1     -12.192   1.850 -33.030  1.00  0.00    -0.299 N 
HETATM   22  C   UNL     1     -13.373   1.930 -33.711  1.00  0.00     0.365 C 
HETATM   23  O   UNL     1     -13.540   1.701 -34.900  1.00  0.00    -0.238 OA
HETATM   24  H   UNL     1     -12.268   2.242 -32.098  1.00  0.00     0.171 HD
BRANCH  22  25
HETATM   25  O   UNL     1     -14.328   2.368 -32.857  1.00  0.00    -0.304 OA
BRANCH  25  26
HETATM   26  C   UNL     1     -15.604   1.709 -32.935  1.00  0.00     0.176 C 
HETATM   27  C   UNL     1     -16.630   2.474 -32.119  1.00  0.00     0.034 C 
ENDBRANCH  25  26
ENDBRANCH  22  25
ENDBRANCH   1  21
TORSDOF 7
ENDMDL
MODEL 2
REMARK VINA RESULT:      -7.6      6.023      8.041
REMARK  7 active torsions:
REMARK  status: ('A' for Active; 'I' for Inactive)
REMARK    1  A    between atoms: C_2  and  O_3 
REMARK    2  A    between atoms: O_3  and  C_4 
REMARK       I    between atoms: C_4  and  N_5 
REMARK    3  A    between atoms: N_5  and  C_6 
REMARK    4  A    between atoms: C_7  and  N_8 
REMARK    5  A    between atoms: C_11  and  N_12 
REMARK    6  A    between atoms: N_12  and  C_13 
REMARK    7  A    between atoms: C_13  and  C_14 
ROOT
HETATM    1  C   UNL     1      -3.998   4.853 -33.301  1.00  0.00     0.080 A 
HETATM    2  C   UNL     1      -3.845   3.856 -32.305  1.00  0.00     0.127 A 
HETATM    3  N   UNL     1      -4.689   2.817 -32.327  1.00  0.00    -0.332 N 
HETATM    4  H   UNL     1      -4.567   2.071 -31.652  1.00  0.00     0.168 HD
HETATM    5  C   UNL     1      -5.686   2.649 -33.198  1.00  0.00     0.081 A 
HETATM    6  C   UNL     1      -5.881   3.602 -34.187  1.00  0.00     0.044 A 
HETATM    7  C   UNL     1      -5.020   4.696 -34.247  1.00  0.00     0.037 A 
ENDROOT
BRANCH   5   8
HETATM    8  N   UNL     1      -6.462   1.518 -33.006  1.00  0.00    -0.275 NA
HETATM    9  H   UNL     1      -6.730   1.134 -33.917  1.00  0.00     0.129 HD
BRANCH   8  10
HETATM   10  C   UNL     1      -5.784   0.428 -32.285  1.00  0.00     0.132 C 
BRANCH  10  11
HETATM   11  C   UNL     1      -5.771  -0.794 -33.169  1.00  0.00    -0.045 A 
HETATM   12  C   UNL     1      -4.567  -1.464 -33.451  1.00  0.00     0.011 A 
HETATM   13  C   UNL     1      -4.561  -2.583 -34.286  1.00  0.00     0.043 A 
HETATM   14  C   UNL     1      -5.754  -3.035 -34.837  1.00  0.00     0.116 A 
HETATM   15  F   UNL     1      -5.746  -4.108 -35.637  1.00  0.00    -0.206 F 
HETATM   16  C   UNL     1      -6.954  -2.388 -34.572  1.00  0.00     0.043 A 
HETATM   17  C   UNL     1      -6.964  -1.266 -33.742  1.00  0.00     0.011 A 
ENDBRANCH  10  11
ENDBRANCH   8  10
ENDBRANCH   5   8
BRANCH   2  18
HETATM   18  N   UNL     1      -2.787   3.774 -31.423  1.00  0.00    -0.384 N 
HETATM   19  H   UNL     1      -2.082   4.512 -31.560  1.00  0.00     0.157 HD
HETATM   20  H   UNL     1      -2.933   3.595 -30.439  1.00  0.00     0.157 HD
ENDBRANCH   2  18
BRANCH   1  21
HETATM   21  N   UNL     1      -3.218   6.021 -33.441  1.00  0.00    -0.299 N 
HETATM   22  C   UNL     1      -2.177   6.256 -34.294  1.00  0.00     0.365 C 
HETATM   23  O   UNL     1      -1.709   5.466 -35.100  1.00  0.00    -0.238 OA
HETATM   24  H   UNL     1      -3.320   6.764 -32.758  1.00  0.00     0.171 HD
BRANCH  22  25
HETATM   25  O   UNL     1      -1.703   7.501 -34.054  1.00  0.00    -0.304 OA
BRANCH  25  26
HETATM   26  C   UNL     1      -1.547   7.869 -32.673  1.00  0.00     0.176 C 
HETATM   27  C   UNL     1      -0.393   7.098 -32.060  1.00  0.00     0.034 C 
ENDBRANCH  25  26
ENDBRANCH  22  25
ENDBRANCH   1  21
TORSDOF 7
ENDMDL
MODEL 3
REMARK VINA RESULT:      -7.5      5.616      7.910
REMARK  7 active torsions:
REMARK  status: ('A' for Active; 'I' for Inactive)
REMARK    1  A    between atoms: C_2  and  O_3 
REMARK    2  A    between atoms: O_3  and  C_4 
REMARK       I    between atoms: C_4  and  N_5 
REMARK    3  A    between atoms: N_5  and  C_6 
REMARK    4  A    between atoms: C_7  and  N_8 
REMARK    5  A    between atoms: C_11  and  N_12 
REMARK    6  A    between atoms: N_12  and  C_13 
REMARK    7  A    between atoms: C_13  and  C_14 
ROOT
HETATM    1  C   UNL     1      -3.797   3.108 -31.218  1.00  0.00     0.080 A 
HETATM    2  C   UNL     1      -4.984   2.762 -30.526  1.00  0.00     0.127 A 
HETATM    3  N   UNL     1      -5.660   1.686 -30.947  1.00  0.00    -0.332 N 
HETATM    4  H   UNL     1      -6.487   1.395 -30.437  1.00  0.00     0.168 HD
HETATM    5  C   UNL     1      -5.324   0.918 -31.985  1.00  0.00     0.081 A 
HETATM    6  C   UNL     1      -4.173   1.221 -32.698  1.00  0.00     0.044 A 
HETATM    7  C   UNL     1      -3.399   2.309 -32.298  1.00  0.00     0.037 A 
ENDROOT
BRANCH   5   8
HETATM    8  N   UNL     1      -6.195  -0.121 -32.266  1.00  0.00    -0.275 NA
HETATM    9  H   UNL     1      -7.105   0.077 -31.839  1.00  0.00     0.129 HD
BRANCH   8  10
HETATM   10  C   UNL     1      -6.453  -0.330 -33.700  1.00  0.00     0.132 C 
BRANCH  10  11
HETATM   11  C   UNL     1      -6.052  -1.740 -34.057  1.00  0.00    -0.045 A 
HETATM   12  C   UNL     1      -7.004  -2.659 -34.534  1.00  0.00     0.011 A 
HETATM   13  C   UNL     1      -6.629  -3.967 -34.844  1.00  0.00     0.043 A 
HETATM   14  C   UNL     1      -5.305  -4.359 -34.680  1.00  0.00     0.116 A 
HETATM   15  F   UNL     1      -4.947  -5.614 -34.978  1.00  0.00    -0.206 F 
HETATM   16  C   UNL     1      -4.349  -3.468 -34.210  1.00  0.00     0.043 A 
HETATM   17  C   UNL     1      -4.722  -2.161 -33.894  1.00  0.00     0.011 A 
ENDBRANCH  10  11
ENDBRANCH   8  10
ENDBRANCH   5   8
BRANCH   2  18
HETATM   18  N   UNL     1      -5.407   3.335 -29.344  1.00  0.00    -0.384 N 
HETATM   19  H   UNL     1      -6.373   3.690 -29.384  1.00  0.00     0.157 HD
HETATM   20  H   UNL     1      -5.221   2.900 -28.450  1.00  0.00     0.157 HD
ENDBRANCH   2  18
BRANCH   1  21
HETATM   21  N   UNL     1      -2.953   4.205 -30.934  1.00  0.00    -0.299 N 
HETATM   22  C   UNL     1      -2.987   5.466 -31.458  1.00  0.00     0.365 C 
HETATM   23  O   UNL     1      -3.766   5.878 -32.304  1.00  0.00    -0.238 OA
HETATM   24  H   UNL     1      -2.123   4.052 -30.373  1.00  0.00     0.171 HD
BRANCH  22  25
HETATM   25  O   UNL     1      -1.966   6.176 -30.923  1.00  0.00    -0.304 OA
BRANCH  25  26
HETATM   26  C   UNL     1      -0.674   5.547 -30.941  1.00  0.00     0.176 C 
HETATM   27  C   UNL     1       0.409   6.595 -31.126  1.00  0.00     0.034 C 
ENDBRANCH  25  26
ENDBRANCH  22  25
ENDBRANCH   1  21
TORSDOF 7
ENDMDL
MODEL 4
REMARK VINA RESULT:      -7.4      1.761      2.054
REMARK  7 active torsions:
REMARK  status: ('A' for Active; 'I' for Inactive)
REMARK    1  A    between atoms: C_2  and  O_3 
REMARK    2  A    between atoms: O_3  and  C_4 
REMARK       I    between atoms: C_4  and  N_5 
REMARK    3  A    between atoms: N_5  and  C_6 
REMARK    4  A    between atoms: C_7  and  N_8 
REMARK    5  A    between atoms: C_11  and  N_12 
REMARK    6  A    between atoms: N_12  and  C_13 
REMARK    7  A    between atoms: C_13  and  C_14 
ROOT
HETATM    1  C   UNL     1     -10.333   1.807 -32.835  1.00  0.00     0.080 A 
HETATM    2  C   UNL     1      -9.493   1.754 -31.695  1.00  0.00     0.127 A 
HETATM    3  N   UNL     1      -8.299   1.162 -31.827  1.00  0.00    -0.332 N 
HETATM    4  H   UNL     1      -7.665   1.154 -31.037  1.00  0.00     0.168 HD
HETATM    5  C   UNL     1      -7.838   0.592 -32.943  1.00  0.00     0.081 A 
HETATM    6  C   UNL     1      -8.627   0.613 -34.083  1.00  0.00     0.044 A 
HETATM    7  C   UNL     1      -9.870   1.241 -34.030  1.00  0.00     0.037 A 
ENDROOT
BRANCH   5   8
HETATM    8  N   UNL     1      -6.590   0.002 -32.838  1.00  0.00    -0.275 NA
HETATM    9  H   UNL     1      -6.687  -0.917 -32.395  1.00  0.00     0.129 HD
BRANCH   8  10
HETATM   10  C   UNL     1      -5.916  -0.234 -34.125  1.00  0.00     0.132 C 
BRANCH  10  11
HETATM   11  C   UNL     1      -5.690  -1.717 -34.282  1.00  0.00    -0.045 A 
HETATM   12  C   UNL     1      -4.437  -2.288 -33.995  1.00  0.00     0.011 A 
HETATM   13  C   UNL     1      -4.231  -3.659 -34.161  1.00  0.00     0.043 A 
HETATM   14  C   UNL     1      -5.273  -4.461 -34.612  1.00  0.00     0.116 A 
HETATM   15  F   UNL     1      -5.074  -5.774 -34.771  1.00  0.00    -0.206 F 
HETATM   16  C   UNL     1      -6.518  -3.918 -34.902  1.00  0.00     0.043 A 
HETATM   17  C   UNL     1      -6.727  -2.547 -34.742  1.00  0.00     0.011 A 
ENDBRANCH  10  11
ENDBRANCH   8  10
ENDBRANCH   5   8
BRANCH   2  18
HETATM   18  N   UNL     1      -9.726   2.416 -30.508  1.00  0.00    -0.384 N 
HETATM   19  H   UNL     1     -10.604   2.137 -30.048  1.00  0.00     0.157 HD
HETATM   20  H   UNL     1      -8.991   2.553 -29.826  1.00  0.00     0.157 HD
ENDBRANCH   2  18
BRANCH   1  21
HETATM   21  N   UNL     1     -11.624   2.377 -32.896  1.00  0.00    -0.299 N 
HETATM   22  C   UNL     1     -12.006   3.658 -32.612  1.00  0.00     0.365 C 
HETATM   23  O   UNL     1     -11.280   4.561 -32.227  1.00  0.00    -0.238 OA
HETATM   24  H   UNL     1     -12.422   1.769 -33.039  1.00  0.00     0.171 HD
BRANCH  22  25
HETATM   25  O   UNL     1     -13.348   3.747 -32.773  1.00  0.00    -0.304 OA
BRANCH  25  26
HETATM   26  C   UNL     1     -14.149   3.450 -31.616  1.00  0.00     0.176 C 
HETATM   27  C   UNL     1     -15.134   2.341 -31.941  1.00  0.00     0.034 C 
ENDBRANCH  25  26
ENDBRANCH  22  25
ENDBRANCH   1  21
TORSDOF 7
ENDMDL
MODEL 5
REMARK VINA RESULT:      -7.2      1.923      2.851
REMARK  7 active torsions:
REMARK  status: ('A' for Active; 'I' for Inactive)
REMARK    1  A    between atoms: C_2  and  O_3 
REMARK    2  A    between atoms: O_3  and  C_4 
REMARK       I    between atoms: C_4  and  N_5 
REMARK    3  A    between atoms: N_5  and  C_6 
REMARK    4  A    between atoms: C_7  and  N_8 
REMARK    5  A    between atoms: C_11  and  N_12 
REMARK    6  A    between atoms: N_12  and  C_13 
REMARK    7  A    between atoms: C_13  and  C_14 
ROOT
HETATM    1  C   UNL     1      -9.251   0.886 -33.299  1.00  0.00     0.080 A 
HETATM    2  C   UNL     1      -8.831   1.015 -31.951  1.00  0.00     0.127 A 
HETATM    3  N   UNL     1      -7.547   0.764 -31.671  1.00  0.00    -0.332 N 
HETATM    4  H   UNL     1      -7.217   0.894 -30.721  1.00  0.00     0.168 HD
HETATM    5  C   UNL     1      -6.624   0.377 -32.554  1.00  0.00     0.081 A 
HETATM    6  C   UNL     1      -6.987   0.231 -33.884  1.00  0.00     0.044 A 
HETATM    7  C   UNL     1      -8.301   0.506 -34.257  1.00  0.00     0.037 A 
ENDROOT
BRANCH   5   8
HETATM    8  N   UNL     1      -5.364   0.133 -32.031  1.00  0.00    -0.275 NA
HETATM    9  H   UNL     1      -5.397  -0.712 -31.454  1.00  0.00     0.129 HD
BRANCH   8  10
HETATM   10  C   UNL     1      -4.320  -0.100 -33.041  1.00  0.00     0.132 C 
BRANCH  10  11
HETATM   11  C   UNL     1      -4.048  -1.582 -33.115  1.00  0.00    -0.045 A 
HETATM   12  C   UNL     1      -4.487  -2.339 -34.217  1.00  0.00     0.011 A 
HETATM   13  C   UNL     1      -4.248  -3.713 -34.269  1.00  0.00     0.043 A 
HETATM   14  C   UNL     1      -3.572  -4.333 -33.225  1.00  0.00     0.116 A 
HETATM   15  F   UNL     1      -3.345  -5.651 -33.276  1.00  0.00    -0.206 F 
HETATM   16  C   UNL     1      -3.131  -3.605 -32.127  1.00  0.00     0.043 A 
HETATM   17  C   UNL     1      -3.372  -2.231 -32.069  1.00  0.00     0.011 A 
ENDBRANCH  10  11
ENDBRANCH   8  10
ENDBRANCH   5   8
BRANCH   2  18
HETATM   18  N   UNL     1      -9.594   1.549 -30.932  1.00  0.00    -0.384 N 
HETATM   19  H   UNL     1     -10.399   0.962 -30.673  1.00  0.00     0.157 HD
HETATM   20  H   UNL     1      -9.167   1.956 -30.112  1.00  0.00     0.157 HD
ENDBRANCH   2  18
BRANCH   1  21
HETATM   21  N   UNL     1     -10.557   1.097 -33.792  1.00  0.00    -0.299 N 
HETATM   22  C   UNL     1     -11.102   2.240 -34.304  1.00  0.00     0.365 C 
HETATM   23  O   UNL     1     -10.545   3.322 -34.414  1.00  0.00    -0.238 OA
HETATM   24  H   UNL     1     -11.256   0.376 -33.652  1.00  0.00     0.171 HD
BRANCH  22  25
HETATM   25  O   UNL     1     -12.395   1.991 -34.618  1.00  0.00    -0.304 OA
BRANCH  25  26
HETATM   26  C   UNL     1     -13.170   1.298 -33.625  1.00  0.00     0.176 C 
HETATM   27  C   UNL     1     -14.380   0.651 -34.273  1.00  0.00     0.034 C 
ENDBRANCH  25  26
ENDBRANCH  22  25
ENDBRANCH   1  21
TORSDOF 7
ENDMDL
MODEL 6
REMARK VINA RESULT:      -7.2      6.166      8.247
REMARK  7 active torsions:
REMARK  status: ('A' for Active; 'I' for Inactive)
REMARK    1  A    between atoms: C_2  and  O_3 
REMARK    2  A    between atoms: O_3  and  C_4 
REMARK       I    between atoms: C_4  and  N_5 
REMARK    3  A    between atoms: N_5  and  C_6 
REMARK    4  A    between atoms: C_7  and  N_8 
REMARK    5  A    between atoms: C_11  and  N_12 
REMARK    6  A    between atoms: N_12  and  C_13 
REMARK    7  A    between atoms: C_13  and  C_14 
ROOT
HETATM    1  C   UNL     1      -3.405   4.603 -32.635  1.00  0.00     0.080 A 
HETATM    2  C   UNL     1      -4.680   4.540 -33.250  1.00  0.00     0.127 A 
HETATM    3  N   UNL     1      -5.327   3.369 -33.226  1.00  0.00    -0.332 N 
HETATM    4  H   UNL     1      -6.259   3.314 -33.620  1.00  0.00     0.168 HD
HETATM    5  C   UNL     1      -4.862   2.239 -32.688  1.00  0.00     0.081 A 
HETATM    6  C   UNL     1      -3.616   2.250 -32.079  1.00  0.00     0.044 A 
HETATM    7  C   UNL     1      -2.897   3.442 -32.037  1.00  0.00     0.037 A 
ENDROOT
BRANCH   5   8
HETATM    8  N   UNL     1      -5.687   1.134 -32.815  1.00  0.00    -0.275 NA
HETATM    9  H   UNL     1      -5.829   0.932 -33.809  1.00  0.00     0.129 HD
BRANCH   8  10
HETATM   10  C   UNL     1      -5.151  -0.100 -32.220  1.00  0.00     0.132 C 
BRANCH  10  11
HETATM   11  C   UNL     1      -5.388  -1.238 -33.181  1.00  0.00    -0.045 A 
HETATM   12  C   UNL     1      -4.325  -2.055 -33.604  1.00  0.00     0.011 A 
HETATM   13  C   UNL     1      -4.550  -3.094 -34.509  1.00  0.00     0.043 A 
HETATM   14  C   UNL     1      -5.834  -3.320 -34.990  1.00  0.00     0.116 A 
HETATM   15  F   UNL     1      -6.048  -4.316 -35.858  1.00  0.00    -0.206 F 
HETATM   16  C   UNL     1      -6.898  -2.524 -34.586  1.00  0.00     0.043 A 
HETATM   17  C   UNL     1      -6.677  -1.481 -33.685  1.00  0.00     0.011 A 
ENDBRANCH  10  11
ENDBRANCH   8  10
ENDBRANCH   5   8
BRANCH   2  18
HETATM   18  N   UNL     1      -5.389   5.628 -33.718  1.00  0.00    -0.384 N 
HETATM   19  H   UNL     1      -5.762   5.496 -34.668  1.00  0.00     0.157 HD
HETATM   20  H   UNL     1      -6.056   6.114 -33.134  1.00  0.00     0.157 HD
ENDBRANCH   2  18
BRANCH   1  21
HETATM   21  N   UNL     1      -2.567   5.738 -32.563  1.00  0.00    -0.299 N 
HETATM   22  C   UNL     1      -1.639   6.172 -33.467  1.00  0.00     0.365 C 
HETATM   23  O   UNL     1      -1.348   5.631 -34.523  1.00  0.00    -0.238 OA
HETATM   24  H   UNL     1      -2.518   6.257 -31.694  1.00  0.00     0.171 HD
BRANCH  22  25
HETATM   25  O   UNL     1      -1.046   7.282 -32.967  1.00  0.00    -0.304 OA
BRANCH  25  26
HETATM   26  C   UNL     1      -0.834   7.306 -31.545  1.00  0.00     0.176 C 
HETATM   27  C   UNL     1       0.561   6.803 -31.222  1.00  0.00     0.034 C 
ENDBRANCH  25  26
ENDBRANCH  22  25
ENDBRANCH   1  21
TORSDOF 7
ENDMDL
MODEL 7
REMARK VINA RESULT:      -7.1      2.048      2.687
REMARK  7 active torsions:
REMARK  status: ('A' for Active; 'I' for Inactive)
REMARK    1  A    between atoms: C_2  and  O_3 
REMARK    2  A    between atoms: O_3  and  C_4 
REMARK       I    between atoms: C_4  and  N_5 
REMARK    3  A    between atoms: N_5  and  C_6 
REMARK    4  A    between atoms: C_7  and  N_8 
REMARK    5  A    between atoms: C_11  and  N_12 
REMARK    6  A    between atoms: N_12  and  C_13 
REMARK    7  A    between atoms: C_13  and  C_14 
ROOT
HETATM    1  C   UNL     1     -10.970   1.393 -33.459  1.00  0.00     0.080 A 
HETATM    2  C   UNL     1     -10.173   2.045 -34.432  1.00  0.00     0.127 A 
HETATM    3  N   UNL     1      -8.991   1.496 -34.740  1.00  0.00    -0.332 N 
HETATM    4  H   UNL     1      -8.426   1.922 -35.466  1.00  0.00     0.168 HD
HETATM    5  C   UNL     1      -8.484   0.392 -34.187  1.00  0.00     0.081 A 
HETATM    6  C   UNL     1      -9.224  -0.277 -33.225  1.00  0.00     0.044 A 
HETATM    7  C   UNL     1     -10.480   0.217 -32.876  1.00  0.00     0.037 A 
ENDROOT
BRANCH   5   8
HETATM    8  N   UNL     1      -7.222   0.030 -34.629  1.00  0.00    -0.275 NA
HETATM    9  H   UNL     1      -6.556   0.770 -34.392  1.00  0.00     0.129 HD
BRANCH   8  10
HETATM   10  C   UNL     1      -6.695  -1.204 -34.025  1.00  0.00     0.132 C 
BRANCH  10  11
HETATM   11  C   UNL     1      -5.546  -0.840 -33.119  1.00  0.00    -0.045 A 
HETATM   12  C   UNL     1      -5.781  -0.371 -31.814  1.00  0.00     0.011 A 
HETATM   13  C   UNL     1      -4.712  -0.018 -30.988  1.00  0.00     0.043 A 
HETATM   14  C   UNL     1      -3.410  -0.134 -31.461  1.00  0.00     0.116 A 
HETATM   15  F   UNL     1      -2.387   0.205 -30.668  1.00  0.00    -0.206 F 
HETATM   16  C   UNL     1      -3.156  -0.594 -32.746  1.00  0.00     0.043 A 
HETATM   17  C   UNL     1      -4.222  -0.944 -33.577  1.00  0.00     0.011 A 
ENDBRANCH  10  11
ENDBRANCH   8  10
ENDBRANCH   5   8
BRANCH   2  18
HETATM   18  N   UNL     1     -10.588   3.099 -35.220  1.00  0.00    -0.384 N 
HETATM   19  H   UNL     1      -9.922   3.885 -35.236  1.00  0.00     0.157 HD
HETATM   20  H   UNL     1     -10.989   2.949 -36.136  1.00  0.00     0.157 HD
ENDBRANCH   2  18
BRANCH   1  21
HETATM   21  N   UNL     1     -12.235   1.816 -32.995  1.00  0.00    -0.299 N 
HETATM   22  C   UNL     1     -13.472   1.514 -33.492  1.00  0.00     0.365 C 
HETATM   23  O   UNL     1     -13.710   0.816 -34.466  1.00  0.00    -0.238 OA
HETATM   24  H   UNL     1     -12.281   2.539 -32.285  1.00  0.00     0.171 HD
BRANCH  22  25
HETATM   25  O   UNL     1     -14.398   2.171 -32.754  1.00  0.00    -0.304 OA
BRANCH  25  26
HETATM   26  C   UNL     1     -15.767   1.778 -32.954  1.00  0.00     0.176 C 
HETATM   27  C   UNL     1     -16.671   2.564 -32.021  1.00  0.00     0.034 C 
ENDBRANCH  25  26
ENDBRANCH  22  25
ENDBRANCH   1  21
TORSDOF 7
ENDMDL
MODEL 8
REMARK VINA RESULT:      -7.1      1.862      2.577
REMARK  7 active torsions:
REMARK  status: ('A' for Active; 'I' for Inactive)
REMARK    1  A    between atoms: C_2  and  O_3 
REMARK    2  A    between atoms: O_3  and  C_4 
REMARK       I    between atoms: C_4  and  N_5 
REMARK    3  A    between atoms: N_5  and  C_6 
REMARK    4  A    between atoms: C_7  and  N_8 
REMARK    5  A    between atoms: C_11  and  N_12 
REMARK    6  A    between atoms: N_12  and  C_13 
REMARK    7  A    between atoms: C_13  and  C_14 
ROOT
HETATM    1  C   UNL     1     -10.299   2.112 -33.747  1.00  0.00     0.080 A 
HETATM    2  C   UNL     1     -10.314   0.750 -33.355  1.00  0.00     0.127 A 
HETATM    3  N   UNL     1      -9.144   0.177 -33.044  1.00  0.00    -0.332 N 
HETATM    4  H   UNL     1      -9.139  -0.782 -32.717  1.00  0.00     0.168 HD
HETATM    5  C   UNL     1      -7.953   0.776 -33.094  1.00  0.00     0.081 A 
HETATM    6  C   UNL     1      -7.886   2.107 -33.479  1.00  0.00     0.044 A 
HETATM    7  C   UNL     1      -9.068   2.779 -33.787  1.00  0.00     0.037 A 
ENDROOT
BRANCH   5   8
HETATM    8  N   UNL     1      -6.870  -0.023 -32.768  1.00  0.00    -0.275 NA
HETATM    9  H   UNL     1      -7.198  -0.973 -32.573  1.00  0.00     0.129 HD
BRANCH   8  10
HETATM   10  C   UNL     1      -5.862  -0.149 -33.833  1.00  0.00     0.132 C 
BRANCH  10  11
HETATM   11  C   UNL     1      -5.674  -1.613 -34.144  1.00  0.00    -0.045 A 
HETATM   12  C   UNL     1      -6.750  -2.393 -34.605  1.00  0.00     0.011 A 
HETATM   13  C   UNL     1      -6.573  -3.752 -34.872  1.00  0.00     0.043 A 
HETATM   14  C   UNL     1      -5.325  -4.333 -34.681  1.00  0.00     0.116 A 
HETATM   15  F   UNL     1      -5.157  -5.636 -34.937  1.00  0.00    -0.206 F 
HETATM   16  C   UNL     1      -4.249  -3.581 -34.225  1.00  0.00     0.043 A 
HETATM   17  C   UNL     1      -4.423  -2.223 -33.953  1.00  0.00     0.011 A 
ENDBRANCH  10  11
ENDBRANCH   8  10
ENDBRANCH   5   8
BRANCH   2  18
HETATM   18  N   UNL     1     -11.451   0.013 -33.095  1.00  0.00    -0.384 N 
HETATM   19  H   UNL     1     -11.991   0.363 -32.291  1.00  0.00     0.157 HD
HETATM   20  H   UNL     1     -12.067  -0.287 -33.838  1.00  0.00     0.157 HD
ENDBRANCH   2  18
BRANCH   1  21
HETATM   21  N   UNL     1     -11.419   2.886 -34.120  1.00  0.00    -0.299 N 
HETATM   22  C   UNL     1     -12.366   2.618 -35.068  1.00  0.00     0.365 C 
HETATM   23  O   UNL     1     -12.403   1.639 -35.797  1.00  0.00    -0.238 OA
HETATM   24  H   UNL     1     -11.506   3.829 -33.757  1.00  0.00     0.171 HD
BRANCH  22  25
HETATM   25  O   UNL     1     -13.233   3.657 -35.109  1.00  0.00    -0.304 OA
BRANCH  25  26
HETATM   26  C   UNL     1     -12.772   4.895 -34.541  1.00  0.00     0.176 C 
HETATM   27  C   UNL     1     -12.719   5.967 -35.613  1.00  0.00     0.034 C 
ENDBRANCH  25  26
ENDBRANCH  22  25
ENDBRANCH   1  21
TORSDOF 7
ENDMDL
MODEL 9
REMARK VINA RESULT:      -7.0     14.164     15.223
REMARK  7 active torsions:
REMARK  status: ('A' for Active; 'I' for Inactive)
REMARK    1  A    between atoms: C_2  and  O_3 
REMARK    2  A    between atoms: O_3  and  C_4 
REMARK       I    between atoms: C_4  and  N_5 
REMARK    3  A    between atoms: N_5  and  C_6 
REMARK    4  A    between atoms: C_7  and  N_8 
REMARK    5  A    between atoms: C_11  and  N_12 
REMARK    6  A    between atoms: N_12  and  C_13 
REMARK    7  A    between atoms: C_13  and  C_14 
ROOT
HETATM    1  C   UNL     1      -7.475 -13.076 -39.455  1.00  0.00     0.080 A 
HETATM    2  C   UNL     1      -6.876 -12.909 -38.181  1.00  0.00     0.127 A 
HETATM    3  N   UNL     1      -5.621 -12.447 -38.137  1.00  0.00    -0.332 N 
HETATM    4  H   UNL     1      -5.191 -12.277 -37.235  1.00  0.00     0.168 HD
HETATM    5  C   UNL     1      -4.869 -12.148 -39.199  1.00  0.00     0.081 A 
HETATM    6  C   UNL     1      -5.409 -12.301 -40.467  1.00  0.00     0.044 A 
HETATM    7  C   UNL     1      -6.723 -12.748 -40.591  1.00  0.00     0.037 A 
ENDROOT
BRANCH   5   8
HETATM    8  N   UNL     1      -3.581 -11.724 -38.918  1.00  0.00    -0.275 NA
HETATM    9  H   UNL     1      -3.609 -10.754 -38.591  1.00  0.00     0.129 HD
BRANCH   8  10
HETATM   10  C   UNL     1      -2.903 -12.492 -37.861  1.00  0.00     0.132 C 
BRANCH  10  11
HETATM   11  C   UNL     1      -1.757 -13.250 -38.482  1.00  0.00    -0.045 A 
HETATM   12  C   UNL     1      -1.601 -13.302 -39.878  1.00  0.00     0.011 A 
HETATM   13  C   UNL     1      -0.548 -14.023 -40.445  1.00  0.00     0.043 A 
HETATM   14  C   UNL     1       0.350 -14.690 -39.621  1.00  0.00     0.116 A 
HETATM   15  F   UNL     1       1.359 -15.380 -40.166  1.00  0.00    -0.206 F 
HETATM   16  C   UNL     1       0.215 -14.652 -38.239  1.00  0.00     0.043 A 
HETATM   17  C   UNL     1      -0.839 -13.937 -37.668  1.00  0.00     0.011 A 
ENDBRANCH  10  11
ENDBRANCH   8  10
ENDBRANCH   5   8
BRANCH   2  18
HETATM   18  N   UNL     1      -7.539 -13.015 -36.975  1.00  0.00    -0.384 N 
HETATM   19  H   UNL     1      -8.036 -12.155 -36.704  1.00  0.00     0.157 HD
HETATM   20  H   UNL     1      -8.084 -13.834 -36.743  1.00  0.00     0.157 HD
ENDBRANCH   2  18
BRANCH   1  21
HETATM   21  N   UNL     1      -8.778 -13.557 -39.710  1.00  0.00    -0.299 N 
HETATM   22  C   UNL     1      -9.898 -12.850 -40.046  1.00  0.00     0.365 C 
HETATM   23  O   UNL     1      -9.979 -11.638 -40.172  1.00  0.00    -0.238 OA
HETATM   24  H   UNL     1      -8.992 -14.527 -39.506  1.00  0.00     0.171 HD
BRANCH  22  25
HETATM   25  O   UNL     1     -10.931 -13.719 -40.158  1.00  0.00    -0.304 OA
BRANCH  25  26
HETATM   26  C   UNL     1     -10.647 -14.965 -40.816  1.00  0.00     0.176 C 
HETATM   27  C   UNL     1     -11.739 -15.279 -41.822  1.00  0.00     0.034 C 
ENDBRANCH  25  26
ENDBRANCH  22  25
ENDBRANCH   1  21
TORSDOF 7
ENDMDL
MODEL 10
REMARK VINA RESULT:      -7.0      6.316      8.272
REMARK  7 active torsions:
REMARK  status: ('A' for Active; 'I' for Inactive)
REMARK    1  A    between atoms: C_2  and  O_3 
REMARK    2  A    between atoms: O_3  and  C_4 
REMARK       I    between atoms: C_4  and  N_5 
REMARK    3  A    between atoms: N_5  and  C_6 
REMARK    4  A    between atoms: C_7  and  N_8 
REMARK    5  A    between atoms: C_11  and  N_12 
REMARK    6  A    between atoms: N_12  and  C_13 
REMARK    7  A    between atoms: C_13  and  C_14 
ROOT
HETATM    1  C   UNL     1      -4.392   4.399 -31.251  1.00  0.00     0.080 A 
HETATM    2  C   UNL     1      -5.332   3.861 -30.337  1.00  0.00     0.127 A 
HETATM    3  N   UNL     1      -6.252   3.013 -30.814  1.00  0.00    -0.332 N 
HETATM    4  H   UNL     1      -6.904   2.583 -30.169  1.00  0.00     0.168 HD
HETATM    5  C   UNL     1      -6.376   2.646 -32.091  1.00  0.00     0.081 A 
HETATM    6  C   UNL     1      -5.484   3.151 -33.024  1.00  0.00     0.044 A 
HETATM    7  C   UNL     1      -4.477   4.014 -32.596  1.00  0.00     0.037 A 
ENDROOT
BRANCH   5   8
HETATM    8  N   UNL     1      -7.429   1.789 -32.364  1.00  0.00    -0.275 NA
HETATM    9  H   UNL     1      -7.463   1.607 -33.372  1.00  0.00     0.129 HD
BRANCH   8  10
HETATM   10  C   UNL     1      -7.331   0.473 -31.714  1.00  0.00     0.132 C 
BRANCH  10  11
HETATM   11  C   UNL     1      -6.669  -0.486 -32.671  1.00  0.00    -0.045 A 
HETATM   12  C   UNL     1      -5.317  -0.840 -32.513  1.00  0.00     0.011 A 
HETATM   13  C   UNL     1      -4.706  -1.714 -33.415  1.00  0.00     0.043 A 
HETATM   14  C   UNL     1      -5.442  -2.235 -34.472  1.00  0.00     0.116 A 
HETATM   15  F   UNL     1      -4.855  -3.072 -35.336  1.00  0.00    -0.206 F 
HETATM   16  C   UNL     1      -6.778  -1.898 -34.647  1.00  0.00     0.043 A 
HETATM   17  C   UNL     1      -7.391  -1.021 -33.750  1.00  0.00     0.011 A 
ENDBRANCH  10  11
ENDBRANCH   8  10
ENDBRANCH   5   8
BRANCH   2  18
HETATM   18  N   UNL     1      -5.270   3.998 -28.965  1.00  0.00    -0.384 N 
HETATM   19  H   UNL     1      -6.170   3.825 -28.495  1.00  0.00     0.157 HD
HETATM   20  H   UNL     1      -4.504   3.610 -28.430  1.00  0.00     0.157 HD
ENDBRANCH   2  18
BRANCH   1  21
HETATM   21  N   UNL     1      -3.356   5.309 -30.947  1.00  0.00    -0.299 N 
HETATM   22  C   UNL     1      -2.005   5.122 -31.021  1.00  0.00     0.365 C 
HETATM   23  O   UNL     1      -1.434   4.096 -31.357  1.00  0.00    -0.238 OA
HETATM   24  H   UNL     1      -3.590   6.183 -30.490  1.00  0.00     0.171 HD
BRANCH  22  25
HETATM   25  O   UNL     1      -1.395   6.254 -30.598  1.00  0.00    -0.304 OA
BRANCH  25  26
HETATM   26  C   UNL     1      -0.060   6.105 -30.086  1.00  0.00     0.176 C 
HETATM   27  C   UNL     1       0.346   7.357 -29.330  1.00  0.00     0.034 C 
ENDBRANCH  25  26
ENDBRANCH  22  25
ENDBRANCH   1  21
TORSDOF 7
ENDMDL
