MODEL 1
REMARK VINA RESULT:      -9.6      0.000      0.000
REMARK  8 active torsions:
REMARK  status: ('A' for Active; 'I' for Inactive)
REMARK    1  A    between atoms: C_4  and  C_5 
REMARK    2  A    between atoms: C_5  and  C_6 
REMARK    3  A    between atoms: C_5  and  C_31 
REMARK       I    between atoms: C_6  and  N_7 
REMARK    4  A    between atoms: N_7  and  C_8 
REMARK    5  A    between atoms: C_8  and  N_9 
REMARK    6  A    between atoms: N_9  and  C_10 
REMARK    7  A    between atoms: C_13  and  N_14 
REMARK       I    between atoms: N_17  and  C_18 
REMARK    8  A    between atoms: C_18  and  C_19 
ROOT
HETATM    1  N   UNL     1      -8.636   3.168 -33.988  1.00  0.00    -0.333 N 
HETATM    2  H   UNL     1      -9.241   3.701 -34.614  1.00  0.00     0.168 HD
ENDROOT
BRANCH   1   3
HETATM    3  C   UNL     1      -9.047   1.864 -33.844  1.00  0.00     0.178 C 
HETATM    4  S   UNL     1     -10.584   1.221 -33.776  1.00  0.00    -0.040 SA
BRANCH   3   5
HETATM    5  N   UNL     1      -8.009   0.955 -33.672  1.00  0.00    -0.303 N 
HETATM    6  C   UNL     1      -7.034   0.555 -34.581  1.00  0.00     0.236 C 
HETATM    7  O   UNL     1      -7.133   0.768 -35.793  1.00  0.00    -0.272 OA
HETATM    8  H   UNL     1      -7.900   0.655 -32.712  1.00  0.00     0.171 HD
BRANCH   6   9
HETATM    9  C   UNL     1      -5.817  -0.161 -33.977  1.00  0.00     0.144 C 
BRANCH   9  10
HETATM   10  C   UNL     1      -5.736  -1.668 -34.219  1.00  0.00    -0.041 A 
HETATM   11  C   UNL     1      -4.483  -2.298 -34.076  1.00  0.00     0.008 A 
HETATM   12  C   UNL     1      -4.337  -3.672 -34.272  1.00  0.00     0.001 A 
HETATM   13  C   UNL     1      -5.441  -4.443 -34.618  1.00  0.00     0.000 A 
HETATM   14  C   UNL     1      -6.685  -3.840 -34.778  1.00  0.00     0.001 A 
HETATM   15  C   UNL     1      -6.834  -2.462 -34.585  1.00  0.00     0.008 A 
ENDBRANCH   9  10
BRANCH   9  16
HETATM   16  C   UNL     1      -5.623   0.278 -32.523  1.00  0.00    -0.041 A 
HETATM   17  C   UNL     1      -4.880   1.443 -32.261  1.00  0.00     0.008 A 
HETATM   18  C   UNL     1      -4.728   1.914 -30.957  1.00  0.00     0.001 A 
HETATM   19  C   UNL     1      -5.319   1.232 -29.897  1.00  0.00     0.000 A 
HETATM   20  C   UNL     1      -6.061   0.079 -30.139  1.00  0.00     0.001 A 
HETATM   21  C   UNL     1      -6.217  -0.396 -31.443  1.00  0.00     0.008 A 
ENDBRANCH   9  16
ENDBRANCH   6   9
ENDBRANCH   3   5
ENDBRANCH   1   3
BRANCH   1  22
HETATM   22  C   UNL     1      -7.528   3.904 -33.518  1.00  0.00     0.034 A 
HETATM   23  C   UNL     1      -6.348   4.150 -34.210  1.00  0.00     0.031 A 
HETATM   24  C   UNL     1      -5.326   4.928 -33.633  1.00  0.00     0.026 A 
HETATM   25  C   UNL     1      -5.463   5.492 -32.360  1.00  0.00     0.010 A 
HETATM   26  C   UNL     1      -6.650   5.224 -31.670  1.00  0.00     0.026 A 
HETATM   27  C   UNL     1      -7.660   4.437 -32.231  1.00  0.00     0.031 A 
BRANCH  25  28
HETATM   28  N   UNL     1      -4.492   6.285 -31.741  1.00  0.00    -0.280 NA
HETATM   29  C   UNL     1      -3.904   5.651 -30.540  1.00  0.00     0.115 C 
HETATM   30  C   UNL     1      -2.600   6.370 -30.147  1.00  0.00     0.141 C 
HETATM   31  N   UNL     1      -2.737   7.833 -30.067  1.00  0.00    -0.345 N 
HETATM   32  C   UNL     1      -1.940   8.663 -29.268  1.00  0.00     0.260 C 
HETATM   33  C   UNL     1      -3.493   8.460 -31.162  1.00  0.00     0.141 C 
HETATM   34  O   UNL     1      -2.097   9.884 -29.280  1.00  0.00    -0.267 OA
HETATM   35  C   UNL     1      -4.790   7.713 -31.516  1.00  0.00     0.115 C 
BRANCH  32  36
HETATM   36  C   UNL     1      -0.922   8.037 -28.439  1.00  0.00     0.072 A 
HETATM   37  S   UNL     1      -1.346   7.500 -26.869  1.00  0.00    -0.097 SA
HETATM   38  C   UNL     1       0.246   6.958 -26.554  1.00  0.00     0.050 A 
HETATM   39  C   UNL     1       1.094   7.202 -27.611  1.00  0.00     0.009 A 
HETATM   40  C   UNL     1       0.423   7.840 -28.696  1.00  0.00     0.025 A 
ENDBRANCH  32  36
ENDBRANCH  25  28
ENDBRANCH   1  22
TORSDOF 8
ENDMDL
MODEL 2
REMARK VINA RESULT:      -9.4      1.541      2.113
REMARK  8 active torsions:
REMARK  status: ('A' for Active; 'I' for Inactive)
REMARK    1  A    between atoms: C_4  and  C_5 
REMARK    2  A    between atoms: C_5  and  C_6 
REMARK    3  A    between atoms: C_5  and  C_31 
REMARK       I    between atoms: C_6  and  N_7 
REMARK    4  A    between atoms: N_7  and  C_8 
REMARK    5  A    between atoms: C_8  and  N_9 
REMARK    6  A    between atoms: N_9  and  C_10 
REMARK    7  A    between atoms: C_13  and  N_14 
REMARK       I    between atoms: N_17  and  C_18 
REMARK    8  A    between atoms: C_18  and  C_19 
ROOT
HETATM    1  N   UNL     1      -9.427   1.660 -31.778  1.00  0.00    -0.333 N 
HETATM    2  H   UNL     1     -10.295   1.920 -31.305  1.00  0.00     0.168 HD
ENDROOT
BRANCH   1   3
HETATM    3  C   UNL     1      -9.576   0.549 -32.574  1.00  0.00     0.178 C 
HETATM    4  S   UNL     1     -10.959  -0.210 -33.117  1.00  0.00    -0.040 SA
BRANCH   3   5
HETATM    5  N   UNL     1      -8.379  -0.062 -32.928  1.00  0.00    -0.303 N 
HETATM    6  C   UNL     1      -7.701  -0.025 -34.144  1.00  0.00     0.236 C 
HETATM    7  O   UNL     1      -8.238   0.355 -35.188  1.00  0.00    -0.272 OA
HETATM    8  H   UNL     1      -7.899  -0.479 -32.141  1.00  0.00     0.171 HD
BRANCH   6   9
HETATM    9  C   UNL     1      -6.234  -0.477 -34.100  1.00  0.00     0.144 C 
BRANCH   9  10
HETATM   10  C   UNL     1      -5.986  -1.971 -34.306  1.00  0.00    -0.041 A 
HETATM   11  C   UNL     1      -4.668  -2.452 -34.168  1.00  0.00     0.008 A 
HETATM   12  C   UNL     1      -4.369  -3.805 -34.333  1.00  0.00     0.001 A 
HETATM   13  C   UNL     1      -5.383  -4.705 -34.643  1.00  0.00     0.000 A 
HETATM   14  C   UNL     1      -6.689  -4.250 -34.797  1.00  0.00     0.001 A 
HETATM   15  C   UNL     1      -6.991  -2.894 -34.635  1.00  0.00     0.008 A 
ENDBRANCH   9  10
BRANCH   9  16
HETATM   16  C   UNL     1      -5.535   0.139 -32.884  1.00  0.00    -0.041 A 
HETATM   17  C   UNL     1      -5.797  -0.396 -31.610  1.00  0.00     0.008 A 
HETATM   18  C   UNL     1      -5.137   0.093 -30.482  1.00  0.00     0.001 A 
HETATM   19  C   UNL     1      -4.203   1.116 -30.610  1.00  0.00     0.000 A 
HETATM   20  C   UNL     1      -3.929   1.654 -31.865  1.00  0.00     0.001 A 
HETATM   21  C   UNL     1      -4.586   1.169 -32.997  1.00  0.00     0.008 A 
ENDBRANCH   9  16
ENDBRANCH   6   9
ENDBRANCH   3   5
ENDBRANCH   1   3
BRANCH   1  22
HETATM   22  C   UNL     1      -8.364   2.552 -31.529  1.00  0.00     0.034 A 
HETATM   23  C   UNL     1      -7.730   2.760 -30.309  1.00  0.00     0.031 A 
HETATM   24  C   UNL     1      -6.658   3.666 -30.202  1.00  0.00     0.026 A 
HETATM   25  C   UNL     1      -6.181   4.373 -31.311  1.00  0.00     0.010 A 
HETATM   26  C   UNL     1      -6.838   4.164 -32.529  1.00  0.00     0.026 A 
HETATM   27  C   UNL     1      -7.915   3.280 -32.636  1.00  0.00     0.031 A 
BRANCH  25  28
HETATM   28  N   UNL     1      -5.112   5.272 -31.271  1.00  0.00    -0.280 NA
HETATM   29  C   UNL     1      -5.109   6.119 -30.058  1.00  0.00     0.115 C 
HETATM   30  C   UNL     1      -3.733   6.786 -29.880  1.00  0.00     0.141 C 
HETATM   31  N   UNL     1      -3.242   7.452 -31.097  1.00  0.00    -0.345 N 
HETATM   32  C   UNL     1      -2.345   8.529 -31.106  1.00  0.00     0.260 C 
HETATM   33  C   UNL     1      -3.416   6.698 -32.348  1.00  0.00     0.141 C 
HETATM   34  O   UNL     1      -1.957   9.013 -32.170  1.00  0.00    -0.267 OA
HETATM   35  C   UNL     1      -4.807   6.055 -32.485  1.00  0.00     0.115 C 
BRANCH  32  36
HETATM   36  C   UNL     1      -1.887   9.044 -29.826  1.00  0.00     0.072 A 
HETATM   37  S   UNL     1      -2.508  10.537 -29.261  1.00  0.00    -0.097 SA
HETATM   38  C   UNL     1      -1.552  10.472 -27.844  1.00  0.00     0.050 A 
HETATM   39  C   UNL     1      -0.754   9.351 -27.809  1.00  0.00     0.009 A 
HETATM   40  C   UNL     1      -0.935   8.532 -28.962  1.00  0.00     0.025 A 
ENDBRANCH  32  36
ENDBRANCH  25  28
ENDBRANCH   1  22
TORSDOF 8
ENDMDL
MODEL 3
REMARK VINA RESULT:      -9.4      1.484      3.556
REMARK  8 active torsions:
REMARK  status: ('A' for Active; 'I' for Inactive)
REMARK    1  A    between atoms: C_4  and  C_5 
REMARK    2  A    between atoms: C_5  and  C_6 
REMARK    3  A    between atoms: C_5  and  C_31 
REMARK       I    between atoms: C_6  and  N_7 
REMARK    4  A    between atoms: N_7  and  C_8 
REMARK    5  A    between atoms: C_8  and  N_9 
REMARK    6  A    between atoms: N_9  and  C_10 
REMARK    7  A    between atoms: C_13  and  N_14 
REMARK       I    between atoms: N_17  and  C_18 
REMARK    8  A    between atoms: C_18  and  C_19 
ROOT
HETATM    1  N   UNL     1     -10.133   2.400 -32.818  1.00  0.00    -0.333 N 
HETATM    2  H   UNL     1     -10.958   3.002 -32.849  1.00  0.00     0.168 HD
ENDROOT
BRANCH   1   3
HETATM    3  C   UNL     1     -10.423   1.095 -33.135  1.00  0.00     0.178 C 
HETATM    4  S   UNL     1     -11.834   0.414 -33.709  1.00  0.00    -0.040 SA
BRANCH   3   5
HETATM    5  N   UNL     1      -9.389   0.203 -32.879  1.00  0.00    -0.303 N 
HETATM    6  C   UNL     1      -8.299  -0.131 -33.679  1.00  0.00     0.236 C 
HETATM    7  O   UNL     1      -8.257   0.138 -34.882  1.00  0.00    -0.272 OA
HETATM    8  H   UNL     1      -9.388  -0.140 -31.927  1.00  0.00     0.171 HD
BRANCH   6   9
HETATM    9  C   UNL     1      -7.144  -0.845 -32.963  1.00  0.00     0.144 C 
BRANCH   9  10
HETATM   10  C   UNL     1      -6.083   0.057 -32.333  1.00  0.00    -0.041 A 
HETATM   11  C   UNL     1      -5.910   0.004 -30.935  1.00  0.00     0.008 A 
HETATM   12  C   UNL     1      -4.954   0.792 -30.293  1.00  0.00     0.001 A 
HETATM   13  C   UNL     1      -4.155   1.654 -31.037  1.00  0.00     0.000 A 
HETATM   14  C   UNL     1      -4.318   1.733 -32.417  1.00  0.00     0.001 A 
HETATM   15  C   UNL     1      -5.278   0.946 -33.062  1.00  0.00     0.008 A 
ENDBRANCH   9  10
BRANCH   9  16
HETATM   16  C   UNL     1      -6.600  -1.972 -33.846  1.00  0.00    -0.041 A 
HETATM   17  C   UNL     1      -5.227  -1.990 -34.151  1.00  0.00     0.008 A 
HETATM   18  C   UNL     1      -4.677  -3.029 -34.901  1.00  0.00     0.001 A 
HETATM   19  C   UNL     1      -5.487  -4.067 -35.353  1.00  0.00     0.000 A 
HETATM   20  C   UNL     1      -6.848  -4.067 -35.057  1.00  0.00     0.001 A 
HETATM   21  C   UNL     1      -7.404  -3.029 -34.306  1.00  0.00     0.008 A 
ENDBRANCH   9  16
ENDBRANCH   6   9
ENDBRANCH   3   5
ENDBRANCH   1   3
BRANCH   1  22
HETATM   22  C   UNL     1      -8.942   3.098 -32.532  1.00  0.00     0.034 A 
HETATM   23  C   UNL     1      -8.418   3.354 -31.270  1.00  0.00     0.031 A 
HETATM   24  C   UNL     1      -7.199   4.043 -31.123  1.00  0.00     0.026 A 
HETATM   25  C   UNL     1      -6.465   4.478 -32.231  1.00  0.00     0.010 A 
HETATM   26  C   UNL     1      -7.011   4.226 -33.495  1.00  0.00     0.026 A 
HETATM   27  C   UNL     1      -8.230   3.560 -33.645  1.00  0.00     0.031 A 
BRANCH  25  28
HETATM   28  N   UNL     1      -5.242   5.151 -32.151  1.00  0.00    -0.280 NA
HETATM   29  C   UNL     1      -4.952   5.669 -30.795  1.00  0.00     0.115 C 
HETATM   30  C   UNL     1      -3.461   6.036 -30.677  1.00  0.00     0.141 C 
HETATM   31  N   UNL     1      -2.976   6.884 -31.777  1.00  0.00    -0.345 N 
HETATM   32  C   UNL     1      -1.893   7.767 -31.680  1.00  0.00     0.260 C 
HETATM   33  C   UNL     1      -3.419   6.492 -33.123  1.00  0.00     0.141 C 
HETATM   34  O   UNL     1      -1.528   8.421 -32.657  1.00  0.00    -0.267 OA
HETATM   35  C   UNL     1      -4.916   6.140 -33.196  1.00  0.00     0.115 C 
BRANCH  32  36
HETATM   36  C   UNL     1      -1.215   7.876 -30.398  1.00  0.00     0.072 A 
HETATM   37  S   UNL     1       0.094   6.824 -30.060  1.00  0.00    -0.097 SA
HETATM   38  C   UNL     1       0.314   7.495 -28.502  1.00  0.00     0.050 A 
HETATM   39  C   UNL     1      -0.605   8.483 -28.229  1.00  0.00     0.009 A 
HETATM   40  C   UNL     1      -1.499   8.694 -29.319  1.00  0.00     0.025 A 
ENDBRANCH  32  36
ENDBRANCH  25  28
ENDBRANCH   1  22
TORSDOF 8
ENDMDL
MODEL 4
REMARK VINA RESULT:      -9.2      1.221      3.360
REMARK  8 active torsions:
REMARK  status: ('A' for Active; 'I' for Inactive)
REMARK    1  A    between atoms: C_4  and  C_5 
REMARK    2  A    between atoms: C_5  and  C_6 
REMARK    3  A    between atoms: C_5  and  C_31 
REMARK       I    between atoms: C_6  and  N_7 
REMARK    4  A    between atoms: N_7  and  C_8 
REMARK    5  A    between atoms: C_8  and  N_9 
REMARK    6  A    between atoms: N_9  and  C_10 
REMARK    7  A    between atoms: C_13  and  N_14 
REMARK       I    between atoms: N_17  and  C_18 
REMARK    8  A    between atoms: C_18  and  C_19 
ROOT
HETATM    1  N   UNL     1      -9.254   3.277 -34.217  1.00  0.00    -0.333 N 
HETATM    2  H   UNL     1      -9.253   3.695 -35.149  1.00  0.00     0.168 HD
ENDROOT
BRANCH   1   3
HETATM    3  C   UNL     1      -9.961   2.099 -34.168  1.00  0.00     0.178 C 
HETATM    4  S   UNL     1     -11.533   1.768 -34.619  1.00  0.00    -0.040 SA
BRANCH   3   5
HETATM    5  N   UNL     1      -9.265   1.039 -33.601  1.00  0.00    -0.303 N 
HETATM    6  C   UNL     1      -8.149   0.362 -34.085  1.00  0.00     0.236 C 
HETATM    7  O   UNL     1      -7.783   0.449 -35.260  1.00  0.00    -0.272 OA
HETATM    8  H   UNL     1      -9.555   0.837 -32.653  1.00  0.00     0.171 HD
BRANCH   6   9
HETATM    9  C   UNL     1      -7.393  -0.493 -33.058  1.00  0.00     0.144 C 
BRANCH   9  10
HETATM   10  C   UNL     1      -6.595   0.274 -32.004  1.00  0.00    -0.041 A 
HETATM   11  C   UNL     1      -5.854   1.399 -32.419  1.00  0.00     0.008 A 
HETATM   12  C   UNL     1      -5.110   2.153 -31.509  1.00  0.00     0.001 A 
HETATM   13  C   UNL     1      -5.089   1.793 -30.167  1.00  0.00     0.000 A 
HETATM   14  C   UNL     1      -5.802   0.677 -29.737  1.00  0.00     0.001 A 
HETATM   15  C   UNL     1      -6.546  -0.081 -30.647  1.00  0.00     0.008 A 
ENDBRANCH   9  10
BRANCH   9  16
HETATM   16  C   UNL     1      -6.627  -1.610 -33.771  1.00  0.00    -0.041 A 
HETATM   17  C   UNL     1      -5.221  -1.565 -33.784  1.00  0.00     0.008 A 
HETATM   18  C   UNL     1      -4.480  -2.591 -34.369  1.00  0.00     0.001 A 
HETATM   19  C   UNL     1      -5.129  -3.679 -34.944  1.00  0.00     0.000 A 
HETATM   20  C   UNL     1      -6.520  -3.742 -34.936  1.00  0.00     0.001 A 
HETATM   21  C   UNL     1      -7.267  -2.718 -34.352  1.00  0.00     0.008 A 
ENDBRANCH   9  16
ENDBRANCH   6   9
ENDBRANCH   3   5
ENDBRANCH   1   3
BRANCH   1  22
HETATM   22  C   UNL     1      -8.476   3.992 -33.283  1.00  0.00     0.034 A 
HETATM   23  C   UNL     1      -8.646   4.004 -31.903  1.00  0.00     0.031 A 
HETATM   24  C   UNL     1      -7.778   4.744 -31.078  1.00  0.00     0.026 A 
HETATM   25  C   UNL     1      -6.710   5.475 -31.607  1.00  0.00     0.010 A 
HETATM   26  C   UNL     1      -6.558   5.466 -32.997  1.00  0.00     0.026 A 
HETATM   27  C   UNL     1      -7.429   4.749 -33.823  1.00  0.00     0.031 A 
BRANCH  25  28
HETATM   28  N   UNL     1      -5.805   6.215 -30.839  1.00  0.00    -0.280 NA
HETATM   29  C   UNL     1      -4.518   5.517 -30.625  1.00  0.00     0.115 C 
HETATM   30  C   UNL     1      -3.451   6.513 -30.132  1.00  0.00     0.141 C 
HETATM   31  N   UNL     1      -3.898   7.342 -29.002  1.00  0.00    -0.345 N 
HETATM   32  C   UNL     1      -3.045   7.916 -28.051  1.00  0.00     0.260 C 
HETATM   33  C   UNL     1      -5.260   7.887 -29.114  1.00  0.00     0.141 C 
HETATM   34  O   UNL     1      -3.495   8.623 -27.150  1.00  0.00    -0.267 OA
HETATM   35  C   UNL     1      -6.293   6.856 -29.602  1.00  0.00     0.115 C 
BRANCH  32  36
HETATM   36  C   UNL     1      -1.619   7.655 -28.171  1.00  0.00     0.072 A 
HETATM   37  S   UNL     1      -0.871   6.598 -27.050  1.00  0.00    -0.097 SA
HETATM   38  C   UNL     1       0.664   6.813 -27.774  1.00  0.00     0.050 A 
HETATM   39  C   UNL     1       0.619   7.692 -28.833  1.00  0.00     0.009 A 
HETATM   40  C   UNL     1      -0.698   8.192 -29.054  1.00  0.00     0.025 A 
ENDBRANCH  32  36
ENDBRANCH  25  28
ENDBRANCH   1  22
TORSDOF 8
ENDMDL
MODEL 5
REMARK VINA RESULT:      -9.1      1.699      1.913
REMARK  8 active torsions:
REMARK  status: ('A' for Active; 'I' for Inactive)
REMARK    1  A    between atoms: C_4  and  C_5 
REMARK    2  A    between atoms: C_5  and  C_6 
REMARK    3  A    between atoms: C_5  and  C_31 
REMARK       I    between atoms: C_6  and  N_7 
REMARK    4  A    between atoms: N_7  and  C_8 
REMARK    5  A    between atoms: C_8  and  N_9 
REMARK    6  A    between atoms: N_9  and  C_10 
REMARK    7  A    between atoms: C_13  and  N_14 
REMARK       I    between atoms: N_17  and  C_18 
REMARK    8  A    between atoms: C_18  and  C_19 
ROOT
HETATM    1  N   UNL     1      -9.022   2.888 -33.837  1.00  0.00    -0.333 N 
HETATM    2  H   UNL     1      -9.382   3.390 -34.650  1.00  0.00     0.168 HD
ENDROOT
BRANCH   1   3
HETATM    3  C   UNL     1      -9.327   1.548 -33.868  1.00  0.00     0.178 C 
HETATM    4  S   UNL     1     -10.806   0.783 -33.975  1.00  0.00    -0.040 SA
BRANCH   3   5
HETATM    5  N   UNL     1      -8.228   0.710 -33.732  1.00  0.00    -0.303 N 
HETATM    6  C   UNL     1      -7.135   0.550 -34.579  1.00  0.00     0.236 C 
HETATM    7  O   UNL     1      -7.138   0.959 -35.743  1.00  0.00    -0.272 OA
HETATM    8  H   UNL     1      -8.183   0.260 -32.826  1.00  0.00     0.171 HD
BRANCH   6   9
HETATM    9  C   UNL     1      -5.918  -0.158 -33.967  1.00  0.00     0.144 C 
BRANCH   9  10
HETATM   10  C   UNL     1      -5.831  -1.666 -34.200  1.00  0.00    -0.041 A 
HETATM   11  C   UNL     1      -4.576  -2.291 -34.051  1.00  0.00     0.008 A 
HETATM   12  C   UNL     1      -4.425  -3.666 -34.239  1.00  0.00     0.001 A 
HETATM   13  C   UNL     1      -5.525  -4.442 -34.585  1.00  0.00     0.000 A 
HETATM   14  C   UNL     1      -6.770  -3.844 -34.751  1.00  0.00     0.001 A 
HETATM   15  C   UNL     1      -6.925  -2.466 -34.566  1.00  0.00     0.008 A 
ENDBRANCH   9  10
BRANCH   9  16
HETATM   16  C   UNL     1      -5.730   0.289 -32.514  1.00  0.00    -0.041 A 
HETATM   17  C   UNL     1      -5.097   1.519 -32.260  1.00  0.00     0.008 A 
HETATM   18  C   UNL     1      -4.958   1.994 -30.956  1.00  0.00     0.001 A 
HETATM   19  C   UNL     1      -5.454   1.252 -29.888  1.00  0.00     0.000 A 
HETATM   20  C   UNL     1      -6.088   0.034 -30.122  1.00  0.00     0.001 A 
HETATM   21  C   UNL     1      -6.229  -0.446 -31.425  1.00  0.00     0.008 A 
ENDBRANCH   9  16
ENDBRANCH   6   9
ENDBRANCH   3   5
ENDBRANCH   1   3
BRANCH   1  22
HETATM   22  C   UNL     1      -8.265   3.701 -32.968  1.00  0.00     0.034 A 
HETATM   23  C   UNL     1      -7.296   4.627 -33.339  1.00  0.00     0.031 A 
HETATM   24  C   UNL     1      -6.629   5.397 -32.368  1.00  0.00     0.026 A 
HETATM   25  C   UNL     1      -6.924   5.276 -31.006  1.00  0.00     0.010 A 
HETATM   26  C   UNL     1      -7.891   4.330 -30.646  1.00  0.00     0.026 A 
HETATM   27  C   UNL     1      -8.542   3.549 -31.604  1.00  0.00     0.031 A 
BRANCH  25  28
HETATM   28  N   UNL     1      -6.309   6.023 -29.997  1.00  0.00    -0.280 NA
HETATM   29  C   UNL     1      -4.860   5.746 -29.870  1.00  0.00     0.115 C 
HETATM   30  C   UNL     1      -4.180   6.853 -29.044  1.00  0.00     0.141 C 
HETATM   31  N   UNL     1      -4.865   7.144 -27.774  1.00  0.00    -0.345 N 
HETATM   32  C   UNL     1      -4.240   7.673 -26.638  1.00  0.00     0.260 C 
HETATM   33  C   UNL     1      -6.331   7.230 -27.850  1.00  0.00     0.141 C 
HETATM   34  O   UNL     1      -4.890   7.917 -25.621  1.00  0.00    -0.267 OA
HETATM   35  C   UNL     1      -6.968   6.101 -28.679  1.00  0.00     0.115 C 
BRANCH  32  36
HETATM   36  C   UNL     1      -2.810   7.930 -26.704  1.00  0.00     0.072 A 
HETATM   37  S   UNL     1      -1.723   6.711 -26.188  1.00  0.00    -0.097 SA
HETATM   38  C   UNL     1      -0.363   7.694 -26.520  1.00  0.00     0.050 A 
HETATM   39  C   UNL     1      -0.724   8.937 -26.990  1.00  0.00     0.009 A 
HETATM   40  C   UNL     1      -2.140   9.080 -27.083  1.00  0.00     0.025 A 
ENDBRANCH  32  36
ENDBRANCH  25  28
ENDBRANCH   1  22
TORSDOF 8
ENDMDL
MODEL 6
REMARK VINA RESULT:      -8.6      2.743     10.023
REMARK  8 active torsions:
REMARK  status: ('A' for Active; 'I' for Inactive)
REMARK    1  A    between atoms: C_4  and  C_5 
REMARK    2  A    between atoms: C_5  and  C_6 
REMARK    3  A    between atoms: C_5  and  C_31 
REMARK       I    between atoms: C_6  and  N_7 
REMARK    4  A    between atoms: N_7  and  C_8 
REMARK    5  A    between atoms: C_8  and  N_9 
REMARK    6  A    between atoms: N_9  and  C_10 
REMARK    7  A    between atoms: C_13  and  N_14 
REMARK       I    between atoms: N_17  and  C_18 
REMARK    8  A    between atoms: C_18  and  C_19 
ROOT
HETATM    1  N   UNL     1      -5.912   7.595 -31.432  1.00  0.00    -0.333 N 
HETATM    2  H   UNL     1      -6.910   7.799 -31.507  1.00  0.00     0.168 HD
ENDROOT
BRANCH   1   3
HETATM    3  C   UNL     1      -5.206   8.629 -30.866  1.00  0.00     0.178 C 
HETATM    4  S   UNL     1      -5.627  10.228 -30.646  1.00  0.00    -0.040 SA
BRANCH   3   5
HETATM    5  N   UNL     1      -3.918   8.289 -30.469  1.00  0.00    -0.303 N 
HETATM    6  C   UNL     1      -3.509   7.509 -29.391  1.00  0.00     0.236 C 
HETATM    7  O   UNL     1      -4.263   7.228 -28.455  1.00  0.00    -0.272 OA
HETATM    8  H   UNL     1      -3.212   8.556 -31.143  1.00  0.00     0.171 HD
BRANCH   6   9
HETATM    9  C   UNL     1      -2.058   7.008 -29.446  1.00  0.00     0.144 C 
BRANCH   9  10
HETATM   10  C   UNL     1      -1.025   7.862 -28.710  1.00  0.00    -0.041 A 
HETATM   11  C   UNL     1       0.317   7.433 -28.716  1.00  0.00     0.008 A 
HETATM   12  C   UNL     1       1.315   8.166 -28.073  1.00  0.00     0.001 A 
HETATM   13  C   UNL     1       0.989   9.343 -27.407  1.00  0.00     0.000 A 
HETATM   14  C   UNL     1      -0.332   9.778 -27.377  1.00  0.00     0.001 A 
HETATM   15  C   UNL     1      -1.335   9.043 -28.019  1.00  0.00     0.008 A 
ENDBRANCH   9  10
BRANCH   9  16
HETATM   16  C   UNL     1      -1.689   6.635 -30.885  1.00  0.00    -0.041 A 
HETATM   17  C   UNL     1      -1.679   5.277 -31.251  1.00  0.00     0.008 A 
HETATM   18  C   UNL     1      -1.408   4.894 -32.564  1.00  0.00     0.001 A 
HETATM   19  C   UNL     1      -1.150   5.860 -33.532  1.00  0.00     0.000 A 
HETATM   20  C   UNL     1      -1.160   7.210 -33.188  1.00  0.00     0.001 A 
HETATM   21  C   UNL     1      -1.431   7.599 -31.875  1.00  0.00     0.008 A 
ENDBRANCH   9  16
ENDBRANCH   6   9
ENDBRANCH   3   5
ENDBRANCH   1   3
BRANCH   1  22
HETATM   22  C   UNL     1      -5.572   6.296 -31.864  1.00  0.00     0.034 A 
HETATM   23  C   UNL     1      -5.079   5.946 -33.116  1.00  0.00     0.031 A 
HETATM   24  C   UNL     1      -4.752   4.609 -33.411  1.00  0.00     0.026 A 
HETATM   25  C   UNL     1      -4.894   3.592 -32.461  1.00  0.00     0.010 A 
HETATM   26  C   UNL     1      -5.404   3.957 -31.210  1.00  0.00     0.026 A 
HETATM   27  C   UNL     1      -5.748   5.280 -30.918  1.00  0.00     0.031 A 
BRANCH  25  28
HETATM   28  N   UNL     1      -4.572   2.251 -32.688  1.00  0.00    -0.280 NA
HETATM   29  C   UNL     1      -5.747   1.424 -33.044  1.00  0.00     0.115 C 
HETATM   30  C   UNL     1      -5.288   0.088 -33.657  1.00  0.00     0.141 C 
HETATM   31  N   UNL     1      -4.267  -0.606 -32.856  1.00  0.00    -0.345 N 
HETATM   32  C   UNL     1      -4.058  -1.991 -32.861  1.00  0.00     0.260 C 
HETATM   33  C   UNL     1      -3.189   0.245 -32.329  1.00  0.00     0.141 C 
HETATM   34  O   UNL     1      -3.161  -2.493 -32.185  1.00  0.00    -0.267 OA
HETATM   35  C   UNL     1      -3.693   1.565 -31.721  1.00  0.00     0.115 C 
BRANCH  32  36
HETATM   36  C   UNL     1      -4.926  -2.807 -33.696  1.00  0.00     0.072 A 
HETATM   37  S   UNL     1      -4.372  -4.339 -34.221  1.00  0.00    -0.097 SA
HETATM   38  C   UNL     1      -5.814  -4.635 -35.092  1.00  0.00     0.050 A 
HETATM   39  C   UNL     1      -6.694  -3.579 -35.010  1.00  0.00     0.009 A 
HETATM   40  C   UNL     1      -6.176  -2.515 -34.215  1.00  0.00     0.025 A 
ENDBRANCH  32  36
ENDBRANCH  25  28
ENDBRANCH   1  22
TORSDOF 8
ENDMDL
MODEL 7
REMARK VINA RESULT:      -8.6      3.681      6.777
REMARK  8 active torsions:
REMARK  status: ('A' for Active; 'I' for Inactive)
REMARK    1  A    between atoms: C_4  and  C_5 
REMARK    2  A    between atoms: C_5  and  C_6 
REMARK    3  A    between atoms: C_5  and  C_31 
REMARK       I    between atoms: C_6  and  N_7 
REMARK    4  A    between atoms: N_7  and  C_8 
REMARK    5  A    between atoms: C_8  and  N_9 
REMARK    6  A    between atoms: N_9  and  C_10 
REMARK    7  A    between atoms: C_13  and  N_14 
REMARK       I    between atoms: N_17  and  C_18 
REMARK    8  A    between atoms: C_18  and  C_19 
ROOT
HETATM    1  N   UNL     1      -1.229   4.699 -31.995  1.00  0.00    -0.333 N 
HETATM    2  H   UNL     1      -1.056   3.730 -31.721  1.00  0.00     0.168 HD
ENDROOT
BRANCH   1   3
HETATM    3  C   UNL     1      -1.908   4.795 -33.186  1.00  0.00     0.178 C 
HETATM    4  S   UNL     1      -1.471   5.532 -34.618  1.00  0.00    -0.040 SA
BRANCH   3   5
HETATM    5  N   UNL     1      -3.180   4.237 -33.163  1.00  0.00    -0.303 N 
HETATM    6  C   UNL     1      -3.679   3.221 -32.352  1.00  0.00     0.236 C 
HETATM    7  O   UNL     1      -2.943   2.474 -31.703  1.00  0.00    -0.272 OA
HETATM    8  H   UNL     1      -3.844   4.740 -33.738  1.00  0.00     0.171 HD
BRANCH   6   9
HETATM    9  C   UNL     1      -5.209   3.099 -32.307  1.00  0.00     0.144 C 
BRANCH   9  10
HETATM   10  C   UNL     1      -5.897   3.726 -31.094  1.00  0.00    -0.041 A 
HETATM   11  C   UNL     1      -7.267   3.461 -30.896  1.00  0.00     0.008 A 
HETATM   12  C   UNL     1      -7.958   3.991 -29.806  1.00  0.00     0.001 A 
HETATM   13  C   UNL     1      -7.292   4.801 -28.893  1.00  0.00     0.000 A 
HETATM   14  C   UNL     1      -5.942   5.087 -29.076  1.00  0.00     0.001 A 
HETATM   15  C   UNL     1      -5.248   4.559 -30.170  1.00  0.00     0.008 A 
ENDBRANCH   9  10
BRANCH   9  16
HETATM   16  C   UNL     1      -5.626   1.660 -32.622  1.00  0.00    -0.041 A 
HETATM   17  C   UNL     1      -6.181   1.377 -33.883  1.00  0.00     0.008 A 
HETATM   18  C   UNL     1      -6.520   0.071 -34.236  1.00  0.00     0.001 A 
HETATM   19  C   UNL     1      -6.306  -0.971 -33.339  1.00  0.00     0.000 A 
HETATM   20  C   UNL     1      -5.753  -0.709 -32.088  1.00  0.00     0.001 A 
HETATM   21  C   UNL     1      -5.412   0.596 -31.729  1.00  0.00     0.008 A 
ENDBRANCH   9  16
ENDBRANCH   6   9
ENDBRANCH   3   5
ENDBRANCH   1   3
BRANCH   1  22
HETATM   22  C   UNL     1      -0.784   5.637 -31.041  1.00  0.00     0.034 A 
HETATM   23  C   UNL     1      -1.152   6.976 -30.966  1.00  0.00     0.031 A 
HETATM   24  C   UNL     1      -0.652   7.802 -29.942  1.00  0.00     0.026 A 
HETATM   25  C   UNL     1       0.212   7.310 -28.958  1.00  0.00     0.010 A 
HETATM   26  C   UNL     1       0.585   5.965 -29.054  1.00  0.00     0.026 A 
HETATM   27  C   UNL     1       0.107   5.145 -30.080  1.00  0.00     0.031 A 
BRANCH  25  28
HETATM   28  N   UNL     1       0.728   8.076 -27.908  1.00  0.00    -0.280 NA
HETATM   29  C   UNL     1       1.215   7.256 -26.776  1.00  0.00     0.115 C 
HETATM   30  C   UNL     1       2.111   8.105 -25.855  1.00  0.00     0.141 C 
HETATM   31  N   UNL     1       1.507   9.390 -25.470  1.00  0.00    -0.345 N 
HETATM   32  C   UNL     1       1.813  10.091 -24.296  1.00  0.00     0.260 C 
HETATM   33  C   UNL     1       0.845  10.130 -26.555  1.00  0.00     0.141 C 
HETATM   34  O   UNL     1       1.286  11.178 -24.060  1.00  0.00    -0.267 OA
HETATM   35  C   UNL     1      -0.045   9.245 -27.445  1.00  0.00     0.115 C 
BRANCH  32  36
HETATM   36  C   UNL     1       2.773   9.498 -23.379  1.00  0.00     0.072 A 
HETATM   37  S   UNL     1       4.445   9.750 -23.653  1.00  0.00    -0.097 SA
HETATM   38  C   UNL     1       4.876   8.803 -22.295  1.00  0.00     0.050 A 
HETATM   39  C   UNL     1       3.773   8.281 -21.657  1.00  0.00     0.009 A 
HETATM   40  C   UNL     1       2.557   8.670 -22.292  1.00  0.00     0.025 A 
ENDBRANCH  32  36
ENDBRANCH  25  28
ENDBRANCH   1  22
TORSDOF 8
ENDMDL
MODEL 8
REMARK VINA RESULT:      -8.5      2.740      9.598
REMARK  8 active torsions:
REMARK  status: ('A' for Active; 'I' for Inactive)
REMARK    1  A    between atoms: C_4  and  C_5 
REMARK    2  A    between atoms: C_5  and  C_6 
REMARK    3  A    between atoms: C_5  and  C_31 
REMARK       I    between atoms: C_6  and  N_7 
REMARK    4  A    between atoms: N_7  and  C_8 
REMARK    5  A    between atoms: C_8  and  N_9 
REMARK    6  A    between atoms: N_9  and  C_10 
REMARK    7  A    between atoms: C_13  and  N_14 
REMARK       I    between atoms: N_17  and  C_18 
REMARK    8  A    between atoms: C_18  and  C_19 
ROOT
HETATM    1  N   UNL     1      -6.590   7.319 -30.455  1.00  0.00    -0.333 N 
HETATM    2  H   UNL     1      -7.536   7.582 -30.739  1.00  0.00     0.168 HD
ENDROOT
BRANCH   1   3
HETATM    3  C   UNL     1      -6.044   8.209 -29.561  1.00  0.00     0.178 C 
HETATM    4  S   UNL     1      -6.747   9.024 -28.286  1.00  0.00    -0.040 SA
BRANCH   3   5
HETATM    5  N   UNL     1      -4.709   8.512 -29.802  1.00  0.00    -0.303 N 
HETATM    6  C   UNL     1      -3.565   7.904 -29.293  1.00  0.00     0.236 C 
HETATM    7  O   UNL     1      -3.596   7.158 -28.310  1.00  0.00    -0.272 OA
HETATM    8  H   UNL     1      -4.584   9.186 -30.546  1.00  0.00     0.171 HD
BRANCH   6   9
HETATM    9  C   UNL     1      -2.260   8.213 -30.040  1.00  0.00     0.144 C 
BRANCH   9  10
HETATM   10  C   UNL     1      -1.908   7.273 -31.193  1.00  0.00    -0.041 A 
HETATM   11  C   UNL     1      -2.067   5.887 -30.993  1.00  0.00     0.008 A 
HETATM   12  C   UNL     1      -1.775   4.971 -32.005  1.00  0.00     0.001 A 
HETATM   13  C   UNL     1      -1.313   5.423 -33.236  1.00  0.00     0.000 A 
HETATM   14  C   UNL     1      -1.135   6.787 -33.450  1.00  0.00     0.001 A 
HETATM   15  C   UNL     1      -1.425   7.707 -32.437  1.00  0.00     0.008 A 
ENDBRANCH   9  10
BRANCH   9  16
HETATM   16  C   UNL     1      -1.131   8.466 -29.036  1.00  0.00    -0.041 A 
HETATM   17  C   UNL     1       0.020   7.659 -29.096  1.00  0.00     0.008 A 
HETATM   18  C   UNL     1       1.098   7.892 -28.242  1.00  0.00     0.001 A 
HETATM   19  C   UNL     1       1.045   8.934 -27.321  1.00  0.00     0.000 A 
HETATM   20  C   UNL     1      -0.085   9.745 -27.252  1.00  0.00     0.001 A 
HETATM   21  C   UNL     1      -1.167   9.517 -28.105  1.00  0.00     0.008 A 
ENDBRANCH   9  16
ENDBRANCH   6   9
ENDBRANCH   3   5
ENDBRANCH   1   3
BRANCH   1  22
HETATM   22  C   UNL     1      -6.160   6.095 -31.007  1.00  0.00     0.034 A 
HETATM   23  C   UNL     1      -5.733   5.883 -32.313  1.00  0.00     0.031 A 
HETATM   24  C   UNL     1      -5.302   4.610 -32.730  1.00  0.00     0.026 A 
HETATM   25  C   UNL     1      -5.271   3.522 -31.852  1.00  0.00     0.010 A 
HETATM   26  C   UNL     1      -5.717   3.746 -30.545  1.00  0.00     0.026 A 
HETATM   27  C   UNL     1      -6.164   5.003 -30.131  1.00  0.00     0.031 A 
BRANCH  25  28
HETATM   28  N   UNL     1      -4.839   2.239 -32.202  1.00  0.00    -0.280 NA
HETATM   29  C   UNL     1      -5.947   1.340 -32.596  1.00  0.00     0.115 C 
HETATM   30  C   UNL     1      -5.392   0.107 -33.333  1.00  0.00     0.141 C 
HETATM   31  N   UNL     1      -4.286  -0.554 -32.622  1.00  0.00    -0.345 N 
HETATM   32  C   UNL     1      -3.955  -1.909 -32.752  1.00  0.00     0.260 C 
HETATM   33  C   UNL     1      -3.271   0.345 -32.053  1.00  0.00     0.141 C 
HETATM   34  O   UNL     1      -2.994  -2.381 -32.145  1.00  0.00    -0.267 OA
HETATM   35  C   UNL     1      -3.870   1.559 -31.320  1.00  0.00     0.115 C 
BRANCH  32  36
HETATM   36  C   UNL     1      -4.776  -2.729 -33.630  1.00  0.00     0.072 A 
HETATM   37  S   UNL     1      -4.193  -4.264 -34.114  1.00  0.00    -0.097 SA
HETATM   38  C   UNL     1      -5.584  -4.564 -35.064  1.00  0.00     0.050 A 
HETATM   39  C   UNL     1      -6.466  -3.507 -35.038  1.00  0.00     0.009 A 
HETATM   40  C   UNL     1      -5.993  -2.439 -34.221  1.00  0.00     0.025 A 
ENDBRANCH  32  36
ENDBRANCH  25  28
ENDBRANCH   1  22
TORSDOF 8
ENDMDL
MODEL 9
REMARK VINA RESULT:      -8.4      3.489      5.642
REMARK  8 active torsions:
REMARK  status: ('A' for Active; 'I' for Inactive)
REMARK    1  A    between atoms: C_4  and  C_5 
REMARK    2  A    between atoms: C_5  and  C_6 
REMARK    3  A    between atoms: C_5  and  C_31 
REMARK       I    between atoms: C_6  and  N_7 
REMARK    4  A    between atoms: N_7  and  C_8 
REMARK    5  A    between atoms: C_8  and  N_9 
REMARK    6  A    between atoms: N_9  and  C_10 
REMARK    7  A    between atoms: C_13  and  N_14 
REMARK       I    between atoms: N_17  and  C_18 
REMARK    8  A    between atoms: C_18  and  C_19 
ROOT
HETATM    1  N   UNL     1      -1.745   4.476 -32.148  1.00  0.00    -0.333 N 
HETATM    2  H   UNL     1      -1.204   3.610 -32.147  1.00  0.00     0.168 HD
ENDROOT
BRANCH   1   3
HETATM    3  C   UNL     1      -2.773   4.452 -33.061  1.00  0.00     0.178 C 
HETATM    4  S   UNL     1      -3.076   5.444 -34.368  1.00  0.00    -0.040 SA
BRANCH   3   5
HETATM    5  N   UNL     1      -3.732   3.478 -32.814  1.00  0.00    -0.303 N 
HETATM    6  C   UNL     1      -3.726   2.460 -31.864  1.00  0.00     0.236 C 
HETATM    7  O   UNL     1      -2.699   2.116 -31.273  1.00  0.00    -0.272 OA
HETATM    8  H   UNL     1      -4.593   3.631 -33.324  1.00  0.00     0.171 HD
BRANCH   6   9
HETATM    9  C   UNL     1      -5.084   1.799 -31.590  1.00  0.00     0.144 C 
BRANCH   9  10
HETATM   10  C   UNL     1      -5.720   1.058 -32.766  1.00  0.00    -0.041 A 
HETATM   11  C   UNL     1      -5.675  -0.351 -32.768  1.00  0.00     0.008 A 
HETATM   12  C   UNL     1      -6.243  -1.093 -33.804  1.00  0.00     0.001 A 
HETATM   13  C   UNL     1      -6.864  -0.440 -34.863  1.00  0.00     0.000 A 
HETATM   14  C   UNL     1      -6.908   0.951 -34.889  1.00  0.00     0.001 A 
HETATM   15  C   UNL     1      -6.337   1.697 -33.853  1.00  0.00     0.008 A 
ENDBRANCH   9  10
BRANCH   9  16
HETATM   16  C   UNL     1      -6.006   2.782 -30.864  1.00  0.00    -0.041 A 
HETATM   17  C   UNL     1      -7.391   2.533 -30.857  1.00  0.00     0.008 A 
HETATM   18  C   UNL     1      -8.262   3.368 -30.159  1.00  0.00     0.001 A 
HETATM   19  C   UNL     1      -7.765   4.459 -29.452  1.00  0.00     0.000 A 
HETATM   20  C   UNL     1      -6.397   4.718 -29.445  1.00  0.00     0.001 A 
HETATM   21  C   UNL     1      -5.520   3.885 -30.142  1.00  0.00     0.008 A 
ENDBRANCH   9  16
ENDBRANCH   6   9
ENDBRANCH   3   5
ENDBRANCH   1   3
BRANCH   1  22
HETATM   22  C   UNL     1      -1.323   5.401 -31.172  1.00  0.00     0.034 A 
HETATM   23  C   UNL     1      -2.131   6.294 -30.477  1.00  0.00     0.031 A 
HETATM   24  C   UNL     1      -1.584   7.151 -29.503  1.00  0.00     0.026 A 
HETATM   25  C   UNL     1      -0.222   7.126 -29.187  1.00  0.00     0.010 A 
HETATM   26  C   UNL     1       0.582   6.233 -29.904  1.00  0.00     0.026 A 
HETATM   27  C   UNL     1       0.047   5.394 -30.885  1.00  0.00     0.031 A 
BRANCH  25  28
HETATM   28  N   UNL     1       0.377   7.939 -28.220  1.00  0.00    -0.280 NA
HETATM   29  C   UNL     1       1.006   7.170 -27.123  1.00  0.00     0.115 C 
HETATM   30  C   UNL     1       1.967   8.073 -26.327  1.00  0.00     0.141 C 
HETATM   31  N   UNL     1       1.366   9.352 -25.916  1.00  0.00    -0.345 N 
HETATM   32  C   UNL     1       1.771  10.098 -24.802  1.00  0.00     0.260 C 
HETATM   33  C   UNL     1       0.571  10.038 -26.945  1.00  0.00     0.141 C 
HETATM   34  O   UNL     1       1.238  11.177 -24.543  1.00  0.00    -0.267 OA
HETATM   35  C   UNL     1      -0.379   9.099 -27.711  1.00  0.00     0.115 C 
BRANCH  32  36
HETATM   36  C   UNL     1       2.842   9.563 -23.976  1.00  0.00     0.072 A 
HETATM   37  S   UNL     1       2.445   8.802 -22.494  1.00  0.00    -0.097 SA
HETATM   38  C   UNL     1       4.090   8.497 -22.136  1.00  0.00     0.050 A 
HETATM   39  C   UNL     1       4.931   8.985 -23.110  1.00  0.00     0.009 A 
HETATM   40  C   UNL     1       4.211   9.615 -24.168  1.00  0.00     0.025 A 
ENDBRANCH  32  36
ENDBRANCH  25  28
ENDBRANCH   1  22
TORSDOF 8
ENDMDL
MODEL 10
REMARK VINA RESULT:      -8.2      2.697      5.574
REMARK  8 active torsions:
REMARK  status: ('A' for Active; 'I' for Inactive)
REMARK    1  A    between atoms: C_4  and  C_5 
REMARK    2  A    between atoms: C_5  and  C_6 
REMARK    3  A    between atoms: C_5  and  C_31 
REMARK       I    between atoms: C_6  and  N_7 
REMARK    4  A    between atoms: N_7  and  C_8 
REMARK    5  A    between atoms: C_8  and  N_9 
REMARK    6  A    between atoms: N_9  and  C_10 
REMARK    7  A    between atoms: C_13  and  N_14 
REMARK       I    between atoms: N_17  and  C_18 
REMARK    8  A    between atoms: C_18  and  C_19 
ROOT
HETATM    1  N   UNL     1      -6.445  -0.456 -32.450  1.00  0.00    -0.333 N 
HETATM    2  H   UNL     1      -6.551  -1.012 -31.600  1.00  0.00     0.168 HD
ENDROOT
BRANCH   1   3
HETATM    3  C   UNL     1      -7.185  -0.951 -33.497  1.00  0.00     0.178 C 
HETATM    4  S   UNL     1      -6.964  -2.324 -34.419  1.00  0.00    -0.040 SA
BRANCH   3   5
HETATM    5  N   UNL     1      -8.250  -0.141 -33.875  1.00  0.00    -0.303 N 
HETATM    6  C   UNL     1      -9.261   0.403 -33.087  1.00  0.00     0.236 C 
HETATM    7  O   UNL     1      -9.500  -0.003 -31.947  1.00  0.00    -0.272 OA
HETATM    8  H   UNL     1      -8.184   0.179 -34.832  1.00  0.00     0.171 HD
BRANCH   6   9
HETATM    9  C   UNL     1     -10.055   1.551 -33.726  1.00  0.00     0.144 C 
BRANCH   9  10
HETATM   10  C   UNL     1      -9.765   2.951 -33.184  1.00  0.00    -0.041 A 
HETATM   11  C   UNL     1      -9.174   3.891 -34.053  1.00  0.00     0.008 A 
HETATM   12  C   UNL     1      -8.890   5.190 -33.629  1.00  0.00     0.001 A 
HETATM   13  C   UNL     1      -9.187   5.574 -32.326  1.00  0.00     0.000 A 
HETATM   14  C   UNL     1      -9.758   4.657 -31.447  1.00  0.00     0.001 A 
HETATM   15  C   UNL     1     -10.041   3.354 -31.869  1.00  0.00     0.008 A 
ENDBRANCH   9  10
BRANCH   9  16
HETATM   16  C   UNL     1     -11.538   1.178 -33.808  1.00  0.00    -0.041 A 
HETATM   17  C   UNL     1     -12.448   2.129 -34.305  1.00  0.00     0.008 A 
HETATM   18  C   UNL     1     -13.798   1.813 -34.454  1.00  0.00     0.001 A 
HETATM   19  C   UNL     1     -14.259   0.544 -34.115  1.00  0.00     0.000 A 
HETATM   20  C   UNL     1     -13.370  -0.411 -33.626  1.00  0.00     0.001 A 
HETATM   21  C   UNL     1     -12.018  -0.100 -33.475  1.00  0.00     0.008 A 
ENDBRANCH   9  16
ENDBRANCH   6   9
ENDBRANCH   3   5
ENDBRANCH   1   3
BRANCH   1  22
HETATM   22  C   UNL     1      -5.632   0.683 -32.276  1.00  0.00     0.034 A 
HETATM   23  C   UNL     1      -4.244   0.725 -32.346  1.00  0.00     0.031 A 
HETATM   24  C   UNL     1      -3.552   1.939 -32.178  1.00  0.00     0.026 A 
HETATM   25  C   UNL     1      -4.228   3.143 -31.953  1.00  0.00     0.010 A 
HETATM   26  C   UNL     1      -5.623   3.084 -31.871  1.00  0.00     0.026 A 
HETATM   27  C   UNL     1      -6.314   1.878 -32.018  1.00  0.00     0.031 A 
BRANCH  25  28
HETATM   28  N   UNL     1      -3.599   4.382 -31.795  1.00  0.00    -0.280 NA
HETATM   29  C   UNL     1      -4.332   5.293 -30.888  1.00  0.00     0.115 C 
HETATM   30  C   UNL     1      -3.416   6.451 -30.449  1.00  0.00     0.141 C 
HETATM   31  N   UNL     1      -2.731   7.116 -31.569  1.00  0.00    -0.345 N 
HETATM   32  C   UNL     1      -2.290   8.445 -31.553  1.00  0.00     0.260 C 
HETATM   33  C   UNL     1      -2.162   6.219 -32.586  1.00  0.00     0.141 C 
HETATM   34  O   UNL     1      -1.696   8.920 -32.521  1.00  0.00    -0.267 OA
HETATM   35  C   UNL     1      -3.113   5.082 -33.000  1.00  0.00     0.115 C 
BRANCH  32  36
HETATM   36  C   UNL     1      -2.548   9.235 -30.360  1.00  0.00     0.072 A 
HETATM   37  S   UNL     1      -3.944  10.225 -30.305  1.00  0.00    -0.097 SA
HETATM   38  C   UNL     1      -3.558  10.795 -28.739  1.00  0.00     0.050 A 
HETATM   39  C   UNL     1      -2.376  10.265 -28.272  1.00  0.00     0.009 A 
HETATM   40  C   UNL     1      -1.783   9.374 -29.215  1.00  0.00     0.025 A 
ENDBRANCH  32  36
ENDBRANCH  25  28
ENDBRANCH   1  22
TORSDOF 8
ENDMDL
