MODEL 1
REMARK VINA RESULT:      -9.4      0.000      0.000
REMARK  3 active torsions:
REMARK  status: ('A' for Active; 'I' for Inactive)
REMARK    1  A    between atoms: C_7  and  C_8 
REMARK    2  A    between atoms: N_9  and  N_10 
REMARK       I    between atoms: N_10  and  C_11 
REMARK    3  A    between atoms: C_11  and  C_12 
ROOT
HETATM    1  N   UNL     1      -8.388   0.311 -33.990  1.00  0.00    -0.242 N 
HETATM    2  C   UNL     1      -9.041   1.237 -33.198  1.00  0.00     0.292 C 
HETATM    3  O   UNL     1      -8.881   1.487 -32.014  1.00  0.00    -0.264 OA
HETATM    4  H   UNL     1      -8.529   0.379 -34.997  1.00  0.00     0.192 HD
ENDROOT
BRANCH   1   5
HETATM    5  N   UNL     1      -7.411  -0.579 -33.619  1.00  0.00    -0.183 NA
HETATM    6  C   UNL     1      -6.176  -0.351 -33.929  1.00  0.00     0.153 C 
BRANCH   6   7
HETATM    7  C   UNL     1      -5.141  -1.294 -33.536  1.00  0.00     0.018 A 
HETATM    8  C   UNL     1      -4.068  -0.959 -32.717  1.00  0.00     0.018 A 
HETATM    9  C   UNL     1      -3.694   0.331 -32.079  1.00  0.00     0.069 C 
HETATM   10  N   UNL     1      -3.301  -2.084 -32.551  1.00  0.00    -0.358 N 
HETATM   11  H   UNL     1      -2.452  -2.136 -32.006  1.00  0.00     0.166 HD
HETATM   12  C   UNL     1      -3.844  -3.146 -33.231  1.00  0.00     0.043 A 
HETATM   13  C   UNL     1      -4.999  -2.683 -33.864  1.00  0.00     0.004 A 
HETATM   14  C   UNL     1      -3.398  -4.470 -33.330  1.00  0.00     0.030 A 
HETATM   15  C   UNL     1      -5.744  -3.602 -34.636  1.00  0.00     0.014 A 
HETATM   16  C   UNL     1      -5.313  -4.930 -34.745  1.00  0.00     0.001 A 
HETATM   17  C   UNL     1      -4.157  -5.356 -34.100  1.00  0.00     0.002 A 
ENDBRANCH   6   7
ENDBRANCH   1   5
BRANCH   2  18
HETATM   18  C   UNL     1     -10.105   1.996 -33.973  1.00  0.00     0.157 A 
HETATM   19  N   UNL     1      -9.721   3.089 -34.570  1.00  0.00    -0.166 NA
HETATM   20  N   UNL     1     -10.656   3.794 -35.267  1.00  0.00    -0.242 N 
HETATM   21  C   UNL     1     -11.985   3.463 -35.405  1.00  0.00     0.272 A 
HETATM   22  H   UNL     1     -10.350   4.663 -35.696  1.00  0.00     0.192 HD
HETATM   23  O   UNL     1     -12.773   4.160 -36.032  1.00  0.00    -0.266 OA
HETATM   24  C   UNL     1     -12.410   2.207 -34.764  1.00  0.00     0.046 A 
HETATM   25  C   UNL     1     -11.478   1.462 -34.045  1.00  0.00     0.016 A 
HETATM   26  C   UNL     1     -13.732   1.761 -34.889  1.00  0.00     0.018 A 
HETATM   27  C   UNL     1     -11.866   0.251 -33.457  1.00  0.00     0.015 A 
HETATM   28  C   UNL     1     -13.185  -0.195 -33.583  1.00  0.00     0.001 A 
HETATM   29  C   UNL     1     -14.116   0.559 -34.296  1.00  0.00     0.001 A 
ENDBRANCH   2  18
TORSDOF 3
ENDMDL
MODEL 2
REMARK VINA RESULT:      -9.3      5.054      8.908
REMARK  3 active torsions:
REMARK  status: ('A' for Active; 'I' for Inactive)
REMARK    1  A    between atoms: C_7  and  C_8 
REMARK    2  A    between atoms: N_9  and  N_10 
REMARK       I    between atoms: N_10  and  C_11 
REMARK    3  A    between atoms: C_11  and  C_12 
ROOT
HETATM    1  N   UNL     1      -3.214   1.010 -31.744  1.00  0.00    -0.242 N 
HETATM    2  C   UNL     1      -4.084   0.058 -31.246  1.00  0.00     0.292 C 
HETATM    3  O   UNL     1      -4.859   0.139 -30.306  1.00  0.00    -0.264 OA
HETATM    4  H   UNL     1      -2.786   0.818 -32.649  1.00  0.00     0.192 HD
ENDROOT
BRANCH   1   5
HETATM    5  N   UNL     1      -2.992   2.280 -31.275  1.00  0.00    -0.183 NA
HETATM    6  C   UNL     1      -3.086   3.291 -32.077  1.00  0.00     0.153 C 
BRANCH   6   7
HETATM    7  C   UNL     1      -2.851   4.638 -31.580  1.00  0.00     0.018 A 
HETATM    8  C   UNL     1      -3.868   5.554 -31.334  1.00  0.00     0.018 A 
HETATM    9  C   UNL     1      -5.341   5.443 -31.502  1.00  0.00     0.069 C 
HETATM   10  N   UNL     1      -3.288   6.708 -30.871  1.00  0.00    -0.358 N 
HETATM   11  H   UNL     1      -3.787   7.548 -30.614  1.00  0.00     0.166 HD
HETATM   12  C   UNL     1      -1.924   6.572 -30.800  1.00  0.00     0.043 A 
HETATM   13  C   UNL     1      -1.615   5.284 -31.242  1.00  0.00     0.004 A 
HETATM   14  C   UNL     1      -0.952   7.488 -30.382  1.00  0.00     0.030 A 
HETATM   15  C   UNL     1      -0.256   4.900 -31.262  1.00  0.00     0.014 A 
HETATM   16  C   UNL     1       0.729   5.804 -30.846  1.00  0.00     0.001 A 
HETATM   17  C   UNL     1       0.384   7.079 -30.412  1.00  0.00     0.002 A 
ENDBRANCH   6   7
ENDBRANCH   1   5
BRANCH   2  18
HETATM   18  C   UNL     1      -3.992  -1.252 -32.011  1.00  0.00     0.157 A 
HETATM   19  N   UNL     1      -3.099  -2.106 -31.596  1.00  0.00    -0.166 NA
HETATM   20  N   UNL     1      -2.991  -3.288 -32.268  1.00  0.00    -0.242 N 
HETATM   21  C   UNL     1      -3.738  -3.673 -33.356  1.00  0.00     0.272 A 
HETATM   22  H   UNL     1      -2.266  -3.928 -31.955  1.00  0.00     0.192 HD
HETATM   23  O   UNL     1      -3.568  -4.746 -33.923  1.00  0.00    -0.266 OA
HETATM   24  C   UNL     1      -4.774  -2.723 -33.801  1.00  0.00     0.046 A 
HETATM   25  C   UNL     1      -4.913  -1.509 -33.134  1.00  0.00     0.016 A 
HETATM   26  C   UNL     1      -5.618  -3.047 -34.871  1.00  0.00     0.018 A 
HETATM   27  C   UNL     1      -5.913  -0.613 -33.531  1.00  0.00     0.015 A 
HETATM   28  C   UNL     1      -6.757  -0.936 -34.597  1.00  0.00     0.001 A 
HETATM   29  C   UNL     1      -6.609  -2.150 -35.267  1.00  0.00     0.001 A 
ENDBRANCH   2  18
TORSDOF 3
ENDMDL
MODEL 3
REMARK VINA RESULT:      -9.2      1.494      1.842
REMARK  3 active torsions:
REMARK  status: ('A' for Active; 'I' for Inactive)
REMARK    1  A    between atoms: C_7  and  C_8 
REMARK    2  A    between atoms: N_9  and  N_10 
REMARK       I    between atoms: N_10  and  C_11 
REMARK    3  A    between atoms: C_11  and  C_12 
ROOT
HETATM    1  N   UNL     1      -7.286   1.362 -33.565  1.00  0.00    -0.242 N 
HETATM    2  C   UNL     1      -8.147   2.105 -32.779  1.00  0.00     0.292 C 
HETATM    3  O   UNL     1      -8.445   1.951 -31.605  1.00  0.00    -0.264 OA
HETATM    4  H   UNL     1      -7.023   1.757 -34.467  1.00  0.00     0.192 HD
ENDROOT
BRANCH   1   5
HETATM    5  N   UNL     1      -6.577   0.240 -33.215  1.00  0.00    -0.183 NA
HETATM    6  C   UNL     1      -5.311   0.169 -33.471  1.00  0.00     0.153 C 
BRANCH   6   7
HETATM    7  C   UNL     1      -4.559  -1.020 -33.099  1.00  0.00     0.018 A 
HETATM    8  C   UNL     1      -3.570  -1.028 -32.122  1.00  0.00     0.018 A 
HETATM    9  C   UNL     1      -3.035   0.064 -31.267  1.00  0.00     0.069 C 
HETATM   10  N   UNL     1      -3.083  -2.307 -32.031  1.00  0.00    -0.358 N 
HETATM   11  H   UNL     1      -2.350  -2.609 -31.405  1.00  0.00     0.166 HD
HETATM   12  C   UNL     1      -3.729  -3.137 -32.915  1.00  0.00     0.043 A 
HETATM   13  C   UNL     1      -4.660  -2.359 -33.604  1.00  0.00     0.004 A 
HETATM   14  C   UNL     1      -3.555  -4.506 -33.150  1.00  0.00     0.030 A 
HETATM   15  C   UNL     1      -5.459  -2.994 -34.580  1.00  0.00     0.014 A 
HETATM   16  C   UNL     1      -5.299  -4.363 -34.828  1.00  0.00     0.001 A 
HETATM   17  C   UNL     1      -4.360  -5.106 -34.121  1.00  0.00     0.002 A 
ENDBRANCH   6   7
ENDBRANCH   1   5
BRANCH   2  18
HETATM   18  C   UNL     1      -8.787   3.243 -33.557  1.00  0.00     0.157 A 
HETATM   19  N   UNL     1      -8.130   4.368 -33.586  1.00  0.00    -0.166 NA
HETATM   20  N   UNL     1      -8.684   5.408 -34.272  1.00  0.00    -0.242 N 
HETATM   21  C   UNL     1      -9.884   5.389 -34.944  1.00  0.00     0.272 A 
HETATM   22  H   UNL     1      -8.178   6.290 -34.256  1.00  0.00     0.192 HD
HETATM   23  O   UNL     1     -10.329   6.374 -35.522  1.00  0.00    -0.266 OA
HETATM   24  C   UNL     1     -10.608   4.105 -34.943  1.00  0.00     0.046 A 
HETATM   25  C   UNL     1     -10.068   3.022 -34.254  1.00  0.00     0.016 A 
HETATM   26  C   UNL     1     -11.815   3.974 -35.641  1.00  0.00     0.018 A 
HETATM   27  C   UNL     1     -10.733   1.790 -34.272  1.00  0.00     0.015 A 
HETATM   28  C   UNL     1     -11.937   1.657 -34.970  1.00  0.00     0.001 A 
HETATM   29  C   UNL     1     -12.478   2.747 -35.651  1.00  0.00     0.001 A 
ENDBRANCH   2  18
TORSDOF 3
ENDMDL
MODEL 4
REMARK VINA RESULT:      -9.1      4.458      7.419
REMARK  3 active torsions:
REMARK  status: ('A' for Active; 'I' for Inactive)
REMARK    1  A    between atoms: C_7  and  C_8 
REMARK    2  A    between atoms: N_9  and  N_10 
REMARK       I    between atoms: N_10  and  C_11 
REMARK    3  A    between atoms: C_11  and  C_12 
ROOT
HETATM    1  N   UNL     1      -5.049   2.182 -32.352  1.00  0.00    -0.242 N 
HETATM    2  C   UNL     1      -5.224   3.472 -32.817  1.00  0.00     0.292 C 
HETATM    3  O   UNL     1      -5.923   3.871 -33.735  1.00  0.00    -0.264 OA
HETATM    4  H   UNL     1      -4.572   2.071 -31.458  1.00  0.00     0.192 HD
ENDROOT
BRANCH   1   5
HETATM    5  N   UNL     1      -5.604   1.025 -32.839  1.00  0.00    -0.183 NA
HETATM    6  C   UNL     1      -4.885   0.205 -33.534  1.00  0.00     0.153 C 
BRANCH   6   7
HETATM    7  C   UNL     1      -5.474  -1.021 -34.051  1.00  0.00     0.018 A 
HETATM    8  C   UNL     1      -6.672  -1.060 -34.756  1.00  0.00     0.018 A 
HETATM    9  C   UNL     1      -7.614   0.026 -35.138  1.00  0.00     0.069 C 
HETATM   10  N   UNL     1      -6.918  -2.366 -35.092  1.00  0.00    -0.358 N 
HETATM   11  H   UNL     1      -7.724  -2.695 -35.605  1.00  0.00     0.166 HD
HETATM   12  C   UNL     1      -5.913  -3.183 -34.634  1.00  0.00     0.043 A 
HETATM   13  C   UNL     1      -4.991  -2.369 -33.972  1.00  0.00     0.004 A 
HETATM   14  C   UNL     1      -5.758  -4.568 -34.757  1.00  0.00     0.030 A 
HETATM   15  C   UNL     1      -3.854  -2.985 -33.406  1.00  0.00     0.014 A 
HETATM   16  C   UNL     1      -3.682  -4.370 -33.520  1.00  0.00     0.001 A 
HETATM   17  C   UNL     1      -4.621  -5.149 -34.187  1.00  0.00     0.002 A 
ENDBRANCH   6   7
ENDBRANCH   1   5
BRANCH   2  18
HETATM   18  C   UNL     1      -4.384   4.474 -32.042  1.00  0.00     0.157 A 
HETATM   19  N   UNL     1      -4.710   4.664 -30.794  1.00  0.00    -0.166 NA
HETATM   20  N   UNL     1      -3.977   5.561 -30.076  1.00  0.00    -0.242 N 
HETATM   21  C   UNL     1      -2.914   6.299 -30.544  1.00  0.00     0.272 A 
HETATM   22  H   UNL     1      -4.266   5.725 -29.116  1.00  0.00     0.192 HD
HETATM   23  O   UNL     1      -2.316   7.106 -29.843  1.00  0.00    -0.266 OA
HETATM   24  C   UNL     1      -2.521   6.056 -31.944  1.00  0.00     0.046 A 
HETATM   25  C   UNL     1      -3.248   5.142 -32.704  1.00  0.00     0.016 A 
HETATM   26  C   UNL     1      -1.421   6.723 -32.496  1.00  0.00     0.018 A 
HETATM   27  C   UNL     1      -2.864   4.882 -34.025  1.00  0.00     0.015 A 
HETATM   28  C   UNL     1      -1.765   5.547 -34.577  1.00  0.00     0.001 A 
HETATM   29  C   UNL     1      -1.046   6.467 -33.814  1.00  0.00     0.001 A 
ENDBRANCH   2  18
TORSDOF 3
ENDMDL
MODEL 5
REMARK VINA RESULT:      -9.1      6.132      9.689
REMARK  3 active torsions:
REMARK  status: ('A' for Active; 'I' for Inactive)
REMARK    1  A    between atoms: C_7  and  C_8 
REMARK    2  A    between atoms: N_9  and  N_10 
REMARK       I    between atoms: N_10  and  C_11 
REMARK    3  A    between atoms: C_11  and  C_12 
ROOT
HETATM    1  N   UNL     1      -2.849   3.952 -31.835  1.00  0.00    -0.242 N 
HETATM    2  C   UNL     1      -1.748   4.718 -32.170  1.00  0.00     0.292 C 
HETATM    3  O   UNL     1      -1.300   4.982 -33.275  1.00  0.00    -0.264 OA
HETATM    4  H   UNL     1      -3.173   4.002 -30.870  1.00  0.00     0.192 HD
ENDROOT
BRANCH   1   5
HETATM    5  N   UNL     1      -3.694   3.274 -32.677  1.00  0.00    -0.183 NA
HETATM    6  C   UNL     1      -4.657   2.560 -32.190  1.00  0.00     0.153 C 
BRANCH   6   7
HETATM    7  C   UNL     1      -5.552   1.841 -33.083  1.00  0.00     0.018 A 
HETATM    8  C   UNL     1      -6.618   2.438 -33.747  1.00  0.00     0.018 A 
HETATM    9  C   UNL     1      -7.114   3.840 -33.731  1.00  0.00     0.069 C 
HETATM   10  N   UNL     1      -7.236   1.473 -34.500  1.00  0.00    -0.358 N 
HETATM   11  H   UNL     1      -8.047   1.620 -35.085  1.00  0.00     0.166 HD
HETATM   12  C   UNL     1      -6.602   0.263 -34.354  1.00  0.00     0.043 A 
HETATM   13  C   UNL     1      -5.542   0.458 -33.467  1.00  0.00     0.004 A 
HETATM   14  C   UNL     1      -6.891  -0.976 -34.938  1.00  0.00     0.030 A 
HETATM   15  C   UNL     1      -4.730  -0.653 -33.154  1.00  0.00     0.014 A 
HETATM   16  C   UNL     1      -5.003  -1.901 -33.729  1.00  0.00     0.001 A 
HETATM   17  C   UNL     1      -6.069  -2.057 -34.609  1.00  0.00     0.002 A 
ENDBRANCH   6   7
ENDBRANCH   1   5
BRANCH   2  18
HETATM   18  C   UNL     1      -1.035   5.256 -30.941  1.00  0.00     0.157 A 
HETATM   19  N   UNL     1      -0.164   4.463 -30.381  1.00  0.00    -0.166 NA
HETATM   20  N   UNL     1       0.487   4.917 -29.272  1.00  0.00    -0.242 N 
HETATM   21  C   UNL     1       0.313   6.145 -28.676  1.00  0.00     0.272 A 
HETATM   22  H   UNL     1       1.135   4.275 -28.826  1.00  0.00     0.192 HD
HETATM   23  O   UNL     1       0.920   6.475 -27.665  1.00  0.00    -0.266 OA
HETATM   24  C   UNL     1      -0.643   7.055 -29.331  1.00  0.00     0.046 A 
HETATM   25  C   UNL     1      -1.322   6.623 -30.468  1.00  0.00     0.016 A 
HETATM   26  C   UNL     1      -0.851   8.345 -28.826  1.00  0.00     0.018 A 
HETATM   27  C   UNL     1      -2.210   7.492 -31.115  1.00  0.00     0.015 A 
HETATM   28  C   UNL     1      -2.417   8.779 -30.612  1.00  0.00     0.001 A 
HETATM   29  C   UNL     1      -1.741   9.204 -29.470  1.00  0.00     0.001 A 
ENDBRANCH   2  18
TORSDOF 3
ENDMDL
MODEL 6
REMARK VINA RESULT:      -9.0      5.021      8.326
REMARK  3 active torsions:
REMARK  status: ('A' for Active; 'I' for Inactive)
REMARK    1  A    between atoms: C_7  and  C_8 
REMARK    2  A    between atoms: N_9  and  N_10 
REMARK       I    between atoms: N_10  and  C_11 
REMARK    3  A    between atoms: C_11  and  C_12 
ROOT
HETATM    1  N   UNL     1      -3.680   2.767 -31.909  1.00  0.00    -0.242 N 
HETATM    2  C   UNL     1      -3.662   4.048 -32.428  1.00  0.00     0.292 C 
HETATM    3  O   UNL     1      -3.777   4.412 -33.587  1.00  0.00    -0.264 OA
HETATM    4  H   UNL     1      -3.756   2.677 -30.897  1.00  0.00     0.192 HD
ENDROOT
BRANCH   1   5
HETATM    5  N   UNL     1      -3.804   1.582 -32.589  1.00  0.00    -0.183 NA
HETATM    6  C   UNL     1      -4.846   0.837 -32.407  1.00  0.00     0.153 C 
BRANCH   6   7
HETATM    7  C   UNL     1      -4.978  -0.419 -33.128  1.00  0.00     0.018 A 
HETATM    8  C   UNL     1      -5.817  -0.592 -34.223  1.00  0.00     0.018 A 
HETATM    9  C   UNL     1      -6.741   0.356 -34.903  1.00  0.00     0.069 C 
HETATM   10  N   UNL     1      -5.685  -1.888 -34.652  1.00  0.00    -0.358 N 
HETATM   11  H   UNL     1      -6.180  -2.297 -35.432  1.00  0.00     0.166 HD
HETATM   12  C   UNL     1      -4.779  -2.566 -33.874  1.00  0.00     0.043 A 
HETATM   13  C   UNL     1      -4.319  -1.674 -32.904  1.00  0.00     0.004 A 
HETATM   14  C   UNL     1      -4.342  -3.893 -33.960  1.00  0.00     0.030 A 
HETATM   15  C   UNL     1      -3.367  -2.143 -31.973  1.00  0.00     0.014 A 
HETATM   16  C   UNL     1      -2.917  -3.467 -32.044  1.00  0.00     0.001 A 
HETATM   17  C   UNL     1      -3.398  -4.328 -33.024  1.00  0.00     0.002 A 
ENDBRANCH   6   7
ENDBRANCH   1   5
BRANCH   2  18
HETATM   18  C   UNL     1      -3.444   5.095 -31.348  1.00  0.00     0.157 A 
HETATM   19  N   UNL     1      -4.493   5.447 -30.659  1.00  0.00    -0.166 NA
HETATM   20  N   UNL     1      -4.328   6.389 -29.687  1.00  0.00    -0.242 N 
HETATM   21  C   UNL     1      -3.149   7.015 -29.357  1.00  0.00     0.272 A 
HETATM   22  H   UNL     1      -5.162   6.679 -29.184  1.00  0.00     0.192 HD
HETATM   23  O   UNL     1      -3.082   7.870 -28.483  1.00  0.00    -0.266 OA
HETATM   24  C   UNL     1      -1.955   6.588 -30.108  1.00  0.00     0.046 A 
HETATM   25  C   UNL     1      -2.089   5.626 -31.106  1.00  0.00     0.016 A 
HETATM   26  C   UNL     1      -0.700   7.133 -29.810  1.00  0.00     0.018 A 
HETATM   27  C   UNL     1      -0.956   5.193 -31.805  1.00  0.00     0.015 A 
HETATM   28  C   UNL     1       0.298   5.735 -31.508  1.00  0.00     0.001 A 
HETATM   29  C   UNL     1       0.425   6.704 -30.513  1.00  0.00     0.001 A 
ENDBRANCH   2  18
TORSDOF 3
ENDMDL
MODEL 7
REMARK VINA RESULT:      -9.0      5.501      9.462
REMARK  3 active torsions:
REMARK  status: ('A' for Active; 'I' for Inactive)
REMARK    1  A    between atoms: C_7  and  C_8 
REMARK    2  A    between atoms: N_9  and  N_10 
REMARK       I    between atoms: N_10  and  C_11 
REMARK    3  A    between atoms: C_11  and  C_12 
ROOT
HETATM    1  N   UNL     1      -3.326   2.550 -32.590  1.00  0.00    -0.242 N 
HETATM    2  C   UNL     1      -4.070   1.775 -31.720  1.00  0.00     0.292 C 
HETATM    3  O   UNL     1      -4.802   2.127 -30.808  1.00  0.00    -0.264 OA
HETATM    4  H   UNL     1      -2.926   2.082 -33.403  1.00  0.00     0.192 HD
ENDROOT
BRANCH   1   5
HETATM    5  N   UNL     1      -3.209   3.917 -32.616  1.00  0.00    -0.183 NA
HETATM    6  C   UNL     1      -2.232   4.495 -31.995  1.00  0.00     0.153 C 
BRANCH   6   7
HETATM    7  C   UNL     1      -2.109   5.944 -32.022  1.00  0.00     0.018 A 
HETATM    8  C   UNL     1      -1.621   6.653 -33.114  1.00  0.00     0.018 A 
HETATM    9  C   UNL     1      -1.122   6.187 -34.435  1.00  0.00     0.069 C 
HETATM   10  N   UNL     1      -1.651   7.987 -32.794  1.00  0.00    -0.358 N 
HETATM   11  H   UNL     1      -1.351   8.738 -33.399  1.00  0.00     0.166 HD
HETATM   12  C   UNL     1      -2.150   8.171 -31.528  1.00  0.00     0.043 A 
HETATM   13  C   UNL     1      -2.444   6.907 -31.013  1.00  0.00     0.004 A 
HETATM   14  C   UNL     1      -2.359   9.355 -30.811  1.00  0.00     0.030 A 
HETATM   15  C   UNL     1      -2.977   6.833 -29.707  1.00  0.00     0.014 A 
HETATM   16  C   UNL     1      -3.192   8.007 -28.975  1.00  0.00     0.001 A 
HETATM   17  C   UNL     1      -2.888   9.250 -29.522  1.00  0.00     0.002 A 
ENDBRANCH   6   7
ENDBRANCH   1   5
BRANCH   2  18
HETATM   18  C   UNL     1      -3.886   0.290 -31.983  1.00  0.00     0.157 A 
HETATM   19  N   UNL     1      -2.973  -0.317 -31.278  1.00  0.00    -0.166 NA
HETATM   20  N   UNL     1      -2.782  -1.649 -31.496  1.00  0.00    -0.242 N 
HETATM   21  C   UNL     1      -3.465  -2.427 -32.402  1.00  0.00     0.272 A 
HETATM   22  H   UNL     1      -2.042  -2.100 -30.965  1.00  0.00     0.192 HD
HETATM   23  O   UNL     1      -3.222  -3.618 -32.559  1.00  0.00    -0.266 OA
HETATM   24  C   UNL     1      -4.524  -1.751 -33.172  1.00  0.00     0.046 A 
HETATM   25  C   UNL     1      -4.746  -0.391 -32.969  1.00  0.00     0.016 A 
HETATM   26  C   UNL     1      -5.306  -2.471 -34.083  1.00  0.00     0.018 A 
HETATM   27  C   UNL     1      -5.770   0.255 -33.675  1.00  0.00     0.015 A 
HETATM   28  C   UNL     1      -6.552  -0.464 -34.583  1.00  0.00     0.001 A 
HETATM   29  C   UNL     1      -6.320  -1.823 -34.788  1.00  0.00     0.001 A 
ENDBRANCH   2  18
TORSDOF 3
ENDMDL
MODEL 8
REMARK VINA RESULT:      -8.7      1.715      2.765
REMARK  3 active torsions:
REMARK  status: ('A' for Active; 'I' for Inactive)
REMARK    1  A    between atoms: C_7  and  C_8 
REMARK    2  A    between atoms: N_9  and  N_10 
REMARK       I    between atoms: N_10  and  C_11 
REMARK    3  A    between atoms: C_11  and  C_12 
ROOT
HETATM    1  N   UNL     1      -8.870   0.878 -34.733  1.00  0.00    -0.242 N 
HETATM    2  C   UNL     1      -9.979   1.131 -33.948  1.00  0.00     0.292 C 
HETATM    3  O   UNL     1     -10.356   0.557 -32.939  1.00  0.00    -0.264 OA
HETATM    4  H   UNL     1      -8.621   1.582 -35.426  1.00  0.00     0.192 HD
ENDROOT
BRANCH   1   5
HETATM    5  N   UNL     1      -7.933  -0.113 -34.578  1.00  0.00    -0.183 NA
HETATM    6  C   UNL     1      -6.767   0.169 -34.094  1.00  0.00     0.153 C 
BRANCH   6   7
HETATM    7  C   UNL     1      -5.774  -0.881 -33.930  1.00  0.00     0.018 A 
HETATM    8  C   UNL     1      -4.539  -0.682 -33.321  1.00  0.00     0.018 A 
HETATM    9  C   UNL     1      -3.928   0.540 -32.733  1.00  0.00     0.069 C 
HETATM   10  N   UNL     1      -3.869  -1.878 -33.333  1.00  0.00    -0.358 N 
HETATM   11  H   UNL     1      -2.942  -2.031 -32.961  1.00  0.00     0.166 HD
HETATM   12  C   UNL     1      -4.631  -2.856 -33.924  1.00  0.00     0.043 A 
HETATM   13  C   UNL     1      -5.833  -2.262 -34.314  1.00  0.00     0.004 A 
HETATM   14  C   UNL     1      -4.343  -4.209 -34.140  1.00  0.00     0.030 A 
HETATM   15  C   UNL     1      -6.795  -3.075 -34.953  1.00  0.00     0.014 A 
HETATM   16  C   UNL     1      -6.524  -4.430 -35.176  1.00  0.00     0.001 A 
HETATM   17  C   UNL     1      -5.315  -4.988 -34.774  1.00  0.00     0.002 A 
ENDBRANCH   6   7
ENDBRANCH   1   5
BRANCH   2  18
HETATM   18  C   UNL     1     -10.806   2.286 -34.489  1.00  0.00     0.157 A 
HETATM   19  N   UNL     1     -11.895   1.970 -35.131  1.00  0.00    -0.166 NA
HETATM   20  N   UNL     1     -12.654   2.985 -35.633  1.00  0.00    -0.242 N 
HETATM   21  C   UNL     1     -12.380   4.329 -35.530  1.00  0.00     0.272 A 
HETATM   22  H   UNL     1     -13.481   2.722 -36.162  1.00  0.00     0.192 HD
HETATM   23  O   UNL     1     -13.100   5.186 -36.027  1.00  0.00    -0.266 OA
HETATM   24  C   UNL     1     -11.169   4.688 -34.770  1.00  0.00     0.046 A 
HETATM   25  C   UNL     1     -10.373   3.674 -34.242  1.00  0.00     0.016 A 
HETATM   26  C   UNL     1     -10.833   6.032 -34.570  1.00  0.00     0.018 A 
HETATM   27  C   UNL     1      -9.237   4.006 -33.494  1.00  0.00     0.015 A 
HETATM   28  C   UNL     1      -8.901   5.348 -33.292  1.00  0.00     0.001 A 
HETATM   29  C   UNL     1      -9.697   6.359 -33.830  1.00  0.00     0.001 A 
ENDBRANCH   2  18
TORSDOF 3
ENDMDL
MODEL 9
REMARK VINA RESULT:      -8.7      6.032      9.602
REMARK  3 active torsions:
REMARK  status: ('A' for Active; 'I' for Inactive)
REMARK    1  A    between atoms: C_7  and  C_8 
REMARK    2  A    between atoms: N_9  and  N_10 
REMARK       I    between atoms: N_10  and  C_11 
REMARK    3  A    between atoms: C_11  and  C_12 
ROOT
HETATM    1  N   UNL     1      -2.586   3.466 -31.507  1.00  0.00    -0.242 N 
HETATM    2  C   UNL     1      -1.784   4.491 -31.975  1.00  0.00     0.292 C 
HETATM    3  O   UNL     1      -1.573   4.839 -33.126  1.00  0.00    -0.264 OA
HETATM    4  H   UNL     1      -2.782   3.450 -30.508  1.00  0.00     0.192 HD
ENDROOT
BRANCH   1   5
HETATM    5  N   UNL     1      -3.322   2.568 -32.239  1.00  0.00    -0.183 NA
HETATM    6  C   UNL     1      -3.585   1.399 -31.752  1.00  0.00     0.153 C 
BRANCH   6   7
HETATM    7  C   UNL     1      -4.364   0.446 -32.527  1.00  0.00     0.018 A 
HETATM    8  C   UNL     1      -4.080  -0.914 -32.582  1.00  0.00     0.018 A 
HETATM    9  C   UNL     1      -3.000  -1.711 -31.942  1.00  0.00     0.069 C 
HETATM   10  N   UNL     1      -5.015  -1.505 -33.394  1.00  0.00    -0.358 N 
HETATM   11  H   UNL     1      -5.052  -2.489 -33.620  1.00  0.00     0.166 HD
HETATM   12  C   UNL     1      -5.906  -0.573 -33.866  1.00  0.00     0.043 A 
HETATM   13  C   UNL     1      -5.524   0.664 -33.343  1.00  0.00     0.004 A 
HETATM   14  C   UNL     1      -7.011  -0.736 -34.710  1.00  0.00     0.030 A 
HETATM   15  C   UNL     1      -6.296   1.795 -33.689  1.00  0.00     0.014 A 
HETATM   16  C   UNL     1      -7.405   1.650 -34.532  1.00  0.00     0.001 A 
HETATM   17  C   UNL     1      -7.756   0.401 -35.033  1.00  0.00     0.002 A 
ENDBRANCH   6   7
ENDBRANCH   1   5
BRANCH   2  18
HETATM   18  C   UNL     1      -1.086   5.227 -30.844  1.00  0.00     0.157 A 
HETATM   19  N   UNL     1      -0.128   4.586 -30.237  1.00  0.00    -0.166 NA
HETATM   20  N   UNL     1       0.512   5.220 -29.214  1.00  0.00    -0.242 N 
HETATM   21  C   UNL     1       0.243   6.487 -28.751  1.00  0.00     0.272 A 
HETATM   22  H   UNL     1       1.232   4.694 -28.726  1.00  0.00     0.192 HD
HETATM   23  O   UNL     1       0.848   6.985 -27.810  1.00  0.00    -0.266 OA
HETATM   24  C   UNL     1      -0.814   7.228 -29.464  1.00  0.00     0.046 A 
HETATM   25  C   UNL     1      -1.485   6.609 -30.515  1.00  0.00     0.016 A 
HETATM   26  C   UNL     1      -1.126   8.542 -29.097  1.00  0.00     0.018 A 
HETATM   27  C   UNL     1      -2.470   7.314 -31.217  1.00  0.00     0.015 A 
HETATM   28  C   UNL     1      -2.782   8.628 -30.853  1.00  0.00     0.001 A 
HETATM   29  C   UNL     1      -2.112   9.240 -29.794  1.00  0.00     0.001 A 
ENDBRANCH   2  18
TORSDOF 3
ENDMDL
MODEL 10
REMARK VINA RESULT:      -8.7      6.094      9.405
REMARK  3 active torsions:
REMARK  status: ('A' for Active; 'I' for Inactive)
REMARK    1  A    between atoms: C_7  and  C_8 
REMARK    2  A    between atoms: N_9  and  N_10 
REMARK       I    between atoms: N_10  and  C_11 
REMARK    3  A    between atoms: C_11  and  C_12 
ROOT
HETATM    1  N   UNL     1      -2.841   4.154 -31.723  1.00  0.00    -0.242 N 
HETATM    2  C   UNL     1      -2.008   5.084 -32.317  1.00  0.00     0.292 C 
HETATM    3  O   UNL     1      -1.340   4.981 -33.334  1.00  0.00    -0.264 OA
HETATM    4  H   UNL     1      -3.458   4.489 -30.984  1.00  0.00     0.192 HD
ENDROOT
BRANCH   1   5
HETATM    5  N   UNL     1      -3.095   2.868 -32.128  1.00  0.00    -0.183 NA
HETATM    6  C   UNL     1      -4.306   2.412 -32.113  1.00  0.00     0.153 C 
BRANCH   6   7
HETATM    7  C   UNL     1      -4.575   1.048 -32.541  1.00  0.00     0.018 A 
HETATM    8  C   UNL     1      -3.873  -0.057 -32.073  1.00  0.00     0.018 A 
HETATM    9  C   UNL     1      -2.747  -0.159 -31.106  1.00  0.00     0.069 C 
HETATM   10  N   UNL     1      -4.393  -1.172 -32.679  1.00  0.00    -0.358 N 
HETATM   11  H   UNL     1      -4.074  -2.119 -32.532  1.00  0.00     0.166 HD
HETATM   12  C   UNL     1      -5.420  -0.830 -33.525  1.00  0.00     0.043 A 
HETATM   13  C   UNL     1      -5.558   0.558 -33.465  1.00  0.00     0.004 A 
HETATM   14  C   UNL     1      -6.226  -1.643 -34.331  1.00  0.00     0.030 A 
HETATM   15  C   UNL     1      -6.561   1.158 -34.257  1.00  0.00     0.014 A 
HETATM   16  C   UNL     1      -7.377   0.360 -35.069  1.00  0.00     0.001 A 
HETATM   17  C   UNL     1      -7.211  -1.020 -35.103  1.00  0.00     0.002 A 
ENDBRANCH   6   7
ENDBRANCH   1   5
BRANCH   2  18
HETATM   18  C   UNL     1      -1.950   6.381 -31.527  1.00  0.00     0.157 A 
HETATM   19  N   UNL     1      -2.780   7.318 -31.888  1.00  0.00    -0.166 NA
HETATM   20  N   UNL     1      -2.747   8.495 -31.200  1.00  0.00    -0.242 N 
HETATM   21  C   UNL     1      -1.911   8.797 -30.150  1.00  0.00     0.272 A 
HETATM   22  H   UNL     1      -3.374   9.229 -31.516  1.00  0.00     0.192 HD
HETATM   23  O   UNL     1      -1.924   9.888 -29.593  1.00  0.00    -0.266 OA
HETATM   24  C   UNL     1      -1.000   7.723 -29.716  1.00  0.00     0.046 A 
HETATM   25  C   UNL     1      -1.011   6.507 -30.396  1.00  0.00     0.016 A 
HETATM   26  C   UNL     1      -0.145   7.918 -28.624  1.00  0.00     0.018 A 
HETATM   27  C   UNL     1      -0.170   5.470 -29.973  1.00  0.00     0.015 A 
HETATM   28  C   UNL     1       0.682   5.664 -28.882  1.00  0.00     0.001 A 
HETATM   29  C   UNL     1       0.696   6.886 -28.210  1.00  0.00     0.001 A 
ENDBRANCH   2  18
TORSDOF 3
ENDMDL
