MODEL 1
REMARK VINA RESULT:     -10.0      0.000      0.000
REMARK  6 active torsions:
REMARK  status: ('A' for Active; 'I' for Inactive)
REMARK    1  A    between atoms: O_2  and  C_3 
REMARK    2  A    between atoms: C_5  and  C_6 
REMARK    3  A    between atoms: C_12  and  C_13 
REMARK       I    between atoms: C_13  and  N_14 
REMARK    4  A    between atoms: N_14  and  C_15 
REMARK    5  A    between atoms: C_15  and  C_16 
REMARK    6  A    between atoms: C_23  and  C_24 
ROOT
HETATM    1  C   UNL     1      -6.288  -0.566 -34.814  1.00  0.00     0.118 C 
HETATM    2  N   UNL     1      -5.504   0.299 -33.915  1.00  0.00    -0.365 N 
HETATM    3  C   UNL     1      -5.935   0.517 -32.640  1.00  0.00     0.138 A 
HETATM    4  N   UNL     1      -7.209   0.164 -32.256  1.00  0.00    -0.240 N 
HETATM    5  N   UNL     1      -7.470   0.403 -30.964  1.00  0.00    -0.181 NA
HETATM    6  C   UNL     1      -6.348   0.979 -30.525  1.00  0.00     0.160 A 
HETATM    7  C   UNL     1      -5.341   1.068 -31.518  1.00  0.00     0.096 A 
HETATM    8  C   UNL     1      -8.189  -0.450 -33.134  1.00  0.00     0.221 C 
HETATM    9  C   UNL     1      -7.776  -0.239 -34.604  1.00  0.00     0.066 C 
HETATM   10  H   UNL     1      -5.002   1.047 -34.397  1.00  0.00     0.161 HD
ENDROOT
BRANCH   7  11
HETATM   11  C   UNL     1      -3.995   1.571 -31.311  1.00  0.00     0.257 C 
HETATM   12  N   UNL     1      -3.893   2.936 -31.182  1.00  0.00    -0.352 N 
HETATM   13  H   UNL     1      -4.719   3.479 -31.396  1.00  0.00     0.163 HD
HETATM   14  O   UNL     1      -3.021   0.826 -31.300  1.00  0.00    -0.267 OA
BRANCH  12  15
HETATM   15  C   UNL     1      -2.608   3.590 -31.206  1.00  0.00     0.161 C 
BRANCH  15  16
HETATM   16  C   UNL     1      -2.434   4.416 -32.451  1.00  0.00    -0.041 A 
HETATM   17  C   UNL     1      -3.459   4.473 -33.407  1.00  0.00     0.009 A 
HETATM   18  C   UNL     1      -3.316   5.251 -34.556  1.00  0.00     0.001 A 
HETATM   19  C   UNL     1      -2.143   5.972 -34.768  1.00  0.00     0.000 A 
HETATM   20  C   UNL     1      -1.110   5.912 -33.833  1.00  0.00     0.001 A 
HETATM   21  C   UNL     1      -1.254   5.138 -32.680  1.00  0.00     0.009 A 
ENDBRANCH  15  16
ENDBRANCH  12  15
ENDBRANCH   7  11
BRANCH   1  22
HETATM   22  C   UNL     1      -5.925  -2.041 -34.639  1.00  0.00    -0.033 A 
HETATM   23  C   UNL     1      -4.725  -2.433 -34.008  1.00  0.00     0.046 A 
HETATM   24  C   UNL     1      -4.385  -3.780 -33.850  1.00  0.00     0.068 A 
HETATM   25  C   UNL     1      -5.240  -4.760 -34.350  1.00  0.00     0.037 A 
HETATM   26  C   UNL     1      -6.416  -4.402 -35.004  1.00  0.00     0.003 A 
HETATM   27  C   UNL     1      -6.750  -3.054 -35.158  1.00  0.00     0.009 A 
BRANCH  24  28
HETATM   28  O   UNL     1      -3.256  -4.257 -33.244  1.00  0.00    -0.356 OA
HETATM   29  C   UNL     1      -2.970  -3.770 -31.939  1.00  0.00     0.210 C 
ENDBRANCH  24  28
ENDBRANCH   1  22
BRANCH   8  30
HETATM   30  C   UNL     1      -9.581   0.107 -32.922  1.00  0.00     0.409 C 
HETATM   31  F   UNL     1      -9.591   1.175 -32.093  1.00  0.00    -0.169 F 
HETATM   32  F   UNL     1     -10.075   0.546 -34.115  1.00  0.00    -0.169 F 
HETATM   33  F   UNL     1     -10.469  -0.799 -32.465  1.00  0.00    -0.169 F 
ENDBRANCH   8  30
TORSDOF 6
ENDMDL
MODEL 2
REMARK VINA RESULT:      -9.6      1.488      1.750
REMARK  6 active torsions:
REMARK  status: ('A' for Active; 'I' for Inactive)
REMARK    1  A    between atoms: O_2  and  C_3 
REMARK    2  A    between atoms: C_5  and  C_6 
REMARK    3  A    between atoms: C_12  and  C_13 
REMARK       I    between atoms: C_13  and  N_14 
REMARK    4  A    between atoms: N_14  and  C_15 
REMARK    5  A    between atoms: C_15  and  C_16 
REMARK    6  A    between atoms: C_23  and  C_24 
ROOT
HETATM    1  C   UNL     1      -6.645   0.713 -34.799  1.00  0.00     0.118 C 
HETATM    2  N   UNL     1      -6.176   1.796 -33.917  1.00  0.00    -0.365 N 
HETATM    3  C   UNL     1      -6.789   2.006 -32.717  1.00  0.00     0.138 A 
HETATM    4  N   UNL     1      -7.993   1.403 -32.426  1.00  0.00    -0.240 N 
HETATM    5  N   UNL     1      -8.447   1.672 -31.195  1.00  0.00    -0.181 NA
HETATM    6  C   UNL     1      -7.535   2.517 -30.708  1.00  0.00     0.160 A 
HETATM    7  C   UNL     1      -6.463   2.757 -31.603  1.00  0.00     0.096 A 
HETATM    8  C   UNL     1      -8.708   0.521 -33.331  1.00  0.00     0.221 C 
HETATM    9  C   UNL     1      -8.183   0.710 -34.767  1.00  0.00     0.066 C 
HETATM   10  H   UNL     1      -5.795   2.601 -34.419  1.00  0.00     0.161 HD
ENDROOT
BRANCH   7  11
HETATM   11  C   UNL     1      -5.291   3.565 -31.316  1.00  0.00     0.257 C 
HETATM   12  N   UNL     1      -4.098   3.044 -31.757  1.00  0.00    -0.352 N 
HETATM   13  H   UNL     1      -4.112   2.091 -32.095  1.00  0.00     0.163 HD
HETATM   14  O   UNL     1      -5.368   4.614 -30.684  1.00  0.00    -0.267 OA
BRANCH  12  15
HETATM   15  C   UNL     1      -2.841   3.615 -31.344  1.00  0.00     0.161 C 
BRANCH  15  16
HETATM   16  C   UNL     1      -2.267   4.511 -32.408  1.00  0.00    -0.041 A 
HETATM   17  C   UNL     1      -2.483   4.221 -33.763  1.00  0.00     0.009 A 
HETATM   18  C   UNL     1      -1.971   5.055 -34.758  1.00  0.00     0.001 A 
HETATM   19  C   UNL     1      -1.229   6.181 -34.409  1.00  0.00     0.000 A 
HETATM   20  C   UNL     1      -0.995   6.472 -33.066  1.00  0.00     0.001 A 
HETATM   21  C   UNL     1      -1.510   5.642 -32.069  1.00  0.00     0.009 A 
ENDBRANCH  15  16
ENDBRANCH  12  15
ENDBRANCH   7  11
BRANCH   1  22
HETATM   22  C   UNL     1      -5.994  -0.626 -34.446  1.00  0.00    -0.033 A 
HETATM   23  C   UNL     1      -4.916  -0.703 -33.538  1.00  0.00     0.046 A 
HETATM   24  C   UNL     1      -4.315  -1.922 -33.216  1.00  0.00     0.068 A 
HETATM   25  C   UNL     1      -4.773  -3.089 -33.825  1.00  0.00     0.037 A 
HETATM   26  C   UNL     1      -5.815  -3.039 -34.747  1.00  0.00     0.003 A 
HETATM   27  C   UNL     1      -6.412  -1.817 -35.064  1.00  0.00     0.009 A 
BRANCH  24  28
HETATM   28  O   UNL     1      -3.277  -2.099 -32.343  1.00  0.00    -0.356 OA
HETATM   29  C   UNL     1      -3.019  -3.429 -31.911  1.00  0.00     0.210 C 
ENDBRANCH  24  28
ENDBRANCH   1  22
BRANCH   8  30
HETATM   30  C   UNL     1     -10.203   0.764 -33.310  1.00  0.00     0.409 C 
HETATM   31  F   UNL     1     -10.722   0.901 -34.550  1.00  0.00    -0.169 F 
HETATM   32  F   UNL     1     -10.825  -0.315 -32.754  1.00  0.00    -0.169 F 
HETATM   33  F   UNL     1     -10.574   1.827 -32.568  1.00  0.00    -0.169 F 
ENDBRANCH   8  30
TORSDOF 6
ENDMDL
MODEL 3
REMARK VINA RESULT:      -9.4      3.611      6.867
REMARK  6 active torsions:
REMARK  status: ('A' for Active; 'I' for Inactive)
REMARK    1  A    between atoms: O_2  and  C_3 
REMARK    2  A    between atoms: C_5  and  C_6 
REMARK    3  A    between atoms: C_12  and  C_13 
REMARK       I    between atoms: C_13  and  N_14 
REMARK    4  A    between atoms: N_14  and  C_15 
REMARK    5  A    between atoms: C_15  and  C_16 
REMARK    6  A    between atoms: C_23  and  C_24 
ROOT
HETATM    1  C   UNL     1      -6.335   0.441 -31.584  1.00  0.00     0.118 C 
HETATM    2  N   UNL     1      -7.361   1.441 -31.930  1.00  0.00    -0.365 N 
HETATM    3  C   UNL     1      -7.020   2.529 -32.679  1.00  0.00     0.138 A 
HETATM    4  N   UNL     1      -5.698   2.847 -32.900  1.00  0.00    -0.240 N 
HETATM    5  N   UNL     1      -5.525   3.917 -33.687  1.00  0.00    -0.181 NA
HETATM    6  C   UNL     1      -6.773   4.326 -33.930  1.00  0.00     0.160 A 
HETATM    7  C   UNL     1      -7.757   3.494 -33.342  1.00  0.00     0.096 A 
HETATM    8  C   UNL     1      -4.575   2.092 -32.375  1.00  0.00     0.221 C 
HETATM    9  C   UNL     1      -5.047   1.195 -31.214  1.00  0.00     0.066 C 
HETATM   10  H   UNL     1      -8.092   1.543 -31.224  1.00  0.00     0.161 HD
ENDROOT
BRANCH   7  11
HETATM   11  C   UNL     1      -9.192   3.644 -33.501  1.00  0.00     0.257 C 
HETATM   12  N   UNL     1      -9.753   2.891 -34.504  1.00  0.00    -0.352 N 
HETATM   13  H   UNL     1      -9.117   2.427 -35.138  1.00  0.00     0.163 HD
HETATM   14  O   UNL     1      -9.840   4.427 -32.812  1.00  0.00    -0.267 OA
BRANCH  12  15
HETATM   15  C   UNL     1     -11.114   3.112 -34.926  1.00  0.00     0.161 C 
BRANCH  15  16
HETATM   16  C   UNL     1     -12.011   1.978 -34.505  1.00  0.00    -0.041 A 
HETATM   17  C   UNL     1     -11.481   0.885 -33.806  1.00  0.00     0.009 A 
HETATM   18  C   UNL     1     -12.306  -0.163 -33.395  1.00  0.00     0.001 A 
HETATM   19  C   UNL     1     -13.668  -0.133 -33.688  1.00  0.00     0.000 A 
HETATM   20  C   UNL     1     -14.204   0.942 -34.396  1.00  0.00     0.001 A 
HETATM   21  C   UNL     1     -13.381   1.993 -34.804  1.00  0.00     0.009 A 
ENDBRANCH  15  16
ENDBRANCH  12  15
ENDBRANCH   7  11
BRANCH   1  22
HETATM   22  C   UNL     1      -6.171  -0.606 -32.688  1.00  0.00    -0.033 A 
HETATM   23  C   UNL     1      -4.994  -1.376 -32.803  1.00  0.00     0.046 A 
HETATM   24  C   UNL     1      -4.837  -2.329 -33.812  1.00  0.00     0.068 A 
HETATM   25  C   UNL     1      -5.858  -2.508 -34.744  1.00  0.00     0.037 A 
HETATM   26  C   UNL     1      -7.017  -1.740 -34.674  1.00  0.00     0.003 A 
HETATM   27  C   UNL     1      -7.168  -0.789 -33.662  1.00  0.00     0.009 A 
BRANCH  24  28
HETATM   28  O   UNL     1      -3.744  -3.129 -33.997  1.00  0.00    -0.356 OA
HETATM   29  C   UNL     1      -3.955  -4.534 -33.932  1.00  0.00     0.210 C 
ENDBRANCH  24  28
ENDBRANCH   1  22
BRANCH   8  30
HETATM   30  C   UNL     1      -3.455   2.989 -31.889  1.00  0.00     0.409 C 
HETATM   31  F   UNL     1      -3.912   4.079 -31.234  1.00  0.00    -0.169 F 
HETATM   32  F   UNL     1      -2.687   2.302 -30.996  1.00  0.00    -0.169 F 
HETATM   33  F   UNL     1      -2.616   3.393 -32.864  1.00  0.00    -0.169 F 
ENDBRANCH   8  30
TORSDOF 6
ENDMDL
MODEL 4
REMARK VINA RESULT:      -9.1      1.945      2.636
REMARK  6 active torsions:
REMARK  status: ('A' for Active; 'I' for Inactive)
REMARK    1  A    between atoms: O_2  and  C_3 
REMARK    2  A    between atoms: C_5  and  C_6 
REMARK    3  A    between atoms: C_12  and  C_13 
REMARK       I    between atoms: C_13  and  N_14 
REMARK    4  A    between atoms: N_14  and  C_15 
REMARK    5  A    between atoms: C_15  and  C_16 
REMARK    6  A    between atoms: C_23  and  C_24 
ROOT
HETATM    1  C   UNL     1      -6.920   0.067 -34.980  1.00  0.00     0.118 C 
HETATM    2  N   UNL     1      -6.461   1.461 -34.856  1.00  0.00    -0.365 N 
HETATM    3  C   UNL     1      -6.675   2.144 -33.694  1.00  0.00     0.138 A 
HETATM    4  N   UNL     1      -7.531   1.651 -32.734  1.00  0.00    -0.240 N 
HETATM    5  N   UNL     1      -7.603   2.412 -31.635  1.00  0.00    -0.181 NA
HETATM    6  C   UNL     1      -6.814   3.449 -31.925  1.00  0.00     0.160 A 
HETATM    7  C   UNL     1      -6.190   3.338 -33.192  1.00  0.00     0.096 A 
HETATM    8  C   UNL     1      -8.270   0.407 -32.856  1.00  0.00     0.221 C 
HETATM    9  C   UNL     1      -8.311  -0.033 -34.332  1.00  0.00     0.066 C 
HETATM   10  H   UNL     1      -6.474   1.979 -35.737  1.00  0.00     0.161 HD
ENDROOT
BRANCH   7  11
HETATM   11  C   UNL     1      -5.221   4.270 -33.739  1.00  0.00     0.257 C 
HETATM   12  N   UNL     1      -4.471   4.950 -32.809  1.00  0.00    -0.352 N 
HETATM   13  H   UNL     1      -4.756   4.866 -31.842  1.00  0.00     0.163 HD
HETATM   14  O   UNL     1      -5.121   4.463 -34.947  1.00  0.00    -0.267 OA
BRANCH  12  15
HETATM   15  C   UNL     1      -3.643   6.065 -33.195  1.00  0.00     0.161 C 
BRANCH  15  16
HETATM   16  C   UNL     1      -2.328   6.053 -32.463  1.00  0.00    -0.041 A 
HETATM   17  C   UNL     1      -1.561   7.223 -32.374  1.00  0.00     0.009 A 
HETATM   18  C   UNL     1      -0.349   7.228 -31.683  1.00  0.00     0.001 A 
HETATM   19  C   UNL     1       0.114   6.059 -31.082  1.00  0.00     0.000 A 
HETATM   20  C   UNL     1      -0.632   4.885 -31.176  1.00  0.00     0.001 A 
HETATM   21  C   UNL     1      -1.847   4.880 -31.863  1.00  0.00     0.009 A 
ENDBRANCH  15  16
ENDBRANCH  12  15
ENDBRANCH   7  11
BRANCH   1  22
HETATM   22  C   UNL     1      -5.886  -0.919 -34.431  1.00  0.00    -0.033 A 
HETATM   23  C   UNL     1      -4.849  -0.495 -33.573  1.00  0.00     0.046 A 
HETATM   24  C   UNL     1      -3.899  -1.390 -33.074  1.00  0.00     0.068 A 
HETATM   25  C   UNL     1      -3.961  -2.730 -33.452  1.00  0.00     0.037 A 
HETATM   26  C   UNL     1      -4.955  -3.170 -34.322  1.00  0.00     0.003 A 
HETATM   27  C   UNL     1      -5.902  -2.271 -34.817  1.00  0.00     0.009 A 
BRANCH  24  28
HETATM   28  O   UNL     1      -2.869  -1.079 -32.231  1.00  0.00    -0.356 OA
HETATM   29  C   UNL     1      -3.133  -0.116 -31.218  1.00  0.00     0.210 C 
ENDBRANCH  24  28
ENDBRANCH   1  22
BRANCH   8  30
HETATM   30  C   UNL     1      -9.685   0.525 -32.330  1.00  0.00     0.409 C 
HETATM   31  F   UNL     1      -9.728   0.681 -30.988  1.00  0.00    -0.169 F 
HETATM   32  F   UNL     1     -10.270   1.636 -32.861  1.00  0.00    -0.169 F 
HETATM   33  F   UNL     1     -10.481  -0.509 -32.667  1.00  0.00    -0.169 F 
ENDBRANCH   8  30
TORSDOF 6
ENDMDL
MODEL 5
REMARK VINA RESULT:      -8.9      3.876      7.296
REMARK  6 active torsions:
REMARK  status: ('A' for Active; 'I' for Inactive)
REMARK    1  A    between atoms: O_2  and  C_3 
REMARK    2  A    between atoms: C_5  and  C_6 
REMARK    3  A    between atoms: C_12  and  C_13 
REMARK       I    between atoms: C_13  and  N_14 
REMARK    4  A    between atoms: N_14  and  C_15 
REMARK    5  A    between atoms: C_15  and  C_16 
REMARK    6  A    between atoms: C_23  and  C_24 
ROOT
HETATM    1  C   UNL     1      -6.769   0.230 -31.116  1.00  0.00     0.118 C 
HETATM    2  N   UNL     1      -8.081   0.510 -31.726  1.00  0.00    -0.365 N 
HETATM    3  C   UNL     1      -8.228   1.586 -32.552  1.00  0.00     0.138 A 
HETATM    4  N   UNL     1      -7.255   2.559 -32.622  1.00  0.00    -0.240 N 
HETATM    5  N   UNL     1      -7.524   3.528 -33.507  1.00  0.00    -0.181 NA
HETATM    6  C   UNL     1      -8.730   3.194 -33.972  1.00  0.00     0.160 A 
HETATM    7  C   UNL     1      -9.222   1.982 -33.428  1.00  0.00     0.096 A 
HETATM    8  C   UNL     1      -6.023   2.543 -31.854  1.00  0.00     0.221 C 
HETATM    9  C   UNL     1      -6.162   1.570 -30.666  1.00  0.00     0.066 C 
HETATM   10  H   UNL     1      -8.874   0.225 -31.148  1.00  0.00     0.161 HD
ENDROOT
BRANCH   7  11
HETATM   11  C   UNL     1     -10.464   1.332 -33.805  1.00  0.00     0.257 C 
HETATM   12  N   UNL     1     -11.198   1.983 -34.768  1.00  0.00    -0.352 N 
HETATM   13  H   UNL     1     -10.901   2.918 -35.016  1.00  0.00     0.163 HD
HETATM   14  O   UNL     1     -10.844   0.300 -33.261  1.00  0.00    -0.267 OA
BRANCH  12  15
HETATM   15  C   UNL     1     -12.549   1.581 -35.069  1.00  0.00     0.161 C 
BRANCH  15  16
HETATM   16  C   UNL     1     -13.519   2.100 -34.042  1.00  0.00    -0.041 A 
HETATM   17  C   UNL     1     -14.596   1.305 -33.627  1.00  0.00     0.009 A 
HETATM   18  C   UNL     1     -15.491   1.768 -32.661  1.00  0.00     0.001 A 
HETATM   19  C   UNL     1     -15.324   3.036 -32.109  1.00  0.00     0.000 A 
HETATM   20  C   UNL     1     -14.265   3.842 -32.524  1.00  0.00     0.001 A 
HETATM   21  C   UNL     1     -13.367   3.378 -33.486  1.00  0.00     0.009 A 
ENDBRANCH  15  16
ENDBRANCH  12  15
ENDBRANCH   7  11
BRANCH   1  22
HETATM   22  C   UNL     1      -5.879  -0.598 -32.044  1.00  0.00    -0.033 A 
HETATM   23  C   UNL     1      -6.403  -1.237 -33.189  1.00  0.00     0.046 A 
HETATM   24  C   UNL     1      -5.595  -1.999 -34.036  1.00  0.00     0.068 A 
HETATM   25  C   UNL     1      -4.244  -2.154 -33.732  1.00  0.00     0.037 A 
HETATM   26  C   UNL     1      -3.707  -1.561 -32.593  1.00  0.00     0.003 A 
HETATM   27  C   UNL     1      -4.519  -0.799 -31.750  1.00  0.00     0.009 A 
BRANCH  24  28
HETATM   28  O   UNL     1      -6.006  -2.643 -35.171  1.00  0.00    -0.356 OA
HETATM   29  C   UNL     1      -6.226  -4.045 -35.072  1.00  0.00     0.210 C 
ENDBRANCH  24  28
ENDBRANCH   1  22
BRANCH   8  30
HETATM   30  C   UNL     1      -5.652   3.916 -31.333  1.00  0.00     0.409 C 
HETATM   31  F   UNL     1      -6.732   4.637 -30.958  1.00  0.00    -0.169 F 
HETATM   32  F   UNL     1      -4.881   3.778 -30.216  1.00  0.00    -0.169 F 
HETATM   33  F   UNL     1      -4.924   4.650 -32.197  1.00  0.00    -0.169 F 
ENDBRANCH   8  30
TORSDOF 6
ENDMDL
MODEL 6
REMARK VINA RESULT:      -8.7      3.431      6.722
REMARK  6 active torsions:
REMARK  status: ('A' for Active; 'I' for Inactive)
REMARK    1  A    between atoms: O_2  and  C_3 
REMARK    2  A    between atoms: C_5  and  C_6 
REMARK    3  A    between atoms: C_12  and  C_13 
REMARK       I    between atoms: C_13  and  N_14 
REMARK    4  A    between atoms: N_14  and  C_15 
REMARK    5  A    between atoms: C_15  and  C_16 
REMARK    6  A    between atoms: C_23  and  C_24 
ROOT
HETATM    1  C   UNL     1      -7.506   2.926 -34.084  1.00  0.00     0.118 C 
HETATM    2  N   UNL     1      -6.341   2.205 -33.543  1.00  0.00    -0.365 N 
HETATM    3  C   UNL     1      -6.017   2.335 -32.225  1.00  0.00     0.138 A 
HETATM    4  N   UNL     1      -6.591   3.319 -31.451  1.00  0.00    -0.240 N 
HETATM    5  N   UNL     1      -6.204   3.292 -30.169  1.00  0.00    -0.181 NA
HETATM    6  C   UNL     1      -5.313   2.298 -30.137  1.00  0.00     0.160 A 
HETATM    7  C   UNL     1      -5.159   1.647 -31.386  1.00  0.00     0.096 A 
HETATM    8  C   UNL     1      -7.560   4.284 -31.939  1.00  0.00     0.221 C 
HETATM    9  C   UNL     1      -7.510   4.339 -33.479  1.00  0.00     0.066 C 
HETATM   10  H   UNL     1      -5.588   2.070 -34.221  1.00  0.00     0.161 HD
ENDROOT
BRANCH   7  11
HETATM   11  C   UNL     1      -4.323   0.485 -31.633  1.00  0.00     0.257 C 
HETATM   12  N   UNL     1      -4.338   0.017 -32.925  1.00  0.00    -0.352 N 
HETATM   13  H   UNL     1      -5.032   0.410 -33.546  1.00  0.00     0.163 HD
HETATM   14  O   UNL     1      -3.690  -0.059 -30.733  1.00  0.00    -0.267 OA
BRANCH  12  15
HETATM   15  C   UNL     1      -3.747  -1.255 -33.260  1.00  0.00     0.161 C 
BRANCH  15  16
HETATM   16  C   UNL     1      -4.764  -2.197 -33.844  1.00  0.00    -0.041 A 
HETATM   17  C   UNL     1      -4.393  -3.502 -34.197  1.00  0.00     0.009 A 
HETATM   18  C   UNL     1      -5.333  -4.391 -34.722  1.00  0.00     0.001 A 
HETATM   19  C   UNL     1      -6.651  -3.980 -34.910  1.00  0.00     0.000 A 
HETATM   20  C   UNL     1      -7.029  -2.680 -34.577  1.00  0.00     0.001 A 
HETATM   21  C   UNL     1      -6.091  -1.791 -34.047  1.00  0.00     0.009 A 
ENDBRANCH  15  16
ENDBRANCH  12  15
ENDBRANCH   7  11
BRANCH   1  22
HETATM   22  C   UNL     1      -8.802   2.138 -33.882  1.00  0.00    -0.033 A 
HETATM   23  C   UNL     1     -10.052   2.664 -34.273  1.00  0.00     0.046 A 
HETATM   24  C   UNL     1     -11.239   1.951 -34.085  1.00  0.00     0.068 A 
HETATM   25  C   UNL     1     -11.192   0.699 -33.474  1.00  0.00     0.037 A 
HETATM   26  C   UNL     1      -9.976   0.169 -33.050  1.00  0.00     0.003 A 
HETATM   27  C   UNL     1      -8.793   0.886 -33.241  1.00  0.00     0.009 A 
BRANCH  24  28
HETATM   28  O   UNL     1     -12.491   2.370 -34.441  1.00  0.00    -0.356 OA
HETATM   29  C   UNL     1     -13.515   1.384 -34.475  1.00  0.00     0.210 C 
ENDBRANCH  24  28
ENDBRANCH   1  22
BRANCH   8  30
HETATM   30  C   UNL     1      -7.320   5.672 -31.382  1.00  0.00     0.409 C 
HETATM   31  F   UNL     1      -7.871   6.640 -32.148  1.00  0.00    -0.169 F 
HETATM   32  F   UNL     1      -7.913   5.772 -30.158  1.00  0.00    -0.169 F 
HETATM   33  F   UNL     1      -6.019   5.966 -31.188  1.00  0.00    -0.169 F 
ENDBRANCH   8  30
TORSDOF 6
ENDMDL
MODEL 7
REMARK VINA RESULT:      -8.5      4.399      6.160
REMARK  6 active torsions:
REMARK  status: ('A' for Active; 'I' for Inactive)
REMARK    1  A    between atoms: O_2  and  C_3 
REMARK    2  A    between atoms: C_5  and  C_6 
REMARK    3  A    between atoms: C_12  and  C_13 
REMARK       I    between atoms: C_13  and  N_14 
REMARK    4  A    between atoms: N_14  and  C_15 
REMARK    5  A    between atoms: C_15  and  C_16 
REMARK    6  A    between atoms: C_23  and  C_24 
ROOT
HETATM    1  C   UNL     1      -6.313  -0.130 -31.707  1.00  0.00     0.118 C 
HETATM    2  N   UNL     1      -7.417   0.808 -31.974  1.00  0.00    -0.365 N 
HETATM    3  C   UNL     1      -7.176   1.958 -32.667  1.00  0.00     0.138 A 
HETATM    4  N   UNL     1      -5.886   2.385 -32.897  1.00  0.00    -0.240 N 
HETATM    5  N   UNL     1      -5.811   3.506 -33.626  1.00  0.00    -0.181 NA
HETATM    6  C   UNL     1      -7.091   3.834 -33.819  1.00  0.00     0.160 A 
HETATM    7  C   UNL     1      -7.997   2.901 -33.258  1.00  0.00     0.096 A 
HETATM    8  C   UNL     1      -4.698   1.687 -32.440  1.00  0.00     0.221 C 
HETATM    9  C   UNL     1      -5.074   0.695 -31.322  1.00  0.00     0.066 C 
HETATM   10  H   UNL     1      -8.135   0.817 -31.247  1.00  0.00     0.161 HD
ENDROOT
BRANCH   7  11
HETATM   11  C   UNL     1      -9.443   2.953 -33.378  1.00  0.00     0.257 C 
HETATM   12  N   UNL     1      -9.922   3.058 -34.662  1.00  0.00    -0.352 N 
HETATM   13  H   UNL     1      -9.244   3.246 -35.389  1.00  0.00     0.163 HD
HETATM   14  O   UNL     1     -10.174   2.950 -32.392  1.00  0.00    -0.267 OA
BRANCH  12  15
HETATM   15  C   UNL     1     -11.311   3.352 -34.915  1.00  0.00     0.161 C 
BRANCH  15  16
HETATM   16  C   UNL     1     -11.510   4.800 -35.272  1.00  0.00    -0.041 A 
HETATM   17  C   UNL     1     -10.407   5.660 -35.362  1.00  0.00     0.009 A 
HETATM   18  C   UNL     1     -10.578   7.001 -35.711  1.00  0.00     0.001 A 
HETATM   19  C   UNL     1     -11.855   7.497 -35.963  1.00  0.00     0.000 A 
HETATM   20  C   UNL     1     -12.962   6.655 -35.862  1.00  0.00     0.001 A 
HETATM   21  C   UNL     1     -12.792   5.313 -35.518  1.00  0.00     0.009 A 
ENDBRANCH  15  16
ENDBRANCH  12  15
ENDBRANCH   7  11
BRANCH   1  22
HETATM   22  C   UNL     1      -6.101  -1.100 -32.872  1.00  0.00    -0.033 A 
HETATM   23  C   UNL     1      -4.923  -1.869 -32.984  1.00  0.00     0.046 A 
HETATM   24  C   UNL     1      -4.723  -2.751 -34.048  1.00  0.00     0.068 A 
HETATM   25  C   UNL     1      -5.699  -2.858 -35.037  1.00  0.00     0.037 A 
HETATM   26  C   UNL     1      -6.857  -2.089 -34.968  1.00  0.00     0.003 A 
HETATM   27  C   UNL     1      -7.052  -1.209 -33.901  1.00  0.00     0.009 A 
BRANCH  24  28
HETATM   28  O   UNL     1      -3.625  -3.544 -34.237  1.00  0.00    -0.356 OA
HETATM   29  C   UNL     1      -3.393  -4.563 -33.273  1.00  0.00     0.210 C 
ENDBRANCH  24  28
ENDBRANCH   1  22
BRANCH   8  30
HETATM   30  C   UNL     1      -3.634   2.636 -31.928  1.00  0.00     0.409 C 
HETATM   31  F   UNL     1      -4.156   3.672 -31.234  1.00  0.00    -0.169 F 
HETATM   32  F   UNL     1      -2.818   1.970 -31.063  1.00  0.00    -0.169 F 
HETATM   33  F   UNL     1      -2.830   3.127 -32.892  1.00  0.00    -0.169 F 
ENDBRANCH   8  30
TORSDOF 6
ENDMDL
MODEL 8
REMARK VINA RESULT:      -8.5      2.963      7.347
REMARK  6 active torsions:
REMARK  status: ('A' for Active; 'I' for Inactive)
REMARK    1  A    between atoms: O_2  and  C_3 
REMARK    2  A    between atoms: C_5  and  C_6 
REMARK    3  A    between atoms: C_12  and  C_13 
REMARK       I    between atoms: C_13  and  N_14 
REMARK    4  A    between atoms: N_14  and  C_15 
REMARK    5  A    between atoms: C_15  and  C_16 
REMARK    6  A    between atoms: C_23  and  C_24 
ROOT
HETATM    1  C   UNL     1      -8.787   3.148 -30.360  1.00  0.00     0.118 C 
HETATM    2  N   UNL     1      -7.996   2.005 -30.849  1.00  0.00    -0.365 N 
HETATM    3  C   UNL     1      -8.060   1.650 -32.164  1.00  0.00     0.138 A 
HETATM    4  N   UNL     1      -9.036   2.166 -32.987  1.00  0.00    -0.240 N 
HETATM    5  N   UNL     1      -8.943   1.755 -34.258  1.00  0.00    -0.181 NA
HETATM    6  C   UNL     1      -7.911   0.908 -34.233  1.00  0.00     0.160 A 
HETATM    7  C   UNL     1      -7.304   0.806 -32.958  1.00  0.00     0.096 A 
HETATM    8  C   UNL     1     -10.061   3.101 -32.557  1.00  0.00     0.221 C 
HETATM    9  C   UNL     1     -10.174   3.079 -31.019  1.00  0.00     0.066 C 
HETATM   10  H   UNL     1      -7.856   1.272 -30.150  1.00  0.00     0.161 HD
ENDROOT
BRANCH   7  11
HETATM   11  C   UNL     1      -6.118   0.028 -32.649  1.00  0.00     0.257 C 
HETATM   12  N   UNL     1      -5.311  -0.263 -33.723  1.00  0.00    -0.352 N 
HETATM   13  H   UNL     1      -5.679  -0.054 -34.641  1.00  0.00     0.163 HD
HETATM   14  O   UNL     1      -5.888  -0.376 -31.513  1.00  0.00    -0.267 OA
BRANCH  12  15
HETATM   15  C   UNL     1      -4.235  -1.216 -33.606  1.00  0.00     0.161 C 
BRANCH  15  16
HETATM   16  C   UNL     1      -4.670  -2.591 -34.036  1.00  0.00    -0.041 A 
HETATM   17  C   UNL     1      -5.829  -2.753 -34.808  1.00  0.00     0.009 A 
HETATM   18  C   UNL     1      -6.231  -4.022 -35.228  1.00  0.00     0.001 A 
HETATM   19  C   UNL     1      -5.484  -5.143 -34.871  1.00  0.00     0.000 A 
HETATM   20  C   UNL     1      -4.338  -4.996 -34.092  1.00  0.00     0.001 A 
HETATM   21  C   UNL     1      -3.931  -3.727 -33.675  1.00  0.00     0.009 A 
ENDBRANCH  15  16
ENDBRANCH  12  15
ENDBRANCH   7  11
BRANCH   1  22
HETATM   22  C   UNL     1      -8.047   4.473 -30.559  1.00  0.00    -0.033 A 
HETATM   23  C   UNL     1      -6.685   4.507 -30.926  1.00  0.00     0.046 A 
HETATM   24  C   UNL     1      -6.004   5.714 -31.104  1.00  0.00     0.068 A 
HETATM   25  C   UNL     1      -6.679   6.915 -30.890  1.00  0.00     0.037 A 
HETATM   26  C   UNL     1      -8.015   6.910 -30.497  1.00  0.00     0.003 A 
HETATM   27  C   UNL     1      -8.690   5.700 -30.322  1.00  0.00     0.009 A 
BRANCH  24  28
HETATM   28  O   UNL     1      -4.694   5.850 -31.469  1.00  0.00    -0.356 OA
HETATM   29  C   UNL     1      -4.408   5.838 -32.862  1.00  0.00     0.210 C 
ENDBRANCH  24  28
ENDBRANCH   1  22
BRANCH   8  30
HETATM   30  C   UNL     1     -11.414   2.790 -33.161  1.00  0.00     0.409 C 
HETATM   31  F   UNL     1     -11.703   1.470 -33.134  1.00  0.00    -0.169 F 
HETATM   32  F   UNL     1     -12.385   3.408 -32.429  1.00  0.00    -0.169 F 
HETATM   33  F   UNL     1     -11.564   3.236 -34.424  1.00  0.00    -0.169 F 
ENDBRANCH   8  30
TORSDOF 6
ENDMDL
MODEL 9
REMARK VINA RESULT:      -8.4      2.662      7.589
REMARK  6 active torsions:
REMARK  status: ('A' for Active; 'I' for Inactive)
REMARK    1  A    between atoms: O_2  and  C_3 
REMARK    2  A    between atoms: C_5  and  C_6 
REMARK    3  A    between atoms: C_12  and  C_13 
REMARK       I    between atoms: C_13  and  N_14 
REMARK    4  A    between atoms: N_14  and  C_15 
REMARK    5  A    between atoms: C_15  and  C_16 
REMARK    6  A    between atoms: C_23  and  C_24 
ROOT
HETATM    1  C   UNL     1      -5.128   4.697 -30.015  1.00  0.00     0.118 C 
HETATM    2  N   UNL     1      -5.004   3.277 -30.387  1.00  0.00    -0.365 N 
HETATM    3  C   UNL     1      -5.736   2.783 -31.426  1.00  0.00     0.138 A 
HETATM    4  N   UNL     1      -6.774   3.510 -31.966  1.00  0.00    -0.240 N 
HETATM    5  N   UNL     1      -7.369   2.910 -33.005  1.00  0.00    -0.181 NA
HETATM    6  C   UNL     1      -6.729   1.741 -33.094  1.00  0.00     0.160 A 
HETATM    7  C   UNL     1      -5.687   1.602 -32.146  1.00  0.00     0.096 A 
HETATM    8  C   UNL     1      -7.183   4.823 -31.502  1.00  0.00     0.221 C 
HETATM    9  C   UNL     1      -6.616   5.077 -30.091  1.00  0.00     0.066 C 
HETATM   10  H   UNL     1      -4.796   2.661 -29.598  1.00  0.00     0.161 HD
ENDROOT
BRANCH   7  11
HETATM   11  C   UNL     1      -4.773   0.478 -32.057  1.00  0.00     0.257 C 
HETATM   12  N   UNL     1      -4.527  -0.173 -33.242  1.00  0.00    -0.352 N 
HETATM   13  H   UNL     1      -5.109   0.076 -34.030  1.00  0.00     0.163 HD
HETATM   14  O   UNL     1      -4.296   0.116 -30.986  1.00  0.00    -0.267 OA
BRANCH  12  15
HETATM   15  C   UNL     1      -3.831  -1.436 -33.265  1.00  0.00     0.161 C 
BRANCH  15  16
HETATM   16  C   UNL     1      -4.692  -2.527 -33.842  1.00  0.00    -0.041 A 
HETATM   17  C   UNL     1      -6.013  -2.254 -34.224  1.00  0.00     0.009 A 
HETATM   18  C   UNL     1      -6.814  -3.254 -34.776  1.00  0.00     0.001 A 
HETATM   19  C   UNL     1      -6.306  -4.541 -34.942  1.00  0.00     0.000 A 
HETATM   20  C   UNL     1      -4.999  -4.829 -34.552  1.00  0.00     0.001 A 
HETATM   21  C   UNL     1      -4.195  -3.828 -34.004  1.00  0.00     0.009 A 
ENDBRANCH  15  16
ENDBRANCH  12  15
ENDBRANCH   7  11
BRANCH   1  22
HETATM   22  C   UNL     1      -4.197   5.582 -30.846  1.00  0.00    -0.033 A 
HETATM   23  C   UNL     1      -3.154   5.030 -31.620  1.00  0.00     0.046 A 
HETATM   24  C   UNL     1      -2.297   5.834 -32.376  1.00  0.00     0.068 A 
HETATM   25  C   UNL     1      -2.460   7.218 -32.347  1.00  0.00     0.037 A 
HETATM   26  C   UNL     1      -3.460   7.792 -31.567  1.00  0.00     0.003 A 
HETATM   27  C   UNL     1      -4.314   6.983 -30.814  1.00  0.00     0.009 A 
BRANCH  24  28
HETATM   28  O   UNL     1      -1.271   5.393 -33.164  1.00  0.00    -0.356 OA
HETATM   29  C   UNL     1      -1.331   5.724 -34.546  1.00  0.00     0.210 C 
ENDBRANCH  24  28
ENDBRANCH   1  22
BRANCH   8  30
HETATM   30  C   UNL     1      -8.689   4.979 -31.470  1.00  0.00     0.409 C 
HETATM   31  F   UNL     1      -9.312   3.889 -30.970  1.00  0.00    -0.169 F 
HETATM   32  F   UNL     1      -9.015   6.016 -30.647  1.00  0.00    -0.169 F 
HETATM   33  F   UNL     1      -9.234   5.273 -32.668  1.00  0.00    -0.169 F 
ENDBRANCH   8  30
TORSDOF 6
ENDMDL
MODEL 10
REMARK VINA RESULT:      -8.3      4.702      8.028
REMARK  6 active torsions:
REMARK  status: ('A' for Active; 'I' for Inactive)
REMARK    1  A    between atoms: O_2  and  C_3 
REMARK    2  A    between atoms: C_5  and  C_6 
REMARK    3  A    between atoms: C_12  and  C_13 
REMARK       I    between atoms: C_13  and  N_14 
REMARK    4  A    between atoms: N_14  and  C_15 
REMARK    5  A    between atoms: C_15  and  C_16 
REMARK    6  A    between atoms: C_23  and  C_24 
ROOT
HETATM    1  C   UNL     1      -7.929   0.478 -31.332  1.00  0.00     0.118 C 
HETATM    2  N   UNL     1      -9.285   0.851 -31.771  1.00  0.00    -0.365 N 
HETATM    3  C   UNL     1      -9.476   2.004 -32.474  1.00  0.00     0.138 A 
HETATM    4  N   UNL     1      -8.480   2.951 -32.559  1.00  0.00    -0.240 N 
HETATM    5  N   UNL     1      -8.803   4.007 -33.317  1.00  0.00    -0.181 NA
HETATM    6  C   UNL     1     -10.063   3.752 -33.680  1.00  0.00     0.160 A 
HETATM    7  C   UNL     1     -10.541   2.509 -33.198  1.00  0.00     0.096 A 
HETATM    8  C   UNL     1      -7.177   2.829 -31.931  1.00  0.00     0.221 C 
HETATM    9  C   UNL     1      -7.228   1.752 -30.830  1.00  0.00     0.066 C 
HETATM   10  H   UNL     1     -10.024   0.535 -31.139  1.00  0.00     0.161 HD
ENDROOT
BRANCH   7  11
HETATM   11  C   UNL     1     -11.839   1.932 -33.498  1.00  0.00     0.257 C 
HETATM   12  N   UNL     1     -12.884   2.417 -32.748  1.00  0.00    -0.352 N 
HETATM   13  H   UNL     1     -12.647   3.005 -31.960  1.00  0.00     0.163 HD
HETATM   14  O   UNL     1     -11.974   1.041 -34.331  1.00  0.00    -0.267 OA
BRANCH  12  15
HETATM   15  C   UNL     1     -14.176   1.778 -32.773  1.00  0.00     0.161 C 
BRANCH  15  16
HETATM   16  C   UNL     1     -15.267   2.726 -32.356  1.00  0.00    -0.041 A 
HETATM   17  C   UNL     1     -14.951   4.036 -31.967  1.00  0.00     0.009 A 
HETATM   18  C   UNL     1     -15.956   4.930 -31.596  1.00  0.00     0.001 A 
HETATM   19  C   UNL     1     -17.288   4.520 -31.600  1.00  0.00     0.000 A 
HETATM   20  C   UNL     1     -17.614   3.216 -31.970  1.00  0.00     0.001 A 
HETATM   21  C   UNL     1     -16.610   2.322 -32.346  1.00  0.00     0.009 A 
ENDBRANCH  15  16
ENDBRANCH  12  15
ENDBRANCH   7  11
BRANCH   1  22
HETATM   22  C   UNL     1      -7.171  -0.283 -32.422  1.00  0.00    -0.033 A 
HETATM   23  C   UNL     1      -5.800  -0.588 -32.289  1.00  0.00     0.046 A 
HETATM   24  C   UNL     1      -5.103  -1.278 -33.284  1.00  0.00     0.068 A 
HETATM   25  C   UNL     1      -5.771  -1.653 -34.448  1.00  0.00     0.037 A 
HETATM   26  C   UNL     1      -7.116  -1.338 -34.620  1.00  0.00     0.003 A 
HETATM   27  C   UNL     1      -7.808  -0.648 -33.621  1.00  0.00     0.009 A 
BRANCH  24  28
HETATM   28  O   UNL     1      -3.782  -1.630 -33.241  1.00  0.00    -0.356 OA
HETATM   29  C   UNL     1      -3.251  -1.985 -31.971  1.00  0.00     0.210 C 
ENDBRANCH  24  28
ENDBRANCH   1  22
BRANCH   8  30
HETATM   30  C   UNL     1      -6.702   4.136 -31.330  1.00  0.00     0.409 C 
HETATM   31  F   UNL     1      -7.673   4.766 -30.631  1.00  0.00    -0.169 F 
HETATM   32  F   UNL     1      -5.698   3.882 -30.443  1.00  0.00    -0.169 F 
HETATM   33  F   UNL     1      -6.192   4.999 -32.230  1.00  0.00    -0.169 F 
ENDBRANCH   8  30
TORSDOF 6
ENDMDL
