MODEL 1
REMARK VINA RESULT:      -8.5      0.000      0.000
REMARK  7 active torsions:
REMARK  status: ('A' for Active; 'I' for Inactive)
REMARK    1  A    between atoms: N_3  and  N_4 
REMARK       I    between atoms: N_4  and  C_5 
REMARK    2  A    between atoms: C_5  and  C_6 
REMARK    3  A    between atoms: C_9  and  O_10 
REMARK    4  A    between atoms: O_10  and  C_11 
REMARK    5  A    between atoms: C_11  and  C_12 
REMARK       I    between atoms: C_12  and  N_13 
REMARK    6  A    between atoms: N_13  and  C_14 
REMARK    7  A    between atoms: C_15  and  O_16 
ROOT
HETATM    1  C   UNL     1      -2.790   4.907 -32.040  1.00  0.00     0.033 A 
HETATM    2  C   UNL     1      -2.916   3.568 -31.655  1.00  0.00     0.020 A 
HETATM    3  C   UNL     1      -3.941   2.786 -32.196  1.00  0.00     0.038 A 
HETATM    4  C   UNL     1      -4.850   3.333 -33.105  1.00  0.00     0.069 A 
HETATM    5  C   UNL     1      -4.701   4.661 -33.512  1.00  0.00     0.038 A 
HETATM    6  C   UNL     1      -3.669   5.445 -32.985  1.00  0.00     0.020 A 
ENDROOT
BRANCH   4   7
HETATM    7  O   UNL     1      -5.826   2.475 -33.537  1.00  0.00    -0.342 OA
BRANCH   7   8
HETATM    8  C   UNL     1      -6.640   1.882 -32.530  1.00  0.00     0.278 C 
BRANCH   8   9
HETATM    9  C   UNL     1      -6.603   0.350 -32.527  1.00  0.00     0.246 C 
HETATM   10  N   UNL     1      -6.235  -0.165 -33.755  1.00  0.00    -0.323 N 
HETATM   11  H   UNL     1      -6.130   0.487 -34.528  1.00  0.00     0.169 HD
HETATM   12  O   UNL     1      -6.898  -0.290 -31.522  1.00  0.00    -0.271 OA
BRANCH  10  13
HETATM   13  C   UNL     1      -5.967  -1.507 -34.096  1.00  0.00     0.068 A 
HETATM   14  C   UNL     1      -4.644  -1.964 -33.916  1.00  0.00     0.095 A 
HETATM   15  C   UNL     1      -4.326  -3.297 -34.188  1.00  0.00     0.039 A 
HETATM   16  C   UNL     1      -5.312  -4.171 -34.650  1.00  0.00     0.003 A 
HETATM   17  C   UNL     1      -6.615  -3.718 -34.840  1.00  0.00     0.002 A 
HETATM   18  C   UNL     1      -6.943  -2.388 -34.565  1.00  0.00     0.032 A 
BRANCH  14  19
HETATM   19  O   UNL     1      -3.746  -1.027 -33.456  1.00  0.00    -0.354 OA
HETATM   20  C   UNL     1      -3.212  -1.254 -32.155  1.00  0.00     0.210 C 
ENDBRANCH  14  19
ENDBRANCH  10  13
ENDBRANCH   8   9
ENDBRANCH   7   8
ENDBRANCH   4   7
BRANCH   1  21
HETATM   21  C   UNL     1      -1.726   5.779 -31.481  1.00  0.00     0.270 C 
HETATM   22  N   UNL     1      -1.702   5.848 -30.109  1.00  0.00    -0.259 N 
HETATM   23  H   UNL     1      -2.442   5.490 -29.526  1.00  0.00     0.191 HD
HETATM   24  O   UNL     1      -0.985   6.390 -32.241  1.00  0.00    -0.266 OA
BRANCH  22  25
HETATM   25  N   UNL     1      -0.840   6.677 -29.496  1.00  0.00    -0.263 N 
HETATM   26  C   UNL     1       0.354   6.260 -28.974  1.00  0.00     0.030 A 
HETATM   27  C   UNL     1       0.918   4.907 -29.207  1.00  0.00     0.070 C 
HETATM   28  C   UNL     1       0.864   7.329 -28.260  1.00  0.00     0.028 A 
HETATM   29  C   UNL     1      -0.076   8.389 -28.338  1.00  0.00     0.028 A 
HETATM   30  C   UNL     1      -1.146   7.949 -29.098  1.00  0.00     0.030 A 
HETATM   31  C   UNL     1      -2.388   8.661 -29.495  1.00  0.00     0.070 C 
ENDBRANCH  22  25
ENDBRANCH   1  21
TORSDOF 7
ENDMDL
MODEL 2
REMARK VINA RESULT:      -8.3      2.177      3.234
REMARK  7 active torsions:
REMARK  status: ('A' for Active; 'I' for Inactive)
REMARK    1  A    between atoms: N_3  and  N_4 
REMARK       I    between atoms: N_4  and  C_5 
REMARK    2  A    between atoms: C_5  and  C_6 
REMARK    3  A    between atoms: C_9  and  O_10 
REMARK    4  A    between atoms: O_10  and  C_11 
REMARK    5  A    between atoms: C_11  and  C_12 
REMARK       I    between atoms: C_12  and  N_13 
REMARK    6  A    between atoms: N_13  and  C_14 
REMARK    7  A    between atoms: C_15  and  O_16 
ROOT
HETATM    1  C   UNL     1      -4.820   3.126 -32.192  1.00  0.00     0.033 A 
HETATM    2  C   UNL     1      -5.729   3.425 -33.213  1.00  0.00     0.020 A 
HETATM    3  C   UNL     1      -6.910   2.685 -33.327  1.00  0.00     0.038 A 
HETATM    4  C   UNL     1      -7.182   1.639 -32.442  1.00  0.00     0.069 A 
HETATM    5  C   UNL     1      -6.288   1.365 -31.405  1.00  0.00     0.038 A 
HETATM    6  C   UNL     1      -5.112   2.111 -31.277  1.00  0.00     0.020 A 
ENDROOT
BRANCH   4   7
HETATM    7  O   UNL     1      -8.354   0.970 -32.678  1.00  0.00    -0.342 OA
BRANCH   7   8
HETATM    8  C   UNL     1      -8.619   0.616 -34.032  1.00  0.00     0.278 C 
BRANCH   8   9
HETATM    9  C   UNL     1      -7.542  -0.275 -34.661  1.00  0.00     0.246 C 
HETATM   10  N   UNL     1      -7.287  -1.400 -33.902  1.00  0.00    -0.323 N 
HETATM   11  H   UNL     1      -7.741  -1.471 -32.995  1.00  0.00     0.169 HD
HETATM   12  O   UNL     1      -6.992   0.042 -35.711  1.00  0.00    -0.271 OA
BRANCH  10  13
HETATM   13  C   UNL     1      -6.467  -2.502 -34.220  1.00  0.00     0.068 A 
HETATM   14  C   UNL     1      -5.100  -2.404 -33.884  1.00  0.00     0.095 A 
HETATM   15  C   UNL     1      -4.245  -3.483 -34.127  1.00  0.00     0.039 A 
HETATM   16  C   UNL     1      -4.740  -4.650 -34.714  1.00  0.00     0.003 A 
HETATM   17  C   UNL     1      -6.086  -4.742 -35.058  1.00  0.00     0.002 A 
HETATM   18  C   UNL     1      -6.950  -3.671 -34.813  1.00  0.00     0.032 A 
BRANCH  14  19
HETATM   19  O   UNL     1      -4.710  -1.216 -33.310  1.00  0.00    -0.354 OA
HETATM   20  C   UNL     1      -3.852  -1.317 -32.177  1.00  0.00     0.210 C 
ENDBRANCH  14  19
ENDBRANCH  10  13
ENDBRANCH   8   9
ENDBRANCH   7   8
ENDBRANCH   4   7
BRANCH   1  21
HETATM   21  C   UNL     1      -3.547   3.877 -32.042  1.00  0.00     0.270 C 
HETATM   22  N   UNL     1      -3.585   5.170 -32.505  1.00  0.00    -0.259 N 
HETATM   23  H   UNL     1      -4.342   5.534 -33.063  1.00  0.00     0.191 HD
HETATM   24  O   UNL     1      -2.568   3.315 -31.566  1.00  0.00    -0.266 OA
BRANCH  22  25
HETATM   25  N   UNL     1      -2.465   5.914 -32.504  1.00  0.00    -0.263 N 
HETATM   26  C   UNL     1      -2.168   6.811 -31.515  1.00  0.00     0.030 A 
HETATM   27  C   UNL     1      -2.933   6.913 -30.247  1.00  0.00     0.070 C 
HETATM   28  C   UNL     1      -1.062   7.519 -31.949  1.00  0.00     0.028 A 
HETATM   29  C   UNL     1      -0.725   7.044 -33.243  1.00  0.00     0.028 A 
HETATM   30  C   UNL     1      -1.633   6.055 -33.579  1.00  0.00     0.030 A 
HETATM   31  C   UNL     1      -1.727   5.228 -34.809  1.00  0.00     0.070 C 
ENDBRANCH  22  25
ENDBRANCH   1  21
TORSDOF 7
ENDMDL
MODEL 3
REMARK VINA RESULT:      -7.9      2.138      8.762
REMARK  7 active torsions:
REMARK  status: ('A' for Active; 'I' for Inactive)
REMARK    1  A    between atoms: N_3  and  N_4 
REMARK       I    between atoms: N_4  and  C_5 
REMARK    2  A    between atoms: C_5  and  C_6 
REMARK    3  A    between atoms: C_9  and  O_10 
REMARK    4  A    between atoms: O_10  and  C_11 
REMARK    5  A    between atoms: C_11  and  C_12 
REMARK       I    between atoms: C_12  and  N_13 
REMARK    6  A    between atoms: N_13  and  C_14 
REMARK    7  A    between atoms: C_15  and  O_16 
ROOT
HETATM    1  C   UNL     1      -6.246   2.294 -31.518  1.00  0.00     0.033 A 
HETATM    2  C   UNL     1      -6.280   3.305 -32.484  1.00  0.00     0.020 A 
HETATM    3  C   UNL     1      -6.383   4.640 -32.085  1.00  0.00     0.038 A 
HETATM    4  C   UNL     1      -6.469   4.974 -30.730  1.00  0.00     0.069 A 
HETATM    5  C   UNL     1      -6.402   3.964 -29.768  1.00  0.00     0.038 A 
HETATM    6  C   UNL     1      -6.285   2.627 -30.161  1.00  0.00     0.020 A 
ENDROOT
BRANCH   4   7
HETATM    7  O   UNL     1      -6.599   6.312 -30.469  1.00  0.00    -0.342 OA
BRANCH   7   8
HETATM    8  C   UNL     1      -5.670   6.871 -29.546  1.00  0.00     0.278 C 
BRANCH   8   9
HETATM    9  C   UNL     1      -4.315   7.223 -30.169  1.00  0.00     0.246 C 
HETATM   10  N   UNL     1      -3.303   6.398 -29.719  1.00  0.00    -0.323 N 
HETATM   11  H   UNL     1      -3.526   5.738 -28.979  1.00  0.00     0.169 HD
HETATM   12  O   UNL     1      -4.203   8.159 -30.956  1.00  0.00    -0.271 OA
BRANCH  10  13
HETATM   13  C   UNL     1      -1.965   6.333 -30.161  1.00  0.00     0.068 A 
HETATM   14  C   UNL     1      -1.662   5.381 -31.156  1.00  0.00     0.095 A 
HETATM   15  C   UNL     1      -0.365   5.302 -31.672  1.00  0.00     0.039 A 
HETATM   16  C   UNL     1       0.631   6.154 -31.193  1.00  0.00     0.003 A 
HETATM   17  C   UNL     1       0.336   7.086 -30.201  1.00  0.00     0.002 A 
HETATM   18  C   UNL     1      -0.959   7.177 -29.684  1.00  0.00     0.032 A 
BRANCH  14  19
HETATM   19  O   UNL     1      -2.712   4.588 -31.563  1.00  0.00    -0.354 OA
HETATM   20  C   UNL     1      -2.589   3.995 -32.852  1.00  0.00     0.210 C 
ENDBRANCH  14  19
ENDBRANCH  10  13
ENDBRANCH   8   9
ENDBRANCH   7   8
ENDBRANCH   4   7
BRANCH   1  21
HETATM   21  C   UNL     1      -6.151   0.860 -31.897  1.00  0.00     0.270 C 
HETATM   22  N   UNL     1      -5.496   0.622 -33.081  1.00  0.00    -0.259 N 
HETATM   23  H   UNL     1      -5.255   1.350 -33.735  1.00  0.00     0.191 HD
HETATM   24  O   UNL     1      -6.670   0.012 -31.183  1.00  0.00    -0.266 OA
BRANCH  22  25
HETATM   25  N   UNL     1      -5.430  -0.629 -33.568  1.00  0.00    -0.263 N 
HETATM   26  C   UNL     1      -4.379  -1.470 -33.326  1.00  0.00     0.030 A 
HETATM   27  C   UNL     1      -3.307  -1.174 -32.342  1.00  0.00     0.070 C 
HETATM   28  C   UNL     1      -4.562  -2.572 -34.140  1.00  0.00     0.028 A 
HETATM   29  C   UNL     1      -5.738  -2.354 -34.904  1.00  0.00     0.028 A 
HETATM   30  C   UNL     1      -6.251  -1.119 -34.547  1.00  0.00     0.030 A 
HETATM   31  C   UNL     1      -7.466  -0.416 -35.032  1.00  0.00     0.070 C 
ENDBRANCH  22  25
ENDBRANCH   1  21
TORSDOF 7
ENDMDL
MODEL 4
REMARK VINA RESULT:      -7.9      2.199     10.035
REMARK  7 active torsions:
REMARK  status: ('A' for Active; 'I' for Inactive)
REMARK    1  A    between atoms: N_3  and  N_4 
REMARK       I    between atoms: N_4  and  C_5 
REMARK    2  A    between atoms: C_5  and  C_6 
REMARK    3  A    between atoms: C_9  and  O_10 
REMARK    4  A    between atoms: O_10  and  C_11 
REMARK    5  A    between atoms: C_11  and  C_12 
REMARK       I    between atoms: C_12  and  N_13 
REMARK    6  A    between atoms: N_13  and  C_14 
REMARK    7  A    between atoms: C_15  and  O_16 
ROOT
HETATM    1  C   UNL     1      -5.242   1.530 -31.353  1.00  0.00     0.033 A 
HETATM    2  C   UNL     1      -4.110   2.243 -31.760  1.00  0.00     0.020 A 
HETATM    3  C   UNL     1      -3.912   3.548 -31.299  1.00  0.00     0.038 A 
HETATM    4  C   UNL     1      -4.842   4.153 -30.450  1.00  0.00     0.069 A 
HETATM    5  C   UNL     1      -5.955   3.426 -30.021  1.00  0.00     0.038 A 
HETATM    6  C   UNL     1      -6.151   2.115 -30.467  1.00  0.00     0.020 A 
ENDROOT
BRANCH   4   7
HETATM    7  O   UNL     1      -4.552   5.444 -30.096  1.00  0.00    -0.342 OA
BRANCH   7   8
HETATM    8  C   UNL     1      -3.547   6.100 -30.863  1.00  0.00     0.278 C 
BRANCH   8   9
HETATM    9  C   UNL     1      -2.747   7.141 -30.071  1.00  0.00     0.246 C 
HETATM   10  N   UNL     1      -1.824   6.557 -29.226  1.00  0.00    -0.323 N 
HETATM   11  H   UNL     1      -1.837   5.544 -29.141  1.00  0.00     0.169 HD
HETATM   12  O   UNL     1      -2.964   8.342 -30.203  1.00  0.00    -0.271 OA
BRANCH  10  13
HETATM   13  C   UNL     1      -0.829   7.185 -28.448  1.00  0.00     0.068 A 
HETATM   14  C   UNL     1      -1.071   7.293 -27.063  1.00  0.00     0.095 A 
HETATM   15  C   UNL     1      -0.102   7.860 -26.230  1.00  0.00     0.039 A 
HETATM   16  C   UNL     1       1.096   8.331 -26.771  1.00  0.00     0.003 A 
HETATM   17  C   UNL     1       1.330   8.236 -28.140  1.00  0.00     0.002 A 
HETATM   18  C   UNL     1       0.369   7.665 -28.979  1.00  0.00     0.032 A 
BRANCH  14  19
HETATM   19  O   UNL     1      -2.280   6.800 -26.627  1.00  0.00    -0.354 OA
HETATM   20  C   UNL     1      -2.940   7.556 -25.616  1.00  0.00     0.210 C 
ENDBRANCH  14  19
ENDBRANCH  10  13
ENDBRANCH   8   9
ENDBRANCH   7   8
ENDBRANCH   4   7
BRANCH   1  21
HETATM   21  C   UNL     1      -5.501   0.147 -31.828  1.00  0.00     0.270 C 
HETATM   22  N   UNL     1      -4.820  -0.205 -32.969  1.00  0.00    -0.259 N 
HETATM   23  H   UNL     1      -4.328   0.459 -33.544  1.00  0.00     0.191 HD
HETATM   24  O   UNL     1      -6.298  -0.560 -31.224  1.00  0.00    -0.266 OA
BRANCH  22  25
HETATM   25  N   UNL     1      -5.046  -1.401 -33.540  1.00  0.00    -0.263 N 
HETATM   26  C   UNL     1      -4.259  -2.496 -33.316  1.00  0.00     0.030 A 
HETATM   27  C   UNL     1      -3.205  -2.543 -32.270  1.00  0.00     0.070 C 
HETATM   28  C   UNL     1      -4.669  -3.465 -34.212  1.00  0.00     0.028 A 
HETATM   29  C   UNL     1      -5.705  -2.908 -35.006  1.00  0.00     0.028 A 
HETATM   30  C   UNL     1      -5.907  -1.606 -34.583  1.00  0.00     0.030 A 
HETATM   31  C   UNL     1      -6.874  -0.587 -35.067  1.00  0.00     0.070 C 
ENDBRANCH  22  25
ENDBRANCH   1  21
TORSDOF 7
ENDMDL
MODEL 5
REMARK VINA RESULT:      -7.8      1.274      1.938
REMARK  7 active torsions:
REMARK  status: ('A' for Active; 'I' for Inactive)
REMARK    1  A    between atoms: N_3  and  N_4 
REMARK       I    between atoms: N_4  and  C_5 
REMARK    2  A    between atoms: C_5  and  C_6 
REMARK    3  A    between atoms: C_9  and  O_10 
REMARK    4  A    between atoms: O_10  and  C_11 
REMARK    5  A    between atoms: C_11  and  C_12 
REMARK       I    between atoms: C_12  and  N_13 
REMARK    6  A    between atoms: N_13  and  C_14 
REMARK    7  A    between atoms: C_15  and  O_16 
ROOT
HETATM    1  C   UNL     1      -4.118   4.728 -31.995  1.00  0.00     0.033 A 
HETATM    2  C   UNL     1      -3.848   3.496 -32.600  1.00  0.00     0.020 A 
HETATM    3  C   UNL     1      -4.902   2.631 -32.909  1.00  0.00     0.038 A 
HETATM    4  C   UNL     1      -6.221   2.978 -32.604  1.00  0.00     0.069 A 
HETATM    5  C   UNL     1      -6.488   4.223 -32.030  1.00  0.00     0.038 A 
HETATM    6  C   UNL     1      -5.439   5.098 -31.731  1.00  0.00     0.020 A 
ENDROOT
BRANCH   4   7
HETATM    7  O   UNL     1      -7.159   2.034 -32.926  1.00  0.00    -0.342 OA
BRANCH   7   8
HETATM    8  C   UNL     1      -6.930   1.296 -34.122  1.00  0.00     0.278 C 
BRANCH   8   9
HETATM    9  C   UNL     1      -6.990  -0.224 -33.932  1.00  0.00     0.246 C 
HETATM   10  N   UNL     1      -5.963  -0.873 -34.588  1.00  0.00    -0.323 N 
HETATM   11  H   UNL     1      -5.359  -0.316 -35.186  1.00  0.00     0.169 HD
HETATM   12  O   UNL     1      -7.887  -0.746 -33.276  1.00  0.00    -0.271 OA
BRANCH  10  13
HETATM   13  C   UNL     1      -5.616  -2.240 -34.536  1.00  0.00     0.068 A 
HETATM   14  C   UNL     1      -4.437  -2.578 -33.841  1.00  0.00     0.095 A 
HETATM   15  C   UNL     1      -4.067  -3.920 -33.711  1.00  0.00     0.039 A 
HETATM   16  C   UNL     1      -4.855  -4.921 -34.280  1.00  0.00     0.003 A 
HETATM   17  C   UNL     1      -6.013  -4.587 -34.978  1.00  0.00     0.002 A 
HETATM   18  C   UNL     1      -6.394  -3.249 -35.108  1.00  0.00     0.032 A 
BRANCH  14  19
HETATM   19  O   UNL     1      -3.730  -1.520 -33.315  1.00  0.00    -0.354 OA
HETATM   20  C   UNL     1      -3.192  -1.711 -32.009  1.00  0.00     0.210 C 
ENDBRANCH  14  19
ENDBRANCH  10  13
ENDBRANCH   8   9
ENDBRANCH   7   8
ENDBRANCH   4   7
BRANCH   1  21
HETATM   21  C   UNL     1      -3.029   5.672 -31.637  1.00  0.00     0.270 C 
HETATM   22  N   UNL     1      -2.453   5.444 -30.410  1.00  0.00    -0.259 N 
HETATM   23  H   UNL     1      -2.841   4.814 -29.727  1.00  0.00     0.191 HD
HETATM   24  O   UNL     1      -2.742   6.582 -32.404  1.00  0.00    -0.266 OA
BRANCH  22  25
HETATM   25  N   UNL     1      -1.520   6.291 -29.942  1.00  0.00    -0.263 N 
HETATM   26  C   UNL     1      -1.825   7.413 -29.222  1.00  0.00     0.030 A 
HETATM   27  C   UNL     1      -3.185   7.706 -28.704  1.00  0.00     0.070 C 
HETATM   28  C   UNL     1      -0.648   8.128 -29.092  1.00  0.00     0.028 A 
HETATM   29  C   UNL     1       0.367   7.419 -29.785  1.00  0.00     0.028 A 
HETATM   30  C   UNL     1      -0.208   6.284 -30.330  1.00  0.00     0.030 A 
HETATM   31  C   UNL     1       0.407   5.199 -31.138  1.00  0.00     0.070 C 
ENDBRANCH  22  25
ENDBRANCH   1  21
TORSDOF 7
ENDMDL
MODEL 6
REMARK VINA RESULT:      -7.7      1.692      2.442
REMARK  7 active torsions:
REMARK  status: ('A' for Active; 'I' for Inactive)
REMARK    1  A    between atoms: N_3  and  N_4 
REMARK       I    between atoms: N_4  and  C_5 
REMARK    2  A    between atoms: C_5  and  C_6 
REMARK    3  A    between atoms: C_9  and  O_10 
REMARK    4  A    between atoms: O_10  and  C_11 
REMARK    5  A    between atoms: C_11  and  C_12 
REMARK       I    between atoms: C_12  and  N_13 
REMARK    6  A    between atoms: N_13  and  C_14 
REMARK    7  A    between atoms: C_15  and  O_16 
ROOT
HETATM    1  C   UNL     1      -4.582   4.106 -31.736  1.00  0.00     0.033 A 
HETATM    2  C   UNL     1      -5.295   4.602 -32.833  1.00  0.00     0.020 A 
HETATM    3  C   UNL     1      -6.598   4.156 -33.070  1.00  0.00     0.038 A 
HETATM    4  C   UNL     1      -7.190   3.207 -32.232  1.00  0.00     0.069 A 
HETATM    5  C   UNL     1      -6.487   2.739 -31.120  1.00  0.00     0.038 A 
HETATM    6  C   UNL     1      -5.187   3.192 -30.870  1.00  0.00     0.020 A 
ENDROOT
BRANCH   4   7
HETATM    7  O   UNL     1      -8.456   2.827 -32.589  1.00  0.00    -0.342 OA
BRANCH   7   8
HETATM    8  C   UNL     1      -8.741   1.433 -32.526  1.00  0.00     0.278 C 
BRANCH   8   9
HETATM    9  C   UNL     1      -7.960   0.596 -33.546  1.00  0.00     0.246 C 
HETATM   10  N   UNL     1      -7.194  -0.382 -32.943  1.00  0.00    -0.323 N 
HETATM   11  H   UNL     1      -7.147  -0.383 -31.927  1.00  0.00     0.169 HD
HETATM   12  O   UNL     1      -8.033   0.833 -34.749  1.00  0.00    -0.271 OA
BRANCH  10  13
HETATM   13  C   UNL     1      -6.454  -1.415 -33.553  1.00  0.00     0.068 A 
HETATM   14  C   UNL     1      -5.070  -1.459 -33.285  1.00  0.00     0.095 A 
HETATM   15  C   UNL     1      -4.290  -2.488 -33.819  1.00  0.00     0.039 A 
HETATM   16  C   UNL     1      -4.877  -3.463 -34.628  1.00  0.00     0.003 A 
HETATM   17  C   UNL     1      -6.241  -3.412 -34.905  1.00  0.00     0.002 A 
HETATM   18  C   UNL     1      -7.030  -2.391 -34.369  1.00  0.00     0.032 A 
BRANCH  14  19
HETATM   19  O   UNL     1      -4.586  -0.455 -32.476  1.00  0.00    -0.354 OA
HETATM   20  C   UNL     1      -3.243  -0.046 -32.717  1.00  0.00     0.210 C 
ENDBRANCH  14  19
ENDBRANCH  10  13
ENDBRANCH   8   9
ENDBRANCH   7   8
ENDBRANCH   4   7
BRANCH   1  21
HETATM   21  C   UNL     1      -3.190   4.541 -31.453  1.00  0.00     0.270 C 
HETATM   22  N   UNL     1      -3.004   5.903 -31.450  1.00  0.00    -0.259 N 
HETATM   23  H   UNL     1      -3.696   6.555 -31.785  1.00  0.00     0.191 HD
HETATM   24  O   UNL     1      -2.318   3.699 -31.282  1.00  0.00    -0.266 OA
BRANCH  22  25
HETATM   25  N   UNL     1      -1.768   6.408 -31.296  1.00  0.00    -0.263 N 
HETATM   26  C   UNL     1      -0.823   6.382 -32.284  1.00  0.00     0.030 A 
HETATM   27  C   UNL     1      -1.117   5.988 -33.685  1.00  0.00     0.070 C 
HETATM   28  C   UNL     1       0.362   6.799 -31.705  1.00  0.00     0.028 A 
HETATM   29  C   UNL     1       0.108   7.043 -30.331  1.00  0.00     0.028 A 
HETATM   30  C   UNL     1      -1.227   6.768 -30.092  1.00  0.00     0.030 A 
HETATM   31  C   UNL     1      -2.009   6.867 -28.833  1.00  0.00     0.070 C 
ENDBRANCH  22  25
ENDBRANCH   1  21
TORSDOF 7
ENDMDL
MODEL 7
REMARK VINA RESULT:      -7.6      4.842      9.112
REMARK  7 active torsions:
REMARK  status: ('A' for Active; 'I' for Inactive)
REMARK    1  A    between atoms: N_3  and  N_4 
REMARK       I    between atoms: N_4  and  C_5 
REMARK    2  A    between atoms: C_5  and  C_6 
REMARK    3  A    between atoms: C_9  and  O_10 
REMARK    4  A    between atoms: O_10  and  C_11 
REMARK    5  A    between atoms: C_11  and  C_12 
REMARK       I    between atoms: C_12  and  N_13 
REMARK    6  A    between atoms: N_13  and  C_14 
REMARK    7  A    between atoms: C_15  and  O_16 
ROOT
HETATM    1  C   UNL     1     -10.108   3.713 -32.494  1.00  0.00     0.033 A 
HETATM    2  C   UNL     1      -9.079   4.031 -33.385  1.00  0.00     0.020 A 
HETATM    3  C   UNL     1      -7.765   4.136 -32.917  1.00  0.00     0.038 A 
HETATM    4  C   UNL     1      -7.474   3.944 -31.564  1.00  0.00     0.069 A 
HETATM    5  C   UNL     1      -8.500   3.595 -30.683  1.00  0.00     0.038 A 
HETATM    6  C   UNL     1      -9.814   3.474 -31.148  1.00  0.00     0.020 A 
ENDROOT
BRANCH   4   7
HETATM    7  O   UNL     1      -6.157   4.106 -31.225  1.00  0.00    -0.342 OA
BRANCH   7   8
HETATM    8  C   UNL     1      -5.479   2.949 -30.745  1.00  0.00     0.278 C 
BRANCH   8   9
HETATM    9  C   UNL     1      -5.084   1.962 -31.849  1.00  0.00     0.246 C 
HETATM   10  N   UNL     1      -5.858   0.818 -31.828  1.00  0.00    -0.323 N 
HETATM   11  H   UNL     1      -6.511   0.705 -31.057  1.00  0.00     0.169 HD
HETATM   12  O   UNL     1      -4.162   2.209 -32.620  1.00  0.00    -0.271 OA
BRANCH  10  13
HETATM   13  C   UNL     1      -5.877  -0.243 -32.757  1.00  0.00     0.068 A 
HETATM   14  C   UNL     1      -7.015  -0.354 -33.582  1.00  0.00     0.095 A 
HETATM   15  C   UNL     1      -7.072  -1.354 -34.557  1.00  0.00     0.039 A 
HETATM   16  C   UNL     1      -6.011  -2.249 -34.704  1.00  0.00     0.003 A 
HETATM   17  C   UNL     1      -4.893  -2.148 -33.881  1.00  0.00     0.002 A 
HETATM   18  C   UNL     1      -4.824  -1.148 -32.907  1.00  0.00     0.032 A 
BRANCH  14  19
HETATM   19  O   UNL     1      -8.006   0.576 -33.361  1.00  0.00    -0.354 OA
HETATM   20  C   UNL     1      -9.273   0.060 -32.963  1.00  0.00     0.210 C 
ENDBRANCH  14  19
ENDBRANCH  10  13
ENDBRANCH   8   9
ENDBRANCH   7   8
ENDBRANCH   4   7
BRANCH   1  21
HETATM   21  C   UNL     1     -11.520   3.604 -32.944  1.00  0.00     0.270 C 
HETATM   22  N   UNL     1     -12.315   2.811 -32.152  1.00  0.00    -0.259 N 
HETATM   23  H   UNL     1     -11.950   2.208 -31.432  1.00  0.00     0.191 HD
HETATM   24  O   UNL     1     -11.871   4.173 -33.970  1.00  0.00    -0.266 OA
BRANCH  22  25
HETATM   25  N   UNL     1     -13.587   2.567 -32.513  1.00  0.00    -0.263 N 
HETATM   26  C   UNL     1     -14.651   3.265 -32.013  1.00  0.00     0.030 A 
HETATM   27  C   UNL     1     -14.509   4.490 -31.186  1.00  0.00     0.070 C 
HETATM   28  C   UNL     1     -15.789   2.612 -32.451  1.00  0.00     0.028 A 
HETATM   29  C   UNL     1     -15.375   1.481 -33.201  1.00  0.00     0.028 A 
HETATM   30  C   UNL     1     -13.992   1.460 -33.206  1.00  0.00     0.030 A 
HETATM   31  C   UNL     1     -13.056   0.502 -33.849  1.00  0.00     0.070 C 
ENDBRANCH  22  25
ENDBRANCH   1  21
TORSDOF 7
ENDMDL
MODEL 8
REMARK VINA RESULT:      -7.5      4.326      7.567
REMARK  7 active torsions:
REMARK  status: ('A' for Active; 'I' for Inactive)
REMARK    1  A    between atoms: N_3  and  N_4 
REMARK       I    between atoms: N_4  and  C_5 
REMARK    2  A    between atoms: C_5  and  C_6 
REMARK    3  A    between atoms: C_9  and  O_10 
REMARK    4  A    between atoms: O_10  and  C_11 
REMARK    5  A    between atoms: C_11  and  C_12 
REMARK       I    between atoms: C_12  and  N_13 
REMARK    6  A    between atoms: N_13  and  C_14 
REMARK    7  A    between atoms: C_15  and  O_16 
ROOT
HETATM    1  C   UNL     1      -7.652   3.190 -32.443  1.00  0.00     0.033 A 
HETATM    2  C   UNL     1      -7.232   2.838 -31.156  1.00  0.00     0.020 A 
HETATM    3  C   UNL     1      -5.873   2.625 -30.906  1.00  0.00     0.038 A 
HETATM    4  C   UNL     1      -4.933   2.744 -31.933  1.00  0.00     0.069 A 
HETATM    5  C   UNL     1      -5.353   3.126 -33.209  1.00  0.00     0.038 A 
HETATM    6  C   UNL     1      -6.710   3.355 -33.462  1.00  0.00     0.020 A 
ENDROOT
BRANCH   4   7
HETATM    7  O   UNL     1      -3.640   2.478 -31.569  1.00  0.00    -0.342 OA
BRANCH   7   8
HETATM    8  C   UNL     1      -3.354   1.138 -31.180  1.00  0.00     0.278 C 
BRANCH   8   9
HETATM    9  C   UNL     1      -3.415   0.133 -32.335  1.00  0.00     0.246 C 
HETATM   10  N   UNL     1      -4.490  -0.727 -32.222  1.00  0.00    -0.323 N 
HETATM   11  H   UNL     1      -5.047  -0.677 -31.373  1.00  0.00     0.169 HD
HETATM   12  O   UNL     1      -2.563   0.129 -33.219  1.00  0.00    -0.271 OA
BRANCH  10  13
HETATM   13  C   UNL     1      -4.944  -1.688 -33.150  1.00  0.00     0.068 A 
HETATM   14  C   UNL     1      -6.162  -1.420 -33.808  1.00  0.00     0.095 A 
HETATM   15  C   UNL     1      -6.640  -2.309 -34.775  1.00  0.00     0.039 A 
HETATM   16  C   UNL     1      -5.920  -3.465 -35.080  1.00  0.00     0.003 A 
HETATM   17  C   UNL     1      -4.723  -3.736 -34.421  1.00  0.00     0.002 A 
HETATM   18  C   UNL     1      -4.235  -2.850 -33.457  1.00  0.00     0.032 A 
BRANCH  14  19
HETATM   19  O   UNL     1      -6.797  -0.255 -33.439  1.00  0.00    -0.354 OA
HETATM   20  C   UNL     1      -8.208  -0.338 -33.259  1.00  0.00     0.210 C 
ENDBRANCH  14  19
ENDBRANCH  10  13
ENDBRANCH   8   9
ENDBRANCH   7   8
ENDBRANCH   4   7
BRANCH   1  21
HETATM   21  C   UNL     1      -9.087   3.413 -32.758  1.00  0.00     0.270 C 
HETATM   22  N   UNL     1      -9.448   3.095 -34.046  1.00  0.00    -0.259 N 
HETATM   23  H   UNL     1      -8.779   2.900 -34.774  1.00  0.00     0.191 HD
HETATM   24  O   UNL     1      -9.827   3.880 -31.902  1.00  0.00    -0.266 OA
BRANCH  22  25
HETATM   25  N   UNL     1     -10.699   3.342 -34.469  1.00  0.00    -0.263 N 
HETATM   26  C   UNL     1     -11.692   2.400 -34.451  1.00  0.00     0.030 A 
HETATM   27  C   UNL     1     -11.556   1.084 -33.779  1.00  0.00     0.070 C 
HETATM   28  C   UNL     1     -12.762   2.946 -35.137  1.00  0.00     0.028 A 
HETATM   29  C   UNL     1     -12.371   4.230 -35.597  1.00  0.00     0.028 A 
HETATM   30  C   UNL     1     -11.066   4.446 -35.188  1.00  0.00     0.030 A 
HETATM   31  C   UNL     1     -10.187   5.625 -35.393  1.00  0.00     0.070 C 
ENDBRANCH  22  25
ENDBRANCH   1  21
TORSDOF 7
ENDMDL
MODEL 9
REMARK VINA RESULT:      -7.5      2.894     10.087
REMARK  7 active torsions:
REMARK  status: ('A' for Active; 'I' for Inactive)
REMARK    1  A    between atoms: N_3  and  N_4 
REMARK       I    between atoms: N_4  and  C_5 
REMARK    2  A    between atoms: C_5  and  C_6 
REMARK    3  A    between atoms: C_9  and  O_10 
REMARK    4  A    between atoms: O_10  and  C_11 
REMARK    5  A    between atoms: C_11  and  C_12 
REMARK       I    between atoms: C_12  and  N_13 
REMARK    6  A    between atoms: N_13  and  C_14 
REMARK    7  A    between atoms: C_15  and  O_16 
ROOT
HETATM    1  C   UNL     1      -4.931   3.851 -32.994  1.00  0.00     0.033 A 
HETATM    2  C   UNL     1      -4.335   3.122 -31.959  1.00  0.00     0.020 A 
HETATM    3  C   UNL     1      -3.009   3.385 -31.603  1.00  0.00     0.038 A 
HETATM    4  C   UNL     1      -2.269   4.357 -32.281  1.00  0.00     0.069 A 
HETATM    5  C   UNL     1      -2.878   5.104 -33.291  1.00  0.00     0.038 A 
HETATM    6  C   UNL     1      -4.208   4.855 -33.643  1.00  0.00     0.020 A 
ENDROOT
BRANCH   4   7
HETATM    7  O   UNL     1      -0.973   4.498 -31.860  1.00  0.00    -0.342 OA
BRANCH   7   8
HETATM    8  C   UNL     1      -0.524   5.829 -31.625  1.00  0.00     0.278 C 
BRANCH   8   9
HETATM    9  C   UNL     1       0.130   6.028 -30.254  1.00  0.00     0.246 C 
HETATM   10  N   UNL     1      -0.136   7.275 -29.724  1.00  0.00    -0.323 N 
HETATM   11  H   UNL     1      -0.630   7.942 -30.312  1.00  0.00     0.169 HD
HETATM   12  O   UNL     1       0.819   5.148 -29.746  1.00  0.00    -0.271 OA
BRANCH  10  13
HETATM   13  C   UNL     1       0.181   7.767 -28.441  1.00  0.00     0.068 A 
HETATM   14  C   UNL     1      -0.808   7.642 -27.443  1.00  0.00     0.095 A 
HETATM   15  C   UNL     1      -0.536   8.064 -26.138  1.00  0.00     0.039 A 
HETATM   16  C   UNL     1       0.705   8.622 -25.828  1.00  0.00     0.003 A 
HETATM   17  C   UNL     1       1.677   8.758 -26.816  1.00  0.00     0.002 A 
HETATM   18  C   UNL     1       1.416   8.333 -28.121  1.00  0.00     0.032 A 
BRANCH  14  19
HETATM   19  O   UNL     1      -1.997   7.079 -27.847  1.00  0.00    -0.354 OA
HETATM   20  C   UNL     1      -3.184   7.739 -27.415  1.00  0.00     0.210 C 
ENDBRANCH  14  19
ENDBRANCH  10  13
ENDBRANCH   8   9
ENDBRANCH   7   8
ENDBRANCH   4   7
BRANCH   1  21
HETATM   21  C   UNL     1      -6.333   3.596 -33.416  1.00  0.00     0.270 C 
HETATM   22  N   UNL     1      -6.887   2.448 -32.901  1.00  0.00    -0.259 N 
HETATM   23  H   UNL     1      -6.349   1.741 -32.426  1.00  0.00     0.191 HD
HETATM   24  O   UNL     1      -6.879   4.368 -34.193  1.00  0.00    -0.266 OA
BRANCH  22  25
HETATM   25  N   UNL     1      -8.118   2.069 -33.287  1.00  0.00    -0.263 N 
HETATM   26  C   UNL     1      -9.249   2.382 -32.585  1.00  0.00     0.030 A 
HETATM   27  C   UNL     1      -9.266   3.337 -31.448  1.00  0.00     0.070 C 
HETATM   28  C   UNL     1     -10.280   1.665 -33.163  1.00  0.00     0.028 A 
HETATM   29  C   UNL     1      -9.729   0.886 -34.213  1.00  0.00     0.028 A 
HETATM   30  C   UNL     1      -8.369   1.137 -34.256  1.00  0.00     0.030 A 
HETATM   31  C   UNL     1      -7.328   0.594 -35.166  1.00  0.00     0.070 C 
ENDBRANCH  22  25
ENDBRANCH   1  21
TORSDOF 7
ENDMDL
MODEL 10
REMARK VINA RESULT:      -7.5      2.283     10.042
REMARK  7 active torsions:
REMARK  status: ('A' for Active; 'I' for Inactive)
REMARK    1  A    between atoms: N_3  and  N_4 
REMARK       I    between atoms: N_4  and  C_5 
REMARK    2  A    between atoms: C_5  and  C_6 
REMARK    3  A    between atoms: C_9  and  O_10 
REMARK    4  A    between atoms: O_10  and  C_11 
REMARK    5  A    between atoms: C_11  and  C_12 
REMARK       I    between atoms: C_12  and  N_13 
REMARK    6  A    between atoms: N_13  and  C_14 
REMARK    7  A    between atoms: C_15  and  O_16 
ROOT
HETATM    1  C   UNL     1      -5.437   2.375 -32.040  1.00  0.00     0.033 A 
HETATM    2  C   UNL     1      -6.345   3.423 -32.224  1.00  0.00     0.020 A 
HETATM    3  C   UNL     1      -5.979   4.725 -31.872  1.00  0.00     0.038 A 
HETATM    4  C   UNL     1      -4.722   4.988 -31.322  1.00  0.00     0.069 A 
HETATM    5  C   UNL     1      -3.807   3.944 -31.170  1.00  0.00     0.038 A 
HETATM    6  C   UNL     1      -4.162   2.641 -31.533  1.00  0.00     0.020 A 
ENDROOT
BRANCH   4   7
HETATM    7  O   UNL     1      -4.496   6.297 -30.988  1.00  0.00    -0.342 OA
BRANCH   7   8
HETATM    8  C   UNL     1      -4.619   6.630 -29.609  1.00  0.00     0.278 C 
BRANCH   8   9
HETATM    9  C   UNL     1      -3.466   7.486 -29.075  1.00  0.00     0.246 C 
HETATM   10  N   UNL     1      -2.415   6.718 -28.614  1.00  0.00    -0.323 N 
HETATM   11  H   UNL     1      -2.546   5.710 -28.581  1.00  0.00     0.169 HD
HETATM   12  O   UNL     1      -3.538   8.712 -29.065  1.00  0.00    -0.271 OA
BRANCH  10  13
HETATM   13  C   UNL     1      -1.144   7.145 -28.177  1.00  0.00     0.068 A 
HETATM   14  C   UNL     1      -0.872   7.044 -26.797  1.00  0.00     0.095 A 
HETATM   15  C   UNL     1       0.388   7.405 -26.308  1.00  0.00     0.039 A 
HETATM   16  C   UNL     1       1.369   7.875 -27.182  1.00  0.00     0.003 A 
HETATM   17  C   UNL     1       1.096   7.987 -28.544  1.00  0.00     0.002 A 
HETATM   18  C   UNL     1      -0.158   7.624 -29.041  1.00  0.00     0.032 A 
BRANCH  14  19
HETATM   19  O   UNL     1      -1.902   6.569 -26.018  1.00  0.00    -0.354 OA
HETATM   20  C   UNL     1      -2.548   7.522 -25.179  1.00  0.00     0.210 C 
ENDBRANCH  14  19
ENDBRANCH  10  13
ENDBRANCH   8   9
ENDBRANCH   7   8
ENDBRANCH   4   7
BRANCH   1  21
HETATM   21  C   UNL     1      -5.787   0.974 -32.387  1.00  0.00     0.270 C 
HETATM   22  N   UNL     1      -5.269   0.532 -33.580  1.00  0.00    -0.259 N 
HETATM   23  H   UNL     1      -4.840   1.144 -34.257  1.00  0.00     0.191 HD
HETATM   24  O   UNL     1      -6.514   0.331 -31.640  1.00  0.00    -0.266 OA
BRANCH  22  25
HETATM   25  N   UNL     1      -5.595  -0.689 -34.039  1.00  0.00    -0.263 N 
HETATM   26  C   UNL     1      -6.734  -0.937 -34.755  1.00  0.00     0.030 A 
HETATM   27  C   UNL     1      -7.620   0.134 -35.277  1.00  0.00     0.070 C 
HETATM   28  C   UNL     1      -6.829  -2.311 -34.876  1.00  0.00     0.028 A 
HETATM   29  C   UNL     1      -5.732  -2.883 -34.182  1.00  0.00     0.028 A 
HETATM   30  C   UNL     1      -4.986  -1.848 -33.645  1.00  0.00     0.030 A 
HETATM   31  C   UNL     1      -3.738  -1.892 -32.842  1.00  0.00     0.070 C 
ENDBRANCH  22  25
ENDBRANCH   1  21
TORSDOF 7
ENDMDL
