MODEL 1
REMARK VINA RESULT:      -8.4      0.000      0.000
REMARK  5 active torsions:
REMARK  status: ('A' for Active; 'I' for Inactive)
REMARK    1  A    between atoms: O_2  and  C_3 
REMARK    2  A    between atoms: C_5  and  C_6 
REMARK    3  A    between atoms: C_10  and  C_11 
REMARK       I    between atoms: C_11  and  N_12 
REMARK    4  A    between atoms: N_12  and  C_13 
REMARK    5  A    between atoms: C_13  and  C_14 
ROOT
HETATM    1  C   UNL     1      -4.740   0.477 -32.633  1.00  0.00     0.089 A 
HETATM    2  N   UNL     1      -3.773   0.366 -31.709  1.00  0.00    -0.174 NA
HETATM    3  N   UNL     1      -3.577   1.620 -31.271  1.00  0.00    -0.272 N 
HETATM    4  H   UNL     1      -2.869   1.791 -30.564  1.00  0.00     0.189 HD
HETATM    5  C   UNL     1      -4.400   2.549 -31.843  1.00  0.00     0.120 A 
HETATM    6  C   UNL     1      -5.164   1.831 -32.741  1.00  0.00     0.071 A 
ENDROOT
BRANCH   5   7
HETATM    7  C   UNL     1      -4.344   3.938 -31.470  1.00  0.00     0.269 C 
HETATM    8  N   UNL     1      -3.084   4.420 -31.213  1.00  0.00    -0.355 N 
HETATM    9  H   UNL     1      -2.292   3.798 -31.272  1.00  0.00     0.162 HD
HETATM   10  O   UNL     1      -5.353   4.633 -31.395  1.00  0.00    -0.266 OA
BRANCH   8  11
HETATM   11  C   UNL     1      -2.840   5.782 -30.785  1.00  0.00     0.128 C 
BRANCH  11  12
HETATM   12  C   UNL     1      -1.527   6.331 -31.337  1.00  0.00     0.012 C 
HETATM   13  C   UNL     1      -0.603   7.031 -30.301  1.00  0.00     0.014 C 
HETATM   14  C   UNL     1       0.732   6.996 -31.054  1.00  0.00     0.017 C 
HETATM   15  C   UNL     1      -0.262   6.068 -29.187  1.00  0.00    -0.025 C 
HETATM   16  C   UNL     1       0.737   5.470 -31.170  1.00  0.00     0.009 C 
HETATM   17  C   UNL     1       0.534   5.125 -29.713  1.00  0.00    -0.026 C 
HETATM   18  C   UNL     1      -0.595   5.214 -31.907  1.00  0.00     0.015 C 
ENDBRANCH  11  12
ENDBRANCH   8  11
ENDBRANCH   5   7
BRANCH   1  19
HETATM   19  C   UNL     1      -5.243  -0.686 -33.371  1.00  0.00    -0.003 A 
HETATM   20  C   UNL     1      -4.442  -1.832 -33.517  1.00  0.00     0.050 A 
HETATM   21  C   UNL     1      -4.915  -2.953 -34.204  1.00  0.00     0.069 A 
HETATM   22  C   UNL     1      -6.197  -2.926 -34.754  1.00  0.00     0.037 A 
HETATM   23  C   UNL     1      -7.001  -1.795 -34.626  1.00  0.00     0.004 A 
HETATM   24  C   UNL     1      -6.525  -0.678 -33.937  1.00  0.00     0.014 A 
BRANCH  21  25
HETATM   25  O   UNL     1      -4.235  -4.123 -34.402  1.00  0.00    -0.356 OA
HETATM   26  C   UNL     1      -3.403  -4.569 -33.337  1.00  0.00     0.210 C 
ENDBRANCH  21  25
ENDBRANCH   1  19
TORSDOF 5
ENDMDL
MODEL 2
REMARK VINA RESULT:      -8.3      2.335      3.360
REMARK  5 active torsions:
REMARK  status: ('A' for Active; 'I' for Inactive)
REMARK    1  A    between atoms: O_2  and  C_3 
REMARK    2  A    between atoms: C_5  and  C_6 
REMARK    3  A    between atoms: C_10  and  C_11 
REMARK       I    between atoms: C_11  and  N_12 
REMARK    4  A    between atoms: N_12  and  C_13 
REMARK    5  A    between atoms: C_13  and  C_14 
ROOT
HETATM    1  C   UNL     1      -6.366  -0.769 -34.486  1.00  0.00     0.089 A 
HETATM    2  N   UNL     1      -7.465  -0.360 -35.139  1.00  0.00    -0.174 NA
HETATM    3  N   UNL     1      -7.528   0.960 -34.903  1.00  0.00    -0.272 N 
HETATM    4  H   UNL     1      -8.298   1.494 -35.292  1.00  0.00     0.189 HD
HETATM    5  C   UNL     1      -6.497   1.446 -34.148  1.00  0.00     0.120 A 
HETATM    6  C   UNL     1      -5.728   0.337 -33.856  1.00  0.00     0.071 A 
ENDROOT
BRANCH   5   7
HETATM    7  C   UNL     1      -6.394   2.843 -33.822  1.00  0.00     0.269 C 
HETATM    8  N   UNL     1      -5.178   3.232 -33.316  1.00  0.00    -0.355 N 
HETATM    9  H   UNL     1      -4.452   2.544 -33.180  1.00  0.00     0.162 HD
HETATM   10  O   UNL     1      -7.326   3.622 -33.991  1.00  0.00    -0.266 OA
BRANCH   8  11
HETATM   11  C   UNL     1      -4.905   4.590 -32.893  1.00  0.00     0.128 C 
BRANCH  11  12
HETATM   12  C   UNL     1      -3.485   4.751 -32.354  1.00  0.00     0.012 C 
HETATM   13  C   UNL     1      -2.346   4.350 -33.332  1.00  0.00     0.014 C 
HETATM   14  C   UNL     1      -1.159   5.073 -32.684  1.00  0.00     0.017 C 
HETATM   15  C   UNL     1      -2.447   5.169 -34.599  1.00  0.00    -0.025 C 
HETATM   16  C   UNL     1      -1.812   6.453 -32.799  1.00  0.00     0.009 C 
HETATM   17  C   UNL     1      -2.137   6.434 -34.275  1.00  0.00    -0.026 C 
HETATM   18  C   UNL     1      -3.128   6.235 -32.022  1.00  0.00     0.015 C 
ENDBRANCH  11  12
ENDBRANCH   8  11
ENDBRANCH   5   7
BRANCH   1  19
HETATM   19  C   UNL     1      -5.944  -2.173 -34.483  1.00  0.00    -0.003 A 
HETATM   20  C   UNL     1      -4.747  -2.551 -33.850  1.00  0.00     0.050 A 
HETATM   21  C   UNL     1      -4.342  -3.887 -33.826  1.00  0.00     0.069 A 
HETATM   22  C   UNL     1      -5.137  -4.854 -34.442  1.00  0.00     0.037 A 
HETATM   23  C   UNL     1      -6.323  -4.495 -35.082  1.00  0.00     0.004 A 
HETATM   24  C   UNL     1      -6.725  -3.159 -35.102  1.00  0.00     0.014 A 
BRANCH  21  25
HETATM   25  O   UNL     1      -3.207  -4.375 -33.237  1.00  0.00    -0.356 OA
HETATM   26  C   UNL     1      -2.882  -3.860 -31.951  1.00  0.00     0.210 C 
ENDBRANCH  21  25
ENDBRANCH   1  19
TORSDOF 5
ENDMDL
MODEL 3
REMARK VINA RESULT:      -8.3      1.067      1.789
REMARK  5 active torsions:
REMARK  status: ('A' for Active; 'I' for Inactive)
REMARK    1  A    between atoms: O_2  and  C_3 
REMARK    2  A    between atoms: C_5  and  C_6 
REMARK    3  A    between atoms: C_10  and  C_11 
REMARK       I    between atoms: C_11  and  N_12 
REMARK    4  A    between atoms: N_12  and  C_13 
REMARK    5  A    between atoms: C_13  and  C_14 
ROOT
HETATM    1  C   UNL     1      -3.634  -0.299 -32.129  1.00  0.00     0.089 A 
HETATM    2  N   UNL     1      -2.870  -0.077 -31.049  1.00  0.00    -0.174 NA
HETATM    3  N   UNL     1      -2.949   1.247 -30.844  1.00  0.00    -0.272 N 
HETATM    4  H   UNL     1      -2.431   1.659 -30.074  1.00  0.00     0.189 HD
HETATM    5  C   UNL     1      -3.761   1.904 -31.726  1.00  0.00     0.120 A 
HETATM    6  C   UNL     1      -4.215   0.920 -32.580  1.00  0.00     0.071 A 
ENDROOT
BRANCH   5   7
HETATM    7  C   UNL     1      -3.980   3.323 -31.636  1.00  0.00     0.269 C 
HETATM    8  N   UNL     1      -2.871   4.063 -31.309  1.00  0.00    -0.355 N 
HETATM    9  H   UNL     1      -1.995   3.595 -31.131  1.00  0.00     0.162 HD
HETATM   10  O   UNL     1      -5.080   3.826 -31.843  1.00  0.00    -0.266 OA
BRANCH   8  11
HETATM   11  C   UNL     1      -2.912   5.500 -31.134  1.00  0.00     0.128 C 
BRANCH  11  12
HETATM   12  C   UNL     1      -1.606   6.169 -31.554  1.00  0.00     0.012 C 
HETATM   13  C   UNL     1      -0.885   6.991 -30.449  1.00  0.00     0.014 C 
HETATM   14  C   UNL     1       0.526   7.075 -31.043  1.00  0.00     0.017 C 
HETATM   15  C   UNL     1      -0.581   6.100 -29.266  1.00  0.00    -0.025 C 
HETATM   16  C   UNL     1       0.699   5.554 -31.097  1.00  0.00     0.009 C 
HETATM   17  C   UNL     1       0.362   5.231 -29.660  1.00  0.00    -0.026 C 
HETATM   18  C   UNL     1      -0.506   5.140 -31.970  1.00  0.00     0.015 C 
ENDBRANCH  11  12
ENDBRANCH   8  11
ENDBRANCH   5   7
BRANCH   1  19
HETATM   19  C   UNL     1      -3.805  -1.641 -32.695  1.00  0.00    -0.003 A 
HETATM   20  C   UNL     1      -4.604  -1.832 -33.836  1.00  0.00     0.050 A 
HETATM   21  C   UNL     1      -4.762  -3.102 -34.394  1.00  0.00     0.069 A 
HETATM   22  C   UNL     1      -4.119  -4.193 -33.805  1.00  0.00     0.037 A 
HETATM   23  C   UNL     1      -3.331  -4.022 -32.669  1.00  0.00     0.004 A 
HETATM   24  C   UNL     1      -3.174  -2.750 -32.116  1.00  0.00     0.014 A 
BRANCH  21  25
HETATM   25  O   UNL     1      -5.503  -3.410 -35.502  1.00  0.00    -0.356 OA
HETATM   26  C   UNL     1      -6.316  -4.575 -35.425  1.00  0.00     0.210 C 
ENDBRANCH  21  25
ENDBRANCH   1  19
TORSDOF 5
ENDMDL
MODEL 4
REMARK VINA RESULT:      -8.2     16.290     18.086
REMARK  5 active torsions:
REMARK  status: ('A' for Active; 'I' for Inactive)
REMARK    1  A    between atoms: O_2  and  C_3 
REMARK    2  A    between atoms: C_5  and  C_6 
REMARK    3  A    between atoms: C_10  and  C_11 
REMARK       I    between atoms: C_11  and  N_12 
REMARK    4  A    between atoms: N_12  and  C_13 
REMARK    5  A    between atoms: C_13  and  C_14 
ROOT
HETATM    1  C   UNL     1      -7.196 -12.621 -39.956  1.00  0.00     0.089 A 
HETATM    2  N   UNL     1      -6.370 -12.306 -40.966  1.00  0.00    -0.174 NA
HETATM    3  N   UNL     1      -5.161 -12.195 -40.393  1.00  0.00    -0.272 N 
HETATM    4  H   UNL     1      -4.363 -11.944 -40.969  1.00  0.00     0.189 HD
HETATM    5  C   UNL     1      -5.149 -12.457 -39.052  1.00  0.00     0.120 A 
HETATM    6  C   UNL     1      -6.466 -12.731 -38.739  1.00  0.00     0.071 A 
ENDROOT
BRANCH   5   7
HETATM    7  C   UNL     1      -3.933 -12.410 -38.284  1.00  0.00     0.269 C 
HETATM    8  N   UNL     1      -2.777 -12.481 -39.023  1.00  0.00    -0.355 N 
HETATM    9  H   UNL     1      -2.833 -12.582 -40.025  1.00  0.00     0.162 HD
HETATM   10  O   UNL     1      -3.938 -12.309 -37.061  1.00  0.00    -0.266 OA
BRANCH   8  11
HETATM   11  C   UNL     1      -1.462 -12.489 -38.417  1.00  0.00     0.128 C 
BRANCH  11  12
HETATM   12  C   UNL     1      -0.451 -13.274 -39.250  1.00  0.00     0.012 C 
HETATM   13  C   UNL     1       0.295 -14.415 -38.503  1.00  0.00     0.014 C 
HETATM   14  C   UNL     1       0.802 -15.239 -39.691  1.00  0.00     0.017 C 
HETATM   15  C   UNL     1      -0.707 -15.404 -37.950  1.00  0.00    -0.025 C 
HETATM   16  C   UNL     1      -0.604 -15.483 -40.246  1.00  0.00     0.009 C 
HETATM   17  C   UNL     1      -1.253 -16.037 -38.999  1.00  0.00    -0.026 C 
HETATM   18  C   UNL     1      -1.111 -14.038 -40.442  1.00  0.00     0.015 C 
ENDBRANCH  11  12
ENDBRANCH   8  11
ENDBRANCH   5   7
BRANCH   1  19
HETATM   19  C   UNL     1      -8.633 -12.821 -40.165  1.00  0.00    -0.003 A 
HETATM   20  C   UNL     1      -9.145 -14.114 -40.373  1.00  0.00     0.050 A 
HETATM   21  C   UNL     1     -10.515 -14.320 -40.557  1.00  0.00     0.069 A 
HETATM   22  C   UNL     1     -11.380 -13.225 -40.536  1.00  0.00     0.037 A 
HETATM   23  C   UNL     1     -10.887 -11.935 -40.340  1.00  0.00     0.004 A 
HETATM   24  C   UNL     1      -9.519 -11.735 -40.155  1.00  0.00     0.014 A 
BRANCH  21  25
HETATM   25  O   UNL     1     -11.128 -15.526 -40.758  1.00  0.00    -0.356 OA
HETATM   26  C   UNL     1     -11.232 -15.974 -42.105  1.00  0.00     0.210 C 
ENDBRANCH  21  25
ENDBRANCH   1  19
TORSDOF 5
ENDMDL
MODEL 5
REMARK VINA RESULT:      -8.1      1.871      2.634
REMARK  5 active torsions:
REMARK  status: ('A' for Active; 'I' for Inactive)
REMARK    1  A    between atoms: O_2  and  C_3 
REMARK    2  A    between atoms: C_5  and  C_6 
REMARK    3  A    between atoms: C_10  and  C_11 
REMARK       I    between atoms: C_11  and  N_12 
REMARK    4  A    between atoms: N_12  and  C_13 
REMARK    5  A    between atoms: C_13  and  C_14 
ROOT
HETATM    1  C   UNL     1      -6.000  -0.084 -34.074  1.00  0.00     0.089 A 
HETATM    2  N   UNL     1      -6.830   0.610 -34.869  1.00  0.00    -0.174 NA
HETATM    3  N   UNL     1      -6.751   1.873 -34.422  1.00  0.00    -0.272 N 
HETATM    4  H   UNL     1      -7.312   2.591 -34.869  1.00  0.00     0.189 HD
HETATM    5  C   UNL     1      -5.876   2.048 -33.386  1.00  0.00     0.120 A 
HETATM    6  C   UNL     1      -5.378   0.785 -33.135  1.00  0.00     0.071 A 
ENDROOT
BRANCH   5   7
HETATM    7  C   UNL     1      -5.647   3.343 -32.803  1.00  0.00     0.269 C 
HETATM    8  N   UNL     1      -4.662   4.085 -33.406  1.00  0.00    -0.355 N 
HETATM    9  H   UNL     1      -4.149   3.695 -34.182  1.00  0.00     0.162 HD
HETATM   10  O   UNL     1      -6.293   3.747 -31.841  1.00  0.00    -0.266 OA
BRANCH   8  11
HETATM   11  C   UNL     1      -4.266   5.394 -32.928  1.00  0.00     0.128 C 
BRANCH  11  12
HETATM   12  C   UNL     1      -2.973   5.344 -32.118  1.00  0.00     0.012 C 
HETATM   13  C   UNL     1      -1.720   4.835 -32.882  1.00  0.00     0.014 C 
HETATM   14  C   UNL     1      -0.606   5.368 -31.974  1.00  0.00     0.017 C 
HETATM   15  C   UNL     1      -1.467   5.710 -34.090  1.00  0.00    -0.025 C 
HETATM   16  C   UNL     1      -1.050   6.826 -32.123  1.00  0.00     0.009 C 
HETATM   17  C   UNL     1      -1.075   6.908 -33.632  1.00  0.00    -0.026 C 
HETATM   18  C   UNL     1      -2.510   6.754 -31.628  1.00  0.00     0.015 C 
ENDBRANCH  11  12
ENDBRANCH   8  11
ENDBRANCH   5   7
BRANCH   1  19
HETATM   19  C   UNL     1      -5.808  -1.529 -34.228  1.00  0.00    -0.003 A 
HETATM   20  C   UNL     1      -4.646  -2.146 -33.731  1.00  0.00     0.050 A 
HETATM   21  C   UNL     1      -4.458  -3.524 -33.856  1.00  0.00     0.069 A 
HETATM   22  C   UNL     1      -5.437  -4.293 -34.488  1.00  0.00     0.037 A 
HETATM   23  C   UNL     1      -6.590  -3.696 -34.995  1.00  0.00     0.004 A 
HETATM   24  C   UNL     1      -6.775  -2.319 -34.865  1.00  0.00     0.014 A 
BRANCH  21  25
HETATM   25  O   UNL     1      -3.379  -4.235 -33.407  1.00  0.00    -0.356 OA
HETATM   26  C   UNL     1      -2.930  -3.950 -32.087  1.00  0.00     0.210 C 
ENDBRANCH  21  25
ENDBRANCH   1  19
TORSDOF 5
ENDMDL
MODEL 6
REMARK VINA RESULT:      -8.0      1.496      2.622
REMARK  5 active torsions:
REMARK  status: ('A' for Active; 'I' for Inactive)
REMARK    1  A    between atoms: O_2  and  C_3 
REMARK    2  A    between atoms: C_5  and  C_6 
REMARK    3  A    between atoms: C_10  and  C_11 
REMARK       I    between atoms: C_11  and  N_12 
REMARK    4  A    between atoms: N_12  and  C_13 
REMARK    5  A    between atoms: C_13  and  C_14 
ROOT
HETATM    1  C   UNL     1      -4.657  -0.482 -32.850  1.00  0.00     0.089 A 
HETATM    2  N   UNL     1      -5.521   0.123 -33.678  1.00  0.00    -0.174 NA
HETATM    3  N   UNL     1      -5.586   1.388 -33.235  1.00  0.00    -0.272 N 
HETATM    4  H   UNL     1      -6.199   2.046 -33.706  1.00  0.00     0.189 HD
HETATM    5  C   UNL     1      -4.773   1.652 -32.168  1.00  0.00     0.120 A 
HETATM    6  C   UNL     1      -4.160   0.446 -31.891  1.00  0.00     0.071 A 
ENDROOT
BRANCH   5   7
HETATM    7  C   UNL     1      -4.697   2.964 -31.582  1.00  0.00     0.269 C 
HETATM    8  N   UNL     1      -4.008   3.892 -32.324  1.00  0.00    -0.355 N 
HETATM    9  H   UNL     1      -3.584   3.616 -33.197  1.00  0.00     0.162 HD
HETATM   10  O   UNL     1      -5.217   3.226 -30.502  1.00  0.00    -0.266 OA
BRANCH   8  11
HETATM   11  C   UNL     1      -3.795   5.251 -31.873  1.00  0.00     0.128 C 
BRANCH  11  12
HETATM   12  C   UNL     1      -2.397   5.452 -31.292  1.00  0.00     0.012 C 
HETATM   13  C   UNL     1      -1.220   5.000 -32.201  1.00  0.00     0.014 C 
HETATM   14  C   UNL     1      -0.061   5.767 -31.554  1.00  0.00     0.017 C 
HETATM   15  C   UNL     1      -1.277   5.742 -33.518  1.00  0.00    -0.025 C 
HETATM   16  C   UNL     1      -0.714   7.134 -31.776  1.00  0.00     0.009 C 
HETATM   17  C   UNL     1      -0.984   7.025 -33.259  1.00  0.00    -0.026 C 
HETATM   18  C   UNL     1      -2.058   6.956 -31.036  1.00  0.00     0.015 C 
ENDBRANCH  11  12
ENDBRANCH   8  11
ENDBRANCH   5   7
BRANCH   1  19
HETATM   19  C   UNL     1      -4.314  -1.902 -32.989  1.00  0.00    -0.003 A 
HETATM   20  C   UNL     1      -4.950  -2.690 -33.965  1.00  0.00     0.050 A 
HETATM   21  C   UNL     1      -4.621  -4.039 -34.120  1.00  0.00     0.069 A 
HETATM   22  C   UNL     1      -3.653  -4.606 -33.290  1.00  0.00     0.037 A 
HETATM   23  C   UNL     1      -3.021  -3.841 -32.311  1.00  0.00     0.004 A 
HETATM   24  C   UNL     1      -3.351  -2.493 -32.162  1.00  0.00     0.014 A 
BRANCH  21  25
HETATM   25  O   UNL     1      -5.162  -4.900 -35.035  1.00  0.00    -0.356 OA
HETATM   26  C   UNL     1      -6.506  -4.652 -35.431  1.00  0.00     0.210 C 
ENDBRANCH  21  25
ENDBRANCH   1  19
TORSDOF 5
ENDMDL
MODEL 7
REMARK VINA RESULT:      -7.7      1.896      2.819
REMARK  5 active torsions:
REMARK  status: ('A' for Active; 'I' for Inactive)
REMARK    1  A    between atoms: O_2  and  C_3 
REMARK    2  A    between atoms: C_5  and  C_6 
REMARK    3  A    between atoms: C_10  and  C_11 
REMARK       I    between atoms: C_11  and  N_12 
REMARK    4  A    between atoms: N_12  and  C_13 
REMARK    5  A    between atoms: C_13  and  C_14 
ROOT
HETATM    1  C   UNL     1      -4.454   2.182 -32.214  1.00  0.00     0.089 A 
HETATM    2  N   UNL     1      -4.961   2.625 -31.054  1.00  0.00    -0.174 NA
HETATM    3  N   UNL     1      -4.085   3.550 -30.631  1.00  0.00    -0.272 N 
HETATM    4  H   UNL     1      -4.254   4.023 -29.749  1.00  0.00     0.189 HD
HETATM    5  C   UNL     1      -3.036   3.760 -31.482  1.00  0.00     0.120 A 
HETATM    6  C   UNL     1      -3.248   2.875 -32.520  1.00  0.00     0.071 A 
ENDROOT
BRANCH   5   7
HETATM    7  C   UNL     1      -2.018   4.735 -31.198  1.00  0.00     0.269 C 
HETATM    8  N   UNL     1      -2.466   5.884 -30.594  1.00  0.00    -0.355 N 
HETATM    9  H   UNL     1      -3.452   5.996 -30.406  1.00  0.00     0.162 HD
HETATM   10  O   UNL     1      -0.838   4.544 -31.475  1.00  0.00    -0.266 OA
BRANCH   8  11
HETATM   11  C   UNL     1      -1.590   6.992 -30.272  1.00  0.00     0.128 C 
BRANCH  11  12
HETATM   12  C   UNL     1      -1.625   7.339 -28.785  1.00  0.00     0.012 C 
HETATM   13  C   UNL     1      -0.576   6.611 -27.900  1.00  0.00     0.014 C 
HETATM   14  C   UNL     1      -0.576   7.521 -26.666  1.00  0.00     0.017 C 
HETATM   15  C   UNL     1       0.817   6.914 -28.406  1.00  0.00    -0.025 C 
HETATM   16  C   UNL     1      -0.171   8.765 -27.463  1.00  0.00     0.009 C 
HETATM   17  C   UNL     1       1.054   8.210 -28.153  1.00  0.00    -0.026 C 
HETATM   18  C   UNL     1      -1.306   8.843 -28.507  1.00  0.00     0.015 C 
ENDBRANCH  11  12
ENDBRANCH   8  11
ENDBRANCH   5   7
BRANCH   1  19
HETATM   19  C   UNL     1      -5.117   1.138 -33.002  1.00  0.00    -0.003 A 
HETATM   20  C   UNL     1      -4.575  -0.159 -33.057  1.00  0.00     0.050 A 
HETATM   21  C   UNL     1      -5.205  -1.166 -33.791  1.00  0.00     0.069 A 
HETATM   22  C   UNL     1      -6.385  -0.876 -34.478  1.00  0.00     0.037 A 
HETATM   23  C   UNL     1      -6.931   0.406 -34.441  1.00  0.00     0.004 A 
HETATM   24  C   UNL     1      -6.298   1.410 -33.705  1.00  0.00     0.014 A 
BRANCH  21  25
HETATM   25  O   UNL     1      -4.780  -2.461 -33.912  1.00  0.00    -0.356 OA
HETATM   26  C   UNL     1      -5.449  -3.266 -34.877  1.00  0.00     0.210 C 
ENDBRANCH  21  25
ENDBRANCH   1  19
TORSDOF 5
ENDMDL
MODEL 8
REMARK VINA RESULT:      -7.6      1.622      2.758
REMARK  5 active torsions:
REMARK  status: ('A' for Active; 'I' for Inactive)
REMARK    1  A    between atoms: O_2  and  C_3 
REMARK    2  A    between atoms: C_5  and  C_6 
REMARK    3  A    between atoms: C_10  and  C_11 
REMARK       I    between atoms: C_11  and  N_12 
REMARK    4  A    between atoms: N_12  and  C_13 
REMARK    5  A    between atoms: C_13  and  C_14 
ROOT
HETATM    1  C   UNL     1      -3.956   1.797 -31.627  1.00  0.00     0.089 A 
HETATM    2  N   UNL     1      -4.656   2.192 -30.552  1.00  0.00    -0.174 NA
HETATM    3  N   UNL     1      -4.396   3.504 -30.440  1.00  0.00    -0.272 N 
HETATM    4  H   UNL     1      -4.813   4.027 -29.677  1.00  0.00     0.189 HD
HETATM    5  C   UNL     1      -3.579   3.999 -31.418  1.00  0.00     0.120 A 
HETATM    6  C   UNL     1      -3.271   2.905 -32.201  1.00  0.00     0.071 A 
ENDROOT
BRANCH   5   7
HETATM    7  C   UNL     1      -3.218   5.391 -31.466  1.00  0.00     0.269 C 
HETATM    8  N   UNL     1      -2.228   5.765 -30.590  1.00  0.00    -0.355 N 
HETATM    9  H   UNL     1      -1.833   5.080 -29.964  1.00  0.00     0.162 HD
HETATM   10  O   UNL     1      -3.756   6.177 -32.240  1.00  0.00    -0.266 OA
BRANCH   8  11
HETATM   11  C   UNL     1      -1.765   7.132 -30.471  1.00  0.00     0.128 C 
BRANCH  11  12
HETATM   12  C   UNL     1      -0.376   7.216 -29.843  1.00  0.00     0.012 C 
HETATM   13  C   UNL     1      -0.224   8.234 -28.679  1.00  0.00     0.014 C 
HETATM   14  C   UNL     1       1.056   7.711 -28.018  1.00  0.00     0.017 C 
HETATM   15  C   UNL     1      -1.203   7.900 -27.576  1.00  0.00    -0.025 C 
HETATM   16  C   UNL     1       0.464   6.325 -27.746  1.00  0.00     0.009 C 
HETATM   17  C   UNL     1      -0.795   6.747 -27.024  1.00  0.00    -0.026 C 
HETATM   18  C   UNL     1       0.066   5.877 -29.169  1.00  0.00     0.015 C 
ENDBRANCH  11  12
ENDBRANCH   8  11
ENDBRANCH   5   7
BRANCH   1  19
HETATM   19  C   UNL     1      -3.961   0.405 -32.086  1.00  0.00    -0.003 A 
HETATM   20  C   UNL     1      -4.805   0.011 -33.140  1.00  0.00     0.050 A 
HETATM   21  C   UNL     1      -4.808  -1.309 -33.598  1.00  0.00     0.069 A 
HETATM   22  C   UNL     1      -3.964  -2.244 -32.996  1.00  0.00     0.037 A 
HETATM   23  C   UNL     1      -3.127  -1.871 -31.945  1.00  0.00     0.004 A 
HETATM   24  C   UNL     1      -3.127  -0.551 -31.492  1.00  0.00     0.014 A 
BRANCH  21  25
HETATM   25  O   UNL     1      -5.575  -1.807 -34.616  1.00  0.00    -0.356 OA
HETATM   26  C   UNL     1      -6.980  -1.853 -34.395  1.00  0.00     0.210 C 
ENDBRANCH  21  25
ENDBRANCH   1  19
TORSDOF 5
ENDMDL
MODEL 9
REMARK VINA RESULT:      -7.6      5.782      8.231
REMARK  5 active torsions:
REMARK  status: ('A' for Active; 'I' for Inactive)
REMARK    1  A    between atoms: O_2  and  C_3 
REMARK    2  A    between atoms: C_5  and  C_6 
REMARK    3  A    between atoms: C_10  and  C_11 
REMARK       I    between atoms: C_11  and  N_12 
REMARK    4  A    between atoms: N_12  and  C_13 
REMARK    5  A    between atoms: C_13  and  C_14 
ROOT
HETATM    1  C   UNL     1      -8.279   0.031 -33.138  1.00  0.00     0.089 A 
HETATM    2  N   UNL     1      -8.765   0.334 -31.924  1.00  0.00    -0.174 NA
HETATM    3  N   UNL     1      -9.915   0.981 -32.171  1.00  0.00    -0.272 N 
HETATM    4  H   UNL     1     -10.464   1.325 -31.390  1.00  0.00     0.189 HD
HETATM    5  C   UNL     1     -10.226   1.088 -33.497  1.00  0.00     0.120 A 
HETATM    6  C   UNL     1      -9.171   0.482 -34.151  1.00  0.00     0.071 A 
ENDROOT
BRANCH   5   7
HETATM    7  C   UNL     1     -11.435   1.728 -33.940  1.00  0.00     0.269 C 
HETATM    8  N   UNL     1     -11.330   2.413 -35.125  1.00  0.00    -0.355 N 
HETATM    9  H   UNL     1     -10.439   2.454 -35.599  1.00  0.00     0.162 HD
HETATM   10  O   UNL     1     -12.481   1.657 -33.301  1.00  0.00    -0.266 OA
BRANCH   8  11
HETATM   11  C   UNL     1     -12.433   3.152 -35.703  1.00  0.00     0.128 C 
BRANCH  11  12
HETATM   12  C   UNL     1     -12.153   4.652 -35.760  1.00  0.00     0.012 C 
HETATM   13  C   UNL     1     -13.112   5.547 -34.926  1.00  0.00     0.014 C 
HETATM   14  C   UNL     1     -12.276   6.829 -34.824  1.00  0.00     0.017 C 
HETATM   15  C   UNL     1     -13.068   5.130 -33.474  1.00  0.00    -0.025 C 
HETATM   16  C   UNL     1     -11.103   6.123 -34.138  1.00  0.00     0.009 C 
HETATM   17  C   UNL     1     -11.857   5.467 -33.005  1.00  0.00    -0.026 C 
HETATM   18  C   UNL     1     -10.756   5.030 -35.172  1.00  0.00     0.015 C 
ENDBRANCH  11  12
ENDBRANCH   8  11
ENDBRANCH   5   7
BRANCH   1  19
HETATM   19  C   UNL     1      -7.008  -0.680 -33.308  1.00  0.00    -0.003 A 
HETATM   20  C   UNL     1      -6.905  -1.733 -34.234  1.00  0.00     0.050 A 
HETATM   21  C   UNL     1      -5.696  -2.407 -34.418  1.00  0.00     0.069 A 
HETATM   22  C   UNL     1      -4.581  -2.029 -33.668  1.00  0.00     0.037 A 
HETATM   23  C   UNL     1      -4.668  -0.993 -32.740  1.00  0.00     0.004 A 
HETATM   24  C   UNL     1      -5.878  -0.321 -32.561  1.00  0.00     0.014 A 
BRANCH  21  25
HETATM   25  O   UNL     1      -5.471  -3.437 -35.291  1.00  0.00    -0.356 OA
HETATM   26  C   UNL     1      -6.424  -4.495 -35.291  1.00  0.00     0.210 C 
ENDBRANCH  21  25
ENDBRANCH   1  19
TORSDOF 5
ENDMDL
MODEL 10
REMARK VINA RESULT:      -7.5      4.833      7.821
REMARK  5 active torsions:
REMARK  status: ('A' for Active; 'I' for Inactive)
REMARK    1  A    between atoms: O_2  and  C_3 
REMARK    2  A    between atoms: C_5  and  C_6 
REMARK    3  A    between atoms: C_10  and  C_11 
REMARK       I    between atoms: C_11  and  N_12 
REMARK    4  A    between atoms: N_12  and  C_13 
REMARK    5  A    between atoms: C_13  and  C_14 
ROOT
HETATM    1  C   UNL     1      -5.183   0.015 -33.018  1.00  0.00     0.089 A 
HETATM    2  N   UNL     1      -4.488   1.058 -32.540  1.00  0.00    -0.174 NA
HETATM    3  N   UNL     1      -5.295   2.115 -32.720  1.00  0.00    -0.272 N 
HETATM    4  H   UNL     1      -4.972   3.036 -32.441  1.00  0.00     0.189 HD
HETATM    5  C   UNL     1      -6.509   1.808 -33.268  1.00  0.00     0.120 A 
HETATM    6  C   UNL     1      -6.460   0.444 -33.479  1.00  0.00     0.071 A 
ENDROOT
BRANCH   5   7
HETATM    7  C   UNL     1      -7.507   2.816 -33.505  1.00  0.00     0.269 C 
HETATM    8  N   UNL     1      -8.791   2.449 -33.185  1.00  0.00    -0.355 N 
HETATM    9  H   UNL     1      -8.970   1.520 -32.834  1.00  0.00     0.162 HD
HETATM   10  O   UNL     1      -7.222   3.921 -33.957  1.00  0.00    -0.266 OA
BRANCH   8  11
HETATM   11  C   UNL     1      -9.929   3.320 -33.395  1.00  0.00     0.128 C 
BRANCH  11  12
HETATM   12  C   UNL     1     -11.252   2.622 -33.088  1.00  0.00     0.012 C 
HETATM   13  C   UNL     1     -12.520   3.287 -33.693  1.00  0.00     0.014 C 
HETATM   14  C   UNL     1     -13.510   2.119 -33.612  1.00  0.00     0.017 C 
HETATM   15  C   UNL     1     -12.386   3.368 -35.197  1.00  0.00    -0.025 C 
HETATM   16  C   UNL     1     -12.645   1.199 -34.478  1.00  0.00     0.009 C 
HETATM   17  C   UNL     1     -12.450   2.112 -35.666  1.00  0.00    -0.026 C 
HETATM   18  C   UNL     1     -11.325   1.176 -33.677  1.00  0.00     0.015 C 
ENDBRANCH  11  12
ENDBRANCH   8  11
ENDBRANCH   5   7
BRANCH   1  19
HETATM   19  C   UNL     1      -4.637  -1.346 -33.017  1.00  0.00    -0.003 A 
HETATM   20  C   UNL     1      -5.093  -2.292 -33.953  1.00  0.00     0.050 A 
HETATM   21  C   UNL     1      -4.570  -3.587 -33.973  1.00  0.00     0.069 A 
HETATM   22  C   UNL     1      -3.586  -3.941 -33.049  1.00  0.00     0.037 A 
HETATM   23  C   UNL     1      -3.129  -3.018 -32.109  1.00  0.00     0.004 A 
HETATM   24  C   UNL     1      -3.654  -1.725 -32.094  1.00  0.00     0.014 A 
BRANCH  21  25
HETATM   25  O   UNL     1      -4.926  -4.587 -34.836  1.00  0.00    -0.356 OA
HETATM   26  C   UNL     1      -6.277  -4.595 -35.284  1.00  0.00     0.210 C 
ENDBRANCH  21  25
ENDBRANCH   1  19
TORSDOF 5
ENDMDL
