MODEL 1
REMARK VINA RESULT:      -8.2      0.000      0.000
REMARK  9 active torsions:
REMARK  status: ('A' for Active; 'I' for Inactive)
REMARK    1  A    between atoms: C_2  and  O_3 
REMARK    2  A    between atoms: O_3  and  C_4 
REMARK    3  A    between atoms: C_5  and  O_6 
REMARK    4  A    between atoms: O_6  and  C_7 
REMARK    5  A    between atoms: C_7  and  C_8 
REMARK       I    between atoms: C_8  and  N_9 
REMARK    6  A    between atoms: N_9  and  C_10 
REMARK    7  A    between atoms: C_17  and  C_18 
REMARK    8  A    between atoms: C_18  and  N_19 
REMARK    9  A    between atoms: N_19  and  C_20 
ROOT
HETATM    1  C   UNL     1      -4.883   5.105 -33.379  1.00  0.00     0.102 A 
HETATM    2  C   UNL     1      -5.082   5.319 -32.006  1.00  0.00     0.102 A 
HETATM    3  C   UNL     1      -5.898   4.430 -31.301  1.00  0.00     0.040 A 
HETATM    4  C   UNL     1      -6.527   3.367 -31.958  1.00  0.00     0.012 A 
HETATM    5  C   UNL     1      -6.364   3.177 -33.336  1.00  0.00    -0.038 A 
HETATM    6  C   UNL     1      -5.541   4.061 -34.040  1.00  0.00     0.048 A 
ENDROOT
BRANCH   5   7
HETATM    7  C   UNL     1      -7.097   2.063 -34.049  1.00  0.00     0.158 C 
BRANCH   7   8
HETATM    8  N   UNL     1      -7.209   0.921 -33.150  1.00  0.00    -0.386 N 
HETATM    9  H   UNL     1      -8.167   0.751 -32.856  1.00  0.00     0.160 HD
BRANCH   8  10
HETATM   10  C   UNL     1      -6.528  -0.266 -33.434  1.00  0.00     0.031 A 
HETATM   11  C   UNL     1      -7.142  -1.410 -33.955  1.00  0.00     0.068 A 
HETATM   12  C   UNL     1      -6.389  -2.539 -34.293  1.00  0.00     0.104 A 
HETATM   13  C   UNL     1      -5.004  -2.540 -34.118  1.00  0.00     0.102 A 
HETATM   14  O   UNL     1      -7.083  -3.615 -34.792  1.00  0.00    -0.346 OA
HETATM   15  O   UNL     1      -4.209  -3.621 -34.400  1.00  0.00    -0.346 OA
HETATM   16  C   UNL     1      -4.370  -1.395 -33.655  1.00  0.00     0.042 A 
HETATM   17  C   UNL     1      -4.985  -4.814 -34.549  1.00  0.00     0.202 C 
HETATM   18  C   UNL     1      -6.205  -4.556 -35.418  1.00  0.00     0.202 C 
HETATM   19  C   UNL     1      -5.127  -0.267 -33.329  1.00  0.00     0.032 A 
ENDBRANCH   8  10
ENDBRANCH   7   8
ENDBRANCH   5   7
BRANCH   1  20
HETATM   20  O   UNL     1      -4.140   5.923 -34.194  1.00  0.00    -0.349 OA
BRANCH  20  21
HETATM   21  C   UNL     1      -3.344   5.255 -35.180  1.00  0.00     0.171 C 
HETATM   22  C   UNL     1      -1.866   5.214 -34.822  1.00  0.00     0.034 C 
ENDBRANCH  20  21
ENDBRANCH   1  20
BRANCH   2  23
HETATM   23  O   UNL     1      -4.515   6.445 -31.472  1.00  0.00    -0.339 OA
BRANCH  23  24
HETATM   24  C   UNL     1      -3.729   6.343 -30.293  1.00  0.00     0.278 C 
BRANCH  24  25
HETATM   25  C   UNL     1      -2.249   5.991 -30.509  1.00  0.00     0.242 C 
HETATM   26  N   UNL     1      -1.374   6.729 -29.743  1.00  0.00    -0.351 N 
HETATM   27  H   UNL     1      -1.790   7.495 -29.218  1.00  0.00     0.163 HD
HETATM   28  O   UNL     1      -1.910   5.127 -31.312  1.00  0.00    -0.271 OA
BRANCH  26  29
HETATM   29  C   UNL     1       0.091   6.656 -29.796  1.00  0.00     0.022 C 
HETATM   30  C   UNL     1       0.584   6.931 -31.223  1.00  0.00     0.037 C 
HETATM   31  C   UNL     1       0.652   7.742 -28.859  1.00  0.00     0.037 C 
HETATM   32  C   UNL     1       0.606   5.292 -29.310  1.00  0.00     0.037 C 
ENDBRANCH  26  29
ENDBRANCH  24  25
ENDBRANCH  23  24
ENDBRANCH   2  23
TORSDOF 9
ENDMDL
MODEL 2
REMARK VINA RESULT:      -8.0      1.424      2.140
REMARK  9 active torsions:
REMARK  status: ('A' for Active; 'I' for Inactive)
REMARK    1  A    between atoms: C_2  and  O_3 
REMARK    2  A    between atoms: O_3  and  C_4 
REMARK    3  A    between atoms: C_5  and  O_6 
REMARK    4  A    between atoms: O_6  and  C_7 
REMARK    5  A    between atoms: C_7  and  C_8 
REMARK       I    between atoms: C_8  and  N_9 
REMARK    6  A    between atoms: N_9  and  C_10 
REMARK    7  A    between atoms: C_17  and  C_18 
REMARK    8  A    between atoms: C_18  and  N_19 
REMARK    9  A    between atoms: N_19  and  C_20 
ROOT
HETATM    1  C   UNL     1      -4.196   4.136 -31.598  1.00  0.00     0.102 A 
HETATM    2  C   UNL     1      -5.007   5.231 -31.262  1.00  0.00     0.102 A 
HETATM    3  C   UNL     1      -6.393   5.053 -31.222  1.00  0.00     0.040 A 
HETATM    4  C   UNL     1      -6.960   3.814 -31.540  1.00  0.00     0.012 A 
HETATM    5  C   UNL     1      -6.156   2.731 -31.918  1.00  0.00    -0.038 A 
HETATM    6  C   UNL     1      -4.769   2.907 -31.949  1.00  0.00     0.048 A 
ENDROOT
BRANCH   5   7
HETATM    7  C   UNL     1      -6.781   1.414 -32.320  1.00  0.00     0.158 C 
BRANCH   7   8
HETATM    8  N   UNL     1      -6.264   1.024 -33.624  1.00  0.00    -0.386 N 
HETATM    9  H   UNL     1      -5.642   1.724 -34.021  1.00  0.00     0.160 HD
BRANCH   8  10
HETATM   10  C   UNL     1      -5.794  -0.275 -33.834  1.00  0.00     0.031 A 
HETATM   11  C   UNL     1      -4.766  -0.861 -33.088  1.00  0.00     0.068 A 
HETATM   12  C   UNL     1      -4.398  -2.195 -33.294  1.00  0.00     0.104 A 
HETATM   13  C   UNL     1      -5.057  -2.967 -34.251  1.00  0.00     0.102 A 
HETATM   14  O   UNL     1      -3.374  -2.678 -32.516  1.00  0.00    -0.346 OA
HETATM   15  O   UNL     1      -4.730  -4.270 -34.527  1.00  0.00    -0.346 OA
HETATM   16  C   UNL     1      -6.117  -2.421 -34.963  1.00  0.00     0.042 A 
HETATM   17  C   UNL     1      -3.449  -4.610 -33.986  1.00  0.00     0.202 C 
HETATM   18  C   UNL     1      -3.319  -4.108 -32.557  1.00  0.00     0.202 C 
HETATM   19  C   UNL     1      -6.487  -1.091 -34.744  1.00  0.00     0.032 A 
ENDBRANCH   8  10
ENDBRANCH   7   8
ENDBRANCH   5   7
BRANCH   1  20
HETATM   20  O   UNL     1      -2.830   4.186 -31.711  1.00  0.00    -0.349 OA
BRANCH  20  21
HETATM   21  C   UNL     1      -2.319   4.162 -33.050  1.00  0.00     0.171 C 
HETATM   22  C   UNL     1      -1.653   5.469 -33.453  1.00  0.00     0.034 C 
ENDBRANCH  20  21
ENDBRANCH   1  20
BRANCH   2  23
HETATM   23  O   UNL     1      -4.373   6.430 -31.073  1.00  0.00    -0.339 OA
BRANCH  23  24
HETATM   24  C   UNL     1      -3.682   6.673 -29.856  1.00  0.00     0.278 C 
BRANCH  24  25
HETATM   25  C   UNL     1      -2.216   7.109 -29.997  1.00  0.00     0.242 C 
HETATM   26  N   UNL     1      -1.302   6.101 -29.780  1.00  0.00    -0.351 N 
HETATM   27  H   UNL     1      -1.689   5.226 -29.438  1.00  0.00     0.163 HD
HETATM   28  O   UNL     1      -1.919   8.268 -30.271  1.00  0.00    -0.271 OA
BRANCH  26  29
HETATM   29  C   UNL     1       0.158   6.248 -29.778  1.00  0.00     0.022 C 
HETATM   30  C   UNL     1       0.604   7.103 -28.584  1.00  0.00     0.037 C 
HETATM   31  C   UNL     1       0.774   4.844 -29.641  1.00  0.00     0.037 C 
HETATM   32  C   UNL     1       0.666   6.866 -31.091  1.00  0.00     0.037 C 
ENDBRANCH  26  29
ENDBRANCH  24  25
ENDBRANCH  23  24
ENDBRANCH   2  23
TORSDOF 9
ENDMDL
MODEL 3
REMARK VINA RESULT:      -7.7      3.251      6.206
REMARK  9 active torsions:
REMARK  status: ('A' for Active; 'I' for Inactive)
REMARK    1  A    between atoms: C_2  and  O_3 
REMARK    2  A    between atoms: O_3  and  C_4 
REMARK    3  A    between atoms: C_5  and  O_6 
REMARK    4  A    between atoms: O_6  and  C_7 
REMARK    5  A    between atoms: C_7  and  C_8 
REMARK       I    between atoms: C_8  and  N_9 
REMARK    6  A    between atoms: N_9  and  C_10 
REMARK    7  A    between atoms: C_17  and  C_18 
REMARK    8  A    between atoms: C_18  and  N_19 
REMARK    9  A    between atoms: N_19  and  C_20 
ROOT
HETATM    1  C   UNL     1      -5.622   3.442 -30.932  1.00  0.00     0.102 A 
HETATM    2  C   UNL     1      -6.702   2.892 -30.224  1.00  0.00     0.102 A 
HETATM    3  C   UNL     1      -6.633   1.553 -29.829  1.00  0.00     0.040 A 
HETATM    4  C   UNL     1      -5.523   0.770 -30.162  1.00  0.00     0.012 A 
HETATM    5  C   UNL     1      -4.464   1.304 -30.907  1.00  0.00    -0.038 A 
HETATM    6  C   UNL     1      -4.528   2.647 -31.293  1.00  0.00     0.048 A 
ENDROOT
BRANCH   5   7
HETATM    7  C   UNL     1      -3.296   0.433 -31.314  1.00  0.00     0.158 C 
BRANCH   7   8
HETATM    8  N   UNL     1      -3.304   0.281 -32.763  1.00  0.00    -0.386 N 
HETATM    9  H   UNL     1      -2.367   0.276 -33.158  1.00  0.00     0.160 HD
BRANCH   8  10
HETATM   10  C   UNL     1      -4.133  -0.669 -33.365  1.00  0.00     0.031 A 
HETATM   11  C   UNL     1      -3.759  -1.998 -33.591  1.00  0.00     0.068 A 
HETATM   12  C   UNL     1      -4.666  -2.919 -34.124  1.00  0.00     0.104 A 
HETATM   13  C   UNL     1      -5.967  -2.525 -34.440  1.00  0.00     0.102 A 
HETATM   14  O   UNL     1      -4.203  -4.199 -34.314  1.00  0.00    -0.346 OA
HETATM   15  O   UNL     1      -6.898  -3.366 -34.992  1.00  0.00    -0.346 OA
HETATM   16  C   UNL     1      -6.375  -1.225 -34.171  1.00  0.00     0.042 A 
HETATM   17  C   UNL     1      -6.285  -4.550 -35.515  1.00  0.00     0.202 C 
HETATM   18  C   UNL     1      -5.281  -5.117 -34.524  1.00  0.00     0.202 C 
HETATM   19  C   UNL     1      -5.467  -0.312 -33.628  1.00  0.00     0.032 A 
ENDBRANCH   8  10
ENDBRANCH   7   8
ENDBRANCH   5   7
BRANCH   1  20
HETATM   20  O   UNL     1      -5.580   4.728 -31.411  1.00  0.00    -0.349 OA
BRANCH  20  21
HETATM   21  C   UNL     1      -4.827   4.915 -32.615  1.00  0.00     0.171 C 
HETATM   22  C   UNL     1      -5.704   5.202 -33.824  1.00  0.00     0.034 C 
ENDBRANCH  20  21
ENDBRANCH   1  20
BRANCH   2  23
HETATM   23  O   UNL     1      -7.791   3.702 -30.038  1.00  0.00    -0.339 OA
BRANCH  23  24
HETATM   24  C   UNL     1      -9.081   3.239 -30.412  1.00  0.00     0.278 C 
BRANCH  24  25
HETATM   25  C   UNL     1      -9.330   3.106 -31.921  1.00  0.00     0.242 C 
HETATM   26  N   UNL     1     -10.203   2.097 -32.265  1.00  0.00    -0.351 N 
HETATM   27  H   UNL     1     -10.486   1.485 -31.504  1.00  0.00     0.163 HD
HETATM   28  O   UNL     1      -8.773   3.846 -32.726  1.00  0.00    -0.271 OA
BRANCH  26  29
HETATM   29  C   UNL     1     -10.565   1.698 -33.630  1.00  0.00     0.022 C 
HETATM   30  C   UNL     1      -9.368   1.032 -34.323  1.00  0.00     0.037 C 
HETATM   31  C   UNL     1     -11.714   0.678 -33.535  1.00  0.00     0.037 C 
HETATM   32  C   UNL     1     -11.057   2.897 -34.456  1.00  0.00     0.037 C 
ENDBRANCH  26  29
ENDBRANCH  24  25
ENDBRANCH  23  24
ENDBRANCH   2  23
TORSDOF 9
ENDMDL
MODEL 4
REMARK VINA RESULT:      -7.3      2.805      9.127
REMARK  9 active torsions:
REMARK  status: ('A' for Active; 'I' for Inactive)
REMARK    1  A    between atoms: C_2  and  O_3 
REMARK    2  A    between atoms: O_3  and  C_4 
REMARK    3  A    between atoms: C_5  and  O_6 
REMARK    4  A    between atoms: O_6  and  C_7 
REMARK    5  A    between atoms: C_7  and  C_8 
REMARK       I    between atoms: C_8  and  N_9 
REMARK    6  A    between atoms: N_9  and  C_10 
REMARK    7  A    between atoms: C_17  and  C_18 
REMARK    8  A    between atoms: C_18  and  N_19 
REMARK    9  A    between atoms: N_19  and  C_20 
ROOT
HETATM    1  C   UNL     1      -4.428   3.486 -32.637  1.00  0.00     0.102 A 
HETATM    2  C   UNL     1      -5.405   4.446 -32.943  1.00  0.00     0.102 A 
HETATM    3  C   UNL     1      -5.002   5.649 -33.531  1.00  0.00     0.040 A 
HETATM    4  C   UNL     1      -3.649   5.902 -33.780  1.00  0.00     0.012 A 
HETATM    5  C   UNL     1      -2.668   4.963 -33.435  1.00  0.00    -0.038 A 
HETATM    6  C   UNL     1      -3.071   3.756 -32.856  1.00  0.00     0.048 A 
ENDROOT
BRANCH   5   7
HETATM    7  C   UNL     1      -1.203   5.270 -33.651  1.00  0.00     0.158 C 
BRANCH   7   8
HETATM    8  N   UNL     1      -0.862   6.485 -32.923  1.00  0.00    -0.386 N 
HETATM    9  H   UNL     1      -1.453   7.271 -33.182  1.00  0.00     0.160 HD
BRANCH   8  10
HETATM   10  C   UNL     1      -0.625   6.436 -31.547  1.00  0.00     0.031 A 
HETATM   11  C   UNL     1      -1.330   7.198 -30.608  1.00  0.00     0.068 A 
HETATM   12  C   UNL     1      -1.100   7.042 -29.238  1.00  0.00     0.104 A 
HETATM   13  C   UNL     1      -0.159   6.118 -28.782  1.00  0.00     0.102 A 
HETATM   14  O   UNL     1      -1.837   7.839 -28.396  1.00  0.00    -0.346 OA
HETATM   15  O   UNL     1       0.139   5.934 -27.456  1.00  0.00    -0.346 OA
HETATM   16  C   UNL     1       0.510   5.313 -29.694  1.00  0.00     0.042 A 
HETATM   17  C   UNL     1      -0.354   7.015 -26.658  1.00  0.00     0.202 C 
HETATM   18  C   UNL     1      -1.781   7.363 -27.047  1.00  0.00     0.202 C 
HETATM   19  C   UNL     1       0.268   5.466 -31.062  1.00  0.00     0.032 A 
ENDBRANCH   8  10
ENDBRANCH   7   8
ENDBRANCH   5   7
BRANCH   1  20
HETATM   20  O   UNL     1      -4.683   2.285 -32.025  1.00  0.00    -0.349 OA
BRANCH  20  21
HETATM   21  C   UNL     1      -4.695   2.311 -30.592  1.00  0.00     0.171 C 
HETATM   22  C   UNL     1      -5.742   1.386 -29.991  1.00  0.00     0.034 C 
ENDBRANCH  20  21
ENDBRANCH   1  20
BRANCH   2  23
HETATM   23  O   UNL     1      -6.689   4.158 -32.565  1.00  0.00    -0.339 OA
BRANCH  23  24
HETATM   24  C   UNL     1      -7.713   4.101 -33.548  1.00  0.00     0.278 C 
BRANCH  24  25
HETATM   25  C   UNL     1      -8.286   2.705 -33.833  1.00  0.00     0.242 C 
HETATM   26  N   UNL     1      -7.473   1.667 -33.434  1.00  0.00    -0.351 N 
HETATM   27  H   UNL     1      -6.548   1.935 -33.111  1.00  0.00     0.163 HD
HETATM   28  O   UNL     1      -9.374   2.563 -34.382  1.00  0.00    -0.271 OA
BRANCH  26  29
HETATM   29  C   UNL     1      -7.733   0.238 -33.646  1.00  0.00     0.022 C 
HETATM   30  C   UNL     1      -9.099  -0.145 -33.061  1.00  0.00     0.037 C 
HETATM   31  C   UNL     1      -7.754  -0.017 -35.165  1.00  0.00     0.037 C 
HETATM   32  C   UNL     1      -6.628  -0.634 -33.030  1.00  0.00     0.037 C 
ENDBRANCH  26  29
ENDBRANCH  24  25
ENDBRANCH  23  24
ENDBRANCH   2  23
TORSDOF 9
ENDMDL
MODEL 5
REMARK VINA RESULT:      -7.3      1.987      3.327
REMARK  9 active torsions:
REMARK  status: ('A' for Active; 'I' for Inactive)
REMARK    1  A    between atoms: C_2  and  O_3 
REMARK    2  A    between atoms: O_3  and  C_4 
REMARK    3  A    between atoms: C_5  and  O_6 
REMARK    4  A    between atoms: O_6  and  C_7 
REMARK    5  A    between atoms: C_7  and  C_8 
REMARK       I    between atoms: C_8  and  N_9 
REMARK    6  A    between atoms: N_9  and  C_10 
REMARK    7  A    between atoms: C_17  and  C_18 
REMARK    8  A    between atoms: C_18  and  N_19 
REMARK    9  A    between atoms: N_19  and  C_20 
ROOT
HETATM    1  C   UNL     1      -4.469   4.993 -30.970  1.00  0.00     0.102 A 
HETATM    2  C   UNL     1      -3.171   4.916 -31.499  1.00  0.00     0.102 A 
HETATM    3  C   UNL     1      -2.821   3.795 -32.258  1.00  0.00     0.040 A 
HETATM    4  C   UNL     1      -3.738   2.758 -32.458  1.00  0.00     0.012 A 
HETATM    5  C   UNL     1      -5.019   2.812 -31.895  1.00  0.00    -0.038 A 
HETATM    6  C   UNL     1      -5.372   3.937 -31.143  1.00  0.00     0.048 A 
ENDROOT
BRANCH   5   7
HETATM    7  C   UNL     1      -5.982   1.658 -32.066  1.00  0.00     0.158 C 
BRANCH   7   8
HETATM    8  N   UNL     1      -5.902   1.175 -33.438  1.00  0.00    -0.386 N 
HETATM    9  H   UNL     1      -5.416   1.825 -34.050  1.00  0.00     0.160 HD
BRANCH   8  10
HETATM   10  C   UNL     1      -5.551  -0.152 -33.696  1.00  0.00     0.031 A 
HETATM   11  C   UNL     1      -4.541  -0.838 -33.012  1.00  0.00     0.068 A 
HETATM   12  C   UNL     1      -4.295  -2.192 -33.262  1.00  0.00     0.104 A 
HETATM   13  C   UNL     1      -5.060  -2.885 -34.203  1.00  0.00     0.102 A 
HETATM   14  O   UNL     1      -3.279  -2.776 -32.545  1.00  0.00    -0.346 OA
HETATM   15  O   UNL     1      -4.854  -4.203 -34.519  1.00  0.00    -0.346 OA
HETATM   16  C   UNL     1      -6.103  -2.237 -34.850  1.00  0.00     0.042 A 
HETATM   17  C   UNL     1      -3.582  -4.659 -34.048  1.00  0.00     0.202 C 
HETATM   18  C   UNL     1      -3.344  -4.204 -32.618  1.00  0.00     0.202 C 
HETATM   19  C   UNL     1      -6.351  -0.887 -34.588  1.00  0.00     0.032 A 
ENDBRANCH   8  10
ENDBRANCH   7   8
ENDBRANCH   5   7
BRANCH   1  20
HETATM   20  O   UNL     1      -4.926   6.016 -30.177  1.00  0.00    -0.349 OA
BRANCH  20  21
HETATM   21  C   UNL     1      -6.090   5.719 -29.395  1.00  0.00     0.171 C 
HETATM   22  C   UNL     1      -5.823   5.752 -27.898  1.00  0.00     0.034 C 
ENDBRANCH  20  21
ENDBRANCH   1  20
BRANCH   2  23
HETATM   23  O   UNL     1      -2.309   5.925 -31.160  1.00  0.00    -0.339 OA
BRANCH  23  24
HETATM   24  C   UNL     1      -0.974   5.612 -30.790  1.00  0.00     0.278 C 
BRANCH  24  25
HETATM   25  C   UNL     1      -0.485   6.232 -29.473  1.00  0.00     0.242 C 
HETATM   26  N   UNL     1      -1.480   6.450 -28.545  1.00  0.00    -0.351 N 
HETATM   27  H   UNL     1      -2.428   6.291 -28.876  1.00  0.00     0.163 HD
HETATM   28  O   UNL     1       0.698   6.508 -29.299  1.00  0.00    -0.271 OA
BRANCH  26  29
HETATM   29  C   UNL     1      -1.313   7.094 -27.237  1.00  0.00     0.022 C 
HETATM   30  C   UNL     1      -2.663   7.178 -26.511  1.00  0.00     0.037 C 
HETATM   31  C   UNL     1      -0.354   6.226 -26.403  1.00  0.00     0.037 C 
HETATM   32  C   UNL     1      -0.695   8.495 -27.372  1.00  0.00     0.037 C 
ENDBRANCH  26  29
ENDBRANCH  24  25
ENDBRANCH  23  24
ENDBRANCH   2  23
TORSDOF 9
ENDMDL
MODEL 6
REMARK VINA RESULT:      -7.3      2.586      7.701
REMARK  9 active torsions:
REMARK  status: ('A' for Active; 'I' for Inactive)
REMARK    1  A    between atoms: C_2  and  O_3 
REMARK    2  A    between atoms: O_3  and  C_4 
REMARK    3  A    between atoms: C_5  and  O_6 
REMARK    4  A    between atoms: O_6  and  C_7 
REMARK    5  A    between atoms: C_7  and  C_8 
REMARK       I    between atoms: C_8  and  N_9 
REMARK    6  A    between atoms: N_9  and  C_10 
REMARK    7  A    between atoms: C_17  and  C_18 
REMARK    8  A    between atoms: C_18  and  N_19 
REMARK    9  A    between atoms: N_19  and  C_20 
ROOT
HETATM    1  C   UNL     1      -7.052   2.089 -32.205  1.00  0.00     0.102 A 
HETATM    2  C   UNL     1      -6.950   2.045 -30.806  1.00  0.00     0.102 A 
HETATM    3  C   UNL     1      -6.845   3.248 -30.103  1.00  0.00     0.040 A 
HETATM    4  C   UNL     1      -6.811   4.470 -30.785  1.00  0.00     0.012 A 
HETATM    5  C   UNL     1      -6.868   4.514 -32.184  1.00  0.00    -0.038 A 
HETATM    6  C   UNL     1      -6.983   3.310 -32.886  1.00  0.00     0.048 A 
ENDROOT
BRANCH   5   7
HETATM    7  C   UNL     1      -6.769   5.834 -32.914  1.00  0.00     0.158 C 
BRANCH   7   8
HETATM    8  N   UNL     1      -5.596   5.808 -33.778  1.00  0.00    -0.386 N 
HETATM    9  H   UNL     1      -5.615   6.544 -34.480  1.00  0.00     0.160 HD
BRANCH   8  10
HETATM   10  C   UNL     1      -4.323   5.637 -33.230  1.00  0.00     0.031 A 
HETATM   11  C   UNL     1      -3.808   6.425 -32.195  1.00  0.00     0.068 A 
HETATM   12  C   UNL     1      -2.557   6.149 -31.635  1.00  0.00     0.104 A 
HETATM   13  C   UNL     1      -1.798   5.075 -32.102  1.00  0.00     0.102 A 
HETATM   14  O   UNL     1      -2.136   6.983 -30.627  1.00  0.00    -0.346 OA
HETATM   15  O   UNL     1      -0.552   4.765 -31.620  1.00  0.00    -0.346 OA
HETATM   16  C   UNL     1      -2.314   4.247 -33.089  1.00  0.00     0.042 A 
HETATM   17  C   UNL     1      -0.002   5.849 -30.864  1.00  0.00     0.202 C 
HETATM   18  C   UNL     1      -1.037   6.416 -29.907  1.00  0.00     0.202 C 
HETATM   19  C   UNL     1      -3.570   4.522 -33.637  1.00  0.00     0.032 A 
ENDBRANCH   8  10
ENDBRANCH   7   8
ENDBRANCH   5   7
BRANCH   1  20
HETATM   20  O   UNL     1      -7.121   0.983 -33.015  1.00  0.00    -0.349 OA
BRANCH  20  21
HETATM   21  C   UNL     1      -7.949   1.117 -34.176  1.00  0.00     0.171 C 
HETATM   22  C   UNL     1      -7.387   0.397 -35.392  1.00  0.00     0.034 C 
ENDBRANCH  20  21
ENDBRANCH   1  20
BRANCH   2  23
HETATM   23  O   UNL     1      -6.882   0.803 -30.234  1.00  0.00    -0.339 OA
BRANCH  23  24
HETATM   24  C   UNL     1      -5.651   0.346 -29.691  1.00  0.00     0.278 C 
BRANCH  24  25
HETATM   25  C   UNL     1      -4.576  -0.045 -30.716  1.00  0.00     0.242 C 
HETATM   26  N   UNL     1      -5.020  -0.891 -31.708  1.00  0.00    -0.351 N 
HETATM   27  H   UNL     1      -5.962  -1.254 -31.585  1.00  0.00     0.163 HD
HETATM   28  O   UNL     1      -3.426   0.372 -30.623  1.00  0.00    -0.271 OA
BRANCH  26  29
HETATM   29  C   UNL     1      -4.197  -1.481 -32.770  1.00  0.00     0.022 C 
HETATM   30  C   UNL     1      -3.313  -2.598 -32.199  1.00  0.00     0.037 C 
HETATM   31  C   UNL     1      -5.145  -2.086 -33.821  1.00  0.00     0.037 C 
HETATM   32  C   UNL     1      -3.327  -0.420 -33.465  1.00  0.00     0.037 C 
ENDBRANCH  26  29
ENDBRANCH  24  25
ENDBRANCH  23  24
ENDBRANCH   2  23
TORSDOF 9
ENDMDL
MODEL 7
REMARK VINA RESULT:      -7.2      3.520      7.353
REMARK  9 active torsions:
REMARK  status: ('A' for Active; 'I' for Inactive)
REMARK    1  A    between atoms: C_2  and  O_3 
REMARK    2  A    between atoms: O_3  and  C_4 
REMARK    3  A    between atoms: C_5  and  O_6 
REMARK    4  A    between atoms: O_6  and  C_7 
REMARK    5  A    between atoms: C_7  and  C_8 
REMARK       I    between atoms: C_8  and  N_9 
REMARK    6  A    between atoms: N_9  and  C_10 
REMARK    7  A    between atoms: C_17  and  C_18 
REMARK    8  A    between atoms: C_18  and  N_19 
REMARK    9  A    between atoms: N_19  and  C_20 
ROOT
HETATM    1  C   UNL     1      -4.056   2.384 -31.496  1.00  0.00     0.102 A 
HETATM    2  C   UNL     1      -4.111   1.030 -31.130  1.00  0.00     0.102 A 
HETATM    3  C   UNL     1      -5.191   0.587 -30.361  1.00  0.00     0.040 A 
HETATM    4  C   UNL     1      -6.180   1.483 -29.940  1.00  0.00     0.012 A 
HETATM    5  C   UNL     1      -6.104   2.842 -30.267  1.00  0.00    -0.038 A 
HETATM    6  C   UNL     1      -5.029   3.284 -31.044  1.00  0.00     0.048 A 
ENDROOT
BRANCH   5   7
HETATM    7  C   UNL     1      -7.145   3.814 -29.756  1.00  0.00     0.158 C 
BRANCH   7   8
HETATM    8  N   UNL     1      -8.426   3.127 -29.664  1.00  0.00    -0.386 N 
HETATM    9  H   UNL     1      -8.864   3.244 -28.754  1.00  0.00     0.160 HD
BRANCH   8  10
HETATM   10  C   UNL     1      -9.350   3.220 -30.708  1.00  0.00     0.031 A 
HETATM   11  C   UNL     1      -9.367   2.360 -31.811  1.00  0.00     0.068 A 
HETATM   12  C   UNL     1     -10.370   2.456 -32.782  1.00  0.00     0.104 A 
HETATM   13  C   UNL     1     -11.376   3.415 -32.663  1.00  0.00     0.102 A 
HETATM   14  O   UNL     1     -10.297   1.571 -33.830  1.00  0.00    -0.346 OA
HETATM   15  O   UNL     1     -12.371   3.585 -33.590  1.00  0.00    -0.346 OA
HETATM   16  C   UNL     1     -11.409   4.241 -31.547  1.00  0.00     0.042 A 
HETATM   17  C   UNL     1     -12.055   2.923 -34.820  1.00  0.00     0.202 C 
HETATM   18  C   UNL     1     -11.530   1.521 -34.556  1.00  0.00     0.202 C 
HETATM   19  C   UNL     1     -10.410   4.133 -30.575  1.00  0.00     0.032 A 
ENDBRANCH   8  10
ENDBRANCH   7   8
ENDBRANCH   5   7
BRANCH   1  20
HETATM   20  O   UNL     1      -3.034   2.955 -32.213  1.00  0.00    -0.349 OA
BRANCH  20  21
HETATM   21  C   UNL     1      -3.401   4.073 -33.030  1.00  0.00     0.171 C 
HETATM   22  C   UNL     1      -2.236   4.628 -33.834  1.00  0.00     0.034 C 
ENDBRANCH  20  21
ENDBRANCH   1  20
BRANCH   2  23
HETATM   23  O   UNL     1      -3.045   0.252 -31.494  1.00  0.00    -0.339 OA
BRANCH  23  24
HETATM   24  C   UNL     1      -3.047  -0.391 -32.761  1.00  0.00     0.278 C 
BRANCH  24  25
HETATM   25  C   UNL     1      -4.356  -1.091 -33.151  1.00  0.00     0.242 C 
HETATM   26  N   UNL     1      -5.231  -0.300 -33.863  1.00  0.00    -0.351 N 
HETATM   27  H   UNL     1      -4.969   0.679 -33.944  1.00  0.00     0.163 HD
HETATM   28  O   UNL     1      -4.577  -2.255 -32.830  1.00  0.00    -0.271 OA
BRANCH  26  29
HETATM   29  C   UNL     1      -6.579  -0.683 -34.300  1.00  0.00     0.022 C 
HETATM   30  C   UNL     1      -7.564  -0.591 -33.126  1.00  0.00     0.037 C 
HETATM   31  C   UNL     1      -7.018   0.306 -35.395  1.00  0.00     0.037 C 
HETATM   32  C   UNL     1      -6.598  -2.098 -34.899  1.00  0.00     0.037 C 
ENDBRANCH  26  29
ENDBRANCH  24  25
ENDBRANCH  23  24
ENDBRANCH   2  23
TORSDOF 9
ENDMDL
MODEL 8
REMARK VINA RESULT:      -7.2      3.060      9.074
REMARK  9 active torsions:
REMARK  status: ('A' for Active; 'I' for Inactive)
REMARK    1  A    between atoms: C_2  and  O_3 
REMARK    2  A    between atoms: O_3  and  C_4 
REMARK    3  A    between atoms: C_5  and  O_6 
REMARK    4  A    between atoms: O_6  and  C_7 
REMARK    5  A    between atoms: C_7  and  C_8 
REMARK       I    between atoms: C_8  and  N_9 
REMARK    6  A    between atoms: N_9  and  C_10 
REMARK    7  A    between atoms: C_17  and  C_18 
REMARK    8  A    between atoms: C_18  and  N_19 
REMARK    9  A    between atoms: N_19  and  C_20 
ROOT
HETATM    1  C   UNL     1      -4.004   2.534 -31.604  1.00  0.00     0.102 A 
HETATM    2  C   UNL     1      -5.156   3.227 -31.201  1.00  0.00     0.102 A 
HETATM    3  C   UNL     1      -5.361   4.523 -31.683  1.00  0.00     0.040 A 
HETATM    4  C   UNL     1      -4.421   5.127 -32.525  1.00  0.00     0.012 A 
HETATM    5  C   UNL     1      -3.250   4.453 -32.894  1.00  0.00    -0.038 A 
HETATM    6  C   UNL     1      -3.049   3.153 -32.419  1.00  0.00     0.048 A 
ENDROOT
BRANCH   5   7
HETATM    7  C   UNL     1      -2.211   5.135 -33.755  1.00  0.00     0.158 C 
BRANCH   7   8
HETATM    8  N   UNL     1      -1.773   6.355 -33.089  1.00  0.00    -0.386 N 
HETATM    9  H   UNL     1      -2.467   7.096 -33.139  1.00  0.00     0.160 HD
BRANCH   8  10
HETATM   10  C   UNL     1      -1.164   6.290 -31.833  1.00  0.00     0.031 A 
HETATM   11  C   UNL     1      -1.665   6.923 -30.690  1.00  0.00     0.068 A 
HETATM   12  C   UNL     1      -1.052   6.751 -29.445  1.00  0.00     0.104 A 
HETATM   13  C   UNL     1       0.076   5.938 -29.322  1.00  0.00     0.102 A 
HETATM   14  O   UNL     1      -1.615   7.418 -28.385  1.00  0.00    -0.346 OA
HETATM   15  O   UNL     1       0.744   5.748 -28.140  1.00  0.00    -0.346 OA
HETATM   16  C   UNL     1       0.555   5.256 -30.432  1.00  0.00     0.042 A 
HETATM   17  C   UNL     1       0.371   6.729 -27.167  1.00  0.00     0.202 C 
HETATM   18  C   UNL     1      -1.138   6.907 -27.135  1.00  0.00     0.202 C 
HETATM   19  C   UNL     1      -0.069   5.424 -31.671  1.00  0.00     0.032 A 
ENDBRANCH   8  10
ENDBRANCH   7   8
ENDBRANCH   5   7
BRANCH   1  20
HETATM   20  O   UNL     1      -3.664   1.275 -31.175  1.00  0.00    -0.349 OA
BRANCH  20  21
HETATM   21  C   UNL     1      -3.577   0.275 -32.198  1.00  0.00     0.171 C 
HETATM   22  C   UNL     1      -2.678  -0.890 -31.813  1.00  0.00     0.034 C 
ENDBRANCH  20  21
ENDBRANCH   1  20
BRANCH   2  23
HETATM   23  O   UNL     1      -5.963   2.600 -30.290  1.00  0.00    -0.339 OA
BRANCH  23  24
HETATM   24  C   UNL     1      -7.360   2.512 -30.535  1.00  0.00     0.278 C 
BRANCH  24  25
HETATM   25  C   UNL     1      -7.793   1.439 -31.545  1.00  0.00     0.242 C 
HETATM   26  N   UNL     1      -8.790   1.841 -32.406  1.00  0.00    -0.351 N 
HETATM   27  H   UNL     1      -9.206   2.746 -32.201  1.00  0.00     0.163 HD
HETATM   28  O   UNL     1      -7.280   0.324 -31.550  1.00  0.00    -0.271 OA
BRANCH  26  29
HETATM   29  C   UNL     1      -9.443   1.004 -33.419  1.00  0.00     0.022 C 
HETATM   30  C   UNL     1     -10.510   1.814 -34.168  1.00  0.00     0.037 C 
HETATM   31  C   UNL     1      -8.367   0.552 -34.423  1.00  0.00     0.037 C 
HETATM   32  C   UNL     1     -10.072  -0.251 -32.794  1.00  0.00     0.037 C 
ENDBRANCH  26  29
ENDBRANCH  24  25
ENDBRANCH  23  24
ENDBRANCH   2  23
TORSDOF 9
ENDMDL
MODEL 9
REMARK VINA RESULT:      -7.1      3.806      7.599
REMARK  9 active torsions:
REMARK  status: ('A' for Active; 'I' for Inactive)
REMARK    1  A    between atoms: C_2  and  O_3 
REMARK    2  A    between atoms: O_3  and  C_4 
REMARK    3  A    between atoms: C_5  and  O_6 
REMARK    4  A    between atoms: O_6  and  C_7 
REMARK    5  A    between atoms: C_7  and  C_8 
REMARK       I    between atoms: C_8  and  N_9 
REMARK    6  A    between atoms: N_9  and  C_10 
REMARK    7  A    between atoms: C_17  and  C_18 
REMARK    8  A    between atoms: C_18  and  N_19 
REMARK    9  A    between atoms: N_19  and  C_20 
ROOT
HETATM    1  C   UNL     1      -6.627  -1.150 -33.228  1.00  0.00     0.102 A 
HETATM    2  C   UNL     1      -6.037  -0.541 -32.110  1.00  0.00     0.102 A 
HETATM    3  C   UNL     1      -6.797   0.360 -31.358  1.00  0.00     0.040 A 
HETATM    4  C   UNL     1      -8.109   0.669 -31.732  1.00  0.00     0.012 A 
HETATM    5  C   UNL     1      -8.685   0.095 -32.873  1.00  0.00    -0.038 A 
HETATM    6  C   UNL     1      -7.928  -0.812 -33.620  1.00  0.00     0.048 A 
ENDROOT
BRANCH   5   7
HETATM    7  C   UNL     1     -10.082   0.482 -33.304  1.00  0.00     0.158 C 
BRANCH   7   8
HETATM    8  N   UNL     1     -10.534   1.603 -32.490  1.00  0.00    -0.386 N 
HETATM    9  H   UNL     1      -9.932   1.767 -31.688  1.00  0.00     0.160 HD
BRANCH   8  10
HETATM   10  C   UNL     1     -10.938   2.794 -33.098  1.00  0.00     0.031 A 
HETATM   11  C   UNL     1     -10.059   3.689 -33.719  1.00  0.00     0.068 A 
HETATM   12  C   UNL     1     -10.538   4.825 -34.380  1.00  0.00     0.104 A 
HETATM   13  C   UNL     1     -11.908   5.084 -34.432  1.00  0.00     0.102 A 
HETATM   14  O   UNL     1      -9.597   5.644 -34.954  1.00  0.00    -0.346 OA
HETATM   15  O   UNL     1     -12.445   6.192 -35.037  1.00  0.00    -0.346 OA
HETATM   16  C   UNL     1     -12.800   4.180 -33.871  1.00  0.00     0.042 A 
HETATM   17  C   UNL     1     -11.445   7.186 -35.281  1.00  0.00     0.202 C 
HETATM   18  C   UNL     1     -10.197   6.558 -35.879  1.00  0.00     0.202 C 
HETATM   19  C   UNL     1     -12.316   3.041 -33.221  1.00  0.00     0.032 A 
ENDBRANCH   8  10
ENDBRANCH   7   8
ENDBRANCH   5   7
BRANCH   1  20
HETATM   20  O   UNL     1      -5.981  -2.019 -34.071  1.00  0.00    -0.349 OA
BRANCH  20  21
HETATM   21  C   UNL     1      -6.820  -2.960 -34.753  1.00  0.00     0.171 C 
HETATM   22  C   UNL     1      -6.192  -4.339 -34.870  1.00  0.00     0.034 C 
ENDBRANCH  20  21
ENDBRANCH   1  20
BRANCH   2  23
HETATM   23  O   UNL     1      -4.716  -0.820 -31.884  1.00  0.00    -0.339 OA
BRANCH  23  24
HETATM   24  C   UNL     1      -3.714  -0.067 -32.553  1.00  0.00     0.278 C 
BRANCH  24  25
HETATM   25  C   UNL     1      -3.459   1.342 -31.997  1.00  0.00     0.242 C 
HETATM   26  N   UNL     1      -4.053   2.353 -32.720  1.00  0.00    -0.351 N 
HETATM   27  H   UNL     1      -4.487   2.068 -33.595  1.00  0.00     0.163 HD
HETATM   28  O   UNL     1      -2.769   1.517 -30.997  1.00  0.00    -0.271 OA
BRANCH  26  29
HETATM   29  C   UNL     1      -3.918   3.791 -32.463  1.00  0.00     0.022 C 
HETATM   30  C   UNL     1      -2.453   4.222 -32.617  1.00  0.00     0.037 C 
HETATM   31  C   UNL     1      -4.768   4.539 -33.506  1.00  0.00     0.037 C 
HETATM   32  C   UNL     1      -4.437   4.166 -31.065  1.00  0.00     0.037 C 
ENDBRANCH  26  29
ENDBRANCH  24  25
ENDBRANCH  23  24
ENDBRANCH   2  23
TORSDOF 9
ENDMDL
MODEL 10
REMARK VINA RESULT:      -7.1      5.518      7.796
REMARK  9 active torsions:
REMARK  status: ('A' for Active; 'I' for Inactive)
REMARK    1  A    between atoms: C_2  and  O_3 
REMARK    2  A    between atoms: O_3  and  C_4 
REMARK    3  A    between atoms: C_5  and  O_6 
REMARK    4  A    between atoms: O_6  and  C_7 
REMARK    5  A    between atoms: C_7  and  C_8 
REMARK       I    between atoms: C_8  and  N_9 
REMARK    6  A    between atoms: N_9  and  C_10 
REMARK    7  A    between atoms: C_17  and  C_18 
REMARK    8  A    between atoms: C_18  and  N_19 
REMARK    9  A    between atoms: N_19  and  C_20 
ROOT
HETATM    1  C   UNL     1      -6.878  -0.170 -33.247  1.00  0.00     0.102 A 
HETATM    2  C   UNL     1      -6.539   0.574 -32.106  1.00  0.00     0.102 A 
HETATM    3  C   UNL     1      -7.562   1.180 -31.372  1.00  0.00     0.040 A 
HETATM    4  C   UNL     1      -8.895   1.072 -31.785  1.00  0.00     0.012 A 
HETATM    5  C   UNL     1      -9.231   0.366 -32.947  1.00  0.00    -0.038 A 
HETATM    6  C   UNL     1      -8.208  -0.248 -33.677  1.00  0.00     0.048 A 
ENDROOT
BRANCH   5   7
HETATM    7  C   UNL     1     -10.667   0.306 -33.420  1.00  0.00     0.158 C 
BRANCH   7   8
HETATM    8  N   UNL     1     -11.280   1.615 -33.236  1.00  0.00    -0.386 N 
HETATM    9  H   UNL     1     -10.902   2.313 -33.872  1.00  0.00     0.160 HD
BRANCH   8  10
HETATM   10  C   UNL     1     -12.665   1.728 -33.093  1.00  0.00     0.031 A 
HETATM   11  C   UNL     1     -13.296   2.795 -32.444  1.00  0.00     0.068 A 
HETATM   12  C   UNL     1     -14.691   2.890 -32.407  1.00  0.00     0.104 A 
HETATM   13  C   UNL     1     -15.479   1.917 -33.021  1.00  0.00     0.102 A 
HETATM   14  O   UNL     1     -15.216   3.971 -31.742  1.00  0.00    -0.346 OA
HETATM   15  O   UNL     1     -16.851   1.931 -32.998  1.00  0.00    -0.346 OA
HETATM   16  C   UNL     1     -14.873   0.880 -33.718  1.00  0.00     0.042 A 
HETATM   17  C   UNL     1     -17.345   2.832 -32.003  1.00  0.00     0.202 C 
HETATM   18  C   UNL     1     -16.600   4.156 -32.059  1.00  0.00     0.202 C 
HETATM   19  C   UNL     1     -13.478   0.797 -33.761  1.00  0.00     0.032 A 
ENDBRANCH   8  10
ENDBRANCH   7   8
ENDBRANCH   5   7
BRANCH   1  20
HETATM   20  O   UNL     1      -5.970  -0.780 -34.076  1.00  0.00    -0.349 OA
BRANCH  20  21
HETATM   21  C   UNL     1      -6.481  -1.864 -34.861  1.00  0.00     0.171 C 
HETATM   22  C   UNL     1      -5.736  -3.169 -34.626  1.00  0.00     0.034 C 
ENDBRANCH  20  21
ENDBRANCH   1  20
BRANCH   2  23
HETATM   23  O   UNL     1      -5.203   0.716 -31.841  1.00  0.00    -0.339 OA
BRANCH  23  24
HETATM   24  C   UNL     1      -4.781   1.627 -30.836  1.00  0.00     0.278 C 
BRANCH  24  25
HETATM   25  C   UNL     1      -3.853   2.756 -31.308  1.00  0.00     0.242 C 
HETATM   26  N   UNL     1      -4.507   3.826 -31.879  1.00  0.00    -0.351 N 
HETATM   27  H   UNL     1      -5.504   3.697 -32.033  1.00  0.00     0.163 HD
HETATM   28  O   UNL     1      -2.635   2.676 -31.180  1.00  0.00    -0.271 OA
BRANCH  26  29
HETATM   29  C   UNL     1      -3.871   5.004 -32.480  1.00  0.00     0.022 C 
HETATM   30  C   UNL     1      -4.931   5.909 -33.122  1.00  0.00     0.037 C 
HETATM   31  C   UNL     1      -3.167   5.785 -31.355  1.00  0.00     0.037 C 
HETATM   32  C   UNL     1      -2.813   4.606 -33.521  1.00  0.00     0.037 C 
ENDBRANCH  26  29
ENDBRANCH  24  25
ENDBRANCH  23  24
ENDBRANCH   2  23
TORSDOF 9
ENDMDL
