MODEL 1
REMARK VINA RESULT:      -9.9      0.000      0.000
REMARK  4 active torsions:
REMARK  status: ('A' for Active; 'I' for Inactive)
REMARK       I    between atoms: N_10  and  C_11 
REMARK    1  A    between atoms: C_11  and  C_12 
REMARK    2  A    between atoms: C_12  and  O_13 
REMARK    3  A    between atoms: O_13  and  C_14 
REMARK    4  A    between atoms: C_15  and  C_16 
ROOT
HETATM    1  C   UNL     1      -4.442  -4.203 -34.391  1.00  0.00     0.001 A 
HETATM    2  C   UNL     1      -4.306  -2.928 -33.832  1.00  0.00     0.014 A 
HETATM    3  C   UNL     1      -5.420  -2.064 -33.797  1.00  0.00     0.000 A 
HETATM    4  C   UNL     1      -6.633  -2.516 -34.328  1.00  0.00     0.043 A 
HETATM    5  N   UNL     1      -7.554  -1.500 -34.176  1.00  0.00    -0.358 N 
HETATM    6  H   UNL     1      -8.517  -1.550 -34.478  1.00  0.00     0.166 HD
HETATM    7  C   UNL     1      -6.962  -0.441 -33.556  1.00  0.00     0.020 A 
HETATM    8  C   UNL     1      -5.638  -0.742 -33.314  1.00  0.00    -0.005 A 
HETATM    9  C   UNL     1      -4.688   0.194 -32.644  1.00  0.00     0.167 C 
HETATM   10  N   UNL     1      -5.326   1.497 -32.358  1.00  0.00    -0.346 N 
HETATM   11  C   UNL     1      -4.584   2.601 -31.938  1.00  0.00     0.244 C 
HETATM   12  O   UNL     1      -5.115   3.588 -31.420  1.00  0.00    -0.271 OA
HETATM   13  C   UNL     1      -6.778   1.509 -32.082  1.00  0.00     0.132 C 
HETATM   14  C   UNL     1      -7.610   0.843 -33.196  1.00  0.00     0.077 C 
HETATM   15  C   UNL     1      -6.783  -3.789 -34.892  1.00  0.00     0.030 A 
HETATM   16  C   UNL     1      -5.662  -4.625 -34.912  1.00  0.00     0.002 A 
ENDROOT
BRANCH  11  17
HETATM   17  C   UNL     1      -3.063   2.564 -32.113  1.00  0.00     0.278 C 
BRANCH  17  18
HETATM   18  O   UNL     1      -2.492   3.735 -31.543  1.00  0.00    -0.341 OA
BRANCH  18  19
HETATM   19  C   UNL     1      -2.008   4.675 -32.415  1.00  0.00     0.077 A 
HETATM   20  C   UNL     1      -1.340   5.777 -31.845  1.00  0.00    -0.001 A 
HETATM   21  C   UNL     1      -0.822   6.765 -32.708  1.00  0.00     0.012 A 
HETATM   22  C   UNL     1      -0.982   6.672 -34.090  1.00  0.00     0.001 A 
HETATM   23  C   UNL     1      -1.665   5.592 -34.637  1.00  0.00     0.003 A 
HETATM   24  C   UNL     1      -2.179   4.597 -33.803  1.00  0.00     0.037 A 
BRANCH  20  25
HETATM   25  C   UNL     1      -1.154   5.884 -30.343  1.00  0.00     0.144 C 
HETATM   26  S   UNL     1       0.410   5.121 -29.787  1.00  0.00    -0.148 SA
HETATM   27  C   UNL     1       0.661   6.230 -28.384  1.00  0.00     0.085 C 
HETATM   28  C   UNL     1       0.359   7.632 -28.873  1.00  0.00     0.085 C 
HETATM   29  S   UNL     1      -1.233   7.615 -29.741  1.00  0.00    -0.148 SA
ENDBRANCH  20  25
ENDBRANCH  18  19
ENDBRANCH  17  18
ENDBRANCH  11  17
TORSDOF 4
ENDMDL
MODEL 2
REMARK VINA RESULT:      -9.4      5.591      8.680
REMARK  4 active torsions:
REMARK  status: ('A' for Active; 'I' for Inactive)
REMARK       I    between atoms: N_10  and  C_11 
REMARK    1  A    between atoms: C_11  and  C_12 
REMARK    2  A    between atoms: C_12  and  O_13 
REMARK    3  A    between atoms: O_13  and  C_14 
REMARK    4  A    between atoms: C_15  and  C_16 
ROOT
HETATM    1  C   UNL     1      -6.145  -4.602 -34.918  1.00  0.00     0.001 A 
HETATM    2  C   UNL     1      -6.834  -3.384 -34.877  1.00  0.00     0.014 A 
HETATM    3  C   UNL     1      -6.190  -2.241 -34.362  1.00  0.00     0.000 A 
HETATM    4  C   UNL     1      -4.874  -2.364 -33.904  1.00  0.00     0.043 A 
HETATM    5  N   UNL     1      -4.475  -1.123 -33.455  1.00  0.00    -0.358 N 
HETATM    6  H   UNL     1      -3.566  -0.920 -33.062  1.00  0.00     0.166 HD
HETATM    7  C   UNL     1      -5.488  -0.229 -33.632  1.00  0.00     0.020 A 
HETATM    8  C   UNL     1      -6.573  -0.881 -34.180  1.00  0.00    -0.005 A 
HETATM    9  C   UNL     1      -7.862  -0.205 -34.509  1.00  0.00     0.167 C 
HETATM   10  N   UNL     1      -7.848   1.215 -34.097  1.00  0.00    -0.346 N 
HETATM   11  C   UNL     1      -9.006   1.992 -34.101  1.00  0.00     0.244 C 
HETATM   12  O   UNL     1      -8.967   3.225 -34.048  1.00  0.00    -0.271 OA
HETATM   13  C   UNL     1      -6.552   1.926 -34.115  1.00  0.00     0.132 C 
HETATM   14  C   UNL     1      -5.461   1.214 -33.292  1.00  0.00     0.077 C 
HETATM   15  C   UNL     1      -4.174  -3.577 -33.937  1.00  0.00     0.030 A 
HETATM   16  C   UNL     1      -4.835  -4.694 -34.454  1.00  0.00     0.002 A 
ENDROOT
BRANCH  11  17
HETATM   17  C   UNL     1     -10.358   1.281 -34.193  1.00  0.00     0.278 C 
BRANCH  17  18
HETATM   18  O   UNL     1     -11.367   2.223 -34.535  1.00  0.00    -0.341 OA
BRANCH  18  19
HETATM   19  C   UNL     1     -12.628   1.979 -34.056  1.00  0.00     0.077 A 
HETATM   20  C   UNL     1     -13.086   2.828 -33.029  1.00  0.00    -0.001 A 
HETATM   21  C   UNL     1     -14.381   2.615 -32.511  1.00  0.00     0.012 A 
HETATM   22  C   UNL     1     -15.186   1.580 -32.984  1.00  0.00     0.001 A 
HETATM   23  C   UNL     1     -14.712   0.735 -33.982  1.00  0.00     0.003 A 
HETATM   24  C   UNL     1     -13.437   0.931 -34.514  1.00  0.00     0.037 A 
BRANCH  20  25
HETATM   25  C   UNL     1     -12.221   3.963 -32.512  1.00  0.00     0.144 C 
HETATM   26  S   UNL     1     -12.424   5.487 -33.497  1.00  0.00    -0.148 SA
HETATM   27  C   UNL     1     -12.105   6.626 -32.132  1.00  0.00     0.085 C 
HETATM   28  C   UNL     1     -12.879   6.106 -30.938  1.00  0.00     0.085 C 
HETATM   29  S   UNL     1     -12.528   4.338 -30.742  1.00  0.00    -0.148 SA
ENDBRANCH  20  25
ENDBRANCH  18  19
ENDBRANCH  17  18
ENDBRANCH  11  17
TORSDOF 4
ENDMDL
MODEL 3
REMARK VINA RESULT:      -9.0      1.952      2.388
REMARK  4 active torsions:
REMARK  status: ('A' for Active; 'I' for Inactive)
REMARK       I    between atoms: N_10  and  C_11 
REMARK    1  A    between atoms: C_11  and  C_12 
REMARK    2  A    between atoms: C_12  and  O_13 
REMARK    3  A    between atoms: O_13  and  C_14 
REMARK    4  A    between atoms: C_15  and  C_16 
ROOT
HETATM    1  C   UNL     1      -3.015  -3.444 -32.184  1.00  0.00     0.001 A 
HETATM    2  C   UNL     1      -3.546  -2.151 -32.237  1.00  0.00     0.014 A 
HETATM    3  C   UNL     1      -4.505  -1.836 -33.221  1.00  0.00     0.000 A 
HETATM    4  C   UNL     1      -4.896  -2.835 -34.118  1.00  0.00     0.043 A 
HETATM    5  N   UNL     1      -5.830  -2.284 -34.970  1.00  0.00    -0.358 N 
HETATM    6  H   UNL     1      -6.281  -2.780 -35.725  1.00  0.00     0.166 HD
HETATM    7  C   UNL     1      -6.047  -0.983 -34.624  1.00  0.00     0.020 A 
HETATM    8  C   UNL     1      -5.239  -0.661 -33.554  1.00  0.00    -0.005 A 
HETATM    9  C   UNL     1      -5.217   0.686 -32.913  1.00  0.00     0.167 C 
HETATM   10  N   UNL     1      -6.102   1.636 -33.622  1.00  0.00    -0.346 N 
HETATM   11  C   UNL     1      -6.083   3.003 -33.345  1.00  0.00     0.244 C 
HETATM   12  O   UNL     1      -6.996   3.756 -33.701  1.00  0.00    -0.271 OA
HETATM   13  C   UNL     1      -7.305   1.093 -34.287  1.00  0.00     0.132 C 
HETATM   14  C   UNL     1      -6.986  -0.042 -35.280  1.00  0.00     0.077 C 
HETATM   15  C   UNL     1      -4.371  -4.133 -34.078  1.00  0.00     0.030 A 
HETATM   16  C   UNL     1      -3.423  -4.418 -33.091  1.00  0.00     0.002 A 
ENDROOT
BRANCH  11  17
HETATM   17  C   UNL     1      -4.898   3.570 -32.560  1.00  0.00     0.278 C 
BRANCH  17  18
HETATM   18  O   UNL     1      -4.798   4.969 -32.796  1.00  0.00    -0.341 OA
BRANCH  18  19
HETATM   19  C   UNL     1      -3.573   5.443 -33.189  1.00  0.00     0.077 A 
HETATM   20  C   UNL     1      -2.924   6.321 -32.299  1.00  0.00    -0.001 A 
HETATM   21  C   UNL     1      -1.659   6.829 -32.663  1.00  0.00     0.012 A 
HETATM   22  C   UNL     1      -1.068   6.491 -33.880  1.00  0.00     0.001 A 
HETATM   23  C   UNL     1      -1.732   5.642 -34.759  1.00  0.00     0.003 A 
HETATM   24  C   UNL     1      -2.981   5.121 -34.417  1.00  0.00     0.037 A 
BRANCH  20  25
HETATM   25  C   UNL     1      -3.554   6.690 -30.969  1.00  0.00     0.144 C 
HETATM   26  S   UNL     1      -2.301   7.048 -29.689  1.00  0.00    -0.148 SA
HETATM   27  C   UNL     1      -3.305   8.250 -28.788  1.00  0.00     0.085 C 
HETATM   28  C   UNL     1      -3.950   9.147 -29.825  1.00  0.00     0.085 C 
HETATM   29  S   UNL     1      -4.710   8.109 -31.101  1.00  0.00    -0.148 SA
ENDBRANCH  20  25
ENDBRANCH  18  19
ENDBRANCH  17  18
ENDBRANCH  11  17
TORSDOF 4
ENDMDL
MODEL 4
REMARK VINA RESULT:      -8.9      1.644      1.914
REMARK  4 active torsions:
REMARK  status: ('A' for Active; 'I' for Inactive)
REMARK       I    between atoms: N_10  and  C_11 
REMARK    1  A    between atoms: C_11  and  C_12 
REMARK    2  A    between atoms: C_12  and  O_13 
REMARK    3  A    between atoms: O_13  and  C_14 
REMARK    4  A    between atoms: C_15  and  C_16 
ROOT
HETATM    1  C   UNL     1      -4.453  -3.269 -34.528  1.00  0.00     0.001 A 
HETATM    2  C   UNL     1      -4.357  -2.073 -33.809  1.00  0.00     0.014 A 
HETATM    3  C   UNL     1      -5.527  -1.339 -33.525  1.00  0.00     0.000 A 
HETATM    4  C   UNL     1      -6.754  -1.836 -33.979  1.00  0.00     0.043 A 
HETATM    5  N   UNL     1      -7.732  -0.949 -33.580  1.00  0.00    -0.358 N 
HETATM    6  H   UNL     1      -8.717  -1.055 -33.777  1.00  0.00     0.166 HD
HETATM    7  C   UNL     1      -7.160   0.072 -32.881  1.00  0.00     0.020 A 
HETATM    8  C   UNL     1      -5.795  -0.123 -32.833  1.00  0.00    -0.005 A 
HETATM    9  C   UNL     1      -4.852   0.806 -32.144  1.00  0.00     0.167 C 
HETATM   10  N   UNL     1      -5.558   1.988 -31.602  1.00  0.00    -0.346 N 
HETATM   11  C   UNL     1      -4.866   3.094 -31.111  1.00  0.00     0.244 C 
HETATM   12  O   UNL     1      -5.410   3.944 -30.400  1.00  0.00    -0.271 OA
HETATM   13  C   UNL     1      -6.960   1.815 -31.169  1.00  0.00     0.132 C 
HETATM   14  C   UNL     1      -7.864   1.224 -32.269  1.00  0.00     0.077 C 
HETATM   15  C   UNL     1      -6.864  -3.030 -34.702  1.00  0.00     0.030 A 
HETATM   16  C   UNL     1      -5.688  -3.738 -34.967  1.00  0.00     0.002 A 
ENDROOT
BRANCH  11  17
HETATM   17  C   UNL     1      -3.381   3.235 -31.457  1.00  0.00     0.278 C 
BRANCH  17  18
HETATM   18  O   UNL     1      -2.939   4.545 -31.122  1.00  0.00    -0.341 OA
BRANCH  18  19
HETATM   19  C   UNL     1      -2.410   5.298 -32.138  1.00  0.00     0.077 A 
HETATM   20  C   UNL     1      -2.420   6.695 -31.956  1.00  0.00    -0.001 A 
HETATM   21  C   UNL     1      -1.880   7.507 -32.975  1.00  0.00     0.012 A 
HETATM   22  C   UNL     1      -1.369   6.950 -34.147  1.00  0.00     0.001 A 
HETATM   23  C   UNL     1      -1.388   5.571 -34.323  1.00  0.00     0.003 A 
HETATM   24  C   UNL     1      -1.910   4.747 -33.324  1.00  0.00     0.037 A 
BRANCH  20  25
HETATM   25  C   UNL     1      -2.967   7.311 -30.681  1.00  0.00     0.144 C 
HETATM   26  S   UNL     1      -1.744   8.389 -29.857  1.00  0.00    -0.148 SA
HETATM   27  C   UNL     1      -2.956   9.519 -29.140  1.00  0.00     0.085 C 
HETATM   28  C   UNL     1      -3.971   9.818 -30.225  1.00  0.00     0.085 C 
HETATM   29  S   UNL     1      -4.516   8.253 -30.959  1.00  0.00    -0.148 SA
ENDBRANCH  20  25
ENDBRANCH  18  19
ENDBRANCH  17  18
ENDBRANCH  11  17
TORSDOF 4
ENDMDL
MODEL 5
REMARK VINA RESULT:      -8.8      4.568      7.187
REMARK  4 active torsions:
REMARK  status: ('A' for Active; 'I' for Inactive)
REMARK       I    between atoms: N_10  and  C_11 
REMARK    1  A    between atoms: C_11  and  C_12 
REMARK    2  A    between atoms: C_12  and  O_13 
REMARK    3  A    between atoms: O_13  and  C_14 
REMARK    4  A    between atoms: C_15  and  C_16 
ROOT
HETATM    1  C   UNL     1      -5.597  -4.069 -35.220  1.00  0.00     0.001 A 
HETATM    2  C   UNL     1      -5.655  -2.715 -34.873  1.00  0.00     0.014 A 
HETATM    3  C   UNL     1      -4.859  -2.236 -33.813  1.00  0.00     0.000 A 
HETATM    4  C   UNL     1      -4.031  -3.138 -33.137  1.00  0.00     0.043 A 
HETATM    5  N   UNL     1      -3.364  -2.434 -32.157  1.00  0.00    -0.358 N 
HETATM    6  H   UNL     1      -2.702  -2.838 -31.511  1.00  0.00     0.166 HD
HETATM    7  C   UNL     1      -3.735  -1.123 -32.210  1.00  0.00     0.020 A 
HETATM    8  C   UNL     1      -4.667  -0.958 -33.212  1.00  0.00    -0.005 A 
HETATM    9  C   UNL     1      -5.291   0.355 -33.551  1.00  0.00     0.167 C 
HETATM   10  N   UNL     1      -4.845   1.419 -32.626  1.00  0.00    -0.346 N 
HETATM   11  C   UNL     1      -5.453   2.674 -32.605  1.00  0.00     0.244 C 
HETATM   12  O   UNL     1      -4.920   3.650 -32.066  1.00  0.00    -0.271 OA
HETATM   13  C   UNL     1      -3.487   1.310 -32.053  1.00  0.00     0.132 C 
HETATM   14  C   UNL     1      -3.239  -0.032 -31.337  1.00  0.00     0.077 C 
HETATM   15  C   UNL     1      -3.964  -4.497 -33.472  1.00  0.00     0.030 A 
HETATM   16  C   UNL     1      -4.763  -4.944 -34.528  1.00  0.00     0.002 A 
ENDROOT
BRANCH  11  17
HETATM   17  C   UNL     1      -6.812   2.837 -33.290  1.00  0.00     0.278 C 
BRANCH  17  18
HETATM   18  O   UNL     1      -7.847   2.735 -32.321  1.00  0.00    -0.341 OA
BRANCH  18  19
HETATM   19  C   UNL     1      -8.906   1.922 -32.630  1.00  0.00     0.077 A 
HETATM   20  C   UNL     1     -10.026   2.544 -33.217  1.00  0.00    -0.001 A 
HETATM   21  C   UNL     1     -11.136   1.742 -33.556  1.00  0.00     0.012 A 
HETATM   22  C   UNL     1     -11.141   0.371 -33.301  1.00  0.00     0.001 A 
HETATM   23  C   UNL     1     -10.038  -0.225 -32.700  1.00  0.00     0.003 A 
HETATM   24  C   UNL     1      -8.925   0.547 -32.363  1.00  0.00     0.037 A 
BRANCH  20  25
HETATM   25  C   UNL     1     -10.028   4.033 -33.505  1.00  0.00     0.144 C 
HETATM   26  S   UNL     1     -10.866   4.429 -35.079  1.00  0.00    -0.148 SA
HETATM   27  C   UNL     1     -11.460   6.054 -34.562  1.00  0.00     0.085 C 
HETATM   28  C   UNL     1     -12.008   5.894 -33.159  1.00  0.00     0.085 C 
HETATM   29  S   UNL     1     -10.783   5.016 -32.152  1.00  0.00    -0.148 SA
ENDBRANCH  20  25
ENDBRANCH  18  19
ENDBRANCH  17  18
ENDBRANCH  11  17
TORSDOF 4
ENDMDL
MODEL 6
REMARK VINA RESULT:      -8.8      1.893      3.705
REMARK  4 active torsions:
REMARK  status: ('A' for Active; 'I' for Inactive)
REMARK       I    between atoms: N_10  and  C_11 
REMARK    1  A    between atoms: C_11  and  C_12 
REMARK    2  A    between atoms: C_12  and  O_13 
REMARK    3  A    between atoms: O_13  and  C_14 
REMARK    4  A    between atoms: C_15  and  C_16 
ROOT
HETATM    1  C   UNL     1     -10.222   3.792 -34.472  1.00  0.00     0.001 A 
HETATM    2  C   UNL     1      -8.919   3.574 -34.012  1.00  0.00     0.014 A 
HETATM    3  C   UNL     1      -8.519   2.270 -33.657  1.00  0.00     0.000 A 
HETATM    4  C   UNL     1      -9.447   1.230 -33.774  1.00  0.00     0.043 A 
HETATM    5  N   UNL     1      -8.822   0.069 -33.370  1.00  0.00    -0.358 N 
HETATM    6  H   UNL     1      -9.261  -0.840 -33.347  1.00  0.00     0.166 HD
HETATM    7  C   UNL     1      -7.534   0.346 -33.021  1.00  0.00     0.020 A 
HETATM    8  C   UNL     1      -7.307   1.698 -33.172  1.00  0.00    -0.005 A 
HETATM    9  C   UNL     1      -5.999   2.353 -32.879  1.00  0.00     0.167 C 
HETATM   10  N   UNL     1      -5.020   1.386 -32.335  1.00  0.00    -0.346 N 
HETATM   11  C   UNL     1      -3.808   1.800 -31.785  1.00  0.00     0.244 C 
HETATM   12  O   UNL     1      -2.871   1.016 -31.600  1.00  0.00    -0.271 OA
HETATM   13  C   UNL     1      -5.123  -0.021 -32.776  1.00  0.00     0.132 C 
HETATM   14  C   UNL     1      -6.521  -0.626 -32.545  1.00  0.00     0.077 C 
HETATM   15  C   UNL     1     -10.756   1.435 -34.230  1.00  0.00     0.030 A 
HETATM   16  C   UNL     1     -11.125   2.737 -34.578  1.00  0.00     0.002 A 
ENDROOT
BRANCH  11  17
HETATM   17  C   UNL     1      -3.640   3.278 -31.422  1.00  0.00     0.278 C 
BRANCH  17  18
HETATM   18  O   UNL     1      -2.260   3.619 -31.448  1.00  0.00    -0.341 OA
BRANCH  18  19
HETATM   19  C   UNL     1      -1.883   4.605 -32.321  1.00  0.00     0.077 A 
HETATM   20  C   UNL     1      -1.313   5.763 -31.756  1.00  0.00    -0.001 A 
HETATM   21  C   UNL     1      -0.906   6.801 -32.620  1.00  0.00     0.012 A 
HETATM   22  C   UNL     1      -1.081   6.701 -34.000  1.00  0.00     0.001 A 
HETATM   23  C   UNL     1      -1.668   5.563 -34.542  1.00  0.00     0.003 A 
HETATM   24  C   UNL     1      -2.071   4.520 -33.707  1.00  0.00     0.037 A 
BRANCH  20  25
HETATM   25  C   UNL     1      -1.111   5.879 -30.256  1.00  0.00     0.144 C 
HETATM   26  S   UNL     1       0.485   5.170 -29.719  1.00  0.00    -0.148 SA
HETATM   27  C   UNL     1       0.716   6.289 -28.321  1.00  0.00     0.085 C 
HETATM   28  C   UNL     1       0.362   7.679 -28.809  1.00  0.00     0.085 C 
HETATM   29  S   UNL     1      -1.240   7.608 -29.656  1.00  0.00    -0.148 SA
ENDBRANCH  20  25
ENDBRANCH  18  19
ENDBRANCH  17  18
ENDBRANCH  11  17
TORSDOF 4
ENDMDL
MODEL 7
REMARK VINA RESULT:      -8.6      3.129      7.687
REMARK  4 active torsions:
REMARK  status: ('A' for Active; 'I' for Inactive)
REMARK       I    between atoms: N_10  and  C_11 
REMARK    1  A    between atoms: C_11  and  C_12 
REMARK    2  A    between atoms: C_12  and  O_13 
REMARK    3  A    between atoms: O_13  and  C_14 
REMARK    4  A    between atoms: C_15  and  C_16 
ROOT
HETATM    1  C   UNL     1      -1.404   5.577 -34.613  1.00  0.00     0.001 A 
HETATM    2  C   UNL     1      -2.636   4.913 -34.621  1.00  0.00     0.014 A 
HETATM    3  C   UNL     1      -3.689   5.397 -33.820  1.00  0.00     0.000 A 
HETATM    4  C   UNL     1      -3.466   6.534 -33.036  1.00  0.00     0.043 A 
HETATM    5  N   UNL     1      -4.634   6.802 -32.354  1.00  0.00    -0.358 N 
HETATM    6  H   UNL     1      -4.756   7.568 -31.706  1.00  0.00     0.166 HD
HETATM    7  C   UNL     1      -5.581   5.884 -32.697  1.00  0.00     0.020 A 
HETATM    8  C   UNL     1      -5.036   4.988 -33.593  1.00  0.00    -0.005 A 
HETATM    9  C   UNL     1      -5.793   3.846 -34.182  1.00  0.00     0.167 C 
HETATM   10  N   UNL     1      -7.158   3.756 -33.620  1.00  0.00    -0.346 N 
HETATM   11  C   UNL     1      -7.976   2.650 -33.851  1.00  0.00     0.244 C 
HETATM   12  O   UNL     1      -9.193   2.681 -33.646  1.00  0.00    -0.271 OA
HETATM   13  C   UNL     1      -7.815   5.012 -33.200  1.00  0.00     0.132 C 
HETATM   14  C   UNL     1      -6.975   5.827 -32.197  1.00  0.00     0.077 C 
HETATM   15  C   UNL     1      -2.238   7.207 -33.016  1.00  0.00     0.030 A 
HETATM   16  C   UNL     1      -1.211   6.706 -33.822  1.00  0.00     0.002 A 
ENDROOT
BRANCH  11  17
HETATM   17  C   UNL     1      -7.332   1.371 -34.392  1.00  0.00     0.278 C 
BRANCH  17  18
HETATM   18  O   UNL     1      -6.873   0.575 -33.307  1.00  0.00    -0.341 OA
BRANCH  18  19
HETATM   19  C   UNL     1      -6.174  -0.560 -33.625  1.00  0.00     0.077 A 
HETATM   20  C   UNL     1      -5.064  -0.865 -32.811  1.00  0.00    -0.001 A 
HETATM   21  C   UNL     1      -4.321  -2.028 -33.101  1.00  0.00     0.012 A 
HETATM   22  C   UNL     1      -4.655  -2.849 -34.177  1.00  0.00     0.001 A 
HETATM   23  C   UNL     1      -5.738  -2.523 -34.986  1.00  0.00     0.003 A 
HETATM   24  C   UNL     1      -6.494  -1.381 -34.714  1.00  0.00     0.037 A 
BRANCH  20  25
HETATM   25  C   UNL     1      -4.696   0.018 -31.633  1.00  0.00     0.144 C 
HETATM   26  S   UNL     1      -3.931   1.590 -32.163  1.00  0.00    -0.148 SA
HETATM   27  C   UNL     1      -4.544   2.565 -30.773  1.00  0.00     0.085 C 
HETATM   28  C   UNL     1      -5.998   2.185 -30.578  1.00  0.00     0.085 C 
HETATM   29  S   UNL     1      -6.127   0.377 -30.543  1.00  0.00    -0.148 SA
ENDBRANCH  20  25
ENDBRANCH  18  19
ENDBRANCH  17  18
ENDBRANCH  11  17
TORSDOF 4
ENDMDL
MODEL 8
REMARK VINA RESULT:      -8.3      4.973      7.383
REMARK  4 active torsions:
REMARK  status: ('A' for Active; 'I' for Inactive)
REMARK       I    between atoms: N_10  and  C_11 
REMARK    1  A    between atoms: C_11  and  C_12 
REMARK    2  A    between atoms: C_12  and  O_13 
REMARK    3  A    between atoms: O_13  and  C_14 
REMARK    4  A    between atoms: C_15  and  C_16 
ROOT
HETATM    1  C   UNL     1      -6.575  -4.076 -35.134  1.00  0.00     0.001 A 
HETATM    2  C   UNL     1      -6.635  -2.807 -34.547  1.00  0.00     0.014 A 
HETATM    3  C   UNL     1      -5.540  -2.341 -33.792  1.00  0.00     0.000 A 
HETATM    4  C   UNL     1      -4.422  -3.169 -33.654  1.00  0.00     0.043 A 
HETATM    5  N   UNL     1      -3.500  -2.495 -32.882  1.00  0.00    -0.358 N 
HETATM    6  H   UNL     1      -2.596  -2.861 -32.616  1.00  0.00     0.166 HD
HETATM    7  C   UNL     1      -3.997  -1.270 -32.549  1.00  0.00     0.020 A 
HETATM    8  C   UNL     1      -5.262  -1.137 -33.081  1.00  0.00    -0.005 A 
HETATM    9  C   UNL     1      -6.105   0.083 -32.914  1.00  0.00     0.167 C 
HETATM   10  N   UNL     1      -5.445   1.079 -32.043  1.00  0.00    -0.346 N 
HETATM   11  C   UNL     1      -6.123   2.200 -31.564  1.00  0.00     0.244 C 
HETATM   12  O   UNL     1      -5.528   3.174 -31.093  1.00  0.00    -0.271 OA
HETATM   13  C   UNL     1      -3.967   1.129 -32.049  1.00  0.00     0.132 C 
HETATM   14  C   UNL     1      -3.315  -0.232 -31.738  1.00  0.00     0.077 C 
HETATM   15  C   UNL     1      -4.349  -4.442 -34.234  1.00  0.00     0.030 A 
HETATM   16  C   UNL     1      -5.448  -4.879 -34.978  1.00  0.00     0.002 A 
ENDROOT
BRANCH  11  17
HETATM   17  C   UNL     1      -7.651   2.216 -31.650  1.00  0.00     0.278 C 
BRANCH  17  18
HETATM   18  O   UNL     1      -8.069   3.301 -32.469  1.00  0.00    -0.341 OA
BRANCH  18  19
HETATM   19  C   UNL     1      -9.057   4.108 -31.969  1.00  0.00     0.077 A 
HETATM   20  C   UNL     1     -10.273   4.129 -32.682  1.00  0.00    -0.001 A 
HETATM   21  C   UNL     1     -11.319   4.943 -32.198  1.00  0.00     0.012 A 
HETATM   22  C   UNL     1     -11.155   5.726 -31.057  1.00  0.00     0.001 A 
HETATM   23  C   UNL     1      -9.942   5.714 -30.377  1.00  0.00     0.003 A 
HETATM   24  C   UNL     1      -8.895   4.910 -30.833  1.00  0.00     0.037 A 
BRANCH  20  25
HETATM   25  C   UNL     1     -10.464   3.274 -33.921  1.00  0.00     0.144 C 
HETATM   26  S   UNL     1     -11.534   1.828 -33.602  1.00  0.00    -0.148 SA
HETATM   27  C   UNL     1     -12.220   1.742 -35.270  1.00  0.00     0.085 C 
HETATM   28  C   UNL     1     -12.564   3.160 -35.677  1.00  0.00     0.085 C 
HETATM   29  S   UNL     1     -11.136   4.224 -35.340  1.00  0.00    -0.148 SA
ENDBRANCH  20  25
ENDBRANCH  18  19
ENDBRANCH  17  18
ENDBRANCH  11  17
TORSDOF 4
ENDMDL
MODEL 9
REMARK VINA RESULT:      -8.3      5.359      8.423
REMARK  4 active torsions:
REMARK  status: ('A' for Active; 'I' for Inactive)
REMARK       I    between atoms: N_10  and  C_11 
REMARK    1  A    between atoms: C_11  and  C_12 
REMARK    2  A    between atoms: C_12  and  O_13 
REMARK    3  A    between atoms: O_13  and  C_14 
REMARK    4  A    between atoms: C_15  and  C_16 
ROOT
HETATM    1  C   UNL     1      -6.568  -3.288 -34.924  1.00  0.00     0.001 A 
HETATM    2  C   UNL     1      -6.994  -2.023 -34.504  1.00  0.00     0.014 A 
HETATM    3  C   UNL     1      -6.062  -1.133 -33.933  1.00  0.00     0.000 A 
HETATM    4  C   UNL     1      -4.733  -1.548 -33.803  1.00  0.00     0.043 A 
HETATM    5  N   UNL     1      -4.030  -0.512 -33.224  1.00  0.00    -0.358 N 
HETATM    6  H   UNL     1      -3.044  -0.539 -33.006  1.00  0.00     0.166 HD
HETATM    7  C   UNL     1      -4.871   0.538 -33.004  1.00  0.00     0.020 A 
HETATM    8  C   UNL     1      -6.141   0.193 -33.417  1.00  0.00    -0.005 A 
HETATM    9  C   UNL     1      -7.316   1.109 -33.325  1.00  0.00     0.167 C 
HETATM   10  N   UNL     1      -6.957   2.382 -32.663  1.00  0.00    -0.346 N 
HETATM   11  C   UNL     1      -7.928   3.302 -32.268  1.00  0.00     0.244 C 
HETATM   12  O   UNL     1      -7.647   4.472 -31.991  1.00  0.00    -0.271 OA
HETATM   13  C   UNL     1      -5.575   2.879 -32.827  1.00  0.00     0.132 C 
HETATM   14  C   UNL     1      -4.508   1.847 -32.410  1.00  0.00     0.077 C 
HETATM   15  C   UNL     1      -4.294  -2.812 -34.217  1.00  0.00     0.030 A 
HETATM   16  C   UNL     1      -5.238  -3.674 -34.781  1.00  0.00     0.002 A 
ENDROOT
BRANCH  11  17
HETATM   17  C   UNL     1      -9.385   2.838 -32.198  1.00  0.00     0.278 C 
BRANCH  17  18
HETATM   18  O   UNL     1      -9.888   2.655 -33.515  1.00  0.00    -0.341 OA
BRANCH  18  19
HETATM   19  C   UNL     1     -10.552   3.715 -34.076  1.00  0.00     0.077 A 
HETATM   20  C   UNL     1     -11.959   3.668 -34.034  1.00  0.00    -0.001 A 
HETATM   21  C   UNL     1     -12.682   4.743 -34.596  1.00  0.00     0.012 A 
HETATM   22  C   UNL     1     -12.027   5.816 -35.198  1.00  0.00     0.001 A 
HETATM   23  C   UNL     1     -10.638   5.836 -35.254  1.00  0.00     0.003 A 
HETATM   24  C   UNL     1      -9.902   4.788 -34.697  1.00  0.00     0.037 A 
BRANCH  20  25
HETATM   25  C   UNL     1     -12.682   2.508 -33.374  1.00  0.00     0.144 C 
HETATM   26  S   UNL     1     -14.244   3.030 -32.584  1.00  0.00    -0.148 SA
HETATM   27  C   UNL     1     -15.104   1.463 -32.836  1.00  0.00     0.085 C 
HETATM   28  C   UNL     1     -14.809   1.024 -34.256  1.00  0.00     0.085 C 
HETATM   29  S   UNL     1     -13.021   1.131 -34.537  1.00  0.00    -0.148 SA
ENDBRANCH  20  25
ENDBRANCH  18  19
ENDBRANCH  17  18
ENDBRANCH  11  17
TORSDOF 4
ENDMDL
MODEL 10
REMARK VINA RESULT:      -8.0      2.192      3.393
REMARK  4 active torsions:
REMARK  status: ('A' for Active; 'I' for Inactive)
REMARK       I    between atoms: N_10  and  C_11 
REMARK    1  A    between atoms: C_11  and  C_12 
REMARK    2  A    between atoms: C_12  and  O_13 
REMARK    3  A    between atoms: O_13  and  C_14 
REMARK    4  A    between atoms: C_15  and  C_16 
ROOT
HETATM    1  C   UNL     1      -4.849  -1.819 -33.558  1.00  0.00     0.001 A 
HETATM    2  C   UNL     1      -4.632  -0.500 -33.146  1.00  0.00     0.014 A 
HETATM    3  C   UNL     1      -5.579   0.492 -33.470  1.00  0.00     0.000 A 
HETATM    4  C   UNL     1      -6.713   0.121 -34.200  1.00  0.00     0.043 A 
HETATM    5  N   UNL     1      -7.474   1.256 -34.387  1.00  0.00    -0.358 N 
HETATM    6  H   UNL     1      -8.350   1.282 -34.890  1.00  0.00     0.166 HD
HETATM    7  C   UNL     1      -6.863   2.316 -33.785  1.00  0.00     0.020 A 
HETATM    8  C   UNL     1      -5.681   1.891 -33.216  1.00  0.00    -0.005 A 
HETATM    9  C   UNL     1      -4.754   2.791 -32.471  1.00  0.00     0.167 C 
HETATM   10  N   UNL     1      -5.223   4.193 -32.499  1.00  0.00    -0.346 N 
HETATM   11  C   UNL     1      -4.419   5.246 -32.062  1.00  0.00     0.244 C 
HETATM   12  O   UNL     1      -4.883   6.361 -31.804  1.00  0.00    -0.271 OA
HETATM   13  C   UNL     1      -6.681   4.431 -32.561  1.00  0.00     0.132 C 
HETATM   14  C   UNL     1      -7.361   3.712 -33.743  1.00  0.00     0.077 C 
HETATM   15  C   UNL     1      -6.942  -1.195 -34.621  1.00  0.00     0.030 A 
HETATM   16  C   UNL     1      -5.987  -2.158 -34.285  1.00  0.00     0.002 A 
ENDROOT
BRANCH  11  17
HETATM   17  C   UNL     1      -2.920   4.990 -31.885  1.00  0.00     0.278 C 
BRANCH  17  18
HETATM   18  O   UNL     1      -2.285   6.184 -31.444  1.00  0.00    -0.341 OA
BRANCH  18  19
HETATM   19  C   UNL     1      -1.319   6.050 -30.481  1.00  0.00     0.077 A 
HETATM   20  C   UNL     1      -1.462   6.852 -29.332  1.00  0.00    -0.001 A 
HETATM   21  C   UNL     1      -0.492   6.742 -28.313  1.00  0.00     0.012 A 
HETATM   22  C   UNL     1       0.596   5.880 -28.443  1.00  0.00     0.001 A 
HETATM   23  C   UNL     1       0.738   5.113 -29.594  1.00  0.00     0.003 A 
HETATM   24  C   UNL     1      -0.214   5.199 -30.611  1.00  0.00     0.037 A 
BRANCH  20  25
HETATM   25  C   UNL     1      -2.646   7.788 -29.177  1.00  0.00     0.144 C 
HETATM   26  S   UNL     1      -3.317   7.775 -27.478  1.00  0.00    -0.148 SA
HETATM   27  C   UNL     1      -3.884   9.490 -27.496  1.00  0.00     0.085 C 
HETATM   28  C   UNL     1      -2.773  10.312 -28.119  1.00  0.00     0.085 C 
HETATM   29  S   UNL     1      -2.253   9.514 -29.661  1.00  0.00    -0.148 SA
ENDBRANCH  20  25
ENDBRANCH  18  19
ENDBRANCH  17  18
ENDBRANCH  11  17
TORSDOF 4
ENDMDL
