MODEL 1
REMARK VINA RESULT:      -8.8      0.000      0.000
REMARK  7 active torsions:
REMARK  status: ('A' for Active; 'I' for Inactive)
REMARK    1  A    between atoms: C_4  and  C_5 
REMARK    2  A    between atoms: C_9  and  C_10 
REMARK    3  A    between atoms: C_10  and  C_11 
REMARK    4  A    between atoms: C_11  and  C_12 
REMARK    5  A    between atoms: C_12  and  O_13 
REMARK    6  A    between atoms: C_18  and  C_19 
REMARK       I    between atoms: C_19  and  N_20 
REMARK    7  A    between atoms: N_20  and  C_21 
ROOT
HETATM    1  C   UNL     1      -6.373   2.775 -31.633  1.00  0.00     0.202 A 
HETATM    2  N   UNL     1      -6.988   3.817 -30.803  1.00  0.00    -0.083 N 
HETATM    3  C   UNL     1      -8.273   4.252 -30.953  1.00  0.00     0.726 A 
HETATM    4  N   UNL     1      -8.562   5.102 -30.002  1.00  0.00    -0.046 NA
HETATM    5  C   UNL     1      -7.416   5.115 -29.243  1.00  0.00     0.166 A 
HETATM    6  N   UNL     1      -6.433   4.311 -29.674  1.00  0.00    -0.140 NA
HETATM    7  N   UNL     1      -9.024   3.743 -31.943  1.00  0.00    -0.192 N 
HETATM    8  C   UNL     1      -8.607   2.707 -32.773  1.00  0.00     0.037 A 
HETATM    9  C   UNL     1      -9.655   2.198 -33.736  1.00  0.00     0.070 C 
HETATM   10  C   UNL     1      -7.347   2.200 -32.663  1.00  0.00     0.062 A 
HETATM   11  H   UNL     1      -9.989   4.053 -32.026  1.00  0.00     0.184 HD
ENDROOT
BRANCH  10  12
HETATM   12  C   UNL     1      -6.871   1.118 -33.597  1.00  0.00     0.256 C 
HETATM   13  N   UNL     1      -6.622  -0.106 -33.007  1.00  0.00    -0.323 N 
HETATM   14  H   UNL     1      -6.680  -0.176 -32.005  1.00  0.00     0.169 HD
HETATM   15  O   UNL     1      -6.687   1.381 -34.780  1.00  0.00    -0.267 OA
BRANCH  13  16
HETATM   16  C   UNL     1      -6.203  -1.302 -33.646  1.00  0.00     0.041 A 
HETATM   17  C   UNL     1      -4.822  -1.608 -33.683  1.00  0.00    -0.035 A 
HETATM   18  C   UNL     1      -3.773  -0.687 -33.119  1.00  0.00     0.050 C 
HETATM   19  C   UNL     1      -4.393  -2.798 -34.298  1.00  0.00     0.009 A 
HETATM   20  C   UNL     1      -5.310  -3.681 -34.865  1.00  0.00     0.001 A 
HETATM   21  C   UNL     1      -6.665  -3.383 -34.825  1.00  0.00     0.002 A 
HETATM   22  C   UNL     1      -7.108  -2.203 -34.221  1.00  0.00     0.030 A 
ENDBRANCH  13  16
ENDBRANCH  10  12
BRANCH   1  23
HETATM   23  C   UNL     1      -5.057   3.285 -32.216  1.00  0.00    -0.028 A 
HETATM   24  C   UNL     1      -5.008   4.083 -33.372  1.00  0.00     0.016 A 
HETATM   25  C   UNL     1      -3.782   4.511 -33.901  1.00  0.00    -0.061 A 
HETATM   26  C   UNL     1      -3.730   5.334 -35.155  1.00  0.00     0.048 C 
HETATM   27  C   UNL     1      -2.595   4.161 -33.250  1.00  0.00     0.007 A 
HETATM   28  C   UNL     1      -2.628   3.398 -32.086  1.00  0.00     0.001 A 
HETATM   29  C   UNL     1      -3.849   2.964 -31.571  1.00  0.00     0.010 A 
ENDBRANCH   1  23
BRANCH   5  30
HETATM   30  C   UNL     1      -7.296   5.926 -28.005  1.00  0.00     0.085 C 
BRANCH  30  31
HETATM   31  C   UNL     1      -6.063   6.828 -27.990  1.00  0.00     0.034 C 
BRANCH  31  32
HETATM   32  C   UNL     1      -5.031   6.418 -26.946  1.00  0.00     0.164 C 
BRANCH  32  33
HETATM   33  O   UNL     1      -5.050   5.003 -26.780  1.00  0.00    -0.401 OA
HETATM   34  H   UNL     1      -4.171   4.734 -26.461  1.00  0.00     0.209 HD
ENDBRANCH  32  33
ENDBRANCH  31  32
ENDBRANCH  30  31
ENDBRANCH   5  30
TORSDOF 7
ENDMDL
MODEL 2
REMARK VINA RESULT:      -8.8      3.134      5.536
REMARK  7 active torsions:
REMARK  status: ('A' for Active; 'I' for Inactive)
REMARK    1  A    between atoms: C_4  and  C_5 
REMARK    2  A    between atoms: C_9  and  C_10 
REMARK    3  A    between atoms: C_10  and  C_11 
REMARK    4  A    between atoms: C_11  and  C_12 
REMARK    5  A    between atoms: C_12  and  O_13 
REMARK    6  A    between atoms: C_18  and  C_19 
REMARK       I    between atoms: C_19  and  N_20 
REMARK    7  A    between atoms: N_20  and  C_21 
ROOT
HETATM    1  C   UNL     1      -7.187   3.434 -32.097  1.00  0.00     0.202 A 
HETATM    2  N   UNL     1      -5.984   4.227 -32.375  1.00  0.00    -0.083 N 
HETATM    3  C   UNL     1      -5.958   5.303 -33.214  1.00  0.00     0.726 A 
HETATM    4  N   UNL     1      -4.777   5.864 -33.171  1.00  0.00    -0.046 NA
HETATM    5  C   UNL     1      -4.114   5.112 -32.229  1.00  0.00     0.166 A 
HETATM    6  N   UNL     1      -4.829   4.118 -31.682  1.00  0.00    -0.140 NA
HETATM    7  N   UNL     1      -7.078   5.648 -33.870  1.00  0.00    -0.192 N 
HETATM    8  C   UNL     1      -8.310   5.035 -33.667  1.00  0.00     0.037 A 
HETATM    9  C   UNL     1      -9.466   5.662 -34.413  1.00  0.00     0.070 C 
HETATM   10  C   UNL     1      -8.421   3.973 -32.822  1.00  0.00     0.062 A 
HETATM   11  H   UNL     1      -7.054   6.470 -34.468  1.00  0.00     0.184 HD
ENDROOT
BRANCH  10  12
HETATM   12  C   UNL     1      -9.742   3.269 -32.642  1.00  0.00     0.256 C 
HETATM   13  N   UNL     1     -10.202   2.584 -33.750  1.00  0.00    -0.323 N 
HETATM   14  H   UNL     1      -9.692   2.669 -34.613  1.00  0.00     0.169 HD
HETATM   15  O   UNL     1     -10.344   3.379 -31.580  1.00  0.00    -0.267 OA
BRANCH  13  16
HETATM   16  C   UNL     1     -11.386   1.809 -33.853  1.00  0.00     0.041 A 
HETATM   17  C   UNL     1     -11.372   0.477 -33.378  1.00  0.00    -0.035 A 
HETATM   18  C   UNL     1     -10.134  -0.171 -32.818  1.00  0.00     0.050 C 
HETATM   19  C   UNL     1     -12.544  -0.299 -33.458  1.00  0.00     0.009 A 
HETATM   20  C   UNL     1     -13.717   0.230 -33.991  1.00  0.00     0.001 A 
HETATM   21  C   UNL     1     -13.732   1.539 -34.453  1.00  0.00     0.002 A 
HETATM   22  C   UNL     1     -12.577   2.322 -34.385  1.00  0.00     0.030 A 
ENDBRANCH  13  16
ENDBRANCH  10  12
BRANCH   1  23
HETATM   23  C   UNL     1      -6.900   1.953 -32.339  1.00  0.00    -0.028 A 
HETATM   24  C   UNL     1      -6.865   1.399 -33.630  1.00  0.00     0.016 A 
HETATM   25  C   UNL     1      -6.629   0.030 -33.821  1.00  0.00    -0.061 A 
HETATM   26  C   UNL     1      -6.626  -0.567 -35.198  1.00  0.00     0.048 C 
HETATM   27  C   UNL     1      -6.398  -0.786 -32.709  1.00  0.00     0.007 A 
HETATM   28  C   UNL     1      -6.397  -0.247 -31.425  1.00  0.00     0.001 A 
HETATM   29  C   UNL     1      -6.645   1.113 -31.241  1.00  0.00     0.010 A 
ENDBRANCH   1  23
BRANCH   5  30
HETATM   30  C   UNL     1      -2.722   5.416 -31.813  1.00  0.00     0.085 C 
BRANCH  30  31
HETATM   31  C   UNL     1      -1.726   5.394 -32.971  1.00  0.00     0.034 C 
BRANCH  31  32
HETATM   32  C   UNL     1      -1.359   6.786 -33.473  1.00  0.00     0.164 C 
BRANCH  32  33
HETATM   33  O   UNL     1      -2.233   7.161 -34.533  1.00  0.00    -0.401 OA
HETATM   34  H   UNL     1      -3.063   7.472 -34.132  1.00  0.00     0.209 HD
ENDBRANCH  32  33
ENDBRANCH  31  32
ENDBRANCH  30  31
ENDBRANCH   5  30
TORSDOF 7
ENDMDL
MODEL 3
REMARK VINA RESULT:      -8.6      3.141      5.994
REMARK  7 active torsions:
REMARK  status: ('A' for Active; 'I' for Inactive)
REMARK    1  A    between atoms: C_4  and  C_5 
REMARK    2  A    between atoms: C_9  and  C_10 
REMARK    3  A    between atoms: C_10  and  C_11 
REMARK    4  A    between atoms: C_11  and  C_12 
REMARK    5  A    between atoms: C_12  and  O_13 
REMARK    6  A    between atoms: C_18  and  C_19 
REMARK       I    between atoms: C_19  and  N_20 
REMARK    7  A    between atoms: N_20  and  C_21 
ROOT
HETATM    1  C   UNL     1      -6.717   2.762 -32.832  1.00  0.00     0.202 A 
HETATM    2  N   UNL     1      -5.548   3.594 -33.139  1.00  0.00    -0.083 N 
HETATM    3  C   UNL     1      -5.625   4.873 -33.606  1.00  0.00     0.726 A 
HETATM    4  N   UNL     1      -4.424   5.386 -33.679  1.00  0.00    -0.046 NA
HETATM    5  C   UNL     1      -3.630   4.380 -33.182  1.00  0.00     0.166 A 
HETATM    6  N   UNL     1      -4.280   3.272 -32.799  1.00  0.00    -0.140 NA
HETATM    7  N   UNL     1      -6.832   5.408 -33.851  1.00  0.00    -0.192 N 
HETATM    8  C   UNL     1      -8.033   4.771 -33.554  1.00  0.00     0.037 A 
HETATM    9  C   UNL     1      -9.273   5.602 -33.790  1.00  0.00     0.070 C 
HETATM   10  C   UNL     1      -8.036   3.503 -33.056  1.00  0.00     0.062 A 
HETATM   11  H   UNL     1      -6.878   6.372 -34.170  1.00  0.00     0.184 HD
ENDROOT
BRANCH  10  12
HETATM   12  C   UNL     1      -9.334   2.787 -32.787  1.00  0.00     0.256 C 
HETATM   13  N   UNL     1     -10.072   2.459 -33.908  1.00  0.00    -0.323 N 
HETATM   14  H   UNL     1      -9.756   2.789 -34.804  1.00  0.00     0.169 HD
HETATM   15  O   UNL     1      -9.683   2.587 -31.629  1.00  0.00    -0.267 OA
BRANCH  13  16
HETATM   16  C   UNL     1     -11.304   1.757 -33.953  1.00  0.00     0.041 A 
HETATM   17  C   UNL     1     -12.433   2.396 -34.518  1.00  0.00    -0.035 A 
HETATM   18  C   UNL     1     -12.393   3.813 -35.024  1.00  0.00     0.050 C 
HETATM   19  C   UNL     1     -13.658   1.706 -34.585  1.00  0.00     0.009 A 
HETATM   20  C   UNL     1     -13.771   0.402 -34.110  1.00  0.00     0.001 A 
HETATM   21  C   UNL     1     -12.663  -0.227 -33.559  1.00  0.00     0.002 A 
HETATM   22  C   UNL     1     -11.440   0.445 -33.481  1.00  0.00     0.030 A 
ENDBRANCH  13  16
ENDBRANCH  10  12
BRANCH   1  23
HETATM   23  C   UNL     1      -6.607   1.422 -33.558  1.00  0.00    -0.028 A 
HETATM   24  C   UNL     1      -5.814   0.369 -33.069  1.00  0.00     0.016 A 
HETATM   25  C   UNL     1      -5.708  -0.840 -33.772  1.00  0.00    -0.061 A 
HETATM   26  C   UNL     1      -4.834  -1.950 -33.268  1.00  0.00     0.048 C 
HETATM   27  C   UNL     1      -6.425  -1.004 -34.962  1.00  0.00     0.007 A 
HETATM   28  C   UNL     1      -7.240   0.017 -35.443  1.00  0.00     0.001 A 
HETATM   29  C   UNL     1      -7.332   1.221 -34.745  1.00  0.00     0.010 A 
ENDBRANCH   1  23
BRANCH   5  30
HETATM   30  C   UNL     1      -2.160   4.533 -33.033  1.00  0.00     0.085 C 
BRANCH  30  31
HETATM   31  C   UNL     1      -1.738   5.942 -32.620  1.00  0.00     0.034 C 
BRANCH  31  32
HETATM   32  C   UNL     1      -1.130   6.747 -33.762  1.00  0.00     0.164 C 
BRANCH  32  33
HETATM   33  O   UNL     1      -2.166   7.268 -34.590  1.00  0.00    -0.401 OA
HETATM   34  H   UNL     1      -2.543   6.523 -35.090  1.00  0.00     0.209 HD
ENDBRANCH  32  33
ENDBRANCH  31  32
ENDBRANCH  30  31
ENDBRANCH   5  30
TORSDOF 7
ENDMDL
MODEL 4
REMARK VINA RESULT:      -8.6      2.903      4.749
REMARK  7 active torsions:
REMARK  status: ('A' for Active; 'I' for Inactive)
REMARK    1  A    between atoms: C_4  and  C_5 
REMARK    2  A    between atoms: C_9  and  C_10 
REMARK    3  A    between atoms: C_10  and  C_11 
REMARK    4  A    between atoms: C_11  and  C_12 
REMARK    5  A    between atoms: C_12  and  O_13 
REMARK    6  A    between atoms: C_18  and  C_19 
REMARK       I    between atoms: C_19  and  N_20 
REMARK    7  A    between atoms: N_20  and  C_21 
ROOT
HETATM    1  C   UNL     1      -5.247   2.236 -32.813  1.00  0.00     0.202 A 
HETATM    2  N   UNL     1      -4.527   3.473 -32.488  1.00  0.00    -0.083 N 
HETATM    3  C   UNL     1      -3.394   3.518 -31.730  1.00  0.00     0.726 A 
HETATM    4  N   UNL     1      -2.930   4.741 -31.708  1.00  0.00    -0.046 NA
HETATM    5  C   UNL     1      -3.800   5.415 -32.532  1.00  0.00     0.166 A 
HETATM    6  N   UNL     1      -4.778   4.668 -33.067  1.00  0.00    -0.140 NA
HETATM    7  N   UNL     1      -2.916   2.381 -31.201  1.00  0.00    -0.192 N 
HETATM    8  C   UNL     1      -3.447   1.123 -31.467  1.00  0.00     0.037 A 
HETATM    9  C   UNL     1      -2.679  -0.035 -30.873  1.00  0.00     0.070 C 
HETATM   10  C   UNL     1      -4.561   0.995 -32.241  1.00  0.00     0.062 A 
HETATM   11  H   UNL     1      -2.054   2.423 -30.663  1.00  0.00     0.184 HD
ENDROOT
BRANCH  10  12
HETATM   12  C   UNL     1      -5.175  -0.360 -32.484  1.00  0.00     0.256 C 
HETATM   13  N   UNL     1      -4.751  -1.004 -33.631  1.00  0.00    -0.323 N 
HETATM   14  H   UNL     1      -4.147  -0.508 -34.264  1.00  0.00     0.169 HD
HETATM   15  O   UNL     1      -6.026  -0.784 -31.711  1.00  0.00    -0.267 OA
BRANCH  13  16
HETATM   16  C   UNL     1      -5.131  -2.293 -34.085  1.00  0.00     0.041 A 
HETATM   17  C   UNL     1      -6.389  -2.451 -34.712  1.00  0.00    -0.035 A 
HETATM   18  C   UNL     1      -7.366  -1.316 -34.867  1.00  0.00     0.050 C 
HETATM   19  C   UNL     1      -6.773  -3.720 -35.183  1.00  0.00     0.009 A 
HETATM   20  C   UNL     1      -5.928  -4.819 -35.048  1.00  0.00     0.001 A 
HETATM   21  C   UNL     1      -4.691  -4.664 -34.436  1.00  0.00     0.002 A 
HETATM   22  C   UNL     1      -4.297  -3.411 -33.959  1.00  0.00     0.030 A 
ENDBRANCH  13  16
ENDBRANCH  10  12
BRANCH   1  23
HETATM   23  C   UNL     1      -6.721   2.379 -32.441  1.00  0.00    -0.028 A 
HETATM   24  C   UNL     1      -7.751   2.203 -33.381  1.00  0.00     0.016 A 
HETATM   25  C   UNL     1      -9.096   2.370 -33.019  1.00  0.00    -0.061 A 
HETATM   26  C   UNL     1     -10.192   2.215 -34.031  1.00  0.00     0.048 C 
HETATM   27  C   UNL     1      -9.412   2.690 -31.694  1.00  0.00     0.007 A 
HETATM   28  C   UNL     1      -8.406   2.836 -30.743  1.00  0.00     0.001 A 
HETATM   29  C   UNL     1      -7.070   2.681 -31.113  1.00  0.00     0.010 A 
ENDBRANCH   1  23
BRANCH   5  30
HETATM   30  C   UNL     1      -3.637   6.857 -32.845  1.00  0.00     0.085 C 
BRANCH  30  31
HETATM   31  C   UNL     1      -2.205   7.236 -33.215  1.00  0.00     0.034 C 
BRANCH  31  32
HETATM   32  C   UNL     1      -1.497   8.042 -32.133  1.00  0.00     0.164 C 
BRANCH  32  33
HETATM   33  O   UNL     1      -2.124   9.313 -31.989  1.00  0.00    -0.401 OA
HETATM   34  H   UNL     1      -1.985   9.803 -32.819  1.00  0.00     0.209 HD
ENDBRANCH  32  33
ENDBRANCH  31  32
ENDBRANCH  30  31
ENDBRANCH   5  30
TORSDOF 7
ENDMDL
MODEL 5
REMARK VINA RESULT:      -8.5      2.949      6.913
REMARK  7 active torsions:
REMARK  status: ('A' for Active; 'I' for Inactive)
REMARK    1  A    between atoms: C_4  and  C_5 
REMARK    2  A    between atoms: C_9  and  C_10 
REMARK    3  A    between atoms: C_10  and  C_11 
REMARK    4  A    between atoms: C_11  and  C_12 
REMARK    5  A    between atoms: C_12  and  O_13 
REMARK    6  A    between atoms: C_18  and  C_19 
REMARK       I    between atoms: C_19  and  N_20 
REMARK    7  A    between atoms: N_20  and  C_21 
ROOT
HETATM    1  C   UNL     1      -7.931   2.535 -33.683  1.00  0.00     0.202 A 
HETATM    2  N   UNL     1      -9.357   2.271 -33.454  1.00  0.00    -0.083 N 
HETATM    3  C   UNL     1     -10.242   3.207 -33.005  1.00  0.00     0.726 A 
HETATM    4  N   UNL     1     -11.450   2.705 -33.006  1.00  0.00    -0.046 NA
HETATM    5  C   UNL     1     -11.259   1.447 -33.527  1.00  0.00     0.166 A 
HETATM    6  N   UNL     1      -9.993   1.148 -33.856  1.00  0.00    -0.140 NA
HETATM    7  N   UNL     1      -9.796   4.438 -32.705  1.00  0.00    -0.192 N 
HETATM    8  C   UNL     1      -8.489   4.860 -32.926  1.00  0.00     0.037 A 
HETATM    9  C   UNL     1      -8.231   6.321 -32.637  1.00  0.00     0.070 C 
HETATM   10  C   UNL     1      -7.555   3.990 -33.401  1.00  0.00     0.062 A 
HETATM   11  H   UNL     1     -10.471   5.135 -32.400  1.00  0.00     0.184 HD
ENDROOT
BRANCH  10  12
HETATM   12  C   UNL     1      -6.124   4.426 -33.587  1.00  0.00     0.256 C 
HETATM   13  N   UNL     1      -5.433   4.700 -32.423  1.00  0.00    -0.323 N 
HETATM   14  H   UNL     1      -5.935   4.683 -31.552  1.00  0.00     0.169 HD
HETATM   15  O   UNL     1      -5.679   4.561 -34.721  1.00  0.00    -0.267 OA
BRANCH  13  16
HETATM   16  C   UNL     1      -4.075   5.091 -32.300  1.00  0.00     0.041 A 
HETATM   17  C   UNL     1      -3.106   4.104 -32.001  1.00  0.00    -0.035 A 
HETATM   18  C   UNL     1      -3.466   2.663 -31.754  1.00  0.00     0.050 C 
HETATM   19  C   UNL     1      -1.752   4.473 -31.892  1.00  0.00     0.009 A 
HETATM   20  C   UNL     1      -1.354   5.794 -32.082  1.00  0.00     0.001 A 
HETATM   21  C   UNL     1      -2.304   6.762 -32.379  1.00  0.00     0.002 A 
HETATM   22  C   UNL     1      -3.653   6.413 -32.487  1.00  0.00     0.030 A 
ENDBRANCH  13  16
ENDBRANCH  10  12
BRANCH   1  23
HETATM   23  C   UNL     1      -7.086   1.501 -32.941  1.00  0.00    -0.028 A 
HETATM   24  C   UNL     1      -6.192   0.647 -33.608  1.00  0.00     0.016 A 
HETATM   25  C   UNL     1      -5.450  -0.313 -32.905  1.00  0.00    -0.061 A 
HETATM   26  C   UNL     1      -4.522  -1.248 -33.623  1.00  0.00     0.048 C 
HETATM   27  C   UNL     1      -5.586  -0.399 -31.515  1.00  0.00     0.007 A 
HETATM   28  C   UNL     1      -6.443   0.461 -30.835  1.00  0.00     0.001 A 
HETATM   29  C   UNL     1      -7.187   1.406 -31.542  1.00  0.00     0.010 A 
ENDBRANCH   1  23
BRANCH   5  30
HETATM   30  C   UNL     1     -12.384   0.507 -33.758  1.00  0.00     0.085 C 
BRANCH  30  31
HETATM   31  C   UNL     1     -13.522   1.115 -34.575  1.00  0.00     0.034 C 
BRANCH  31  32
HETATM   32  C   UNL     1     -14.901   0.828 -33.992  1.00  0.00     0.164 C 
BRANCH  32  33
HETATM   33  O   UNL     1     -15.777   0.384 -35.024  1.00  0.00    -0.401 OA
HETATM   34  H   UNL     1     -15.993  -0.548 -34.843  1.00  0.00     0.209 HD
ENDBRANCH  32  33
ENDBRANCH  31  32
ENDBRANCH  30  31
ENDBRANCH   5  30
TORSDOF 7
ENDMDL
MODEL 6
REMARK VINA RESULT:      -8.0      2.724      6.976
REMARK  7 active torsions:
REMARK  status: ('A' for Active; 'I' for Inactive)
REMARK    1  A    between atoms: C_4  and  C_5 
REMARK    2  A    between atoms: C_9  and  C_10 
REMARK    3  A    between atoms: C_10  and  C_11 
REMARK    4  A    between atoms: C_11  and  C_12 
REMARK    5  A    between atoms: C_12  and  O_13 
REMARK    6  A    between atoms: C_18  and  C_19 
REMARK       I    between atoms: C_19  and  N_20 
REMARK    7  A    between atoms: N_20  and  C_21 
ROOT
HETATM    1  C   UNL     1      -7.356   2.728 -33.136  1.00  0.00     0.202 A 
HETATM    2  N   UNL     1      -8.809   2.524 -33.145  1.00  0.00    -0.083 N 
HETATM    3  C   UNL     1      -9.701   3.374 -32.561  1.00  0.00     0.726 A 
HETATM    4  N   UNL     1     -10.921   2.983 -32.830  1.00  0.00    -0.046 NA
HETATM    5  C   UNL     1     -10.721   1.896 -33.648  1.00  0.00     0.166 A 
HETATM    6  N   UNL     1      -9.439   1.598 -33.903  1.00  0.00    -0.140 NA
HETATM    7  N   UNL     1      -9.243   4.445 -31.892  1.00  0.00    -0.192 N 
HETATM    8  C   UNL     1      -7.901   4.808 -31.846  1.00  0.00     0.037 A 
HETATM    9  C   UNL     1      -7.617   6.118 -31.147  1.00  0.00     0.070 C 
HETATM   10  C   UNL     1      -6.954   4.024 -32.432  1.00  0.00     0.062 A 
HETATM   11  H   UNL     1      -9.919   5.087 -31.487  1.00  0.00     0.184 HD
ENDROOT
BRANCH  10  12
HETATM   12  C   UNL     1      -5.493   4.383 -32.335  1.00  0.00     0.256 C 
HETATM   13  N   UNL     1      -5.011   5.181 -33.355  1.00  0.00    -0.323 N 
HETATM   14  H   UNL     1      -5.619   5.391 -34.128  1.00  0.00     0.169 HD
HETATM   15  O   UNL     1      -4.819   3.924 -31.420  1.00  0.00    -0.267 OA
BRANCH  13  16
HETATM   16  C   UNL     1      -3.697   5.696 -33.497  1.00  0.00     0.041 A 
HETATM   17  C   UNL     1      -3.294   6.772 -32.671  1.00  0.00    -0.035 A 
HETATM   18  C   UNL     1      -4.223   7.428 -31.685  1.00  0.00     0.050 C 
HETATM   19  C   UNL     1      -1.988   7.283 -32.789  1.00  0.00     0.009 A 
HETATM   20  C   UNL     1      -1.087   6.740 -33.701  1.00  0.00     0.001 A 
HETATM   21  C   UNL     1      -1.480   5.682 -34.509  1.00  0.00     0.002 A 
HETATM   22  C   UNL     1      -2.774   5.165 -34.408  1.00  0.00     0.030 A 
ENDBRANCH  13  16
ENDBRANCH  10  12
BRANCH   1  23
HETATM   23  C   UNL     1      -6.658   1.474 -32.613  1.00  0.00    -0.028 A 
HETATM   24  C   UNL     1      -5.737   0.750 -33.389  1.00  0.00     0.016 A 
HETATM   25  C   UNL     1      -5.134  -0.415 -32.893  1.00  0.00    -0.061 A 
HETATM   26  C   UNL     1      -4.178  -1.206 -33.736  1.00  0.00     0.048 C 
HETATM   27  C   UNL     1      -5.436  -0.842 -31.596  1.00  0.00     0.007 A 
HETATM   28  C   UNL     1      -6.321  -0.119 -30.802  1.00  0.00     0.001 A 
HETATM   29  C   UNL     1      -6.927   1.032 -31.306  1.00  0.00     0.010 A 
ENDBRANCH   1  23
BRANCH   5  30
HETATM   30  C   UNL     1     -11.849   1.138 -34.246  1.00  0.00     0.085 C 
BRANCH  30  31
HETATM   31  C   UNL     1     -13.187   1.402 -33.557  1.00  0.00     0.034 C 
BRANCH  31  32
HETATM   32  C   UNL     1     -14.148   0.222 -33.637  1.00  0.00     0.164 C 
BRANCH  32  33
HETATM   33  O   UNL     1     -13.428  -0.997 -33.474  1.00  0.00    -0.401 OA
HETATM   34  H   UNL     1     -13.781  -1.441 -32.683  1.00  0.00     0.209 HD
ENDBRANCH  32  33
ENDBRANCH  31  32
ENDBRANCH  30  31
ENDBRANCH   5  30
TORSDOF 7
ENDMDL
MODEL 7
REMARK VINA RESULT:      -7.8      2.579      4.089
REMARK  7 active torsions:
REMARK  status: ('A' for Active; 'I' for Inactive)
REMARK    1  A    between atoms: C_4  and  C_5 
REMARK    2  A    between atoms: C_9  and  C_10 
REMARK    3  A    between atoms: C_10  and  C_11 
REMARK    4  A    between atoms: C_11  and  C_12 
REMARK    5  A    between atoms: C_12  and  O_13 
REMARK    6  A    between atoms: C_18  and  C_19 
REMARK       I    between atoms: C_19  and  N_20 
REMARK    7  A    between atoms: N_20  and  C_21 
ROOT
HETATM    1  C   UNL     1      -7.915   2.972 -32.317  1.00  0.00     0.202 A 
HETATM    2  N   UNL     1      -8.276   3.812 -31.169  1.00  0.00    -0.083 N 
HETATM    3  C   UNL     1      -7.825   3.600 -29.899  1.00  0.00     0.726 A 
HETATM    4  N   UNL     1      -8.230   4.572 -29.122  1.00  0.00    -0.046 NA
HETATM    5  C   UNL     1      -8.894   5.404 -29.992  1.00  0.00     0.166 A 
HETATM    6  N   UNL     1      -8.915   4.998 -31.270  1.00  0.00    -0.140 NA
HETATM    7  N   UNL     1      -7.040   2.539 -29.651  1.00  0.00    -0.192 N 
HETATM    8  C   UNL     1      -6.560   1.687 -30.641  1.00  0.00     0.037 A 
HETATM    9  C   UNL     1      -5.588   0.634 -30.163  1.00  0.00     0.070 C 
HETATM   10  C   UNL     1      -6.942   1.854 -31.939  1.00  0.00     0.062 A 
HETATM   11  H   UNL     1      -6.686   2.410 -28.707  1.00  0.00     0.184 HD
ENDROOT
BRANCH  10  12
HETATM   12  C   UNL     1      -6.472   0.899 -33.005  1.00  0.00     0.256 C 
HETATM   13  N   UNL     1      -6.504  -0.438 -32.659  1.00  0.00    -0.323 N 
HETATM   14  H   UNL     1      -6.743  -0.683 -31.713  1.00  0.00     0.169 HD
HETATM   15  O   UNL     1      -6.052   1.343 -34.068  1.00  0.00    -0.267 OA
BRANCH  13  16
HETATM   16  C   UNL     1      -6.157  -1.547 -33.472  1.00  0.00     0.041 A 
HETATM   17  C   UNL     1      -4.798  -1.933 -33.554  1.00  0.00    -0.035 A 
HETATM   18  C   UNL     1      -3.698  -1.179 -32.857  1.00  0.00     0.050 C 
HETATM   19  C   UNL     1      -4.440  -3.042 -34.344  1.00  0.00     0.009 A 
HETATM   20  C   UNL     1      -5.406  -3.767 -35.038  1.00  0.00     0.001 A 
HETATM   21  C   UNL     1      -6.740  -3.392 -34.954  1.00  0.00     0.002 A 
HETATM   22  C   UNL     1      -7.111  -2.291 -34.178  1.00  0.00     0.030 A 
ENDBRANCH  13  16
ENDBRANCH  10  12
BRANCH   1  23
HETATM   23  C   UNL     1      -9.179   2.503 -33.035  1.00  0.00    -0.028 A 
HETATM   24  C   UNL     1      -9.800   3.270 -34.036  1.00  0.00     0.016 A 
HETATM   25  C   UNL     1     -10.976   2.828 -34.657  1.00  0.00    -0.061 A 
HETATM   26  C   UNL     1     -11.657   3.664 -35.700  1.00  0.00     0.048 C 
HETATM   27  C   UNL     1     -11.520   1.592 -34.292  1.00  0.00     0.007 A 
HETATM   28  C   UNL     1     -10.900   0.805 -33.326  1.00  0.00     0.001 A 
HETATM   29  C   UNL     1      -9.737   1.256 -32.703  1.00  0.00     0.010 A 
ENDBRANCH   1  23
BRANCH   5  30
HETATM   30  C   UNL     1      -9.500   6.686 -29.553  1.00  0.00     0.085 C 
BRANCH  30  31
HETATM   31  C   UNL     1      -8.971   7.175 -28.206  1.00  0.00     0.034 C 
BRANCH  31  32
HETATM   32  C   UNL     1      -9.944   8.093 -27.476  1.00  0.00     0.164 C 
BRANCH  32  33
HETATM   33  O   UNL     1     -10.174   7.601 -26.159  1.00  0.00    -0.401 OA
HETATM   34  H   UNL     1     -10.499   8.345 -25.622  1.00  0.00     0.209 HD
ENDBRANCH  32  33
ENDBRANCH  31  32
ENDBRANCH  30  31
ENDBRANCH   5  30
TORSDOF 7
ENDMDL
MODEL 8
REMARK VINA RESULT:      -7.7      2.308      8.162
REMARK  7 active torsions:
REMARK  status: ('A' for Active; 'I' for Inactive)
REMARK    1  A    between atoms: C_4  and  C_5 
REMARK    2  A    between atoms: C_9  and  C_10 
REMARK    3  A    between atoms: C_10  and  C_11 
REMARK    4  A    between atoms: C_11  and  C_12 
REMARK    5  A    between atoms: C_12  and  O_13 
REMARK    6  A    between atoms: C_18  and  C_19 
REMARK       I    between atoms: C_19  and  N_20 
REMARK    7  A    between atoms: N_20  and  C_21 
ROOT
HETATM    1  C   UNL     1      -6.756   0.091 -32.248  1.00  0.00     0.202 A 
HETATM    2  N   UNL     1      -6.040  -0.801 -33.168  1.00  0.00    -0.083 N 
HETATM    3  C   UNL     1      -4.705  -0.708 -33.433  1.00  0.00     0.726 A 
HETATM    4  N   UNL     1      -4.341  -1.703 -34.201  1.00  0.00    -0.046 NA
HETATM    5  C   UNL     1      -5.502  -2.426 -34.339  1.00  0.00     0.166 A 
HETATM    6  N   UNL     1      -6.566  -1.932 -33.688  1.00  0.00    -0.140 NA
HETATM    7  N   UNL     1      -3.992   0.278 -32.865  1.00  0.00    -0.192 N 
HETATM    8  C   UNL     1      -4.512   1.163 -31.926  1.00  0.00     0.037 A 
HETATM    9  C   UNL     1      -3.506   2.113 -31.317  1.00  0.00     0.070 C 
HETATM   10  C   UNL     1      -5.830   1.113 -31.587  1.00  0.00     0.062 A 
HETATM   11  H   UNL     1      -2.992   0.318 -33.047  1.00  0.00     0.184 HD
ENDROOT
BRANCH  10  12
HETATM   12  C   UNL     1      -6.411   2.105 -30.613  1.00  0.00     0.256 C 
HETATM   13  N   UNL     1      -6.666   3.361 -31.130  1.00  0.00    -0.323 N 
HETATM   14  H   UNL     1      -6.373   3.561 -32.071  1.00  0.00     0.169 HD
HETATM   15  O   UNL     1      -6.572   1.778 -29.443  1.00  0.00    -0.267 OA
BRANCH  13  16
HETATM   16  C   UNL     1      -7.241   4.469 -30.456  1.00  0.00     0.041 A 
HETATM   17  C   UNL     1      -8.650   4.557 -30.367  1.00  0.00    -0.035 A 
HETATM   18  C   UNL     1      -9.567   3.549 -31.007  1.00  0.00     0.050 C 
HETATM   19  C   UNL     1      -9.235   5.642 -29.687  1.00  0.00     0.009 A 
HETATM   20  C   UNL     1      -8.445   6.624 -29.095  1.00  0.00     0.001 A 
HETATM   21  C   UNL     1      -7.061   6.536 -29.178  1.00  0.00     0.002 A 
HETATM   22  C   UNL     1      -6.465   5.468 -29.853  1.00  0.00     0.030 A 
ENDBRANCH  13  16
ENDBRANCH  10  12
BRANCH   1  23
HETATM   23  C   UNL     1      -7.973   0.692 -32.950  1.00  0.00    -0.028 A 
HETATM   24  C   UNL     1      -9.271   0.185 -32.764  1.00  0.00     0.016 A 
HETATM   25  C   UNL     1     -10.365   0.738 -33.444  1.00  0.00    -0.061 A 
HETATM   26  C   UNL     1     -11.744   0.173 -33.272  1.00  0.00     0.048 C 
HETATM   27  C   UNL     1     -10.161   1.828 -34.297  1.00  0.00     0.007 A 
HETATM   28  C   UNL     1      -8.887   2.362 -34.467  1.00  0.00     0.001 A 
HETATM   29  C   UNL     1      -7.801   1.800 -33.797  1.00  0.00     0.010 A 
ENDBRANCH   1  23
BRANCH   5  30
HETATM   30  C   UNL     1      -5.558  -3.692 -35.112  1.00  0.00     0.085 C 
BRANCH  30  31
HETATM   31  C   UNL     1      -5.058  -4.903 -34.326  1.00  0.00     0.034 C 
BRANCH  31  32
HETATM   32  C   UNL     1      -3.558  -4.867 -34.057  1.00  0.00     0.164 C 
BRANCH  32  33
HETATM   33  O   UNL     1      -3.314  -4.334 -32.759  1.00  0.00    -0.401 OA
HETATM   34  H   UNL     1      -3.024  -3.412 -32.871  1.00  0.00     0.209 HD
ENDBRANCH  32  33
ENDBRANCH  31  32
ENDBRANCH  30  31
ENDBRANCH   5  30
TORSDOF 7
ENDMDL
MODEL 9
REMARK VINA RESULT:      -7.6      2.933      5.921
REMARK  7 active torsions:
REMARK  status: ('A' for Active; 'I' for Inactive)
REMARK    1  A    between atoms: C_4  and  C_5 
REMARK    2  A    between atoms: C_9  and  C_10 
REMARK    3  A    between atoms: C_10  and  C_11 
REMARK    4  A    between atoms: C_11  and  C_12 
REMARK    5  A    between atoms: C_12  and  O_13 
REMARK    6  A    between atoms: C_18  and  C_19 
REMARK       I    between atoms: C_19  and  N_20 
REMARK    7  A    between atoms: N_20  and  C_21 
ROOT
HETATM    1  C   UNL     1      -6.433   3.742 -32.673  1.00  0.00     0.202 A 
HETATM    2  N   UNL     1      -4.968   3.708 -32.586  1.00  0.00    -0.083 N 
HETATM    3  C   UNL     1      -4.255   2.623 -32.169  1.00  0.00     0.726 A 
HETATM    4  N   UNL     1      -2.975   2.862 -32.303  1.00  0.00    -0.046 NA
HETATM    5  C   UNL     1      -2.954   4.114 -32.870  1.00  0.00     0.166 A 
HETATM    6  N   UNL     1      -4.158   4.660 -33.100  1.00  0.00    -0.140 NA
HETATM    7  N   UNL     1      -4.912   1.523 -31.768  1.00  0.00    -0.192 N 
HETATM    8  C   UNL     1      -6.293   1.377 -31.850  1.00  0.00     0.037 A 
HETATM    9  C   UNL     1      -6.816   0.012 -31.465  1.00  0.00     0.070 C 
HETATM   10  C   UNL     1      -7.071   2.407 -32.285  1.00  0.00     0.062 A 
HETATM   11  H   UNL     1      -4.368   0.710 -31.489  1.00  0.00     0.184 HD
ENDROOT
BRANCH  10  12
HETATM   12  C   UNL     1      -8.571   2.274 -32.321  1.00  0.00     0.256 C 
HETATM   13  N   UNL     1      -9.117   2.072 -33.574  1.00  0.00    -0.323 N 
HETATM   14  H   UNL     1      -8.510   2.117 -34.374  1.00  0.00     0.169 HD
HETATM   15  O   UNL     1      -9.213   2.400 -31.283  1.00  0.00    -0.267 OA
BRANCH  13  16
HETATM   16  C   UNL     1     -10.485   1.877 -33.896  1.00  0.00     0.041 A 
HETATM   17  C   UNL     1     -11.148   2.856 -34.674  1.00  0.00    -0.035 A 
HETATM   18  C   UNL     1     -10.474   4.123 -35.127  1.00  0.00     0.050 C 
HETATM   19  C   UNL     1     -12.500   2.669 -35.016  1.00  0.00     0.009 A 
HETATM   20  C   UNL     1     -13.191   1.531 -34.605  1.00  0.00     0.001 A 
HETATM   21  C   UNL     1     -12.540   0.569 -33.846  1.00  0.00     0.002 A 
HETATM   22  C   UNL     1     -11.199   0.741 -33.494  1.00  0.00     0.030 A 
ENDBRANCH  13  16
ENDBRANCH  10  12
BRANCH   1  23
HETATM   23  C   UNL     1      -6.971   4.952 -31.914  1.00  0.00    -0.028 A 
HETATM   24  C   UNL     1      -6.893   5.054 -30.514  1.00  0.00     0.016 A 
HETATM   25  C   UNL     1      -7.423   6.164 -29.840  1.00  0.00    -0.061 A 
HETATM   26  C   UNL     1      -7.370   6.254 -28.344  1.00  0.00     0.048 C 
HETATM   27  C   UNL     1      -8.012   7.195 -30.579  1.00  0.00     0.007 A 
HETATM   28  C   UNL     1      -8.069   7.125 -31.968  1.00  0.00     0.001 A 
HETATM   29  C   UNL     1      -7.551   6.013 -32.632  1.00  0.00     0.010 A 
ENDBRANCH   1  23
BRANCH   5  30
HETATM   30  C   UNL     1      -1.687   4.790 -33.247  1.00  0.00     0.085 C 
BRANCH  30  31
HETATM   31  C   UNL     1      -1.480   6.126 -32.535  1.00  0.00     0.034 C 
BRANCH  31  32
HETATM   32  C   UNL     1      -1.543   7.324 -33.475  1.00  0.00     0.164 C 
BRANCH  32  33
HETATM   33  O   UNL     1      -2.364   7.014 -34.597  1.00  0.00    -0.401 OA
HETATM   34  H   UNL     1      -1.852   6.428 -35.181  1.00  0.00     0.209 HD
ENDBRANCH  32  33
ENDBRANCH  31  32
ENDBRANCH  30  31
ENDBRANCH   5  30
TORSDOF 7
ENDMDL
MODEL 10
REMARK VINA RESULT:      -7.6      3.181      7.744
REMARK  7 active torsions:
REMARK  status: ('A' for Active; 'I' for Inactive)
REMARK    1  A    between atoms: C_4  and  C_5 
REMARK    2  A    between atoms: C_9  and  C_10 
REMARK    3  A    between atoms: C_10  and  C_11 
REMARK    4  A    between atoms: C_11  and  C_12 
REMARK    5  A    between atoms: C_12  and  O_13 
REMARK    6  A    between atoms: C_18  and  C_19 
REMARK       I    between atoms: C_19  and  N_20 
REMARK    7  A    between atoms: N_20  and  C_21 
ROOT
HETATM    1  C   UNL     1      -5.275   5.943 -30.672  1.00  0.00     0.202 A 
HETATM    2  N   UNL     1      -6.411   5.015 -30.712  1.00  0.00    -0.083 N 
HETATM    3  C   UNL     1      -6.998   4.481 -29.602  1.00  0.00     0.726 A 
HETATM    4  N   UNL     1      -8.047   3.783 -29.954  1.00  0.00    -0.046 NA
HETATM    5  C   UNL     1      -8.096   3.967 -31.316  1.00  0.00     0.166 A 
HETATM    6  N   UNL     1      -7.133   4.750 -31.823  1.00  0.00    -0.140 NA
HETATM    7  N   UNL     1      -6.495   4.772 -28.392  1.00  0.00    -0.192 N 
HETATM    8  C   UNL     1      -5.463   5.682 -28.184  1.00  0.00     0.037 A 
HETATM    9  C   UNL     1      -5.137   5.959 -26.734  1.00  0.00     0.070 C 
HETATM   10  C   UNL     1      -4.847   6.279 -29.242  1.00  0.00     0.062 A 
HETATM   11  H   UNL     1      -6.960   4.393 -27.571  1.00  0.00     0.184 HD
ENDROOT
BRANCH  10  12
HETATM   12  C   UNL     1      -3.690   7.221 -29.026  1.00  0.00     0.256 C 
HETATM   13  N   UNL     1      -2.561   6.652 -28.470  1.00  0.00    -0.323 N 
HETATM   14  H   UNL     1      -2.605   5.694 -28.166  1.00  0.00     0.169 HD
HETATM   15  O   UNL     1      -3.823   8.410 -29.294  1.00  0.00    -0.267 OA
BRANCH  13  16
HETATM   16  C   UNL     1      -1.323   7.289 -28.193  1.00  0.00     0.041 A 
HETATM   17  C   UNL     1      -0.261   7.145 -29.117  1.00  0.00    -0.035 A 
HETATM   18  C   UNL     1      -0.373   6.297 -30.355  1.00  0.00     0.050 C 
HETATM   19  C   UNL     1       0.967   7.784 -28.864  1.00  0.00     0.009 A 
HETATM   20  C   UNL     1       1.147   8.562 -27.722  1.00  0.00     0.001 A 
HETATM   21  C   UNL     1       0.103   8.707 -26.818  1.00  0.00     0.002 A 
HETATM   22  C   UNL     1      -1.121   8.075 -27.052  1.00  0.00     0.030 A 
ENDBRANCH  13  16
ENDBRANCH  10  12
BRANCH   1  23
HETATM   23  C   UNL     1      -4.152   5.429 -31.570  1.00  0.00    -0.028 A 
HETATM   24  C   UNL     1      -3.479   6.264 -32.479  1.00  0.00     0.016 A 
HETATM   25  C   UNL     1      -2.472   5.758 -33.313  1.00  0.00    -0.061 A 
HETATM   26  C   UNL     1      -1.778   6.642 -34.307  1.00  0.00     0.048 C 
HETATM   27  C   UNL     1      -2.116   4.408 -33.216  1.00  0.00     0.007 A 
HETATM   28  C   UNL     1      -2.751   3.575 -32.299  1.00  0.00     0.001 A 
HETATM   29  C   UNL     1      -3.760   4.082 -31.480  1.00  0.00     0.010 A 
ENDBRANCH   1  23
BRANCH   5  30
HETATM   30  C   UNL     1      -9.170   3.379 -32.155  1.00  0.00     0.085 C 
BRANCH  30  31
HETATM   31  C   UNL     1      -8.725   2.138 -32.926  1.00  0.00     0.034 C 
BRANCH  31  32
HETATM   32  C   UNL     1      -9.231   0.837 -32.314  1.00  0.00     0.164 C 
BRANCH  32  33
HETATM   33  O   UNL     1      -9.449   1.014 -30.918  1.00  0.00    -0.401 OA
HETATM   34  H   UNL     1      -8.632   1.382 -30.539  1.00  0.00     0.209 HD
ENDBRANCH  32  33
ENDBRANCH  31  32
ENDBRANCH  30  31
ENDBRANCH   5  30
TORSDOF 7
ENDMDL
