MODEL 1
REMARK VINA RESULT:      -8.2      0.000      0.000
REMARK  2 active torsions:
REMARK  status: ('A' for Active; 'I' for Inactive)
REMARK       I    between atoms: C_2  and  N_3 
REMARK    1  A    between atoms: N_3  and  C_4 
REMARK    2  A    between atoms: C_13  and  N_14 
REMARK       I    between atoms: N_14  and  C_15 
ROOT
HETATM    1  C   UNL     1      -3.861   3.123 -31.772  1.00  0.00     0.035 A 
HETATM    2  C   UNL     1      -3.371   1.819 -31.722  1.00  0.00     0.038 A 
HETATM    3  C   UNL     1      -4.052   0.825 -32.418  1.00  0.00    -0.041 A 
HETATM    4  C   UNL     1      -5.228   1.079 -33.156  1.00  0.00    -0.016 A 
HETATM    5  C   UNL     1      -5.697  -0.177 -33.746  1.00  0.00     0.008 A 
HETATM    6  C   UNL     1      -4.743  -1.179 -33.422  1.00  0.00    -0.041 A 
HETATM    7  C   UNL     1      -4.851  -2.483 -33.873  1.00  0.00     0.008 A 
HETATM    8  C   UNL     1      -5.950  -2.807 -34.658  1.00  0.00     0.003 A 
HETATM    9  C   UNL     1      -6.927  -1.840 -34.962  1.00  0.00     0.030 A 
HETATM   10  C   UNL     1      -6.821  -0.514 -34.511  1.00  0.00     0.046 A 
HETATM   11  C   UNL     1      -3.652  -0.625 -32.532  1.00  0.00     0.079 A 
HETATM   12  C   UNL     1      -5.686   2.384 -33.243  1.00  0.00     0.015 A 
HETATM   13  C   UNL     1      -5.007   3.396 -32.544  1.00  0.00     0.030 A 
ENDROOT
BRANCH   1  14
HETATM   14  N   UNL     1      -3.268   4.211 -31.099  1.00  0.00    -0.328 N 
HETATM   15  C   UNL     1      -2.076   4.843 -31.407  1.00  0.00     0.218 C 
HETATM   16  C   UNL     1      -1.745   5.958 -30.446  1.00  0.00     0.117 C 
HETATM   17  O   UNL     1      -1.307   4.561 -32.321  1.00  0.00    -0.274 OA
HETATM   18  H   UNL     1      -3.766   4.551 -30.285  1.00  0.00     0.169 HD
ENDBRANCH   1  14
BRANCH  10  19
HETATM   19  N   UNL     1      -7.841   0.435 -34.701  1.00  0.00    -0.327 N 
HETATM   20  C   UNL     1      -8.929   0.806 -33.971  1.00  0.00     0.218 C 
HETATM   21  C   UNL     1      -9.404  -0.007 -32.802  1.00  0.00     0.117 C 
HETATM   22  O   UNL     1      -9.553   1.810 -34.325  1.00  0.00    -0.274 OA
HETATM   23  H   UNL     1      -7.737   1.027 -35.514  1.00  0.00     0.169 HD
ENDBRANCH  10  19
TORSDOF 2
ENDMDL
MODEL 2
REMARK VINA RESULT:      -7.9      2.898      6.648
REMARK  2 active torsions:
REMARK  status: ('A' for Active; 'I' for Inactive)
REMARK       I    between atoms: C_2  and  N_3 
REMARK    1  A    between atoms: N_3  and  C_4 
REMARK    2  A    between atoms: C_13  and  N_14 
REMARK       I    between atoms: N_14  and  C_15 
ROOT
HETATM    1  C   UNL     1      -4.423  -1.381 -32.888  1.00  0.00     0.035 A 
HETATM    2  C   UNL     1      -5.634  -1.051 -32.282  1.00  0.00     0.038 A 
HETATM    3  C   UNL     1      -5.782   0.219 -31.736  1.00  0.00    -0.041 A 
HETATM    4  C   UNL     1      -4.750   1.182 -31.752  1.00  0.00    -0.016 A 
HETATM    5  C   UNL     1      -5.224   2.396 -31.084  1.00  0.00     0.008 A 
HETATM    6  C   UNL     1      -6.585   2.183 -30.734  1.00  0.00    -0.041 A 
HETATM    7  C   UNL     1      -7.360   3.159 -30.131  1.00  0.00     0.008 A 
HETATM    8  C   UNL     1      -6.760   4.379 -29.852  1.00  0.00     0.003 A 
HETATM    9  C   UNL     1      -5.404   4.601 -30.155  1.00  0.00     0.030 A 
HETATM   10  C   UNL     1      -4.613   3.617 -30.771  1.00  0.00     0.046 A 
HETATM   11  C   UNL     1      -7.026   0.780 -31.091  1.00  0.00     0.079 A 
HETATM   12  C   UNL     1      -3.563   0.870 -32.396  1.00  0.00     0.015 A 
HETATM   13  C   UNL     1      -3.403  -0.411 -32.952  1.00  0.00     0.030 A 
ENDROOT
BRANCH   1  14
HETATM   14  N   UNL     1      -4.148  -2.638 -33.463  1.00  0.00    -0.328 N 
HETATM   15  C   UNL     1      -3.486  -3.704 -32.880  1.00  0.00     0.218 C 
HETATM   16  C   UNL     1      -3.354  -4.885 -33.811  1.00  0.00     0.117 C 
HETATM   17  O   UNL     1      -3.004  -3.745 -31.752  1.00  0.00    -0.274 OA
HETATM   18  H   UNL     1      -4.454  -2.761 -34.420  1.00  0.00     0.169 HD
ENDBRANCH   1  14
BRANCH  10  19
HETATM   19  N   UNL     1      -3.230   3.774 -30.974  1.00  0.00    -0.327 N 
HETATM   20  C   UNL     1      -2.480   4.253 -32.005  1.00  0.00     0.218 C 
HETATM   21  C   UNL     1      -3.077   4.509 -33.358  1.00  0.00     0.117 C 
HETATM   22  O   UNL     1      -1.273   4.428 -31.814  1.00  0.00    -0.274 OA
HETATM   23  H   UNL     1      -2.646   3.552 -30.179  1.00  0.00     0.169 HD
ENDBRANCH  10  19
TORSDOF 2
ENDMDL
MODEL 3
REMARK VINA RESULT:      -7.8      2.225      6.274
REMARK  2 active torsions:
REMARK  status: ('A' for Active; 'I' for Inactive)
REMARK       I    between atoms: C_2  and  N_3 
REMARK    1  A    between atoms: N_3  and  C_4 
REMARK    2  A    between atoms: C_13  and  N_14 
REMARK       I    between atoms: N_14  and  C_15 
ROOT
HETATM    1  C   UNL     1      -9.666   0.299 -32.837  1.00  0.00     0.035 A 
HETATM    2  C   UNL     1      -8.768  -0.527 -33.511  1.00  0.00     0.038 A 
HETATM    3  C   UNL     1      -7.435  -0.526 -33.115  1.00  0.00    -0.041 A 
HETATM    4  C   UNL     1      -6.950   0.290 -32.070  1.00  0.00    -0.016 A 
HETATM    5  C   UNL     1      -5.510   0.062 -31.922  1.00  0.00     0.008 A 
HETATM    6  C   UNL     1      -5.147  -0.962 -32.837  1.00  0.00    -0.041 A 
HETATM    7  C   UNL     1      -3.859  -1.463 -32.920  1.00  0.00     0.008 A 
HETATM    8  C   UNL     1      -2.898  -0.918 -32.078  1.00  0.00     0.003 A 
HETATM    9  C   UNL     1      -3.227   0.123 -31.189  1.00  0.00     0.030 A 
HETATM   10  C   UNL     1      -4.531   0.633 -31.097  1.00  0.00     0.046 A 
HETATM   11  C   UNL     1      -6.329  -1.385 -33.680  1.00  0.00     0.079 A 
HETATM   12  C   UNL     1      -7.852   1.074 -31.369  1.00  0.00     0.015 A 
HETATM   13  C   UNL     1      -9.201   1.081 -31.762  1.00  0.00     0.030 A 
ENDROOT
BRANCH   1  14
HETATM   14  N   UNL     1     -11.036   0.395 -33.155  1.00  0.00    -0.328 N 
HETATM   15  C   UNL     1     -11.638   1.291 -34.022  1.00  0.00     0.218 C 
HETATM   16  C   UNL     1     -13.134   1.113 -34.092  1.00  0.00     0.117 C 
HETATM   17  O   UNL     1     -11.086   2.176 -34.667  1.00  0.00    -0.274 OA
HETATM   18  H   UNL     1     -11.647  -0.253 -32.673  1.00  0.00     0.169 HD
ENDBRANCH   1  14
BRANCH  10  19
HETATM   19  N   UNL     1      -4.855   1.748 -30.304  1.00  0.00    -0.327 N 
HETATM   20  C   UNL     1      -4.937   3.085 -30.550  1.00  0.00     0.218 C 
HETATM   21  C   UNL     1      -4.398   3.684 -31.817  1.00  0.00     0.117 C 
HETATM   22  O   UNL     1      -5.425   3.809 -29.678  1.00  0.00    -0.274 OA
HETATM   23  H   UNL     1      -5.158   1.539 -29.363  1.00  0.00     0.169 HD
ENDBRANCH  10  19
TORSDOF 2
ENDMDL
MODEL 4
REMARK VINA RESULT:      -7.7      2.288      3.464
REMARK  2 active torsions:
REMARK  status: ('A' for Active; 'I' for Inactive)
REMARK       I    between atoms: C_2  and  N_3 
REMARK    1  A    between atoms: N_3  and  C_4 
REMARK    2  A    between atoms: C_13  and  N_14 
REMARK       I    between atoms: N_14  and  C_15 
ROOT
HETATM    1  C   UNL     1      -3.556   3.845 -31.570  1.00  0.00     0.035 A 
HETATM    2  C   UNL     1      -4.521   4.051 -32.554  1.00  0.00     0.038 A 
HETATM    3  C   UNL     1      -5.189   2.948 -33.074  1.00  0.00    -0.041 A 
HETATM    4  C   UNL     1      -4.917   1.626 -32.660  1.00  0.00    -0.016 A 
HETATM    5  C   UNL     1      -5.776   0.708 -33.413  1.00  0.00     0.008 A 
HETATM    6  C   UNL     1      -6.628   1.499 -34.228  1.00  0.00    -0.041 A 
HETATM    7  C   UNL     1      -7.610   0.946 -35.034  1.00  0.00     0.008 A 
HETATM    8  C   UNL     1      -7.737  -0.436 -35.041  1.00  0.00     0.003 A 
HETATM    9  C   UNL     1      -6.879  -1.242 -34.269  1.00  0.00     0.030 A 
HETATM   10  C   UNL     1      -5.885  -0.689 -33.447  1.00  0.00     0.046 A 
HETATM   11  C   UNL     1      -6.297   2.969 -34.098  1.00  0.00     0.079 A 
HETATM   12  C   UNL     1      -3.991   1.426 -31.648  1.00  0.00     0.015 A 
HETATM   13  C   UNL     1      -3.310   2.534 -31.116  1.00  0.00     0.030 A 
ENDROOT
BRANCH   1  14
HETATM   14  N   UNL     1      -2.804   4.880 -30.977  1.00  0.00    -0.328 N 
HETATM   15  C   UNL     1      -1.507   5.257 -31.279  1.00  0.00     0.218 C 
HETATM   16  C   UNL     1      -1.019   6.395 -30.417  1.00  0.00     0.117 C 
HETATM   17  O   UNL     1      -0.768   4.750 -32.116  1.00  0.00    -0.274 OA
HETATM   18  H   UNL     1      -3.263   5.386 -30.230  1.00  0.00     0.169 HD
ENDBRANCH   1  14
BRANCH  10  19
HETATM   19  N   UNL     1      -4.943  -1.476 -32.761  1.00  0.00    -0.327 N 
HETATM   20  C   UNL     1      -4.079  -2.456 -33.145  1.00  0.00     0.218 C 
HETATM   21  C   UNL     1      -4.171  -3.097 -34.499  1.00  0.00     0.117 C 
HETATM   22  O   UNL     1      -3.240  -2.845 -32.329  1.00  0.00    -0.274 OA
HETATM   23  H   UNL     1      -4.811  -1.245 -31.786  1.00  0.00     0.169 HD
ENDBRANCH  10  19
TORSDOF 2
ENDMDL
MODEL 5
REMARK VINA RESULT:      -7.6     15.275     17.431
REMARK  2 active torsions:
REMARK  status: ('A' for Active; 'I' for Inactive)
REMARK       I    between atoms: C_2  and  N_3 
REMARK    1  A    between atoms: N_3  and  C_4 
REMARK    2  A    between atoms: C_13  and  N_14 
REMARK       I    between atoms: N_14  and  C_15 
ROOT
HETATM    1  C   UNL     1      -6.997 -12.456 -40.334  1.00  0.00     0.035 A 
HETATM    2  C   UNL     1      -6.302 -12.287 -39.138  1.00  0.00     0.038 A 
HETATM    3  C   UNL     1      -4.965 -12.668 -39.085  1.00  0.00    -0.041 A 
HETATM    4  C   UNL     1      -4.288 -13.236 -40.186  1.00  0.00    -0.016 A 
HETATM    5  C   UNL     1      -2.910 -13.536 -39.791  1.00  0.00     0.008 A 
HETATM    6  C   UNL     1      -2.739 -13.067 -38.461  1.00  0.00    -0.041 A 
HETATM    7  C   UNL     1      -1.527 -13.143 -37.795  1.00  0.00     0.008 A 
HETATM    8  C   UNL     1      -0.456 -13.719 -38.466  1.00  0.00     0.003 A 
HETATM    9  C   UNL     1      -0.612 -14.224 -39.771  1.00  0.00     0.030 A 
HETATM   10  C   UNL     1      -1.836 -14.146 -40.453  1.00  0.00     0.046 A 
HETATM   11  C   UNL     1      -4.033 -12.514 -37.907  1.00  0.00     0.079 A 
HETATM   12  C   UNL     1      -4.967 -13.360 -41.387  1.00  0.00     0.015 A 
HETATM   13  C   UNL     1      -6.318 -12.978 -41.453  1.00  0.00     0.030 A 
ENDROOT
BRANCH   1  14
HETATM   14  N   UNL     1      -8.355 -12.122 -40.508  1.00  0.00    -0.328 N 
HETATM   15  C   UNL     1      -9.445 -12.655 -39.842  1.00  0.00     0.218 C 
HETATM   16  C   UNL     1     -10.754 -12.069 -40.311  1.00  0.00     0.117 C 
HETATM   17  O   UNL     1      -9.428 -13.529 -38.981  1.00  0.00    -0.274 OA
HETATM   18  H   UNL     1      -8.551 -11.427 -41.218  1.00  0.00     0.169 HD
ENDBRANCH   1  14
BRANCH  10  19
HETATM   19  N   UNL     1      -2.045 -14.748 -41.707  1.00  0.00    -0.327 N 
HETATM   20  C   UNL     1      -2.467 -15.982 -42.099  1.00  0.00     0.218 C 
HETATM   21  C   UNL     1      -2.569 -17.122 -41.127  1.00  0.00     0.117 C 
HETATM   22  O   UNL     1      -2.720 -16.159 -43.294  1.00  0.00    -0.274 OA
HETATM   23  H   UNL     1      -1.926 -14.141 -42.506  1.00  0.00     0.169 HD
ENDBRANCH  10  19
TORSDOF 2
ENDMDL
MODEL 6
REMARK VINA RESULT:      -7.4     15.220     16.303
REMARK  2 active torsions:
REMARK  status: ('A' for Active; 'I' for Inactive)
REMARK       I    between atoms: C_2  and  N_3 
REMARK    1  A    between atoms: N_3  and  C_4 
REMARK    2  A    between atoms: C_13  and  N_14 
REMARK       I    between atoms: N_14  and  C_15 
ROOT
HETATM    1  C   UNL     1      -1.724 -13.467 -38.649  1.00  0.00     0.035 A 
HETATM    2  C   UNL     1      -2.441 -13.492 -39.843  1.00  0.00     0.038 A 
HETATM    3  C   UNL     1      -3.816 -13.287 -39.799  1.00  0.00    -0.041 A 
HETATM    4  C   UNL     1      -4.518 -13.073 -38.593  1.00  0.00    -0.016 A 
HETATM    5  C   UNL     1      -5.942 -12.912 -38.896  1.00  0.00     0.008 A 
HETATM    6  C   UNL     1      -6.081 -12.950 -40.309  1.00  0.00    -0.041 A 
HETATM    7  C   UNL     1      -7.299 -12.771 -40.942  1.00  0.00     0.008 A 
HETATM    8  C   UNL     1      -8.417 -12.565 -40.145  1.00  0.00     0.003 A 
HETATM    9  C   UNL     1      -8.310 -12.560 -38.741  1.00  0.00     0.030 A 
HETATM   10  C   UNL     1      -7.077 -12.736 -38.093  1.00  0.00     0.046 A 
HETATM   11  C   UNL     1      -4.753 -13.222 -40.980  1.00  0.00     0.079 A 
HETATM   12  C   UNL     1      -3.797 -13.001 -37.411  1.00  0.00     0.015 A 
HETATM   13  C   UNL     1      -2.407 -13.207 -37.445  1.00  0.00     0.030 A 
ENDROOT
BRANCH   1  14
HETATM   14  N   UNL     1      -0.332 -13.674 -38.563  1.00  0.00    -0.328 N 
HETATM   15  C   UNL     1       0.356 -14.861 -38.750  1.00  0.00     0.218 C 
HETATM   16  C   UNL     1       1.843 -14.707 -38.552  1.00  0.00     0.117 C 
HETATM   17  O   UNL     1      -0.126 -15.958 -39.015  1.00  0.00    -0.274 OA
HETATM   18  H   UNL     1       0.220 -12.863 -38.315  1.00  0.00     0.169 HD
ENDBRANCH   1  14
BRANCH  10  19
HETATM   19  N   UNL     1      -6.965 -12.853 -36.696  1.00  0.00    -0.327 N 
HETATM   20  C   UNL     1      -6.900 -13.913 -35.843  1.00  0.00     0.218 C 
HETATM   21  C   UNL     1      -7.211 -15.308 -36.300  1.00  0.00     0.117 C 
HETATM   22  O   UNL     1      -6.623 -13.692 -34.661  1.00  0.00    -0.274 OA
HETATM   23  H   UNL     1      -6.840 -11.984 -36.196  1.00  0.00     0.169 HD
ENDBRANCH  10  19
TORSDOF 2
ENDMDL
MODEL 7
REMARK VINA RESULT:      -7.3      3.339      5.611
REMARK  2 active torsions:
REMARK  status: ('A' for Active; 'I' for Inactive)
REMARK       I    between atoms: C_2  and  N_3 
REMARK    1  A    between atoms: N_3  and  C_4 
REMARK    2  A    between atoms: C_13  and  N_14 
REMARK       I    between atoms: N_14  and  C_15 
ROOT
HETATM    1  C   UNL     1      -6.732   0.559 -32.917  1.00  0.00     0.035 A 
HETATM    2  C   UNL     1      -7.881  -0.125 -32.527  1.00  0.00     0.038 A 
HETATM    3  C   UNL     1      -9.110   0.301 -33.020  1.00  0.00    -0.041 A 
HETATM    4  C   UNL     1      -9.243   1.409 -33.885  1.00  0.00    -0.016 A 
HETATM    5  C   UNL     1     -10.661   1.598 -34.199  1.00  0.00     0.008 A 
HETATM    6  C   UNL     1     -11.376   0.539 -33.577  1.00  0.00    -0.041 A 
HETATM    7  C   UNL     1     -12.745   0.382 -33.718  1.00  0.00     0.008 A 
HETATM    8  C   UNL     1     -13.427   1.316 -34.486  1.00  0.00     0.003 A 
HETATM    9  C   UNL     1     -12.745   2.394 -35.081  1.00  0.00     0.030 A 
HETATM   10  C   UNL     1     -11.357   2.557 -34.947  1.00  0.00     0.046 A 
HETATM   11  C   UNL     1     -10.453  -0.338 -32.761  1.00  0.00     0.079 A 
HETATM   12  C   UNL     1      -8.095   2.059 -34.310  1.00  0.00     0.015 A 
HETATM   13  C   UNL     1      -6.848   1.637 -33.817  1.00  0.00     0.030 A 
ENDROOT
BRANCH   1  14
HETATM   14  N   UNL     1      -5.433   0.232 -32.475  1.00  0.00    -0.328 N 
HETATM   15  C   UNL     1      -4.917   0.377 -31.199  1.00  0.00     0.218 C 
HETATM   16  C   UNL     1      -3.476  -0.058 -31.104  1.00  0.00     0.117 C 
HETATM   17  O   UNL     1      -5.497   0.830 -30.217  1.00  0.00    -0.274 OA
HETATM   18  H   UNL     1      -4.806  -0.130 -33.182  1.00  0.00     0.169 HD
ENDBRANCH   1  14
BRANCH  10  19
HETATM   19  N   UNL     1     -10.675   3.687 -35.431  1.00  0.00    -0.327 N 
HETATM   20  C   UNL     1     -10.441   4.931 -34.929  1.00  0.00     0.218 C 
HETATM   21  C   UNL     1     -11.165   5.437 -33.716  1.00  0.00     0.117 C 
HETATM   22  O   UNL     1      -9.646   5.661 -35.528  1.00  0.00    -0.274 OA
HETATM   23  H   UNL     1     -10.192   3.560 -36.310  1.00  0.00     0.169 HD
ENDBRANCH  10  19
TORSDOF 2
ENDMDL
MODEL 8
REMARK VINA RESULT:      -7.3      2.299      6.706
REMARK  2 active torsions:
REMARK  status: ('A' for Active; 'I' for Inactive)
REMARK       I    between atoms: C_2  and  N_3 
REMARK    1  A    between atoms: N_3  and  C_4 
REMARK    2  A    between atoms: C_13  and  N_14 
REMARK       I    between atoms: N_14  and  C_15 
ROOT
HETATM    1  C   UNL     1      -4.405  -1.272 -33.175  1.00  0.00     0.035 A 
HETATM    2  C   UNL     1      -5.610  -0.693 -33.568  1.00  0.00     0.038 A 
HETATM    3  C   UNL     1      -5.759   0.684 -33.446  1.00  0.00    -0.041 A 
HETATM    4  C   UNL     1      -4.746   1.518 -32.923  1.00  0.00    -0.016 A 
HETATM    5  C   UNL     1      -5.229   2.901 -32.916  1.00  0.00     0.008 A 
HETATM    6  C   UNL     1      -6.516   2.904 -33.517  1.00  0.00    -0.041 A 
HETATM    7  C   UNL     1      -7.239   4.066 -33.721  1.00  0.00     0.008 A 
HETATM    8  C   UNL     1      -6.674   5.262 -33.300  1.00  0.00     0.003 A 
HETATM    9  C   UNL     1      -5.416   5.280 -32.668  1.00  0.00     0.030 A 
HETATM   10  C   UNL     1      -4.674   4.106 -32.462  1.00  0.00     0.046 A 
HETATM   11  C   UNL     1      -6.958   1.500 -33.866  1.00  0.00     0.079 A 
HETATM   12  C   UNL     1      -3.532   0.947 -32.577  1.00  0.00     0.015 A 
HETATM   13  C   UNL     1      -3.371  -0.444 -32.697  1.00  0.00     0.030 A 
ENDROOT
BRANCH   1  14
HETATM   14  N   UNL     1      -4.141  -2.656 -33.238  1.00  0.00    -0.328 N 
HETATM   15  C   UNL     1      -4.474  -3.531 -34.257  1.00  0.00     0.218 C 
HETATM   16  C   UNL     1      -4.050  -4.949 -33.964  1.00  0.00     0.117 C 
HETATM   17  O   UNL     1      -5.073  -3.262 -35.292  1.00  0.00    -0.274 OA
HETATM   18  H   UNL     1      -3.673  -3.051 -32.432  1.00  0.00     0.169 HD
ENDBRANCH   1  14
BRANCH  10  19
HETATM   19  N   UNL     1      -3.474   4.085 -31.730  1.00  0.00    -0.327 N 
HETATM   20  C   UNL     1      -2.194   4.452 -32.013  1.00  0.00     0.218 C 
HETATM   21  C   UNL     1      -1.758   4.761 -33.416  1.00  0.00     0.117 C 
HETATM   22  O   UNL     1      -1.377   4.477 -31.088  1.00  0.00    -0.274 OA
HETATM   23  H   UNL     1      -3.560   3.803 -30.763  1.00  0.00     0.169 HD
ENDBRANCH  10  19
TORSDOF 2
ENDMDL
MODEL 9
REMARK VINA RESULT:      -7.2      3.174      4.761
REMARK  2 active torsions:
REMARK  status: ('A' for Active; 'I' for Inactive)
REMARK       I    between atoms: C_2  and  N_3 
REMARK    1  A    between atoms: N_3  and  C_4 
REMARK    2  A    between atoms: C_13  and  N_14 
REMARK       I    between atoms: N_14  and  C_15 
ROOT
HETATM    1  C   UNL     1      -7.428   2.547 -30.514  1.00  0.00     0.035 A 
HETATM    2  C   UNL     1      -8.177   1.932 -31.514  1.00  0.00     0.038 A 
HETATM    3  C   UNL     1      -7.602   0.888 -32.231  1.00  0.00    -0.041 A 
HETATM    4  C   UNL     1      -6.284   0.438 -32.000  1.00  0.00    -0.016 A 
HETATM    5  C   UNL     1      -5.986  -0.653 -32.930  1.00  0.00     0.008 A 
HETATM    6  C   UNL     1      -7.170  -0.912 -33.673  1.00  0.00    -0.041 A 
HETATM    7  C   UNL     1      -7.254  -1.927 -34.609  1.00  0.00     0.008 A 
HETATM    8  C   UNL     1      -6.121  -2.700 -34.828  1.00  0.00     0.003 A 
HETATM    9  C   UNL     1      -4.927  -2.439 -34.130  1.00  0.00     0.030 A 
HETATM   10  C   UNL     1      -4.835  -1.414 -33.176  1.00  0.00     0.046 A 
HETATM   11  C   UNL     1      -8.266   0.065 -33.308  1.00  0.00     0.079 A 
HETATM   12  C   UNL     1      -5.558   1.019 -30.973  1.00  0.00     0.015 A 
HETATM   13  C   UNL     1      -6.129   2.075 -30.242  1.00  0.00     0.030 A 
ENDROOT
BRANCH   1  14
HETATM   14  N   UNL     1      -7.895   3.622 -29.730  1.00  0.00    -0.328 N 
HETATM   15  C   UNL     1      -7.970   4.957 -30.090  1.00  0.00     0.218 C 
HETATM   16  C   UNL     1      -8.501   5.828 -28.978  1.00  0.00     0.117 C 
HETATM   17  O   UNL     1      -7.630   5.451 -31.160  1.00  0.00    -0.274 OA
HETATM   18  H   UNL     1      -8.187   3.387 -28.789  1.00  0.00     0.169 HD
ENDBRANCH   1  14
BRANCH  10  19
HETATM   19  N   UNL     1      -3.624  -1.060 -32.556  1.00  0.00    -0.327 N 
HETATM   20  C   UNL     1      -2.631  -1.773 -31.956  1.00  0.00     0.218 C 
HETATM   21  C   UNL     1      -2.806  -3.223 -31.610  1.00  0.00     0.117 C 
HETATM   22  O   UNL     1      -1.590  -1.183 -31.655  1.00  0.00    -0.274 OA
HETATM   23  H   UNL     1      -3.379  -0.080 -32.608  1.00  0.00     0.169 HD
ENDBRANCH  10  19
TORSDOF 2
ENDMDL
MODEL 10
REMARK VINA RESULT:      -7.1      2.356      3.959
REMARK  2 active torsions:
REMARK  status: ('A' for Active; 'I' for Inactive)
REMARK       I    between atoms: C_2  and  N_3 
REMARK    1  A    between atoms: N_3  and  C_4 
REMARK    2  A    between atoms: C_13  and  N_14 
REMARK       I    between atoms: N_14  and  C_15 
ROOT
HETATM    1  C   UNL     1      -4.276   4.673 -33.202  1.00  0.00     0.035 A 
HETATM    2  C   UNL     1      -5.576   4.937 -33.627  1.00  0.00     0.038 A 
HETATM    3  C   UNL     1      -6.520   3.917 -33.556  1.00  0.00    -0.041 A 
HETATM    4  C   UNL     1      -6.211   2.621 -33.090  1.00  0.00    -0.016 A 
HETATM    5  C   UNL     1      -7.416   1.792 -33.162  1.00  0.00     0.008 A 
HETATM    6  C   UNL     1      -8.479   2.626 -33.602  1.00  0.00    -0.041 A 
HETATM    7  C   UNL     1      -9.780   2.170 -33.727  1.00  0.00     0.008 A 
HETATM    8  C   UNL     1     -10.030   0.839 -33.422  1.00  0.00     0.003 A 
HETATM    9  C   UNL     1      -8.987  -0.016 -33.020  1.00  0.00     0.030 A 
HETATM   10  C   UNL     1      -7.666   0.441 -32.886  1.00  0.00     0.046 A 
HETATM   11  C   UNL     1      -7.983   4.021 -33.914  1.00  0.00     0.079 A 
HETATM   12  C   UNL     1      -4.930   2.374 -32.623  1.00  0.00     0.015 A 
HETATM   13  C   UNL     1      -3.968   3.397 -32.690  1.00  0.00     0.030 A 
ENDROOT
BRANCH   1  14
HETATM   14  N   UNL     1      -3.230   5.618 -33.237  1.00  0.00    -0.328 N 
HETATM   15  C   UNL     1      -2.284   5.790 -34.233  1.00  0.00     0.218 C 
HETATM   16  C   UNL     1      -1.300   6.888 -33.914  1.00  0.00     0.117 C 
HETATM   17  O   UNL     1      -2.176   5.139 -35.267  1.00  0.00    -0.274 OA
HETATM   18  H   UNL     1      -3.155   6.223 -32.429  1.00  0.00     0.169 HD
ENDBRANCH   1  14
BRANCH  10  19
HETATM   19  N   UNL     1      -6.591  -0.420 -32.602  1.00  0.00    -0.327 N 
HETATM   20  C   UNL     1      -5.833  -1.259 -33.359  1.00  0.00     0.218 C 
HETATM   21  C   UNL     1      -6.224  -1.620 -34.763  1.00  0.00     0.117 C 
HETATM   22  O   UNL     1      -4.829  -1.761 -32.845  1.00  0.00    -0.274 OA
HETATM   23  H   UNL     1      -6.244  -0.382 -31.653  1.00  0.00     0.169 HD
ENDBRANCH  10  19
TORSDOF 2
ENDMDL
