MODEL 1
REMARK VINA RESULT:      -9.3      0.000      0.000
REMARK  9 active torsions:
REMARK  status: ('A' for Active; 'I' for Inactive)
REMARK    1  A    between atoms: C_3  and  C_4 
REMARK    2  A    between atoms: C_4  and  C_5 
REMARK       I    between atoms: C_5  and  N_6 
REMARK    3  A    between atoms: N_6  and  C_7 
REMARK    4  A    between atoms: C_7  and  C_8 
REMARK    5  A    between atoms: C_18  and  N_19 
REMARK       I    between atoms: N_19  and  C_20 
REMARK    6  A    between atoms: C_20  and  C_21 
REMARK    7  A    between atoms: C_29  and  C_30 
REMARK    8  A    between atoms: C_30  and  O_31 
REMARK    9  A    between atoms: C_33  and  O_34 
ROOT
HETATM    1  C   UNL     1      -6.835   1.379 -35.067  1.00  0.00     0.016 C 
HETATM    2  C   UNL     1      -6.991   1.575 -33.517  1.00  0.00    -0.030 C 
HETATM    3  C   UNL     1      -5.480   1.773 -32.976  1.00  0.00     0.056 C 
HETATM    4  C   UNL     1      -5.121   3.237 -32.877  1.00  0.00     0.056 A 
HETATM    5  C   UNL     1      -5.958   4.266 -33.245  1.00  0.00     0.012 A 
HETATM    6  S   UNL     1      -5.190   5.761 -33.039  1.00  0.00    -0.055 SA
HETATM    7  C   UNL     1      -3.796   4.962 -32.468  1.00  0.00     0.173 A 
HETATM    8  N   UNL     1      -3.873   3.647 -32.436  1.00  0.00    -0.227 NA
HETATM    9  C   UNL     1      -7.338   4.145 -33.769  1.00  0.00     0.055 C 
HETATM   10  C   UNL     1      -7.980   2.815 -33.311  1.00  0.00     0.012 C 
HETATM   11  C   UNL     1      -8.736   2.904 -31.919  1.00  0.00     0.008 C 
HETATM   12  C   UNL     1      -9.911   3.920 -32.032  1.00  0.00     0.020 C 
HETATM   13  C   UNL     1      -9.348   1.515 -31.572  1.00  0.00     0.128 C 
HETATM   14  C   UNL     1      -8.323   0.387 -31.637  1.00  0.00     0.033 C 
HETATM   15  C   UNL     1      -7.687   0.281 -33.022  1.00  0.00     0.013 C 
ENDROOT
BRANCH   3  16
HETATM   16  C   UNL     1      -5.092   0.986 -31.709  1.00  0.00     0.114 C 
BRANCH  16  17
HETATM   17  C   UNL     1      -4.185  -0.225 -31.867  1.00  0.00     0.218 C 
HETATM   18  N   UNL     1      -4.141  -0.790 -33.124  1.00  0.00    -0.357 N 
HETATM   19  H   UNL     1      -4.789  -0.448 -33.818  1.00  0.00     0.162 HD
HETATM   20  O   UNL     1      -3.669  -0.751 -30.883  1.00  0.00    -0.274 OA
BRANCH  18  21
HETATM   21  C   UNL     1      -3.667  -2.145 -33.316  1.00  0.00     0.162 C 
BRANCH  21  22
HETATM   22  C   UNL     1      -4.631  -3.097 -33.962  1.00  0.00    -0.023 A 
HETATM   23  C   UNL     1      -4.336  -4.442 -34.164  1.00  0.00     0.125 A 
HETATM   24  N   UNL     1      -5.165  -5.322 -34.777  1.00  0.00    -0.273 NA
HETATM   25  C   UNL     1      -6.348  -4.834 -35.209  1.00  0.00     0.116 A 
HETATM   26  C   UNL     1      -6.739  -3.513 -35.067  1.00  0.00     0.020 A 
HETATM   27  C   UNL     1      -5.862  -2.634 -34.439  1.00  0.00     0.012 A 
ENDBRANCH  21  22
ENDBRANCH  18  21
ENDBRANCH  16  17
ENDBRANCH   3  16
BRANCH  11  28
HETATM   28  C   UNL     1      -7.840   3.403 -30.760  1.00  0.00     0.176 C 
BRANCH  28  29
HETATM   29  O   UNL     1      -8.152   4.752 -30.422  1.00  0.00    -0.400 OA
HETATM   30  H   UNL     1      -8.130   4.811 -29.449  1.00  0.00     0.209 HD
ENDBRANCH  28  29
ENDBRANCH  11  28
BRANCH   7  31
HETATM   31  N   UNL     1      -2.679   5.641 -32.042  1.00  0.00    -0.305 N 
HETATM   32  C   UNL     1      -1.528   5.866 -32.773  1.00  0.00     0.227 C 
HETATM   33  O   UNL     1      -1.298   5.422 -33.902  1.00  0.00    -0.273 OA
HETATM   34  H   UNL     1      -2.758   5.997 -31.098  1.00  0.00     0.171 HD
BRANCH  32  35
HETATM   35  C   UNL     1      -0.488   6.762 -32.040  1.00  0.00     0.078 C 
HETATM   36  C   UNL     1      -0.973   7.493 -30.756  1.00  0.00     0.014 C 
HETATM   37  C   UNL     1       0.396   7.187 -30.125  1.00  0.00     0.002 C 
HETATM   38  C   UNL     1       0.529   6.023 -31.123  1.00  0.00     0.014 C 
ENDBRANCH  32  35
ENDBRANCH   7  31
BRANCH  13  39
HETATM   39  O   UNL     1     -10.393   1.182 -32.493  1.00  0.00    -0.395 OA
HETATM   40  H   UNL     1     -10.904   1.995 -32.652  1.00  0.00     0.210 HD
ENDBRANCH  13  39
TORSDOF 9
ENDMDL
MODEL 2
REMARK VINA RESULT:      -9.1      3.058      6.960
REMARK  9 active torsions:
REMARK  status: ('A' for Active; 'I' for Inactive)
REMARK    1  A    between atoms: C_3  and  C_4 
REMARK    2  A    between atoms: C_4  and  C_5 
REMARK       I    between atoms: C_5  and  N_6 
REMARK    3  A    between atoms: N_6  and  C_7 
REMARK    4  A    between atoms: C_7  and  C_8 
REMARK    5  A    between atoms: C_18  and  N_19 
REMARK       I    between atoms: N_19  and  C_20 
REMARK    6  A    between atoms: C_20  and  C_21 
REMARK    7  A    between atoms: C_29  and  C_30 
REMARK    8  A    between atoms: C_30  and  O_31 
REMARK    9  A    between atoms: C_33  and  O_34 
ROOT
HETATM    1  C   UNL     1      -5.257   1.135 -30.038  1.00  0.00     0.016 C 
HETATM    2  C   UNL     1      -5.360   2.184 -31.201  1.00  0.00    -0.030 C 
HETATM    3  C   UNL     1      -6.496   1.591 -32.187  1.00  0.00     0.056 C 
HETATM    4  C   UNL     1      -7.853   2.174 -31.872  1.00  0.00     0.056 A 
HETATM    5  C   UNL     1      -8.096   3.059 -30.846  1.00  0.00     0.012 A 
HETATM    6  S   UNL     1      -9.744   3.448 -30.772  1.00  0.00    -0.055 SA
HETATM    7  C   UNL     1     -10.040   2.428 -32.107  1.00  0.00     0.173 A 
HETATM    8  N   UNL     1      -8.981   1.810 -32.590  1.00  0.00    -0.227 NA
HETATM    9  C   UNL     1      -7.104   3.615 -29.898  1.00  0.00     0.055 C 
HETATM   10  C   UNL     1      -5.687   3.592 -30.517  1.00  0.00     0.012 C 
HETATM   11  C   UNL     1      -5.319   4.894 -31.347  1.00  0.00     0.008 C 
HETATM   12  C   UNL     1      -5.345   6.133 -30.403  1.00  0.00     0.020 C 
HETATM   13  C   UNL     1      -3.873   4.760 -31.906  1.00  0.00     0.128 C 
HETATM   14  C   UNL     1      -3.659   3.463 -32.682  1.00  0.00     0.033 C 
HETATM   15  C   UNL     1      -3.938   2.235 -31.817  1.00  0.00     0.013 C 
ENDROOT
BRANCH   3  16
HETATM   16  C   UNL     1      -6.182   1.617 -33.696  1.00  0.00     0.114 C 
BRANCH  16  17
HETATM   17  C   UNL     1      -6.795   0.537 -34.575  1.00  0.00     0.218 C 
HETATM   18  N   UNL     1      -7.004  -0.686 -33.974  1.00  0.00    -0.357 N 
HETATM   19  H   UNL     1      -6.637  -0.825 -33.044  1.00  0.00     0.162 HD
HETATM   20  O   UNL     1      -6.926   0.716 -35.784  1.00  0.00    -0.274 OA
BRANCH  18  21
HETATM   21  C   UNL     1      -7.184  -1.885 -34.767  1.00  0.00     0.162 C 
BRANCH  21  22
HETATM   22  C   UNL     1      -6.141  -2.951 -34.597  1.00  0.00    -0.023 A 
HETATM   23  C   UNL     1      -6.357  -4.277 -34.961  1.00  0.00     0.125 A 
HETATM   24  N   UNL     1      -5.454  -5.273 -34.789  1.00  0.00    -0.273 NA
HETATM   25  C   UNL     1      -4.276  -4.928 -34.225  1.00  0.00     0.116 A 
HETATM   26  C   UNL     1      -3.961  -3.642 -33.819  1.00  0.00     0.020 A 
HETATM   27  C   UNL     1      -4.912  -2.644 -34.004  1.00  0.00     0.012 A 
ENDBRANCH  21  22
ENDBRANCH  18  21
ENDBRANCH  16  17
ENDBRANCH   3  16
BRANCH  11  28
HETATM   28  C   UNL     1      -6.315   5.199 -32.492  1.00  0.00     0.176 C 
BRANCH  28  29
HETATM   29  O   UNL     1      -5.806   6.218 -33.348  1.00  0.00    -0.400 OA
HETATM   30  H   UNL     1      -6.086   5.990 -34.254  1.00  0.00     0.209 HD
ENDBRANCH  28  29
ENDBRANCH  11  28
BRANCH   7  31
HETATM   31  N   UNL     1     -11.290   2.282 -32.660  1.00  0.00    -0.305 N 
HETATM   32  C   UNL     1     -11.708   2.769 -33.883  1.00  0.00     0.227 C 
HETATM   33  O   UNL     1     -11.037   3.480 -34.638  1.00  0.00    -0.273 OA
HETATM   34  H   UNL     1     -11.929   1.753 -32.080  1.00  0.00     0.171 HD
BRANCH  32  35
HETATM   35  C   UNL     1     -13.153   2.338 -34.266  1.00  0.00     0.078 C 
HETATM   36  C   UNL     1     -13.386   0.825 -34.536  1.00  0.00     0.014 C 
HETATM   37  C   UNL     1     -14.733   0.954 -33.805  1.00  0.00     0.002 C 
HETATM   38  C   UNL     1     -14.160   2.189 -33.089  1.00  0.00     0.014 C 
ENDBRANCH  32  35
ENDBRANCH   7  31
BRANCH  13  39
HETATM   39  O   UNL     1      -2.917   4.769 -30.839  1.00  0.00    -0.395 OA
HETATM   40  H   UNL     1      -2.495   3.891 -30.827  1.00  0.00     0.210 HD
ENDBRANCH  13  39
TORSDOF 9
ENDMDL
MODEL 3
REMARK VINA RESULT:      -8.7      2.260      7.648
REMARK  9 active torsions:
REMARK  status: ('A' for Active; 'I' for Inactive)
REMARK    1  A    between atoms: C_3  and  C_4 
REMARK    2  A    between atoms: C_4  and  C_5 
REMARK       I    between atoms: C_5  and  N_6 
REMARK    3  A    between atoms: N_6  and  C_7 
REMARK    4  A    between atoms: C_7  and  C_8 
REMARK    5  A    between atoms: C_18  and  N_19 
REMARK       I    between atoms: N_19  and  C_20 
REMARK    6  A    between atoms: C_20  and  C_21 
REMARK    7  A    between atoms: C_29  and  C_30 
REMARK    8  A    between atoms: C_30  and  O_31 
REMARK    9  A    between atoms: C_33  and  O_34 
ROOT
HETATM    1  C   UNL     1      -7.152   4.992 -30.515  1.00  0.00     0.016 C 
HETATM    2  C   UNL     1      -7.648   4.629 -31.959  1.00  0.00    -0.030 C 
HETATM    3  C   UNL     1      -6.418   3.815 -32.621  1.00  0.00     0.056 C 
HETATM    4  C   UNL     1      -6.593   2.325 -32.452  1.00  0.00     0.056 A 
HETATM    5  C   UNL     1      -7.643   1.740 -31.780  1.00  0.00     0.012 A 
HETATM    6  S   UNL     1      -7.470   0.055 -31.756  1.00  0.00    -0.055 SA
HETATM    7  C   UNL     1      -6.020   0.195 -32.644  1.00  0.00     0.173 A 
HETATM    8  N   UNL     1      -5.659   1.427 -32.942  1.00  0.00    -0.227 NA
HETATM    9  C   UNL     1      -8.780   2.433 -31.134  1.00  0.00     0.055 C 
HETATM   10  C   UNL     1      -9.015   3.817 -31.782  1.00  0.00     0.012 C 
HETATM   11  C   UNL     1     -10.000   3.794 -33.024  1.00  0.00     0.008 C 
HETATM   12  C   UNL     1     -11.405   3.304 -32.561  1.00  0.00     0.020 C 
HETATM   13  C   UNL     1     -10.167   5.238 -33.580  1.00  0.00     0.128 C 
HETATM   14  C   UNL     1      -8.831   5.913 -33.875  1.00  0.00     0.033 C 
HETATM   15  C   UNL     1      -7.951   5.995 -32.629  1.00  0.00     0.013 C 
ENDROOT
BRANCH   3  16
HETATM   16  C   UNL     1      -6.031   4.202 -34.062  1.00  0.00     0.114 C 
BRANCH  16  17
HETATM   17  C   UNL     1      -4.692   4.888 -34.286  1.00  0.00     0.218 C 
HETATM   18  N   UNL     1      -4.039   5.326 -33.153  1.00  0.00    -0.357 N 
HETATM   19  H   UNL     1      -4.532   5.275 -32.274  1.00  0.00     0.162 HD
HETATM   20  O   UNL     1      -4.319   5.173 -35.422  1.00  0.00    -0.274 OA
BRANCH  18  21
HETATM   21  C   UNL     1      -2.997   6.329 -33.236  1.00  0.00     0.162 C 
BRANCH  21  22
HETATM   22  C   UNL     1      -1.776   6.083 -32.397  1.00  0.00    -0.023 A 
HETATM   23  C   UNL     1      -1.563   4.890 -31.713  1.00  0.00     0.125 A 
HETATM   24  N   UNL     1      -0.493   4.646 -30.917  1.00  0.00    -0.273 NA
HETATM   25  C   UNL     1       0.410   5.644 -30.800  1.00  0.00     0.116 A 
HETATM   26  C   UNL     1       0.292   6.872 -31.429  1.00  0.00     0.020 A 
HETATM   27  C   UNL     1      -0.822   7.092 -32.233  1.00  0.00     0.012 A 
ENDBRANCH  21  22
ENDBRANCH  18  21
ENDBRANCH  16  17
ENDBRANCH   3  16
BRANCH  11  28
HETATM   28  C   UNL     1      -9.554   2.831 -34.150  1.00  0.00     0.176 C 
BRANCH  28  29
HETATM   29  O   UNL     1     -10.484   2.846 -35.230  1.00  0.00    -0.400 OA
HETATM   30  H   UNL     1     -11.345   3.107 -34.856  1.00  0.00     0.209 HD
ENDBRANCH  28  29
ENDBRANCH  11  28
BRANCH   7  31
HETATM   31  N   UNL     1      -5.293  -0.900 -33.046  1.00  0.00    -0.305 N 
HETATM   32  C   UNL     1      -5.556  -1.703 -34.140  1.00  0.00     0.227 C 
HETATM   33  O   UNL     1      -6.536  -1.601 -34.883  1.00  0.00    -0.273 OA
HETATM   34  H   UNL     1      -4.493  -1.092 -32.457  1.00  0.00     0.171 HD
BRANCH  32  35
HETATM   35  C   UNL     1      -4.479  -2.798 -34.384  1.00  0.00     0.078 C 
HETATM   36  C   UNL     1      -3.703  -3.309 -33.136  1.00  0.00     0.014 C 
HETATM   37  C   UNL     1      -3.783  -4.726 -33.730  1.00  0.00     0.002 C 
HETATM   38  C   UNL     1      -5.004  -4.255 -34.538  1.00  0.00     0.014 C 
ENDBRANCH  32  35
ENDBRANCH   7  31
BRANCH  13  39
HETATM   39  O   UNL     1     -10.851   6.067 -32.632  1.00  0.00    -0.395 OA
HETATM   40  H   UNL     1     -10.195   6.339 -31.966  1.00  0.00     0.210 HD
ENDBRANCH  13  39
TORSDOF 9
ENDMDL
MODEL 4
REMARK VINA RESULT:      -8.4      2.182      8.140
REMARK  9 active torsions:
REMARK  status: ('A' for Active; 'I' for Inactive)
REMARK    1  A    between atoms: C_3  and  C_4 
REMARK    2  A    between atoms: C_4  and  C_5 
REMARK       I    between atoms: C_5  and  N_6 
REMARK    3  A    between atoms: N_6  and  C_7 
REMARK    4  A    between atoms: C_7  and  C_8 
REMARK    5  A    between atoms: C_18  and  N_19 
REMARK       I    between atoms: N_19  and  C_20 
REMARK    6  A    between atoms: C_20  and  C_21 
REMARK    7  A    between atoms: C_29  and  C_30 
REMARK    8  A    between atoms: C_30  and  O_31 
REMARK    9  A    between atoms: C_33  and  O_34 
ROOT
HETATM    1  C   UNL     1      -5.503   4.287 -29.596  1.00  0.00     0.016 C 
HETATM    2  C   UNL     1      -5.926   4.676 -31.057  1.00  0.00    -0.030 C 
HETATM    3  C   UNL     1      -5.113   3.650 -32.005  1.00  0.00     0.056 C 
HETATM    4  C   UNL     1      -5.950   2.441 -32.349  1.00  0.00     0.056 A 
HETATM    5  C   UNL     1      -7.225   2.223 -31.875  1.00  0.00     0.012 A 
HETATM    6  S   UNL     1      -7.822   0.739 -32.435  1.00  0.00    -0.055 SA
HETATM    7  C   UNL     1      -6.363   0.475 -33.278  1.00  0.00     0.173 A 
HETATM    8  N   UNL     1      -5.459   1.425 -33.152  1.00  0.00    -0.227 NA
HETATM    9  C   UNL     1      -8.007   3.112 -30.986  1.00  0.00     0.055 C 
HETATM   10  C   UNL     1      -7.521   4.574 -31.113  1.00  0.00     0.012 C 
HETATM   11  C   UNL     1      -8.252   5.406 -32.248  1.00  0.00     0.008 C 
HETATM   12  C   UNL     1      -9.773   5.496 -31.925  1.00  0.00     0.020 C 
HETATM   13  C   UNL     1      -7.690   6.857 -32.271  1.00  0.00     0.128 C 
HETATM   14  C   UNL     1      -6.168   6.898 -32.371  1.00  0.00     0.033 C 
HETATM   15  C   UNL     1      -5.505   6.162 -31.207  1.00  0.00     0.013 C 
ENDROOT
BRANCH   3  16
HETATM   16  C   UNL     1      -4.420   4.255 -33.242  1.00  0.00     0.114 C 
BRANCH  16  17
HETATM   17  C   UNL     1      -2.909   4.431 -33.203  1.00  0.00     0.218 C 
HETATM   18  N   UNL     1      -2.330   4.426 -31.951  1.00  0.00    -0.357 N 
HETATM   19  H   UNL     1      -2.942   4.427 -31.148  1.00  0.00     0.162 HD
HETATM   20  O   UNL     1      -2.289   4.728 -34.222  1.00  0.00    -0.274 OA
BRANCH  18  21
HETATM   21  C   UNL     1      -1.009   4.981 -31.739  1.00  0.00     0.162 C 
BRANCH  21  22
HETATM   22  C   UNL     1      -0.776   5.643 -30.412  1.00  0.00    -0.023 A 
HETATM   23  C   UNL     1      -1.667   6.560 -29.864  1.00  0.00     0.125 A 
HETATM   24  N   UNL     1      -1.472   7.205 -28.687  1.00  0.00    -0.273 NA
HETATM   25  C   UNL     1      -0.330   6.918 -28.026  1.00  0.00     0.116 A 
HETATM   26  C   UNL     1       0.628   6.029 -28.484  1.00  0.00     0.020 A 
HETATM   27  C   UNL     1       0.400   5.389 -29.698  1.00  0.00     0.012 A 
ENDBRANCH  21  22
ENDBRANCH  18  21
ENDBRANCH  16  17
ENDBRANCH   3  16
BRANCH  11  28
HETATM   28  C   UNL     1      -8.143   4.764 -33.652  1.00  0.00     0.176 C 
BRANCH  28  29
HETATM   29  O   UNL     1      -8.636   5.649 -34.655  1.00  0.00    -0.400 OA
HETATM   30  H   UNL     1      -9.535   5.910 -34.383  1.00  0.00     0.209 HD
ENDBRANCH  28  29
ENDBRANCH  11  28
BRANCH   7  31
HETATM   31  N   UNL     1      -6.154  -0.637 -34.059  1.00  0.00    -0.305 N 
HETATM   32  C   UNL     1      -5.289  -1.679 -33.787  1.00  0.00     0.227 C 
HETATM   33  O   UNL     1      -4.512  -1.733 -32.829  1.00  0.00    -0.273 OA
HETATM   34  H   UNL     1      -6.715  -0.651 -34.901  1.00  0.00     0.171 HD
BRANCH  32  35
HETATM   35  C   UNL     1      -5.365  -2.840 -34.820  1.00  0.00     0.078 C 
HETATM   36  C   UNL     1      -4.745  -4.200 -34.393  1.00  0.00     0.014 C 
HETATM   37  C   UNL     1      -5.930  -4.899 -35.082  1.00  0.00     0.002 C 
HETATM   38  C   UNL     1      -6.724  -3.592 -34.910  1.00  0.00     0.014 C 
ENDBRANCH  32  35
ENDBRANCH   7  31
BRANCH  13  39
HETATM   39  O   UNL     1      -8.047   7.554 -31.071  1.00  0.00    -0.395 OA
HETATM   40  H   UNL     1      -8.286   8.462 -31.329  1.00  0.00     0.210 HD
ENDBRANCH  13  39
TORSDOF 9
ENDMDL
MODEL 5
REMARK VINA RESULT:      -8.3      2.903      6.464
REMARK  9 active torsions:
REMARK  status: ('A' for Active; 'I' for Inactive)
REMARK    1  A    between atoms: C_3  and  C_4 
REMARK    2  A    between atoms: C_4  and  C_5 
REMARK       I    between atoms: C_5  and  N_6 
REMARK    3  A    between atoms: N_6  and  C_7 
REMARK    4  A    between atoms: C_7  and  C_8 
REMARK    5  A    between atoms: C_18  and  N_19 
REMARK       I    between atoms: N_19  and  C_20 
REMARK    6  A    between atoms: C_20  and  C_21 
REMARK    7  A    between atoms: C_29  and  C_30 
REMARK    8  A    between atoms: C_30  and  O_31 
REMARK    9  A    between atoms: C_33  and  O_34 
ROOT
HETATM    1  C   UNL     1      -5.691   1.485 -30.124  1.00  0.00     0.016 C 
HETATM    2  C   UNL     1      -5.269   2.334 -31.375  1.00  0.00    -0.030 C 
HETATM    3  C   UNL     1      -6.474   2.129 -32.434  1.00  0.00     0.056 C 
HETATM    4  C   UNL     1      -7.490   3.242 -32.329  1.00  0.00     0.056 A 
HETATM    5  C   UNL     1      -7.419   4.271 -31.417  1.00  0.00     0.012 A 
HETATM    6  S   UNL     1      -8.761   5.294 -31.569  1.00  0.00    -0.055 SA
HETATM    7  C   UNL     1      -9.354   4.322 -32.838  1.00  0.00     0.173 A 
HETATM    8  N   UNL     1      -8.612   3.276 -33.140  1.00  0.00    -0.227 NA
HETATM    9  C   UNL     1      -6.356   4.495 -30.410  1.00  0.00     0.055 C 
HETATM   10  C   UNL     1      -5.034   3.828 -30.856  1.00  0.00     0.012 C 
HETATM   11  C   UNL     1      -4.105   4.757 -31.744  1.00  0.00     0.008 C 
HETATM   12  C   UNL     1      -3.686   6.010 -30.918  1.00  0.00     0.020 C 
HETATM   13  C   UNL     1      -2.806   3.985 -32.117  1.00  0.00     0.128 C 
HETATM   14  C   UNL     1      -3.091   2.626 -32.750  1.00  0.00     0.033 C 
HETATM   15  C   UNL     1      -3.912   1.732 -31.823  1.00  0.00     0.013 C 
ENDROOT
BRANCH   3  16
HETATM   16  C   UNL     1      -6.070   1.838 -33.892  1.00  0.00     0.114 C 
BRANCH  16  17
HETATM   17  C   UNL     1      -6.756   0.686 -34.610  1.00  0.00     0.218 C 
HETATM   18  N   UNL     1      -6.654  -0.550 -34.008  1.00  0.00    -0.357 N 
HETATM   19  H   UNL     1      -6.044  -0.637 -33.208  1.00  0.00     0.162 HD
HETATM   20  O   UNL     1      -7.217   0.840 -35.739  1.00  0.00    -0.274 OA
BRANCH  18  21
HETATM   21  C   UNL     1      -6.888  -1.766 -34.758  1.00  0.00     0.162 C 
BRANCH  21  22
HETATM   22  C   UNL     1      -5.908  -2.881 -34.533  1.00  0.00    -0.023 A 
HETATM   23  C   UNL     1      -6.181  -4.201 -34.877  1.00  0.00     0.125 A 
HETATM   24  N   UNL     1      -5.337  -5.239 -34.654  1.00  0.00    -0.273 NA
HETATM   25  C   UNL     1      -4.162  -4.942 -34.059  1.00  0.00     0.116 A 
HETATM   26  C   UNL     1      -3.793  -3.665 -33.668  1.00  0.00     0.020 A 
HETATM   27  C   UNL     1      -4.685  -2.624 -33.905  1.00  0.00     0.012 A 
ENDBRANCH  21  22
ENDBRANCH  18  21
ENDBRANCH  16  17
ENDBRANCH   3  16
BRANCH  11  28
HETATM   28  C   UNL     1      -4.801   5.291 -33.019  1.00  0.00     0.176 C 
BRANCH  28  29
HETATM   29  O   UNL     1      -3.909   6.095 -33.786  1.00  0.00    -0.400 OA
HETATM   30  H   UNL     1      -3.400   6.634 -33.153  1.00  0.00     0.209 HD
ENDBRANCH  28  29
ENDBRANCH  11  28
BRANCH   7  31
HETATM   31  N   UNL     1     -10.510   4.622 -33.518  1.00  0.00    -0.305 N 
HETATM   32  C   UNL     1     -10.599   5.217 -34.762  1.00  0.00     0.227 C 
HETATM   33  O   UNL     1      -9.646   5.640 -35.423  1.00  0.00    -0.273 OA
HETATM   34  H   UNL     1     -11.351   4.356 -33.023  1.00  0.00     0.171 HD
BRANCH  32  35
HETATM   35  C   UNL     1     -12.054   5.321 -35.302  1.00  0.00     0.078 C 
HETATM   36  C   UNL     1     -13.189   5.422 -34.244  1.00  0.00     0.014 C 
HETATM   37  C   UNL     1     -13.883   6.444 -35.160  1.00  0.00     0.002 C 
HETATM   38  C   UNL     1     -12.507   6.729 -35.786  1.00  0.00     0.014 C 
ENDBRANCH  32  35
ENDBRANCH   7  31
BRANCH  13  39
HETATM   39  O   UNL     1      -2.011   3.743 -30.950  1.00  0.00    -0.395 OA
HETATM   40  H   UNL     1      -2.261   4.414 -30.291  1.00  0.00     0.210 HD
ENDBRANCH  13  39
TORSDOF 9
ENDMDL
MODEL 6
REMARK VINA RESULT:      -8.1      1.738      2.125
REMARK  9 active torsions:
REMARK  status: ('A' for Active; 'I' for Inactive)
REMARK    1  A    between atoms: C_3  and  C_4 
REMARK    2  A    between atoms: C_4  and  C_5 
REMARK       I    between atoms: C_5  and  N_6 
REMARK    3  A    between atoms: N_6  and  C_7 
REMARK    4  A    between atoms: C_7  and  C_8 
REMARK    5  A    between atoms: C_18  and  N_19 
REMARK       I    between atoms: N_19  and  C_20 
REMARK    6  A    between atoms: C_20  and  C_21 
REMARK    7  A    between atoms: C_29  and  C_30 
REMARK    8  A    between atoms: C_30  and  O_31 
REMARK    9  A    between atoms: C_33  and  O_34 
ROOT
HETATM    1  C   UNL     1      -7.169   2.848 -33.983  1.00  0.00     0.016 C 
HETATM    2  C   UNL     1      -7.488   3.195 -32.485  1.00  0.00    -0.030 C 
HETATM    3  C   UNL     1      -6.081   3.002 -31.713  1.00  0.00     0.056 C 
HETATM    4  C   UNL     1      -5.333   4.309 -31.600  1.00  0.00     0.056 A 
HETATM    5  C   UNL     1      -5.775   5.501 -32.129  1.00  0.00     0.012 A 
HETATM    6  S   UNL     1      -4.646   6.733 -31.846  1.00  0.00    -0.055 SA
HETATM    7  C   UNL     1      -3.642   5.620 -31.032  1.00  0.00     0.173 A 
HETATM    8  N   UNL     1      -4.099   4.385 -30.975  1.00  0.00    -0.227 NA
HETATM    9  C   UNL     1      -7.038   5.733 -32.865  1.00  0.00     0.055 C 
HETATM   10  C   UNL     1      -8.097   4.674 -32.478  1.00  0.00     0.012 C 
HETATM   11  C   UNL     1      -8.990   5.074 -31.230  1.00  0.00     0.008 C 
HETATM   12  C   UNL     1      -9.792   6.368 -31.563  1.00  0.00     0.020 C 
HETATM   13  C   UNL     1     -10.020   3.943 -30.946  1.00  0.00     0.128 C 
HETATM   14  C   UNL     1      -9.366   2.571 -30.811  1.00  0.00     0.033 C 
HETATM   15  C   UNL     1      -8.592   2.188 -32.071  1.00  0.00     0.013 C 
ENDROOT
BRANCH   3  16
HETATM   16  C   UNL     1      -6.126   2.234 -30.377  1.00  0.00     0.114 C 
BRANCH  16  17
HETATM   17  C   UNL     1      -5.306   0.959 -30.253  1.00  0.00     0.218 C 
HETATM   18  N   UNL     1      -4.536   0.626 -31.348  1.00  0.00    -0.357 N 
HETATM   19  H   UNL     1      -4.652   1.170 -32.190  1.00  0.00     0.162 HD
HETATM   20  O   UNL     1      -5.467   0.203 -29.298  1.00  0.00    -0.274 OA
BRANCH  18  21
HETATM   21  C   UNL     1      -4.046  -0.725 -31.530  1.00  0.00     0.162 C 
BRANCH  21  22
HETATM   22  C   UNL     1      -4.601  -1.476 -32.707  1.00  0.00    -0.023 A 
HETATM   23  C   UNL     1      -3.929  -2.537 -33.304  1.00  0.00     0.125 A 
HETATM   24  N   UNL     1      -4.381  -3.214 -34.389  1.00  0.00    -0.273 NA
HETATM   25  C   UNL     1      -5.562  -2.809 -34.902  1.00  0.00     0.116 A 
HETATM   26  C   UNL     1      -6.309  -1.760 -34.391  1.00  0.00     0.020 A 
HETATM   27  C   UNL     1      -5.814  -1.083 -33.282  1.00  0.00     0.012 A 
ENDBRANCH  21  22
ENDBRANCH  18  21
ENDBRANCH  16  17
ENDBRANCH   3  16
BRANCH  11  28
HETATM   28  C   UNL     1      -8.169   5.388 -29.957  1.00  0.00     0.176 C 
BRANCH  28  29
HETATM   29  O   UNL     1      -8.978   6.032 -28.976  1.00  0.00    -0.400 OA
HETATM   30  H   UNL     1      -9.366   6.817 -29.403  1.00  0.00     0.209 HD
ENDBRANCH  28  29
ENDBRANCH  11  28
BRANCH   7  31
HETATM   31  N   UNL     1      -2.452   5.988 -30.452  1.00  0.00    -0.305 N 
HETATM   32  C   UNL     1      -1.191   5.561 -30.822  1.00  0.00     0.227 C 
HETATM   33  O   UNL     1      -0.948   4.718 -31.691  1.00  0.00    -0.273 OA
HETATM   34  H   UNL     1      -2.560   6.643 -29.688  1.00  0.00     0.171 HD
BRANCH  32  35
HETATM   35  C   UNL     1      -0.041   6.249 -30.032  1.00  0.00     0.078 C 
HETATM   36  C   UNL     1      -0.455   7.160 -28.842  1.00  0.00     0.014 C 
HETATM   37  C   UNL     1       0.746   6.598 -28.061  1.00  0.00     0.002 C 
HETATM   38  C   UNL     1       0.694   5.367 -28.982  1.00  0.00     0.014 C 
ENDBRANCH  32  35
ENDBRANCH   7  31
BRANCH  13  39
HETATM   39  O   UNL     1     -10.971   3.847 -32.015  1.00  0.00    -0.395 OA
HETATM   40  H   UNL     1     -11.492   3.040 -31.861  1.00  0.00     0.210 HD
ENDBRANCH  13  39
TORSDOF 9
ENDMDL
MODEL 7
REMARK VINA RESULT:      -8.0      2.191      3.269
REMARK  9 active torsions:
REMARK  status: ('A' for Active; 'I' for Inactive)
REMARK    1  A    between atoms: C_3  and  C_4 
REMARK    2  A    between atoms: C_4  and  C_5 
REMARK       I    between atoms: C_5  and  N_6 
REMARK    3  A    between atoms: N_6  and  C_7 
REMARK    4  A    between atoms: C_7  and  C_8 
REMARK    5  A    between atoms: C_18  and  N_19 
REMARK       I    between atoms: N_19  and  C_20 
REMARK    6  A    between atoms: C_20  and  C_21 
REMARK    7  A    between atoms: C_29  and  C_30 
REMARK    8  A    between atoms: C_30  and  O_31 
REMARK    9  A    between atoms: C_33  and  O_34 
ROOT
HETATM    1  C   UNL     1     -10.673   4.456 -35.889  1.00  0.00     0.016 C 
HETATM    2  C   UNL     1     -10.534   3.738 -34.500  1.00  0.00    -0.030 C 
HETATM    3  C   UNL     1      -9.090   3.014 -34.557  1.00  0.00     0.056 C 
HETATM    4  C   UNL     1      -8.018   3.880 -33.939  1.00  0.00     0.056 A 
HETATM    5  C   UNL     1      -8.238   5.143 -33.436  1.00  0.00     0.012 A 
HETATM    6  S   UNL     1      -6.790   5.821 -32.875  1.00  0.00    -0.055 SA
HETATM    7  C   UNL     1      -5.957   4.403 -33.323  1.00  0.00     0.173 A 
HETATM    8  N   UNL     1      -6.698   3.464 -33.876  1.00  0.00    -0.227 NA
HETATM    9  C   UNL     1      -9.530   5.865 -33.380  1.00  0.00     0.055 C 
HETATM   10  C   UNL     1     -10.712   4.867 -33.382  1.00  0.00     0.012 C 
HETATM   11  C   UNL     1     -11.155   4.383 -31.939  1.00  0.00     0.008 C 
HETATM   12  C   UNL     1     -11.640   5.608 -31.108  1.00  0.00     0.020 C 
HETATM   13  C   UNL     1     -12.354   3.399 -32.068  1.00  0.00     0.128 C 
HETATM   14  C   UNL     1     -12.073   2.253 -33.035  1.00  0.00     0.033 C 
HETATM   15  C   UNL     1     -11.739   2.764 -34.436  1.00  0.00     0.013 C 
ENDROOT
BRANCH   3  16
HETATM   16  C   UNL     1      -9.028   1.557 -34.057  1.00  0.00     0.114 C 
BRANCH  16  17
HETATM   17  C   UNL     1      -7.878   0.683 -34.535  1.00  0.00     0.218 C 
HETATM   18  N   UNL     1      -7.130   0.075 -33.549  1.00  0.00    -0.357 N 
HETATM   19  H   UNL     1      -7.310   0.336 -32.590  1.00  0.00     0.162 HD
HETATM   20  O   UNL     1      -7.551   0.673 -35.719  1.00  0.00    -0.274 OA
BRANCH  18  21
HETATM   21  C   UNL     1      -5.800  -0.429 -33.827  1.00  0.00     0.162 C 
BRANCH  21  22
HETATM   22  C   UNL     1      -5.698  -1.900 -34.111  1.00  0.00    -0.023 A 
HETATM   23  C   UNL     1      -4.501  -2.601 -34.013  1.00  0.00     0.125 A 
HETATM   24  N   UNL     1      -4.362  -3.920 -34.297  1.00  0.00    -0.273 NA
HETATM   25  C   UNL     1      -5.476  -4.569 -34.700  1.00  0.00     0.116 A 
HETATM   26  C   UNL     1      -6.715  -3.966 -34.840  1.00  0.00     0.020 A 
HETATM   27  C   UNL     1      -6.821  -2.611 -34.546  1.00  0.00     0.012 A 
ENDBRANCH  21  22
ENDBRANCH  18  21
ENDBRANCH  16  17
ENDBRANCH   3  16
BRANCH  11  28
HETATM   28  C   UNL     1     -10.009   3.733 -31.126  1.00  0.00     0.176 C 
BRANCH  28  29
HETATM   29  O   UNL     1     -10.526   2.992 -30.023  1.00  0.00    -0.400 OA
HETATM   30  H   UNL     1     -11.476   2.859 -30.193  1.00  0.00     0.209 HD
ENDBRANCH  28  29
ENDBRANCH  11  28
BRANCH   7  31
HETATM   31  N   UNL     1      -4.611   4.236 -33.099  1.00  0.00    -0.305 N 
HETATM   32  C   UNL     1      -3.583   4.876 -33.763  1.00  0.00     0.227 C 
HETATM   33  O   UNL     1      -3.718   5.645 -34.719  1.00  0.00    -0.273 OA
HETATM   34  H   UNL     1      -4.403   3.575 -32.361  1.00  0.00     0.171 HD
BRANCH  32  35
HETATM   35  C   UNL     1      -2.172   4.546 -33.197  1.00  0.00     0.078 C 
HETATM   36  C   UNL     1      -1.103   5.672 -33.277  1.00  0.00     0.014 C 
HETATM   37  C   UNL     1      -0.621   5.244 -31.880  1.00  0.00     0.002 C 
HETATM   38  C   UNL     1      -2.014   4.633 -31.652  1.00  0.00     0.014 C 
ENDBRANCH  32  35
ENDBRANCH   7  31
BRANCH  13  39
HETATM   39  O   UNL     1     -13.515   4.081 -32.557  1.00  0.00    -0.395 OA
HETATM   40  H   UNL     1     -14.291   3.628 -32.182  1.00  0.00     0.210 HD
ENDBRANCH  13  39
TORSDOF 9
ENDMDL
MODEL 8
REMARK VINA RESULT:      -7.8      3.298      8.837
REMARK  9 active torsions:
REMARK  status: ('A' for Active; 'I' for Inactive)
REMARK    1  A    between atoms: C_3  and  C_4 
REMARK    2  A    between atoms: C_4  and  C_5 
REMARK       I    between atoms: C_5  and  N_6 
REMARK    3  A    between atoms: N_6  and  C_7 
REMARK    4  A    between atoms: C_7  and  C_8 
REMARK    5  A    between atoms: C_18  and  N_19 
REMARK       I    between atoms: N_19  and  C_20 
REMARK    6  A    between atoms: C_20  and  C_21 
REMARK    7  A    between atoms: C_29  and  C_30 
REMARK    8  A    between atoms: C_30  and  O_31 
REMARK    9  A    between atoms: C_33  and  O_34 
ROOT
HETATM    1  C   UNL     1      -5.633   3.728 -34.363  1.00  0.00     0.016 C 
HETATM    2  C   UNL     1      -5.824   2.806 -33.107  1.00  0.00    -0.030 C 
HETATM    3  C   UNL     1      -6.978   3.531 -32.238  1.00  0.00     0.056 C 
HETATM    4  C   UNL     1      -8.341   2.963 -32.555  1.00  0.00     0.056 A 
HETATM    5  C   UNL     1      -8.572   1.986 -33.498  1.00  0.00     0.012 A 
HETATM    6  S   UNL     1     -10.228   1.644 -33.607  1.00  0.00    -0.055 SA
HETATM    7  C   UNL     1     -10.543   2.803 -32.397  1.00  0.00     0.173 A 
HETATM    8  N   UNL     1      -9.484   3.433 -31.929  1.00  0.00    -0.227 NA
HETATM    9  C   UNL     1      -7.561   1.305 -34.338  1.00  0.00     0.055 C 
HETATM   10  C   UNL     1      -6.171   1.346 -33.660  1.00  0.00     0.012 C 
HETATM   11  C   UNL     1      -5.886   0.125 -32.689  1.00  0.00     0.008 C 
HETATM   12  C   UNL     1      -5.917  -1.202 -33.504  1.00  0.00     0.020 C 
HETATM   13  C   UNL     1      -4.462   0.269 -32.080  1.00  0.00     0.128 C 
HETATM   14  C   UNL     1      -4.234   1.630 -31.429  1.00  0.00     0.033 C 
HETATM   15  C   UNL     1      -4.431   2.773 -32.425  1.00  0.00     0.013 C 
ENDROOT
BRANCH   3  16
HETATM   16  C   UNL     1      -6.730   3.649 -30.722  1.00  0.00     0.114 C 
BRANCH  16  17
HETATM   17  C   UNL     1      -6.079   4.920 -30.197  1.00  0.00     0.218 C 
HETATM   18  N   UNL     1      -5.864   5.917 -31.125  1.00  0.00    -0.357 N 
HETATM   19  H   UNL     1      -6.036   5.703 -32.097  1.00  0.00     0.162 HD
HETATM   20  O   UNL     1      -5.629   4.966 -29.055  1.00  0.00    -0.274 OA
BRANCH  18  21
HETATM   21  C   UNL     1      -4.911   6.978 -30.871  1.00  0.00     0.162 C 
BRANCH  21  22
HETATM   22  C   UNL     1      -3.788   7.108 -31.859  1.00  0.00    -0.023 A 
HETATM   23  C   UNL     1      -2.842   8.126 -31.790  1.00  0.00     0.125 A 
HETATM   24  N   UNL     1      -1.837   8.297 -32.684  1.00  0.00    -0.273 NA
HETATM   25  C   UNL     1      -1.775   7.406 -33.698  1.00  0.00     0.116 A 
HETATM   26  C   UNL     1      -2.669   6.362 -33.866  1.00  0.00     0.020 A 
HETATM   27  C   UNL     1      -3.692   6.219 -32.934  1.00  0.00     0.012 A 
ENDBRANCH  21  22
ENDBRANCH  18  21
ENDBRANCH  16  17
ENDBRANCH   3  16
BRANCH  11  28
HETATM   28  C   UNL     1      -6.940  -0.031 -31.566  1.00  0.00     0.176 C 
BRANCH  28  29
HETATM   29  O   UNL     1      -6.331  -0.478 -30.358  1.00  0.00    -0.400 OA
HETATM   30  H   UNL     1      -6.617  -1.400 -30.222  1.00  0.00     0.209 HD
ENDBRANCH  28  29
ENDBRANCH  11  28
BRANCH   7  31
HETATM   31  N   UNL     1     -11.809   3.044 -31.919  1.00  0.00    -0.305 N 
HETATM   32  C   UNL     1     -12.927   3.345 -32.673  1.00  0.00     0.227 C 
HETATM   33  O   UNL     1     -12.941   3.518 -33.895  1.00  0.00    -0.273 OA
HETATM   34  H   UNL     1     -11.881   2.977 -30.912  1.00  0.00     0.171 HD
BRANCH  32  35
HETATM   35  C   UNL     1     -14.234   3.457 -31.836  1.00  0.00     0.078 C 
HETATM   36  C   UNL     1     -15.191   4.631 -32.184  1.00  0.00     0.014 C 
HETATM   37  C   UNL     1     -16.370   3.667 -31.970  1.00  0.00     0.002 C 
HETATM   38  C   UNL     1     -15.397   2.508 -32.248  1.00  0.00     0.014 C 
ENDBRANCH  32  35
ENDBRANCH   7  31
BRANCH  13  39
HETATM   39  O   UNL     1      -3.462   0.122 -33.096  1.00  0.00    -0.395 OA
HETATM   40  H   UNL     1      -2.679  -0.271 -32.671  1.00  0.00     0.210 HD
ENDBRANCH  13  39
TORSDOF 9
ENDMDL
MODEL 9
REMARK VINA RESULT:      -7.7      2.778      7.512
REMARK  9 active torsions:
REMARK  status: ('A' for Active; 'I' for Inactive)
REMARK    1  A    between atoms: C_3  and  C_4 
REMARK    2  A    between atoms: C_4  and  C_5 
REMARK       I    between atoms: C_5  and  N_6 
REMARK    3  A    between atoms: N_6  and  C_7 
REMARK    4  A    between atoms: C_7  and  C_8 
REMARK    5  A    between atoms: C_18  and  N_19 
REMARK       I    between atoms: N_19  and  C_20 
REMARK    6  A    between atoms: C_20  and  C_21 
REMARK    7  A    between atoms: C_29  and  C_30 
REMARK    8  A    between atoms: C_30  and  O_31 
REMARK    9  A    between atoms: C_33  and  O_34 
ROOT
HETATM    1  C   UNL     1      -3.708   9.282 -30.831  1.00  0.00     0.016 C 
HETATM    2  C   UNL     1      -3.113   7.916 -30.338  1.00  0.00    -0.030 C 
HETATM    3  C   UNL     1      -4.331   6.862 -30.487  1.00  0.00     0.056 C 
HETATM    4  C   UNL     1      -4.264   6.133 -31.808  1.00  0.00     0.056 A 
HETATM    5  C   UNL     1      -3.315   6.371 -32.777  1.00  0.00     0.012 A 
HETATM    6  S   UNL     1      -3.595   5.398 -34.136  1.00  0.00    -0.055 SA
HETATM    7  C   UNL     1      -4.951   4.713 -33.362  1.00  0.00     0.173 A 
HETATM    8  N   UNL     1      -5.208   5.179 -32.156  1.00  0.00    -0.227 NA
HETATM    9  C   UNL     1      -2.196   7.338 -32.706  1.00  0.00     0.055 C 
HETATM   10  C   UNL     1      -1.821   7.630 -31.235  1.00  0.00     0.012 C 
HETATM   11  C   UNL     1      -0.735   6.642 -30.633  1.00  0.00     0.008 C 
HETATM   12  C   UNL     1       0.591   6.777 -31.440  1.00  0.00     0.020 C 
HETATM   13  C   UNL     1      -0.432   7.042 -29.160  1.00  0.00     0.128 C 
HETATM   14  C   UNL     1      -1.692   7.153 -28.308  1.00  0.00     0.033 C 
HETATM   15  C   UNL     1      -2.670   8.181 -28.875  1.00  0.00     0.013 C 
ENDROOT
BRANCH   3  16
HETATM   16  C   UNL     1      -4.567   5.908 -29.301  1.00  0.00     0.114 C 
BRANCH  16  17
HETATM   17  C   UNL     1      -5.731   4.931 -29.386  1.00  0.00     0.218 C 
HETATM   18  N   UNL     1      -5.398   3.594 -29.437  1.00  0.00    -0.357 N 
HETATM   19  H   UNL     1      -4.422   3.354 -29.534  1.00  0.00     0.162 HD
HETATM   20  O   UNL     1      -6.876   5.339 -29.569  1.00  0.00    -0.274 OA
BRANCH  18  21
HETATM   21  C   UNL     1      -6.342   2.609 -29.923  1.00  0.00     0.162 C 
BRANCH  21  22
HETATM   22  C   UNL     1      -5.764   1.478 -30.722  1.00  0.00    -0.023 A 
HETATM   23  C   UNL     1      -4.510   1.546 -31.321  1.00  0.00     0.125 A 
HETATM   24  N   UNL     1      -3.971   0.561 -32.080  1.00  0.00    -0.273 NA
HETATM   25  C   UNL     1      -4.723  -0.548 -32.249  1.00  0.00     0.116 A 
HETATM   26  C   UNL     1      -5.986  -0.717 -31.706  1.00  0.00     0.020 A 
HETATM   27  C   UNL     1      -6.512   0.316 -30.938  1.00  0.00     0.012 A 
ENDBRANCH  21  22
ENDBRANCH  18  21
ENDBRANCH  16  17
ENDBRANCH   3  16
BRANCH  11  28
HETATM   28  C   UNL     1      -1.143   5.151 -30.714  1.00  0.00     0.176 C 
BRANCH  28  29
HETATM   29  O   UNL     1      -0.209   4.331 -30.018  1.00  0.00    -0.400 OA
HETATM   30  H   UNL     1      -0.568   3.425 -30.026  1.00  0.00     0.209 HD
ENDBRANCH  28  29
ENDBRANCH  11  28
BRANCH   7  31
HETATM   31  N   UNL     1      -5.708   3.722 -33.940  1.00  0.00    -0.305 N 
HETATM   32  C   UNL     1      -7.028   3.427 -33.658  1.00  0.00     0.227 C 
HETATM   33  O   UNL     1      -7.710   3.966 -32.781  1.00  0.00    -0.273 OA
HETATM   34  H   UNL     1      -5.208   3.188 -34.640  1.00  0.00     0.171 HD
BRANCH  32  35
HETATM   35  C   UNL     1      -7.628   2.315 -34.565  1.00  0.00     0.078 C 
HETATM   36  C   UNL     1      -6.736   1.068 -34.828  1.00  0.00     0.014 C 
HETATM   37  C   UNL     1      -8.001   0.201 -34.705  1.00  0.00     0.002 C 
HETATM   38  C   UNL     1      -8.630   1.339 -33.883  1.00  0.00     0.014 C 
ENDBRANCH  32  35
ENDBRANCH   7  31
BRANCH  13  39
HETATM   39  O   UNL     1       0.219   8.318 -29.108  1.00  0.00    -0.395 OA
HETATM   40  H   UNL     1      -0.474   8.985 -28.959  1.00  0.00     0.210 HD
ENDBRANCH  13  39
TORSDOF 9
ENDMDL
MODEL 10
REMARK VINA RESULT:      -7.6      3.648      7.267
REMARK  9 active torsions:
REMARK  status: ('A' for Active; 'I' for Inactive)
REMARK    1  A    between atoms: C_3  and  C_4 
REMARK    2  A    between atoms: C_4  and  C_5 
REMARK       I    between atoms: C_5  and  N_6 
REMARK    3  A    between atoms: N_6  and  C_7 
REMARK    4  A    between atoms: C_7  and  C_8 
REMARK    5  A    between atoms: C_18  and  N_19 
REMARK       I    between atoms: N_19  and  C_20 
REMARK    6  A    between atoms: C_20  and  C_21 
REMARK    7  A    between atoms: C_29  and  C_30 
REMARK    8  A    between atoms: C_30  and  O_31 
REMARK    9  A    between atoms: C_33  and  O_34 
ROOT
HETATM    1  C   UNL     1     -12.494   4.707 -30.660  1.00  0.00     0.016 C 
HETATM    2  C   UNL     1     -11.519   5.056 -31.839  1.00  0.00    -0.030 C 
HETATM    3  C   UNL     1     -10.186   4.193 -31.537  1.00  0.00     0.056 C 
HETATM    4  C   UNL     1     -10.208   2.874 -32.272  1.00  0.00     0.056 A 
HETATM    5  C   UNL     1     -11.253   2.445 -33.060  1.00  0.00     0.012 A 
HETATM    6  S   UNL     1     -10.938   0.898 -33.675  1.00  0.00    -0.055 SA
HETATM    7  C   UNL     1      -9.435   0.888 -32.870  1.00  0.00     0.173 A 
HETATM    8  N   UNL     1      -9.166   1.967 -32.163  1.00  0.00    -0.227 NA
HETATM    9  C   UNL     1     -12.505   3.179 -33.352  1.00  0.00     0.055 C 
HETATM   10  C   UNL     1     -12.294   4.702 -33.193  1.00  0.00     0.012 C 
HETATM   11  C   UNL     1     -11.801   5.432 -34.512  1.00  0.00     0.008 C 
HETATM   12  C   UNL     1     -12.879   5.271 -35.625  1.00  0.00     0.020 C 
HETATM   13  C   UNL     1     -11.638   6.954 -34.232  1.00  0.00     0.128 C 
HETATM   14  C   UNL     1     -10.762   7.239 -33.016  1.00  0.00     0.033 C 
HETATM   15  C   UNL     1     -11.324   6.592 -31.751  1.00  0.00     0.013 C 
ENDROOT
BRANCH   3  16
HETATM   16  C   UNL     1      -8.839   4.927 -31.689  1.00  0.00     0.114 C 
BRANCH  16  17
HETATM   17  C   UNL     1      -7.798   4.752 -30.593  1.00  0.00     0.218 C 
HETATM   18  N   UNL     1      -6.509   4.509 -31.016  1.00  0.00    -0.357 N 
HETATM   19  H   UNL     1      -6.357   4.345 -32.001  1.00  0.00     0.162 HD
HETATM   20  O   UNL     1      -8.140   4.667 -29.416  1.00  0.00    -0.274 OA
BRANCH  18  21
HETATM   21  C   UNL     1      -5.529   3.928 -30.122  1.00  0.00     0.162 C 
BRANCH  21  22
HETATM   22  C   UNL     1      -4.967   2.597 -30.531  1.00  0.00    -0.023 A 
HETATM   23  C   UNL     1      -3.686   2.453 -31.054  1.00  0.00     0.125 A 
HETATM   24  N   UNL     1      -3.159   1.274 -31.469  1.00  0.00    -0.273 NA
HETATM   25  C   UNL     1      -3.951   0.187 -31.356  1.00  0.00     0.116 A 
HETATM   26  C   UNL     1      -5.243   0.220 -30.857  1.00  0.00     0.020 A 
HETATM   27  C   UNL     1      -5.756   1.445 -30.446  1.00  0.00     0.012 A 
ENDBRANCH  21  22
ENDBRANCH  18  21
ENDBRANCH  16  17
ENDBRANCH   3  16
BRANCH  11  28
HETATM   28  C   UNL     1     -10.490   4.846 -35.089  1.00  0.00     0.176 C 
BRANCH  28  29
HETATM   29  O   UNL     1      -9.815   5.808 -35.895  1.00  0.00    -0.400 OA
HETATM   30  H   UNL     1      -9.103   6.185 -35.347  1.00  0.00     0.209 HD
ENDBRANCH  28  29
ENDBRANCH  11  28
BRANCH   7  31
HETATM   31  N   UNL     1      -8.550  -0.159 -32.973  1.00  0.00    -0.305 N 
HETATM   32  C   UNL     1      -7.642  -0.369 -33.992  1.00  0.00     0.227 C 
HETATM   33  O   UNL     1      -7.539   0.320 -35.012  1.00  0.00    -0.273 OA
HETATM   34  H   UNL     1      -8.602  -0.809 -32.199  1.00  0.00     0.171 HD
BRANCH  32  35
HETATM   35  C   UNL     1      -6.709  -1.591 -33.757  1.00  0.00     0.078 C 
HETATM   36  C   UNL     1      -6.897  -2.809 -34.705  1.00  0.00     0.014 C 
HETATM   37  C   UNL     1      -5.367  -2.965 -34.727  1.00  0.00     0.002 C 
HETATM   38  C   UNL     1      -5.270  -1.479 -34.338  1.00  0.00     0.014 C 
ENDBRANCH  32  35
ENDBRANCH   7  31
BRANCH  13  39
HETATM   39  O   UNL     1     -12.912   7.558 -33.978  1.00  0.00    -0.395 OA
HETATM   40  H   UNL     1     -12.757   8.513 -33.864  1.00  0.00     0.210 HD
ENDBRANCH  13  39
TORSDOF 9
ENDMDL
