MODEL 1
REMARK VINA RESULT:     -10.3      0.000      0.000
REMARK  6 active torsions:
REMARK  status: ('A' for Active; 'I' for Inactive)
REMARK    1  A    between atoms: C_4  and  C_5 
REMARK    2  A    between atoms: C_6  and  N_7 
REMARK    3  A    between atoms: C_9  and  C_10 
REMARK       I    between atoms: C_10  and  N_11 
REMARK    4  A    between atoms: N_11  and  C_12 
REMARK    5  A    between atoms: C_12  and  C_13 
REMARK    6  A    between atoms: C_13  and  N_14 
ROOT
HETATM    1  C   UNL     1      -5.367  -0.601 -32.922  1.00  0.00     0.019 A 
HETATM    2  C   UNL     1      -4.532   0.066 -32.078  1.00  0.00     0.111 A 
HETATM    3  C   UNL     1      -3.218  -0.604 -31.669  1.00  0.00     0.273 A 
HETATM    4  O   UNL     1      -2.385  -0.049 -30.951  1.00  0.00    -0.266 OA
HETATM    5  N   UNL     1      -2.973  -1.866 -32.124  1.00  0.00    -0.321 N 
HETATM    6  C   UNL     1      -3.828  -2.569 -32.963  1.00  0.00     0.046 A 
HETATM    7  C   UNL     1      -5.018  -1.971 -33.391  1.00  0.00     0.006 A 
HETATM    8  C   UNL     1      -3.474  -3.860 -33.365  1.00  0.00     0.032 A 
HETATM    9  C   UNL     1      -4.317  -4.576 -34.213  1.00  0.00     0.026 A 
HETATM   10  C   UNL     1      -5.500  -3.991 -34.657  1.00  0.00     0.035 A 
HETATM   11 CL   UNL     1      -6.542  -4.871 -35.707  1.00  0.00    -0.084 Cl
HETATM   12  C   UNL     1      -5.850  -2.700 -34.256  1.00  0.00     0.038 A 
HETATM   13  H   UNL     1      -2.104  -2.280 -31.814  1.00  0.00     0.169 HD
ENDROOT
BRANCH   2  14
HETATM   14  N   UNL     1      -4.815   1.347 -31.527  1.00  0.00    -0.375 N 
HETATM   15  C   UNL     1      -3.897   2.476 -31.769  1.00  0.00     0.137 C 
HETATM   16  C   UNL     1      -4.644   3.804 -31.610  1.00  0.00     0.096 C 
HETATM   17  C   UNL     1      -5.299   3.891 -30.226  1.00  0.00     0.017 C 
HETATM   18  C   UNL     1      -6.170   2.666 -29.961  1.00  0.00     0.021 C 
HETATM   19  C   UNL     1      -5.375   1.378 -30.157  1.00  0.00     0.123 C 
BRANCH  16  20
HETATM   20  C   UNL     1      -3.645   4.930 -31.819  1.00  0.00     0.223 C 
HETATM   21  N   UNL     1      -2.334   4.528 -31.931  1.00  0.00    -0.359 N 
HETATM   22  H   UNL     1      -2.146   3.539 -31.782  1.00  0.00     0.162 HD
HETATM   23  O   UNL     1      -3.956   6.120 -31.855  1.00  0.00    -0.273 OA
BRANCH  21  24
HETATM   24  C   UNL     1      -1.181   5.423 -31.858  1.00  0.00     0.150 C 
BRANCH  24  25
HETATM   25  C   UNL     1      -0.184   5.184 -30.700  1.00  0.00     0.254 C 
BRANCH  25  26
HETATM   26  N   UNL     1      -0.658   5.746 -29.382  1.00  0.00    -0.066 N 
HETATM   27  H   UNL     1      -1.343   5.053 -29.010  1.00  0.00     0.280 HD
HETATM   28  C   UNL     1       0.418   5.884 -28.318  1.00  0.00     0.261 C 
HETATM   29  C   UNL     1      -0.207   6.399 -27.017  1.00  0.00     0.195 C 
HETATM   30  O   UNL     1      -0.878   7.646 -27.231  1.00  0.00    -0.388 OA
HETATM   31  C   UNL     1      -1.950   7.504 -28.170  1.00  0.00     0.195 C 
HETATM   32  C   UNL     1      -1.425   7.048 -29.536  1.00  0.00     0.261 C 
ENDBRANCH  25  26
ENDBRANCH  24  25
ENDBRANCH  21  24
ENDBRANCH  16  20
ENDBRANCH   2  14
BRANCH   1  33
HETATM   33  C   UNL     1      -6.607   0.095 -33.364  1.00  0.00    -0.023 A 
HETATM   34  C   UNL     1      -6.607   0.854 -34.543  1.00  0.00     0.012 A 
HETATM   35  C   UNL     1      -7.777   1.478 -34.979  1.00  0.00     0.001 A 
HETATM   36  C   UNL     1      -8.953   1.349 -34.243  1.00  0.00     0.000 A 
HETATM   37  C   UNL     1      -8.964   0.594 -33.071  1.00  0.00     0.001 A 
HETATM   38  C   UNL     1      -7.797  -0.036 -32.634  1.00  0.00     0.012 A 
ENDBRANCH   1  33
TORSDOF 6
ENDMDL
MODEL 2
REMARK VINA RESULT:      -9.8      1.285      1.910
REMARK  6 active torsions:
REMARK  status: ('A' for Active; 'I' for Inactive)
REMARK    1  A    between atoms: C_4  and  C_5 
REMARK    2  A    between atoms: C_6  and  N_7 
REMARK    3  A    between atoms: C_9  and  C_10 
REMARK       I    between atoms: C_10  and  N_11 
REMARK    4  A    between atoms: N_11  and  C_12 
REMARK    5  A    between atoms: C_12  and  C_13 
REMARK    6  A    between atoms: C_13  and  N_14 
ROOT
HETATM    1  C   UNL     1      -5.952  -0.265 -32.948  1.00  0.00     0.019 A 
HETATM    2  C   UNL     1      -5.146   0.516 -32.176  1.00  0.00     0.111 A 
HETATM    3  C   UNL     1      -3.723   0.034 -31.884  1.00  0.00     0.273 A 
HETATM    4  O   UNL     1      -2.915   0.703 -31.238  1.00  0.00    -0.266 OA
HETATM    5  N   UNL     1      -3.348  -1.185 -32.364  1.00  0.00    -0.321 N 
HETATM    6  C   UNL     1      -4.168  -2.005 -33.130  1.00  0.00     0.046 A 
HETATM    7  C   UNL     1      -5.460  -1.577 -33.452  1.00  0.00     0.006 A 
HETATM    8  C   UNL     1      -3.676  -3.238 -33.568  1.00  0.00     0.032 A 
HETATM    9  C   UNL     1      -4.483  -4.068 -34.344  1.00  0.00     0.026 A 
HETATM   10  C   UNL     1      -5.768  -3.654 -34.681  1.00  0.00     0.035 A 
HETATM   11 CL   UNL     1      -6.766  -4.674 -35.642  1.00  0.00    -0.084 Cl
HETATM   12  C   UNL     1      -6.256  -2.420 -34.245  1.00  0.00     0.038 A 
HETATM   13  H   UNL     1      -2.407  -1.474 -32.132  1.00  0.00     0.169 HD
ENDROOT
BRANCH   2  14
HETATM   14  N   UNL     1      -5.553   1.750 -31.596  1.00  0.00    -0.375 N 
HETATM   15  C   UNL     1      -4.937   3.014 -32.039  1.00  0.00     0.137 C 
HETATM   16  C   UNL     1      -5.878   4.188 -31.748  1.00  0.00     0.096 C 
HETATM   17  C   UNL     1      -6.246   4.226 -30.259  1.00  0.00     0.017 C 
HETATM   18  C   UNL     1      -6.794   2.877 -29.801  1.00  0.00     0.021 C 
HETATM   19  C   UNL     1      -5.822   1.750 -30.140  1.00  0.00     0.123 C 
BRANCH  16  20
HETATM   20  C   UNL     1      -5.176   5.467 -32.175  1.00  0.00     0.223 C 
HETATM   21  N   UNL     1      -4.210   5.917 -31.305  1.00  0.00    -0.359 N 
HETATM   22  H   UNL     1      -4.114   5.408 -30.429  1.00  0.00     0.162 HD
HETATM   23  O   UNL     1      -5.456   6.088 -33.199  1.00  0.00    -0.273 OA
BRANCH  21  24
HETATM   24  C   UNL     1      -3.603   7.245 -31.352  1.00  0.00     0.150 C 
BRANCH  24  25
HETATM   25  C   UNL     1      -2.295   7.387 -32.165  1.00  0.00     0.254 C 
BRANCH  25  26
HETATM   26  N   UNL     1      -1.064   7.006 -31.379  1.00  0.00    -0.066 N 
HETATM   27  H   UNL     1      -0.295   7.601 -31.756  1.00  0.00     0.280 HD
HETATM   28  C   UNL     1      -1.134   7.303 -29.891  1.00  0.00     0.261 C 
HETATM   29  C   UNL     1       0.197   6.933 -29.228  1.00  0.00     0.195 C 
HETATM   30  O   UNL     1       0.519   5.557 -29.461  1.00  0.00    -0.388 OA
HETATM   31  C   UNL     1       0.671   5.288 -30.860  1.00  0.00     0.195 C 
HETATM   32  C   UNL     1      -0.633   5.569 -31.616  1.00  0.00     0.261 C 
ENDBRANCH  25  26
ENDBRANCH  24  25
ENDBRANCH  21  24
ENDBRANCH  16  20
ENDBRANCH   2  14
BRANCH   1  33
HETATM   33  C   UNL     1      -7.309   0.252 -33.279  1.00  0.00    -0.023 A 
HETATM   34  C   UNL     1      -8.389  -0.007 -32.424  1.00  0.00     0.012 A 
HETATM   35  C   UNL     1      -9.655   0.507 -32.713  1.00  0.00     0.001 A 
HETATM   36  C   UNL     1      -9.849   1.282 -33.854  1.00  0.00     0.000 A 
HETATM   37  C   UNL     1      -8.780   1.548 -34.709  1.00  0.00     0.001 A 
HETATM   38  C   UNL     1      -7.512   1.039 -34.421  1.00  0.00     0.012 A 
ENDBRANCH   1  33
TORSDOF 6
ENDMDL
MODEL 3
REMARK VINA RESULT:      -8.9      2.106      2.648
REMARK  6 active torsions:
REMARK  status: ('A' for Active; 'I' for Inactive)
REMARK    1  A    between atoms: C_4  and  C_5 
REMARK    2  A    between atoms: C_6  and  N_7 
REMARK    3  A    between atoms: C_9  and  C_10 
REMARK       I    between atoms: C_10  and  N_11 
REMARK    4  A    between atoms: N_11  and  C_12 
REMARK    5  A    between atoms: C_12  and  C_13 
REMARK    6  A    between atoms: C_13  and  N_14 
ROOT
HETATM    1  C   UNL     1      -5.402  -0.571 -32.890  1.00  0.00     0.019 A 
HETATM    2  C   UNL     1      -4.557   0.075 -32.040  1.00  0.00     0.111 A 
HETATM    3  C   UNL     1      -3.245  -0.611 -31.650  1.00  0.00     0.273 A 
HETATM    4  O   UNL     1      -2.405  -0.074 -30.927  1.00  0.00    -0.266 OA
HETATM    5  N   UNL     1      -3.012  -1.866 -32.128  1.00  0.00    -0.321 N 
HETATM    6  C   UNL     1      -3.877  -2.549 -32.974  1.00  0.00     0.046 A 
HETATM    7  C   UNL     1      -5.065  -1.934 -33.385  1.00  0.00     0.006 A 
HETATM    8  C   UNL     1      -3.535  -3.835 -33.401  1.00  0.00     0.032 A 
HETATM    9  C   UNL     1      -4.387  -4.529 -34.256  1.00  0.00     0.026 A 
HETATM   10  C   UNL     1      -5.568  -3.929 -34.683  1.00  0.00     0.035 A 
HETATM   11 CL   UNL     1      -6.622  -4.783 -35.742  1.00  0.00    -0.084 Cl
HETATM   12  C   UNL     1      -5.907  -2.643 -34.258  1.00  0.00     0.038 A 
HETATM   13  H   UNL     1      -2.144  -2.291 -31.830  1.00  0.00     0.169 HD
ENDROOT
BRANCH   2  14
HETATM   14  N   UNL     1      -4.828   1.349 -31.465  1.00  0.00    -0.375 N 
HETATM   15  C   UNL     1      -3.802   2.408 -31.496  1.00  0.00     0.137 C 
HETATM   16  C   UNL     1      -4.463   3.785 -31.377  1.00  0.00     0.096 C 
HETATM   17  C   UNL     1      -5.322   3.861 -30.107  1.00  0.00     0.017 C 
HETATM   18  C   UNL     1      -6.312   2.701 -30.052  1.00  0.00     0.021 C 
HETATM   19  C   UNL     1      -5.594   1.363 -30.199  1.00  0.00     0.123 C 
BRANCH  16  20
HETATM   20  C   UNL     1      -3.363   4.833 -31.362  1.00  0.00     0.223 C 
HETATM   21  N   UNL     1      -3.531   5.838 -30.438  1.00  0.00    -0.359 N 
HETATM   22  H   UNL     1      -4.404   5.834 -29.915  1.00  0.00     0.162 HD
HETATM   23  O   UNL     1      -2.402   4.822 -32.131  1.00  0.00    -0.273 OA
BRANCH  21  24
HETATM   24  C   UNL     1      -2.771   7.085 -30.420  1.00  0.00     0.150 C 
BRANCH  24  25
HETATM   25  C   UNL     1      -3.258   8.213 -31.360  1.00  0.00     0.254 C 
BRANCH  25  26
HETATM   26  N   UNL     1      -4.149   9.217 -30.670  1.00  0.00    -0.066 N 
HETATM   27  H   UNL     1      -3.852  10.150 -31.029  1.00  0.00     0.280 HD
HETATM   28  C   UNL     1      -5.628   9.093 -30.995  1.00  0.00     0.261 C 
HETATM   29  C   UNL     1      -6.406  10.208 -30.288  1.00  0.00     0.195 C 
HETATM   30  O   UNL     1      -6.189  10.165 -28.873  1.00  0.00    -0.388 OA
HETATM   31  C   UNL     1      -4.806  10.366 -28.554  1.00  0.00     0.195 C 
HETATM   32  C   UNL     1      -3.936   9.263 -29.167  1.00  0.00     0.261 C 
ENDBRANCH  25  26
ENDBRANCH  24  25
ENDBRANCH  21  24
ENDBRANCH  16  20
ENDBRANCH   2  14
BRANCH   1  33
HETATM   33  C   UNL     1      -6.639   0.142 -33.314  1.00  0.00    -0.023 A 
HETATM   34  C   UNL     1      -6.605   1.029 -34.399  1.00  0.00     0.012 A 
HETATM   35  C   UNL     1      -7.771   1.671 -34.820  1.00  0.00     0.001 A 
HETATM   36  C   UNL     1      -8.976   1.432 -34.163  1.00  0.00     0.000 A 
HETATM   37  C   UNL     1      -9.021   0.549 -33.085  1.00  0.00     0.001 A 
HETATM   38  C   UNL     1      -7.857  -0.099 -32.663  1.00  0.00     0.012 A 
ENDBRANCH   1  33
TORSDOF 6
ENDMDL
MODEL 4
REMARK VINA RESULT:      -8.8      4.030      9.975
REMARK  6 active torsions:
REMARK  status: ('A' for Active; 'I' for Inactive)
REMARK    1  A    between atoms: C_4  and  C_5 
REMARK    2  A    between atoms: C_6  and  N_7 
REMARK    3  A    between atoms: C_9  and  C_10 
REMARK       I    between atoms: C_10  and  N_11 
REMARK    4  A    between atoms: N_11  and  C_12 
REMARK    5  A    between atoms: C_12  and  C_13 
REMARK    6  A    between atoms: C_13  and  N_14 
ROOT
HETATM    1  C   UNL     1      -1.289   7.151 -29.435  1.00  0.00     0.019 A 
HETATM    2  C   UNL     1      -0.891   6.039 -30.114  1.00  0.00     0.111 A 
HETATM    3  C   UNL     1       0.331   5.270 -29.605  1.00  0.00     0.273 A 
HETATM    4  O   UNL     1       0.726   4.228 -30.131  1.00  0.00    -0.266 OA
HETATM    5  N   UNL     1       1.000   5.769 -28.528  1.00  0.00    -0.321 N 
HETATM    6  C   UNL     1       0.622   6.916 -27.841  1.00  0.00     0.046 A 
HETATM    7  C   UNL     1      -0.515   7.621 -28.253  1.00  0.00     0.006 A 
HETATM    8  C   UNL     1       1.386   7.337 -26.749  1.00  0.00     0.032 A 
HETATM    9  C   UNL     1       1.015   8.480 -26.045  1.00  0.00     0.026 A 
HETATM   10  C   UNL     1      -0.119   9.188 -26.435  1.00  0.00     0.035 A 
HETATM   11 CL   UNL     1      -0.582  10.599 -25.566  1.00  0.00    -0.084 Cl
HETATM   12  C   UNL     1      -0.882   8.764 -27.525  1.00  0.00     0.038 A 
HETATM   13  H   UNL     1       1.813   5.242 -28.237  1.00  0.00     0.169 HD
ENDROOT
BRANCH   2  14
HETATM   14  N   UNL     1      -1.528   5.555 -31.292  1.00  0.00    -0.375 N 
HETATM   15  C   UNL     1      -2.336   4.323 -31.242  1.00  0.00     0.137 C 
HETATM   16  C   UNL     1      -3.353   4.315 -32.388  1.00  0.00     0.096 C 
HETATM   17  C   UNL     1      -2.643   4.476 -33.738  1.00  0.00     0.017 C 
HETATM   18  C   UNL     1      -1.740   5.706 -33.733  1.00  0.00     0.021 C 
HETATM   19  C   UNL     1      -0.768   5.665 -32.557  1.00  0.00     0.123 C 
BRANCH  16  20
HETATM   20  C   UNL     1      -4.121   3.006 -32.322  1.00  0.00     0.223 C 
HETATM   21  N   UNL     1      -3.514   2.013 -31.588  1.00  0.00    -0.359 N 
HETATM   22  H   UNL     1      -2.581   2.215 -31.234  1.00  0.00     0.162 HD
HETATM   23  O   UNL     1      -5.191   2.813 -32.899  1.00  0.00    -0.273 OA
BRANCH  21  24
HETATM   24  C   UNL     1      -3.908   0.607 -31.606  1.00  0.00     0.150 C 
BRANCH  24  25
HETATM   25  C   UNL     1      -3.455  -0.230 -32.825  1.00  0.00     0.254 C 
BRANCH  25  26
HETATM   26  N   UNL     1      -4.607  -0.809 -33.610  1.00  0.00    -0.066 N 
HETATM   27  H   UNL     1      -4.657  -0.250 -34.489  1.00  0.00     0.280 HD
HETATM   28  C   UNL     1      -4.429  -2.255 -34.041  1.00  0.00     0.261 C 
HETATM   29  C   UNL     1      -5.633  -2.693 -34.882  1.00  0.00     0.195 C 
HETATM   30  O   UNL     1      -6.854  -2.524 -34.154  1.00  0.00    -0.388 OA
HETATM   31  C   UNL     1      -7.071  -1.148 -33.817  1.00  0.00     0.195 C 
HETATM   32  C   UNL     1      -5.947  -0.620 -32.919  1.00  0.00     0.261 C 
ENDBRANCH  25  26
ENDBRANCH  24  25
ENDBRANCH  21  24
ENDBRANCH  16  20
ENDBRANCH   2  14
BRANCH   1  33
HETATM   33  C   UNL     1      -2.520   7.845 -29.903  1.00  0.00    -0.023 A 
HETATM   34  C   UNL     1      -3.782   7.395 -29.492  1.00  0.00     0.012 A 
HETATM   35  C   UNL     1      -4.937   8.066 -29.900  1.00  0.00     0.001 A 
HETATM   36  C   UNL     1      -4.838   9.189 -30.718  1.00  0.00     0.000 A 
HETATM   37  C   UNL     1      -3.587   9.647 -31.129  1.00  0.00     0.001 A 
HETATM   38  C   UNL     1      -2.430   8.981 -30.720  1.00  0.00     0.012 A 
ENDBRANCH   1  33
TORSDOF 6
ENDMDL
MODEL 5
REMARK VINA RESULT:      -8.7      2.899      6.016
REMARK  6 active torsions:
REMARK  status: ('A' for Active; 'I' for Inactive)
REMARK    1  A    between atoms: C_4  and  C_5 
REMARK    2  A    between atoms: C_6  and  N_7 
REMARK    3  A    between atoms: C_9  and  C_10 
REMARK       I    between atoms: C_10  and  N_11 
REMARK    4  A    between atoms: N_11  and  C_12 
REMARK    5  A    between atoms: C_12  and  C_13 
REMARK    6  A    between atoms: C_13  and  N_14 
ROOT
HETATM    1  C   UNL     1      -5.268  -0.546 -32.981  1.00  0.00     0.019 A 
HETATM    2  C   UNL     1      -4.428   0.120 -32.141  1.00  0.00     0.111 A 
HETATM    3  C   UNL     1      -3.149  -0.582 -31.678  1.00  0.00     0.273 A 
HETATM    4  O   UNL     1      -2.313  -0.032 -30.960  1.00  0.00    -0.266 OA
HETATM    5  N   UNL     1      -2.940  -1.867 -32.083  1.00  0.00    -0.321 N 
HETATM    6  C   UNL     1      -3.801  -2.568 -32.918  1.00  0.00     0.046 A 
HETATM    7  C   UNL     1      -4.958  -1.943 -33.395  1.00  0.00     0.006 A 
HETATM    8  C   UNL     1      -3.485  -3.884 -33.267  1.00  0.00     0.032 A 
HETATM    9  C   UNL     1      -4.334  -4.598 -34.110  1.00  0.00     0.026 A 
HETATM   10  C   UNL     1      -5.485  -3.988 -34.602  1.00  0.00     0.035 A 
HETATM   11 CL   UNL     1      -6.534  -4.866 -35.645  1.00  0.00    -0.084 Cl
HETATM   12  C   UNL     1      -5.796  -2.672 -34.253  1.00  0.00     0.038 A 
HETATM   13  H   UNL     1      -2.093  -2.300 -31.739  1.00  0.00     0.169 HD
ENDROOT
BRANCH   2  14
HETATM   14  N   UNL     1      -4.677   1.429 -31.640  1.00  0.00    -0.375 N 
HETATM   15  C   UNL     1      -6.022   1.794 -31.159  1.00  0.00     0.137 C 
HETATM   16  C   UNL     1      -5.928   2.964 -30.174  1.00  0.00     0.096 C 
HETATM   17  C   UNL     1      -5.213   4.156 -30.822  1.00  0.00     0.017 C 
HETATM   18  C   UNL     1      -3.864   3.733 -31.396  1.00  0.00     0.021 C 
HETATM   19  C   UNL     1      -4.023   2.552 -32.349  1.00  0.00     0.123 C 
BRANCH  16  20
HETATM   20  C   UNL     1      -7.340   3.332 -29.750  1.00  0.00     0.223 C 
HETATM   21  N   UNL     1      -8.340   2.705 -30.457  1.00  0.00    -0.359 N 
HETATM   22  H   UNL     1      -8.049   2.127 -31.242  1.00  0.00     0.162 HD
HETATM   23  O   UNL     1      -7.595   4.150 -28.867  1.00  0.00    -0.273 OA
BRANCH  21  24
HETATM   24  C   UNL     1      -9.748   3.094 -30.428  1.00  0.00     0.150 C 
BRANCH  24  25
HETATM   25  C   UNL     1     -10.159   4.296 -31.309  1.00  0.00     0.254 C 
BRANCH  25  26
HETATM   26  N   UNL     1     -10.597   3.893 -32.696  1.00  0.00    -0.066 N 
HETATM   27  H   UNL     1      -9.914   3.169 -33.009  1.00  0.00     0.280 HD
HETATM   28  C   UNL     1     -11.966   3.238 -32.772  1.00  0.00     0.261 C 
HETATM   29  C   UNL     1     -12.257   2.819 -34.217  1.00  0.00     0.195 C 
HETATM   30  O   UNL     1     -12.179   3.944 -35.101  1.00  0.00    -0.388 OA
HETATM   31  C   UNL     1     -10.865   4.515 -35.099  1.00  0.00     0.195 C 
HETATM   32  C   UNL     1     -10.493   5.026 -33.702  1.00  0.00     0.261 C 
ENDBRANCH  25  26
ENDBRANCH  24  25
ENDBRANCH  21  24
ENDBRANCH  16  20
ENDBRANCH   2  14
BRANCH   1  33
HETATM   33  C   UNL     1      -6.472   0.178 -33.476  1.00  0.00    -0.023 A 
HETATM   34  C   UNL     1      -7.730  -0.080 -32.914  1.00  0.00     0.012 A 
HETATM   35  C   UNL     1      -8.854   0.623 -33.351  1.00  0.00     0.001 A 
HETATM   36  C   UNL     1      -8.729   1.587 -34.351  1.00  0.00     0.000 A 
HETATM   37  C   UNL     1      -7.481   1.852 -34.914  1.00  0.00     0.001 A 
HETATM   38  C   UNL     1      -6.354   1.154 -34.476  1.00  0.00     0.012 A 
ENDBRANCH   1  33
TORSDOF 6
ENDMDL
MODEL 6
REMARK VINA RESULT:      -8.7      3.827      9.239
REMARK  6 active torsions:
REMARK  status: ('A' for Active; 'I' for Inactive)
REMARK    1  A    between atoms: C_4  and  C_5 
REMARK    2  A    between atoms: C_6  and  N_7 
REMARK    3  A    between atoms: C_9  and  C_10 
REMARK       I    between atoms: C_10  and  N_11 
REMARK    4  A    between atoms: N_11  and  C_12 
REMARK    5  A    between atoms: C_12  and  C_13 
REMARK    6  A    between atoms: C_13  and  N_14 
ROOT
HETATM    1  C   UNL     1      -3.471   5.943 -30.744  1.00  0.00     0.019 A 
HETATM    2  C   UNL     1      -3.550   5.132 -31.836  1.00  0.00     0.111 A 
HETATM    3  C   UNL     1      -2.255   4.732 -32.546  1.00  0.00     0.273 A 
HETATM    4  O   UNL     1      -2.236   3.963 -33.508  1.00  0.00    -0.266 OA
HETATM    5  N   UNL     1      -1.083   5.256 -32.086  1.00  0.00    -0.321 N 
HETATM    6  C   UNL     1      -0.989   6.105 -30.990  1.00  0.00     0.046 A 
HETATM    7  C   UNL     1      -2.149   6.458 -30.291  1.00  0.00     0.006 A 
HETATM    8  C   UNL     1       0.268   6.583 -30.608  1.00  0.00     0.032 A 
HETATM    9  C   UNL     1       0.380   7.429 -29.507  1.00  0.00     0.026 A 
HETATM   10  C   UNL     1      -0.762   7.782 -28.794  1.00  0.00     0.035 A 
HETATM   11 CL   UNL     1      -0.627   8.824 -27.431  1.00  0.00    -0.084 Cl
HETATM   12  C   UNL     1      -2.016   7.301 -29.176  1.00  0.00     0.038 A 
HETATM   13  H   UNL     1      -0.254   4.982 -32.595  1.00  0.00     0.169 HD
ENDROOT
BRANCH   2  14
HETATM   14  N   UNL     1      -4.774   4.648 -32.379  1.00  0.00    -0.375 N 
HETATM   15  C   UNL     1      -5.048   3.200 -32.410  1.00  0.00     0.137 C 
HETATM   16  C   UNL     1      -6.559   2.951 -32.471  1.00  0.00     0.096 C 
HETATM   17  C   UNL     1      -7.174   3.672 -33.677  1.00  0.00     0.017 C 
HETATM   18  C   UNL     1      -6.798   5.152 -33.674  1.00  0.00     0.021 C 
HETATM   19  C   UNL     1      -5.285   5.330 -33.589  1.00  0.00     0.123 C 
BRANCH  16  20
HETATM   20  C   UNL     1      -6.783   1.451 -32.552  1.00  0.00     0.223 C 
HETATM   21  N   UNL     1      -5.639   0.689 -32.491  1.00  0.00    -0.359 N 
HETATM   22  H   UNL     1      -4.755   1.195 -32.483  1.00  0.00     0.162 HD
HETATM   23  O   UNL     1      -7.890   0.934 -32.695  1.00  0.00    -0.273 OA
BRANCH  21  24
HETATM   24  C   UNL     1      -5.567  -0.732 -32.823  1.00  0.00     0.150 C 
BRANCH  24  25
HETATM   25  C   UNL     1      -4.340  -1.197 -33.641  1.00  0.00     0.254 C 
BRANCH  25  26
HETATM   26  N   UNL     1      -4.516  -2.567 -34.248  1.00  0.00    -0.066 N 
HETATM   27  H   UNL     1      -3.997  -2.544 -35.152  1.00  0.00     0.280 HD
HETATM   28  C   UNL     1      -3.910  -3.707 -33.446  1.00  0.00     0.261 C 
HETATM   29  C   UNL     1      -4.099  -5.026 -34.202  1.00  0.00     0.195 C 
HETATM   30  O   UNL     1      -5.485  -5.270 -34.468  1.00  0.00    -0.388 OA
HETATM   31  C   UNL     1      -6.043  -4.241 -35.295  1.00  0.00     0.195 C 
HETATM   32  C   UNL     1      -5.960  -2.876 -34.603  1.00  0.00     0.261 C 
ENDBRANCH  25  26
ENDBRANCH  24  25
ENDBRANCH  21  24
ENDBRANCH  16  20
ENDBRANCH   2  14
BRANCH   1  33
HETATM   33  C   UNL     1      -4.735   6.264 -30.025  1.00  0.00    -0.023 A 
HETATM   34  C   UNL     1      -5.441   7.435 -30.332  1.00  0.00     0.012 A 
HETATM   35  C   UNL     1      -6.645   7.721 -29.685  1.00  0.00     0.001 A 
HETATM   36  C   UNL     1      -7.150   6.841 -28.729  1.00  0.00     0.000 A 
HETATM   37  C   UNL     1      -6.455   5.673 -28.419  1.00  0.00     0.001 A 
HETATM   38  C   UNL     1      -5.253   5.381 -29.068  1.00  0.00     0.012 A 
ENDBRANCH   1  33
TORSDOF 6
ENDMDL
MODEL 7
REMARK VINA RESULT:      -8.6      3.109      5.128
REMARK  6 active torsions:
REMARK  status: ('A' for Active; 'I' for Inactive)
REMARK    1  A    between atoms: C_4  and  C_5 
REMARK    2  A    between atoms: C_6  and  N_7 
REMARK    3  A    between atoms: C_9  and  C_10 
REMARK       I    between atoms: C_10  and  N_11 
REMARK    4  A    between atoms: N_11  and  C_12 
REMARK    5  A    between atoms: C_12  and  C_13 
REMARK    6  A    between atoms: C_13  and  N_14 
ROOT
HETATM    1  C   UNL     1      -4.632   3.822 -31.688  1.00  0.00     0.019 A 
HETATM    2  C   UNL     1      -4.928   4.716 -30.704  1.00  0.00     0.111 A 
HETATM    3  C   UNL     1      -5.696   4.222 -29.475  1.00  0.00     0.273 A 
HETATM    4  O   UNL     1      -5.960   4.953 -28.520  1.00  0.00    -0.266 OA
HETATM    5  N   UNL     1      -6.100   2.921 -29.452  1.00  0.00    -0.321 N 
HETATM    6  C   UNL     1      -5.829   2.004 -30.460  1.00  0.00     0.046 A 
HETATM    7  C   UNL     1      -5.092   2.410 -31.578  1.00  0.00     0.006 A 
HETATM    8  C   UNL     1      -6.295   0.693 -30.329  1.00  0.00     0.032 A 
HETATM    9  C   UNL     1      -6.024  -0.240 -31.328  1.00  0.00     0.026 A 
HETATM   10  C   UNL     1      -5.284   0.144 -32.443  1.00  0.00     0.035 A 
HETATM   11 CL   UNL     1      -4.945  -1.006 -33.677  1.00  0.00    -0.084 Cl
HETATM   12  C   UNL     1      -4.817   1.454 -32.570  1.00  0.00     0.038 A 
HETATM   13  H   UNL     1      -6.622   2.641 -28.632  1.00  0.00     0.169 HD
ENDROOT
BRANCH   2  14
HETATM   14  N   UNL     1      -4.589   6.098 -30.755  1.00  0.00    -0.375 N 
HETATM   15  C   UNL     1      -3.409   6.597 -30.025  1.00  0.00     0.137 C 
HETATM   16  C   UNL     1      -2.911   7.899 -30.659  1.00  0.00     0.096 C 
HETATM   17  C   UNL     1      -4.036   8.941 -30.702  1.00  0.00     0.017 C 
HETATM   18  C   UNL     1      -5.278   8.369 -31.379  1.00  0.00     0.021 C 
HETATM   19  C   UNL     1      -5.709   7.064 -30.716  1.00  0.00     0.123 C 
BRANCH  16  20
HETATM   20  C   UNL     1      -1.730   8.396 -29.841  1.00  0.00     0.223 C 
HETATM   21  N   UNL     1      -0.672   7.520 -29.758  1.00  0.00    -0.359 N 
HETATM   22  H   UNL     1      -0.808   6.601 -30.175  1.00  0.00     0.162 HD
HETATM   23  O   UNL     1      -1.712   9.480 -29.260  1.00  0.00    -0.273 OA
BRANCH  21  24
HETATM   24  C   UNL     1       0.439   7.646 -28.819  1.00  0.00     0.150 C 
BRANCH  24  25
HETATM   25  C   UNL     1       0.405   6.735 -27.570  1.00  0.00     0.254 C 
BRANCH  25  26
HETATM   26  N   UNL     1      -0.330   7.354 -26.405  1.00  0.00    -0.066 N 
HETATM   27  H   UNL     1       0.066   6.904 -25.551  1.00  0.00     0.280 HD
HETATM   28  C   UNL     1      -0.114   8.848 -26.230  1.00  0.00     0.261 C 
HETATM   29  C   UNL     1      -0.857   9.332 -24.980  1.00  0.00     0.195 C 
HETATM   30  O   UNL     1      -2.253   9.024 -25.062  1.00  0.00    -0.388 OA
HETATM   31  C   UNL     1      -2.467   7.609 -25.142  1.00  0.00     0.195 C 
HETATM   32  C   UNL     1      -1.813   7.026 -26.399  1.00  0.00     0.261 C 
ENDBRANCH  25  26
ENDBRANCH  24  25
ENDBRANCH  21  24
ENDBRANCH  16  20
ENDBRANCH   2  14
BRANCH   1  33
HETATM   33  C   UNL     1      -3.824   4.305 -32.842  1.00  0.00    -0.023 A 
HETATM   34  C   UNL     1      -4.459   4.805 -33.987  1.00  0.00     0.012 A 
HETATM   35  C   UNL     1      -3.704   5.291 -35.056  1.00  0.00     0.001 A 
HETATM   36  C   UNL     1      -2.312   5.281 -34.989  1.00  0.00     0.000 A 
HETATM   37  C   UNL     1      -1.671   4.788 -33.853  1.00  0.00     0.001 A 
HETATM   38  C   UNL     1      -2.423   4.305 -32.780  1.00  0.00     0.012 A 
ENDBRANCH   1  33
TORSDOF 6
ENDMDL
MODEL 8
REMARK VINA RESULT:      -8.4      4.527      9.744
REMARK  6 active torsions:
REMARK  status: ('A' for Active; 'I' for Inactive)
REMARK    1  A    between atoms: C_4  and  C_5 
REMARK    2  A    between atoms: C_6  and  N_7 
REMARK    3  A    between atoms: C_9  and  C_10 
REMARK       I    between atoms: C_10  and  N_11 
REMARK    4  A    between atoms: N_11  and  C_12 
REMARK    5  A    between atoms: C_12  and  C_13 
REMARK    6  A    between atoms: C_13  and  N_14 
ROOT
HETATM    1  C   UNL     1      -4.353   5.250 -31.386  1.00  0.00     0.019 A 
HETATM    2  C   UNL     1      -5.043   4.125 -31.049  1.00  0.00     0.111 A 
HETATM    3  C   UNL     1      -5.965   4.171 -29.828  1.00  0.00     0.273 A 
HETATM    4  O   UNL     1      -6.660   3.214 -29.486  1.00  0.00    -0.266 OA
HETATM    5  N   UNL     1      -6.007   5.322 -29.099  1.00  0.00    -0.321 N 
HETATM    6  C   UNL     1      -5.289   6.469 -29.415  1.00  0.00     0.046 A 
HETATM    7  C   UNL     1      -4.469   6.476 -30.549  1.00  0.00     0.006 A 
HETATM    8  C   UNL     1      -5.409   7.592 -28.593  1.00  0.00     0.032 A 
HETATM    9  C   UNL     1      -4.702   8.753 -28.901  1.00  0.00     0.026 A 
HETATM   10  C   UNL     1      -3.889   8.781 -30.031  1.00  0.00     0.035 A 
HETATM   11 CL   UNL     1      -3.017  10.214 -30.416  1.00  0.00    -0.084 Cl
HETATM   12  C   UNL     1      -3.773   7.658 -30.852  1.00  0.00     0.038 A 
HETATM   13  H   UNL     1      -6.613   5.303 -28.290  1.00  0.00     0.169 HD
ENDROOT
BRANCH   2  14
HETATM   14  N   UNL     1      -4.942   2.890 -31.750  1.00  0.00    -0.375 N 
HETATM   15  C   UNL     1      -6.108   2.354 -32.475  1.00  0.00     0.137 C 
HETATM   16  C   UNL     1      -5.647   1.398 -33.580  1.00  0.00     0.096 C 
HETATM   17  C   UNL     1      -4.777   0.279 -32.994  1.00  0.00     0.017 C 
HETATM   18  C   UNL     1      -3.630   0.858 -32.170  1.00  0.00     0.021 C 
HETATM   19  C   UNL     1      -4.154   1.817 -31.105  1.00  0.00     0.123 C 
BRANCH  16  20
HETATM   20  C   UNL     1      -6.885   0.837 -34.259  1.00  0.00     0.223 C 
HETATM   21  N   UNL     1      -8.073   1.127 -33.631  1.00  0.00    -0.359 N 
HETATM   22  H   UNL     1      -8.010   1.611 -32.737  1.00  0.00     0.162 HD
HETATM   23  O   UNL     1      -6.849   0.145 -35.276  1.00  0.00    -0.273 OA
BRANCH  21  24
HETATM   24  C   UNL     1      -9.349   0.479 -33.925  1.00  0.00     0.150 C 
BRANCH  24  25
HETATM   25  C   UNL     1     -10.423   0.514 -32.813  1.00  0.00     0.254 C 
BRANCH  25  26
HETATM   26  N   UNL     1     -11.755   1.041 -33.290  1.00  0.00    -0.066 N 
HETATM   27  H   UNL     1     -12.160   1.556 -32.479  1.00  0.00     0.280 HD
HETATM   28  C   UNL     1     -11.677   2.045 -34.428  1.00  0.00     0.261 C 
HETATM   29  C   UNL     1     -13.085   2.549 -34.767  1.00  0.00     0.195 C 
HETATM   30  O   UNL     1     -13.950   1.459 -35.105  1.00  0.00    -0.388 OA
HETATM   31  C   UNL     1     -14.095   0.551 -34.005  1.00  0.00     0.195 C 
HETATM   32  C   UNL     1     -12.744  -0.062 -33.620  1.00  0.00     0.261 C 
ENDBRANCH  25  26
ENDBRANCH  24  25
ENDBRANCH  21  24
ENDBRANCH  16  20
ENDBRANCH   2  14
BRANCH   1  33
HETATM   33  C   UNL     1      -3.516   5.208 -32.617  1.00  0.00    -0.023 A 
HETATM   34  C   UNL     1      -4.102   5.405 -33.875  1.00  0.00     0.012 A 
HETATM   35  C   UNL     1      -3.314   5.402 -35.027  1.00  0.00     0.001 A 
HETATM   36  C   UNL     1      -1.938   5.203 -34.932  1.00  0.00     0.000 A 
HETATM   37  C   UNL     1      -1.346   5.010 -33.684  1.00  0.00     0.001 A 
HETATM   38  C   UNL     1      -2.130   5.016 -32.529  1.00  0.00     0.012 A 
ENDBRANCH   1  33
TORSDOF 6
ENDMDL
MODEL 9
REMARK VINA RESULT:      -8.3      2.959      4.833
REMARK  6 active torsions:
REMARK  status: ('A' for Active; 'I' for Inactive)
REMARK    1  A    between atoms: C_4  and  C_5 
REMARK    2  A    between atoms: C_6  and  N_7 
REMARK    3  A    between atoms: C_9  and  C_10 
REMARK       I    between atoms: C_10  and  N_11 
REMARK    4  A    between atoms: N_11  and  C_12 
REMARK    5  A    between atoms: C_12  and  C_13 
REMARK    6  A    between atoms: C_13  and  N_14 
ROOT
HETATM    1  C   UNL     1      -5.282   3.445 -31.984  1.00  0.00     0.019 A 
HETATM    2  C   UNL     1      -5.933   4.282 -31.130  1.00  0.00     0.111 A 
HETATM    3  C   UNL     1      -6.842   3.673 -30.060  1.00  0.00     0.273 A 
HETATM    4  O   UNL     1      -7.427   4.356 -29.219  1.00  0.00    -0.266 OA
HETATM    5  N   UNL     1      -7.004   2.319 -30.051  1.00  0.00    -0.321 N 
HETATM    6  C   UNL     1      -6.367   1.454 -30.932  1.00  0.00     0.046 A 
HETATM    7  C   UNL     1      -5.496   1.973 -31.896  1.00  0.00     0.006 A 
HETATM    8  C   UNL     1      -6.609   0.082 -30.830  1.00  0.00     0.032 A 
HETATM    9  C   UNL     1      -5.972  -0.799 -31.701  1.00  0.00     0.026 A 
HETATM   10  C   UNL     1      -5.094  -0.301 -32.660  1.00  0.00     0.035 A 
HETATM   11 CL   UNL     1      -4.303  -1.387 -33.736  1.00  0.00    -0.084 Cl
HETATM   12  C   UNL     1      -4.852   1.070 -32.758  1.00  0.00     0.038 A 
HETATM   13  H   UNL     1      -7.628   1.960 -29.341  1.00  0.00     0.169 HD
ENDROOT
BRANCH   2  14
HETATM   14  N   UNL     1      -5.842   5.702 -31.184  1.00  0.00    -0.375 N 
HETATM   15  C   UNL     1      -4.799   6.405 -30.416  1.00  0.00     0.137 C 
HETATM   16  C   UNL     1      -4.515   7.773 -31.046  1.00  0.00     0.096 C 
HETATM   17  C   UNL     1      -5.804   8.598 -31.143  1.00  0.00     0.017 C 
HETATM   18  C   UNL     1      -6.899   7.812 -31.860  1.00  0.00     0.021 C 
HETATM   19  C   UNL     1      -7.116   6.454 -31.199  1.00  0.00     0.123 C 
BRANCH  16  20
HETATM   20  C   UNL     1      -3.474   8.475 -30.189  1.00  0.00     0.223 C 
HETATM   21  N   UNL     1      -2.753   7.648 -29.359  1.00  0.00    -0.359 N 
HETATM   22  H   UNL     1      -3.035   6.670 -29.333  1.00  0.00     0.162 HD
HETATM   23  O   UNL     1      -3.294   9.692 -30.196  1.00  0.00    -0.273 OA
BRANCH  21  24
HETATM   24  C   UNL     1      -1.908   8.106 -28.259  1.00  0.00     0.150 C 
BRANCH  24  25
HETATM   25  C   UNL     1      -0.424   8.389 -28.590  1.00  0.00     0.254 C 
BRANCH  25  26
HETATM   26  N   UNL     1       0.283   7.206 -29.206  1.00  0.00    -0.066 N 
HETATM   27  H   UNL     1       1.294   7.464 -29.231  1.00  0.00     0.280 HD
HETATM   28  C   UNL     1       0.199   5.919 -28.403  1.00  0.00     0.261 C 
HETATM   29  C   UNL     1       1.010   4.822 -29.101  1.00  0.00     0.195 C 
HETATM   30  O   UNL     1       0.548   4.619 -30.442  1.00  0.00    -0.388 OA
HETATM   31  C   UNL     1       0.704   5.807 -31.229  1.00  0.00     0.195 C 
HETATM   32  C   UNL     1      -0.121   6.961 -30.649  1.00  0.00     0.261 C 
ENDBRANCH  25  26
ENDBRANCH  24  25
ENDBRANCH  21  24
ENDBRANCH  16  20
ENDBRANCH   2  14
BRANCH   1  33
HETATM   33  C   UNL     1      -4.347   4.051 -32.973  1.00  0.00    -0.023 A 
HETATM   34  C   UNL     1      -4.841   4.595 -34.167  1.00  0.00     0.012 A 
HETATM   35  C   UNL     1      -3.972   5.196 -35.079  1.00  0.00     0.001 A 
HETATM   36  C   UNL     1      -2.607   5.259 -34.805  1.00  0.00     0.000 A 
HETATM   37  C   UNL     1      -2.107   4.723 -33.619  1.00  0.00     0.001 A 
HETATM   38  C   UNL     1      -2.974   4.125 -32.702  1.00  0.00     0.012 A 
ENDBRANCH   1  33
TORSDOF 6
ENDMDL
MODEL 10
REMARK VINA RESULT:      -8.2      3.722      5.730
REMARK  6 active torsions:
REMARK  status: ('A' for Active; 'I' for Inactive)
REMARK    1  A    between atoms: C_4  and  C_5 
REMARK    2  A    between atoms: C_6  and  N_7 
REMARK    3  A    between atoms: C_9  and  C_10 
REMARK       I    between atoms: C_10  and  N_11 
REMARK    4  A    between atoms: N_11  and  C_12 
REMARK    5  A    between atoms: C_12  and  C_13 
REMARK    6  A    between atoms: C_13  and  N_14 
ROOT
HETATM    1  C   UNL     1      -8.909   3.029 -32.678  1.00  0.00     0.019 A 
HETATM    2  C   UNL     1      -7.886   2.406 -33.327  1.00  0.00     0.111 A 
HETATM    3  C   UNL     1      -8.224   1.422 -34.450  1.00  0.00     0.273 A 
HETATM    4  O   UNL     1      -7.358   0.856 -35.119  1.00  0.00    -0.266 OA
HETATM    5  N   UNL     1      -9.538   1.170 -34.708  1.00  0.00    -0.321 N 
HETATM    6  C   UNL     1     -10.592   1.777 -34.036  1.00  0.00     0.046 A 
HETATM    7  C   UNL     1     -10.320   2.714 -33.033  1.00  0.00     0.006 A 
HETATM    8  C   UNL     1     -11.903   1.440 -34.385  1.00  0.00     0.032 A 
HETATM    9  C   UNL     1     -12.971   2.046 -33.726  1.00  0.00     0.026 A 
HETATM   10  C   UNL     1     -12.719   2.987 -32.732  1.00  0.00     0.035 A 
HETATM   11 CL   UNL     1     -14.035   3.740 -31.919  1.00  0.00    -0.084 Cl
HETATM   12  C   UNL     1     -11.408   3.325 -32.388  1.00  0.00     0.038 A 
HETATM   13  H   UNL     1      -9.717   0.499 -35.443  1.00  0.00     0.169 HD
ENDROOT
BRANCH   2  14
HETATM   14  N   UNL     1      -6.511   2.594 -33.010  1.00  0.00    -0.375 N 
HETATM   15  C   UNL     1      -5.677   3.487 -33.836  1.00  0.00     0.137 C 
HETATM   16  C   UNL     1      -4.476   3.985 -33.024  1.00  0.00     0.096 C 
HETATM   17  C   UNL     1      -3.671   2.801 -32.474  1.00  0.00     0.017 C 
HETATM   18  C   UNL     1      -4.574   1.842 -31.703  1.00  0.00     0.021 C 
HETATM   19  C   UNL     1      -5.759   1.402 -32.557  1.00  0.00     0.123 C 
BRANCH  16  20
HETATM   20  C   UNL     1      -3.626   4.856 -33.934  1.00  0.00     0.223 C 
HETATM   21  N   UNL     1      -2.268   4.723 -33.760  1.00  0.00    -0.359 N 
HETATM   22  H   UNL     1      -1.963   4.126 -32.994  1.00  0.00     0.162 HD
HETATM   23  O   UNL     1      -4.094   5.651 -34.747  1.00  0.00    -0.273 OA
BRANCH  21  24
HETATM   24  C   UNL     1      -1.267   5.636 -34.306  1.00  0.00     0.150 C 
BRANCH  24  25
HETATM   25  C   UNL     1      -0.984   6.925 -33.501  1.00  0.00     0.254 C 
BRANCH  25  26
HETATM   26  N   UNL     1      -1.015   6.711 -32.007  1.00  0.00    -0.066 N 
HETATM   27  H   UNL     1      -1.332   5.727 -31.870  1.00  0.00     0.280 HD
HETATM   28  C   UNL     1       0.333   6.819 -31.315  1.00  0.00     0.261 C 
HETATM   29  C   UNL     1       0.171   6.515 -29.821  1.00  0.00     0.195 C 
HETATM   30  O   UNL     1      -0.784   7.397 -29.221  1.00  0.00    -0.388 OA
HETATM   31  C   UNL     1      -2.080   7.240 -29.812  1.00  0.00     0.195 C 
HETATM   32  C   UNL     1      -2.045   7.581 -31.306  1.00  0.00     0.261 C 
ENDBRANCH  25  26
ENDBRANCH  24  25
ENDBRANCH  21  24
ENDBRANCH  16  20
ENDBRANCH   2  14
BRANCH   1  33
HETATM   33  C   UNL     1      -8.559   4.035 -31.637  1.00  0.00    -0.023 A 
HETATM   34  C   UNL     1      -8.265   3.623 -30.330  1.00  0.00     0.012 A 
HETATM   35  C   UNL     1      -7.902   4.560 -29.361  1.00  0.00     0.001 A 
HETATM   36  C   UNL     1      -7.830   5.912 -29.690  1.00  0.00     0.000 A 
HETATM   37  C   UNL     1      -8.119   6.331 -30.989  1.00  0.00     0.001 A 
HETATM   38  C   UNL     1      -8.478   5.396 -31.962  1.00  0.00     0.012 A 
ENDBRANCH   1  33
TORSDOF 6
ENDMDL
