MODEL 1
REMARK VINA RESULT:      -9.5      0.000      0.000
REMARK  8 active torsions:
REMARK  status: ('A' for Active; 'I' for Inactive)
REMARK    1  A    between atoms: C_2  and  C_3 
REMARK    2  A    between atoms: C_6  and  C_7 
REMARK    3  A    between atoms: C_11  and  C_12 
REMARK    4  A    between atoms: C_12  and  C_13 
REMARK    5  A    between atoms: C_13  and  C_14 
REMARK    6  A    between atoms: C_14  and  O_15 
REMARK    7  A    between atoms: C_20  and  C_21 
REMARK       I    between atoms: C_21  and  N_22 
REMARK    8  A    between atoms: N_22  and  C_23 
ROOT
HETATM    1  C   UNL     1      -7.029   2.763 -33.461  1.00  0.00     0.202 C 
HETATM    2  N   UNL     1      -5.843   3.627 -33.507  1.00  0.00    -0.083 N 
HETATM    3  C   UNL     1      -5.349   4.300 -32.423  1.00  0.00     0.726 A 
HETATM    4  N   UNL     1      -4.340   5.045 -32.794  1.00  0.00    -0.046 NA
HETATM    5  C   UNL     1      -4.275   4.824 -34.150  1.00  0.00     0.166 A 
HETATM    6  N   UNL     1      -5.189   3.970 -34.636  1.00  0.00    -0.140 NA
HETATM    7  N   UNL     1      -5.959   4.174 -31.227  1.00  0.00    -0.192 N 
HETATM    8  C   UNL     1      -7.203   3.567 -31.078  1.00  0.00     0.037 C 
HETATM    9  C   UNL     1      -7.897   3.837 -29.766  1.00  0.00     0.070 C 
HETATM   10  C   UNL     1      -7.737   2.868 -32.112  1.00  0.00     0.062 C 
HETATM   11  H   UNL     1      -5.643   4.784 -30.477  1.00  0.00     0.184 HD
ENDROOT
BRANCH  10  12
HETATM   12  C   UNL     1      -9.099   2.264 -32.109  1.00  0.00     0.256 C 
HETATM   13  N   UNL     1      -9.979   2.859 -32.987  1.00  0.00    -0.323 N 
HETATM   14  H   UNL     1      -9.632   3.642 -33.526  1.00  0.00     0.169 HD
HETATM   15  O   UNL     1      -9.328   1.339 -31.341  1.00  0.00    -0.267 OA
BRANCH  13  16
HETATM   16  C   UNL     1     -11.300   2.454 -33.268  1.00  0.00     0.035 A 
HETATM   17  C   UNL     1     -12.436   3.112 -32.789  1.00  0.00     0.031 A 
HETATM   18  C   UNL     1     -13.716   2.632 -33.090  1.00  0.00     0.026 A 
HETATM   19  C   UNL     1     -13.865   1.487 -33.866  1.00  0.00     0.034 A 
HETATM   20 CL   UNL     1     -15.437   0.888 -34.220  1.00  0.00    -0.084 Cl
HETATM   21  C   UNL     1     -12.743   0.823 -34.355  1.00  0.00     0.026 A 
HETATM   22  C   UNL     1     -11.465   1.311 -34.064  1.00  0.00     0.031 A 
ENDBRANCH  13  16
ENDBRANCH  10  12
BRANCH   1  23
HETATM   23  C   UNL     1      -6.656   1.325 -33.811  1.00  0.00    -0.028 A 
HETATM   24  C   UNL     1      -5.713   0.597 -33.068  1.00  0.00     0.010 A 
HETATM   25  C   UNL     1      -5.388  -0.717 -33.418  1.00  0.00     0.007 A 
HETATM   26  C   UNL     1      -5.998  -1.332 -34.519  1.00  0.00    -0.059 A 
HETATM   27  C   UNL     1      -6.954  -0.617 -35.249  1.00  0.00     0.007 A 
HETATM   28  C   UNL     1      -7.281   0.694 -34.898  1.00  0.00     0.010 A 
BRANCH  26  29
HETATM   29  C   UNL     1      -5.641  -2.744 -34.908  1.00  0.00     0.034 C 
HETATM   30  C   UNL     1      -6.813  -3.698 -34.743  1.00  0.00     0.010 C 
ENDBRANCH  26  29
ENDBRANCH   1  23
BRANCH   5  31
HETATM   31  C   UNL     1      -3.300   5.526 -35.023  1.00  0.00     0.085 C 
BRANCH  31  32
HETATM   32  C   UNL     1      -1.842   5.246 -34.670  1.00  0.00     0.034 C 
BRANCH  32  33
HETATM   33  C   UNL     1      -1.173   6.411 -33.953  1.00  0.00     0.164 C 
BRANCH  33  34
HETATM   34  O   UNL     1      -1.770   7.635 -34.369  1.00  0.00    -0.401 OA
HETATM   35  H   UNL     1      -2.597   7.417 -34.831  1.00  0.00     0.209 HD
ENDBRANCH  33  34
ENDBRANCH  32  33
ENDBRANCH  31  32
ENDBRANCH   5  31
TORSDOF 8
ENDMDL
MODEL 2
REMARK VINA RESULT:      -9.3      3.513      7.968
REMARK  8 active torsions:
REMARK  status: ('A' for Active; 'I' for Inactive)
REMARK    1  A    between atoms: C_2  and  C_3 
REMARK    2  A    between atoms: C_6  and  C_7 
REMARK    3  A    between atoms: C_11  and  C_12 
REMARK    4  A    between atoms: C_12  and  C_13 
REMARK    5  A    between atoms: C_13  and  C_14 
REMARK    6  A    between atoms: C_14  and  O_15 
REMARK    7  A    between atoms: C_20  and  C_21 
REMARK       I    between atoms: C_21  and  N_22 
REMARK    8  A    between atoms: N_22  and  C_23 
ROOT
HETATM    1  C   UNL     1      -9.116   1.691 -33.066  1.00  0.00     0.202 C 
HETATM    2  N   UNL     1     -10.475   1.488 -33.584  1.00  0.00    -0.083 N 
HETATM    3  C   UNL     1     -11.120   2.378 -34.398  1.00  0.00     0.726 A 
HETATM    4  N   UNL     1     -12.339   1.959 -34.623  1.00  0.00    -0.046 NA
HETATM    5  C   UNL     1     -12.411   0.804 -33.879  1.00  0.00     0.166 A 
HETATM    6  N   UNL     1     -11.293   0.482 -33.210  1.00  0.00    -0.140 NA
HETATM    7  N   UNL     1     -10.494   3.511 -34.773  1.00  0.00    -0.192 N 
HETATM    8  C   UNL     1      -9.300   3.936 -34.196  1.00  0.00     0.037 C 
HETATM    9  C   UNL     1      -8.938   5.378 -34.457  1.00  0.00     0.070 C 
HETATM   10  C   UNL     1      -8.604   3.092 -33.394  1.00  0.00     0.062 C 
HETATM   11  H   UNL     1     -11.047   4.204 -35.271  1.00  0.00     0.184 HD
ENDROOT
BRANCH  10  12
HETATM   12  C   UNL     1      -7.373   3.464 -32.642  1.00  0.00     0.256 C 
HETATM   13  N   UNL     1      -6.210   3.335 -33.369  1.00  0.00    -0.323 N 
HETATM   14  H   UNL     1      -6.295   2.992 -34.316  1.00  0.00     0.169 HD
HETATM   15  O   UNL     1      -7.484   3.817 -31.474  1.00  0.00    -0.267 OA
BRANCH  13  16
HETATM   16  C   UNL     1      -4.909   3.691 -32.957  1.00  0.00     0.035 A 
HETATM   17  C   UNL     1      -4.169   2.981 -32.008  1.00  0.00     0.031 A 
HETATM   18  C   UNL     1      -2.892   3.413 -31.632  1.00  0.00     0.026 A 
HETATM   19  C   UNL     1      -2.352   4.564 -32.199  1.00  0.00     0.034 A 
HETATM   20 CL   UNL     1      -0.792   5.105 -31.722  1.00  0.00    -0.084 Cl
HETATM   21  C   UNL     1      -3.075   5.280 -33.148  1.00  0.00     0.026 A 
HETATM   22  C   UNL     1      -4.346   4.839 -33.533  1.00  0.00     0.031 A 
ENDBRANCH  13  16
ENDBRANCH  10  12
BRANCH   1  23
HETATM   23  C   UNL     1      -8.182   0.596 -33.575  1.00  0.00    -0.028 A 
HETATM   24  C   UNL     1      -8.016   0.335 -34.945  1.00  0.00     0.010 A 
HETATM   25  C   UNL     1      -7.157  -0.680 -35.379  1.00  0.00     0.007 A 
HETATM   26  C   UNL     1      -6.446  -1.454 -34.454  1.00  0.00    -0.059 A 
HETATM   27  C   UNL     1      -6.592  -1.182 -33.089  1.00  0.00     0.007 A 
HETATM   28  C   UNL     1      -7.447  -0.168 -32.655  1.00  0.00     0.010 A 
BRANCH  26  29
HETATM   29  C   UNL     1      -5.529  -2.558 -34.917  1.00  0.00     0.034 C 
HETATM   30  C   UNL     1      -6.250  -3.892 -35.032  1.00  0.00     0.010 C 
ENDBRANCH  26  29
ENDBRANCH   1  23
BRANCH   5  31
HETATM   31  C   UNL     1     -13.658   0.003 -33.775  1.00  0.00     0.085 C 
BRANCH  31  32
HETATM   32  C   UNL     1     -14.913   0.758 -34.203  1.00  0.00     0.034 C 
BRANCH  32  33
HETATM   33  C   UNL     1     -15.517   1.587 -33.077  1.00  0.00     0.164 C 
BRANCH  33  34
HETATM   34  O   UNL     1     -16.844   1.968 -33.423  1.00  0.00    -0.401 OA
HETATM   35  H   UNL     1     -17.448   1.303 -33.051  1.00  0.00     0.209 HD
ENDBRANCH  33  34
ENDBRANCH  32  33
ENDBRANCH  31  32
ENDBRANCH   5  31
TORSDOF 8
ENDMDL
MODEL 3
REMARK VINA RESULT:      -8.9      1.260      1.377
REMARK  8 active torsions:
REMARK  status: ('A' for Active; 'I' for Inactive)
REMARK    1  A    between atoms: C_2  and  C_3 
REMARK    2  A    between atoms: C_6  and  C_7 
REMARK    3  A    between atoms: C_11  and  C_12 
REMARK    4  A    between atoms: C_12  and  C_13 
REMARK    5  A    between atoms: C_13  and  C_14 
REMARK    6  A    between atoms: C_14  and  O_15 
REMARK    7  A    between atoms: C_20  and  C_21 
REMARK       I    between atoms: C_21  and  N_22 
REMARK    8  A    between atoms: N_22  and  C_23 
ROOT
HETATM    1  C   UNL     1      -6.736   3.115 -33.259  1.00  0.00     0.202 C 
HETATM    2  N   UNL     1      -5.481   3.538 -32.626  1.00  0.00    -0.083 N 
HETATM    3  C   UNL     1      -5.401   4.048 -31.359  1.00  0.00     0.726 A 
HETATM    4  N   UNL     1      -4.168   4.406 -31.109  1.00  0.00    -0.046 NA
HETATM    5  C   UNL     1      -3.521   4.129 -32.291  1.00  0.00     0.166 A 
HETATM    6  N   UNL     1      -4.291   3.608 -33.258  1.00  0.00    -0.140 NA
HETATM    7  N   UNL     1      -6.521   4.171 -30.619  1.00  0.00    -0.192 N 
HETATM    8  C   UNL     1      -7.796   4.013 -31.156  1.00  0.00     0.037 C 
HETATM    9  C   UNL     1      -8.923   4.542 -30.302  1.00  0.00     0.070 C 
HETATM   10  C   UNL     1      -7.942   3.494 -32.401  1.00  0.00     0.062 C 
HETATM   11  H   UNL     1      -6.443   4.668 -29.736  1.00  0.00     0.184 HD
ENDROOT
BRANCH  10  12
HETATM   12  C   UNL     1      -9.241   3.372 -33.120  1.00  0.00     0.256 C 
HETATM   13  N   UNL     1     -10.034   2.338 -32.674  1.00  0.00    -0.323 N 
HETATM   14  H   UNL     1      -9.663   1.761 -31.931  1.00  0.00     0.169 HD
HETATM   15  O   UNL     1      -9.482   4.155 -34.031  1.00  0.00    -0.267 OA
BRANCH  13  16
HETATM   16  C   UNL     1     -11.344   2.031 -33.099  1.00  0.00     0.035 A 
HETATM   17  C   UNL     1     -12.411   2.931 -33.050  1.00  0.00     0.031 A 
HETATM   18  C   UNL     1     -13.690   2.542 -33.466  1.00  0.00     0.026 A 
HETATM   19  C   UNL     1     -13.907   1.247 -33.928  1.00  0.00     0.034 A 
HETATM   20 CL   UNL     1     -15.482   0.765 -34.421  1.00  0.00    -0.084 Cl
HETATM   21  C   UNL     1     -12.853   0.340 -33.987  1.00  0.00     0.026 A 
HETATM   22  C   UNL     1     -11.573   0.735 -33.583  1.00  0.00     0.031 A 
ENDBRANCH  13  16
ENDBRANCH  10  12
BRANCH   1  23
HETATM   23  C   UNL     1      -6.696   1.624 -33.579  1.00  0.00    -0.028 A 
HETATM   24  C   UNL     1      -6.321   0.665 -32.623  1.00  0.00     0.010 A 
HETATM   25  C   UNL     1      -6.288  -0.694 -32.950  1.00  0.00     0.007 A 
HETATM   26  C   UNL     1      -6.630  -1.125 -34.238  1.00  0.00    -0.059 A 
HETATM   27  C   UNL     1      -7.024  -0.175 -35.187  1.00  0.00     0.007 A 
HETATM   28  C   UNL     1      -7.059   1.182 -34.861  1.00  0.00     0.010 A 
BRANCH  26  29
HETATM   29  C   UNL     1      -6.583  -2.588 -34.599  1.00  0.00     0.034 C 
HETATM   30  C   UNL     1      -5.158  -3.117 -34.662  1.00  0.00     0.010 C 
ENDBRANCH  26  29
ENDBRANCH   1  23
BRANCH   5  31
HETATM   31  C   UNL     1      -2.083   4.441 -32.501  1.00  0.00     0.085 C 
BRANCH  31  32
HETATM   32  C   UNL     1      -1.825   5.862 -32.991  1.00  0.00     0.034 C 
BRANCH  32  33
HETATM   33  C   UNL     1      -1.865   5.981 -34.509  1.00  0.00     0.164 C 
BRANCH  33  34
HETATM   34  O   UNL     1      -3.214   6.118 -34.943  1.00  0.00    -0.401 OA
HETATM   35  H   UNL     1      -3.419   5.357 -35.512  1.00  0.00     0.209 HD
ENDBRANCH  33  34
ENDBRANCH  32  33
ENDBRANCH  31  32
ENDBRANCH   5  31
TORSDOF 8
ENDMDL
MODEL 4
REMARK VINA RESULT:      -8.0      3.814      7.549
REMARK  8 active torsions:
REMARK  status: ('A' for Active; 'I' for Inactive)
REMARK    1  A    between atoms: C_2  and  C_3 
REMARK    2  A    between atoms: C_6  and  C_7 
REMARK    3  A    between atoms: C_11  and  C_12 
REMARK    4  A    between atoms: C_12  and  C_13 
REMARK    5  A    between atoms: C_13  and  C_14 
REMARK    6  A    between atoms: C_14  and  O_15 
REMARK    7  A    between atoms: C_20  and  C_21 
REMARK       I    between atoms: C_21  and  N_22 
REMARK    8  A    between atoms: N_22  and  C_23 
ROOT
HETATM    1  C   UNL     1      -9.418   1.993 -33.146  1.00  0.00     0.202 C 
HETATM    2  N   UNL     1     -10.716   1.646 -33.737  1.00  0.00    -0.083 N 
HETATM    3  C   UNL     1     -11.342   2.398 -34.694  1.00  0.00     0.726 A 
HETATM    4  N   UNL     1     -12.513   1.878 -34.961  1.00  0.00    -0.046 NA
HETATM    5  C   UNL     1     -12.580   0.810 -34.097  1.00  0.00     0.166 A 
HETATM    6  N   UNL     1     -11.505   0.636 -33.313  1.00  0.00    -0.140 NA
HETATM    7  N   UNL     1     -10.753   3.522 -35.148  1.00  0.00    -0.192 N 
HETATM    8  C   UNL     1      -9.635   4.084 -34.536  1.00  0.00     0.037 C 
HETATM    9  C   UNL     1      -9.335   5.509 -34.932  1.00  0.00     0.070 C 
HETATM   10  C   UNL     1      -8.960   3.380 -33.592  1.00  0.00     0.062 C 
HETATM   11  H   UNL     1     -11.300   4.119 -35.762  1.00  0.00     0.184 HD
ENDROOT
BRANCH  10  12
HETATM   12  C   UNL     1      -7.818   3.911 -32.797  1.00  0.00     0.256 C 
HETATM   13  N   UNL     1      -8.196   4.678 -31.716  1.00  0.00    -0.323 N 
HETATM   14  H   UNL     1      -9.187   4.820 -31.577  1.00  0.00     0.169 HD
HETATM   15  O   UNL     1      -6.679   3.655 -33.165  1.00  0.00    -0.267 OA
BRANCH  13  16
HETATM   16  C   UNL     1      -7.348   5.239 -30.738  1.00  0.00     0.035 A 
HETATM   17  C   UNL     1      -6.556   6.371 -30.948  1.00  0.00     0.031 A 
HETATM   18  C   UNL     1      -5.720   6.852 -29.934  1.00  0.00     0.026 A 
HETATM   19  C   UNL     1      -5.667   6.198 -28.707  1.00  0.00     0.034 A 
HETATM   20 CL   UNL     1      -4.626   6.779 -27.468  1.00  0.00    -0.084 Cl
HETATM   21  C   UNL     1      -6.453   5.072 -28.481  1.00  0.00     0.026 A 
HETATM   22  C   UNL     1      -7.298   4.600 -29.491  1.00  0.00     0.031 A 
ENDBRANCH  13  16
ENDBRANCH  10  12
BRANCH   1  23
HETATM   23  C   UNL     1      -8.386   0.912 -33.454  1.00  0.00    -0.028 A 
HETATM   24  C   UNL     1      -7.636   0.287 -32.445  1.00  0.00     0.010 A 
HETATM   25  C   UNL     1      -6.692  -0.696 -32.761  1.00  0.00     0.007 A 
HETATM   26  C   UNL     1      -6.478  -1.075 -34.092  1.00  0.00    -0.059 A 
HETATM   27  C   UNL     1      -7.238  -0.469 -35.098  1.00  0.00     0.007 A 
HETATM   28  C   UNL     1      -8.182   0.510 -34.784  1.00  0.00     0.010 A 
BRANCH  26  29
HETATM   29  C   UNL     1      -5.453  -2.124 -34.439  1.00  0.00     0.034 C 
HETATM   30  C   UNL     1      -6.092  -3.397 -34.972  1.00  0.00     0.010 C 
ENDBRANCH  26  29
ENDBRANCH   1  23
BRANCH   5  31
HETATM   31  C   UNL     1     -13.785  -0.055 -33.997  1.00  0.00     0.085 C 
BRANCH  31  32
HETATM   32  C   UNL     1     -15.098   0.688 -34.223  1.00  0.00     0.034 C 
BRANCH  32  33
HETATM   33  C   UNL     1     -15.503   1.549 -33.034  1.00  0.00     0.164 C 
BRANCH  33  34
HETATM   34  O   UNL     1     -15.000   2.870 -33.207  1.00  0.00    -0.401 OA
HETATM   35  H   UNL     1     -15.748   3.484 -33.114  1.00  0.00     0.209 HD
ENDBRANCH  33  34
ENDBRANCH  32  33
ENDBRANCH  31  32
ENDBRANCH   5  31
TORSDOF 8
ENDMDL
MODEL 5
REMARK VINA RESULT:      -7.9      3.783      7.235
REMARK  8 active torsions:
REMARK  status: ('A' for Active; 'I' for Inactive)
REMARK    1  A    between atoms: C_2  and  C_3 
REMARK    2  A    between atoms: C_6  and  C_7 
REMARK    3  A    between atoms: C_11  and  C_12 
REMARK    4  A    between atoms: C_12  and  C_13 
REMARK    5  A    between atoms: C_13  and  C_14 
REMARK    6  A    between atoms: C_14  and  O_15 
REMARK    7  A    between atoms: C_20  and  C_21 
REMARK       I    between atoms: C_21  and  N_22 
REMARK    8  A    between atoms: N_22  and  C_23 
ROOT
HETATM    1  C   UNL     1      -8.237   2.881 -34.007  1.00  0.00     0.202 C 
HETATM    2  N   UNL     1      -9.309   3.819 -33.651  1.00  0.00    -0.083 N 
HETATM    3  C   UNL     1     -10.434   3.461 -32.958  1.00  0.00     0.726 A 
HETATM    4  N   UNL     1     -11.236   4.491 -32.867  1.00  0.00    -0.046 NA
HETATM    5  C   UNL     1     -10.565   5.467 -33.567  1.00  0.00     0.166 A 
HETATM    6  N   UNL     1      -9.383   5.096 -34.081  1.00  0.00    -0.140 NA
HETATM    7  N   UNL     1     -10.590   2.184 -32.556  1.00  0.00    -0.192 N 
HETATM    8  C   UNL     1      -9.768   1.151 -32.999  1.00  0.00     0.037 C 
HETATM    9  C   UNL     1     -10.298  -0.241 -32.755  1.00  0.00     0.070 C 
HETATM   10  C   UNL     1      -8.628   1.442 -33.675  1.00  0.00     0.062 C 
HETATM   11  H   UNL     1     -11.490   1.929 -32.158  1.00  0.00     0.184 HD
ENDROOT
BRANCH  10  12
HETATM   12  C   UNL     1      -7.725   0.428 -34.286  1.00  0.00     0.256 C 
HETATM   13  N   UNL     1      -7.031  -0.331 -33.369  1.00  0.00    -0.323 N 
HETATM   14  H   UNL     1      -7.182  -0.122 -32.391  1.00  0.00     0.169 HD
HETATM   15  O   UNL     1      -7.654   0.365 -35.507  1.00  0.00    -0.267 OA
BRANCH  13  16
HETATM   16  C   UNL     1      -6.174  -1.418 -33.643  1.00  0.00     0.035 A 
HETATM   17  C   UNL     1      -6.540  -2.525 -34.413  1.00  0.00     0.031 A 
HETATM   18  C   UNL     1      -5.641  -3.577 -34.619  1.00  0.00     0.026 A 
HETATM   19  C   UNL     1      -4.373  -3.530 -34.048  1.00  0.00     0.034 A 
HETATM   20 CL   UNL     1      -3.276  -4.832 -34.286  1.00  0.00    -0.084 Cl
HETATM   21  C   UNL     1      -3.992  -2.432 -33.283  1.00  0.00     0.026 A 
HETATM   22  C   UNL     1      -4.887  -1.375 -33.089  1.00  0.00     0.031 A 
ENDBRANCH  13  16
ENDBRANCH  10  12
BRANCH   1  23
HETATM   23  C   UNL     1      -6.925   3.294 -33.343  1.00  0.00    -0.028 A 
HETATM   24  C   UNL     1      -6.686   3.093 -31.974  1.00  0.00     0.010 A 
HETATM   25  C   UNL     1      -5.476   3.489 -31.395  1.00  0.00     0.007 A 
HETATM   26  C   UNL     1      -4.480   4.093 -32.171  1.00  0.00    -0.059 A 
HETATM   27  C   UNL     1      -4.706   4.276 -33.540  1.00  0.00     0.007 A 
HETATM   28  C   UNL     1      -5.913   3.879 -34.119  1.00  0.00     0.010 A 
BRANCH  26  29
HETATM   29  C   UNL     1      -3.179   4.534 -31.548  1.00  0.00     0.034 C 
HETATM   30  C   UNL     1      -2.038   4.547 -32.553  1.00  0.00     0.010 C 
ENDBRANCH  26  29
ENDBRANCH   1  23
BRANCH   5  31
HETATM   31  C   UNL     1     -11.138   6.820 -33.789  1.00  0.00     0.085 C 
BRANCH  31  32
HETATM   32  C   UNL     1     -12.570   6.804 -34.317  1.00  0.00     0.034 C 
BRANCH  32  33
HETATM   33  C   UNL     1     -12.742   5.902 -35.532  1.00  0.00     0.164 C 
BRANCH  33  34
HETATM   34  O   UNL     1     -13.368   4.685 -35.139  1.00  0.00    -0.401 OA
HETATM   35  H   UNL     1     -12.669   4.020 -35.020  1.00  0.00     0.209 HD
ENDBRANCH  33  34
ENDBRANCH  32  33
ENDBRANCH  31  32
ENDBRANCH   5  31
TORSDOF 8
ENDMDL
MODEL 6
REMARK VINA RESULT:      -7.9      3.726      6.666
REMARK  8 active torsions:
REMARK  status: ('A' for Active; 'I' for Inactive)
REMARK    1  A    between atoms: C_2  and  C_3 
REMARK    2  A    between atoms: C_6  and  C_7 
REMARK    3  A    between atoms: C_11  and  C_12 
REMARK    4  A    between atoms: C_12  and  C_13 
REMARK    5  A    between atoms: C_13  and  C_14 
REMARK    6  A    between atoms: C_14  and  O_15 
REMARK    7  A    between atoms: C_20  and  C_21 
REMARK       I    between atoms: C_21  and  N_22 
REMARK    8  A    between atoms: N_22  and  C_23 
ROOT
HETATM    1  C   UNL     1      -7.125   2.784 -30.711  1.00  0.00     0.202 C 
HETATM    2  N   UNL     1      -6.842   4.068 -30.058  1.00  0.00    -0.083 N 
HETATM    3  C   UNL     1      -5.599   4.635 -30.000  1.00  0.00     0.726 A 
HETATM    4  N   UNL     1      -5.651   5.730 -29.286  1.00  0.00    -0.046 NA
HETATM    5  C   UNL     1      -6.967   5.775 -28.885  1.00  0.00     0.166 A 
HETATM    6  N   UNL     1      -7.734   4.765 -29.323  1.00  0.00    -0.140 NA
HETATM    7  N   UNL     1      -4.554   4.008 -30.576  1.00  0.00    -0.192 N 
HETATM    8  C   UNL     1      -4.627   2.698 -31.041  1.00  0.00     0.037 C 
HETATM    9  C   UNL     1      -3.298   2.035 -31.308  1.00  0.00     0.070 C 
HETATM   10  C   UNL     1      -5.835   2.087 -31.140  1.00  0.00     0.062 C 
HETATM   11  H   UNL     1      -3.629   4.393 -30.405  1.00  0.00     0.184 HD
ENDROOT
BRANCH  10  12
HETATM   12  C   UNL     1      -6.032   0.661 -31.523  1.00  0.00     0.256 C 
HETATM   13  N   UNL     1      -5.885   0.417 -32.871  1.00  0.00    -0.323 N 
HETATM   14  H   UNL     1      -5.679   1.211 -33.463  1.00  0.00     0.169 HD
HETATM   15  O   UNL     1      -6.322  -0.147 -30.649  1.00  0.00    -0.267 OA
BRANCH  13  16
HETATM   16  C   UNL     1      -5.927  -0.838 -33.515  1.00  0.00     0.035 A 
HETATM   17  C   UNL     1      -7.103  -1.449 -33.957  1.00  0.00     0.031 A 
HETATM   18  C   UNL     1      -7.065  -2.709 -34.565  1.00  0.00     0.026 A 
HETATM   19  C   UNL     1      -5.849  -3.367 -34.726  1.00  0.00     0.034 A 
HETATM   20 CL   UNL     1      -5.806  -4.923 -35.456  1.00  0.00    -0.084 Cl
HETATM   21  C   UNL     1      -4.669  -2.770 -34.295  1.00  0.00     0.026 A 
HETATM   22  C   UNL     1      -4.707  -1.504 -33.699  1.00  0.00     0.031 A 
ENDBRANCH  13  16
ENDBRANCH  10  12
BRANCH   1  23
HETATM   23  C   UNL     1      -8.094   2.978 -31.873  1.00  0.00    -0.028 A 
HETATM   24  C   UNL     1      -7.814   3.847 -32.941  1.00  0.00     0.010 A 
HETATM   25  C   UNL     1      -8.727   4.008 -33.988  1.00  0.00     0.007 A 
HETATM   26  C   UNL     1      -9.938   3.305 -33.992  1.00  0.00    -0.059 A 
HETATM   27  C   UNL     1     -10.211   2.423 -32.941  1.00  0.00     0.007 A 
HETATM   28  C   UNL     1      -9.300   2.260 -31.896  1.00  0.00     0.010 A 
BRANCH  26  29
HETATM   29  C   UNL     1     -10.930   3.486 -35.112  1.00  0.00     0.034 C 
HETATM   30  C   UNL     1     -12.339   3.733 -34.596  1.00  0.00     0.010 C 
ENDBRANCH  26  29
ENDBRANCH   1  23
BRANCH   5  31
HETATM   31  C   UNL     1      -7.486   6.834 -27.982  1.00  0.00     0.085 C 
BRANCH  31  32
HETATM   32  C   UNL     1      -8.952   7.184 -28.221  1.00  0.00     0.034 C 
BRANCH  32  33
HETATM   33  C   UNL     1      -9.471   8.244 -27.258  1.00  0.00     0.164 C 
BRANCH  33  34
HETATM   34  O   UNL     1     -10.180   7.617 -26.194  1.00  0.00    -0.401 OA
HETATM   35  H   UNL     1      -9.569   6.999 -25.758  1.00  0.00     0.209 HD
ENDBRANCH  33  34
ENDBRANCH  32  33
ENDBRANCH  31  32
ENDBRANCH   5  31
TORSDOF 8
ENDMDL
MODEL 7
REMARK VINA RESULT:      -7.8     16.535     18.956
REMARK  8 active torsions:
REMARK  status: ('A' for Active; 'I' for Inactive)
REMARK    1  A    between atoms: C_2  and  C_3 
REMARK    2  A    between atoms: C_6  and  C_7 
REMARK    3  A    between atoms: C_11  and  C_12 
REMARK    4  A    between atoms: C_12  and  C_13 
REMARK    5  A    between atoms: C_13  and  C_14 
REMARK    6  A    between atoms: C_14  and  O_15 
REMARK    7  A    between atoms: C_20  and  C_21 
REMARK       I    between atoms: C_21  and  N_22 
REMARK    8  A    between atoms: N_22  and  C_23 
ROOT
HETATM    1  C   UNL     1      -5.827 -14.661 -37.784  1.00  0.00     0.202 C 
HETATM    2  N   UNL     1      -5.592 -14.039 -36.475  1.00  0.00    -0.083 N 
HETATM    3  C   UNL     1      -4.522 -13.232 -36.197  1.00  0.00     0.726 A 
HETATM    4  N   UNL     1      -4.544 -12.899 -34.932  1.00  0.00    -0.046 NA
HETATM    5  C   UNL     1      -5.646 -13.571 -34.455  1.00  0.00     0.166 A 
HETATM    6  N   UNL     1      -6.313 -14.298 -35.364  1.00  0.00    -0.140 NA
HETATM    7  N   UNL     1      -3.621 -12.966 -37.163  1.00  0.00    -0.192 N 
HETATM    8  C   UNL     1      -3.597 -13.647 -38.377  1.00  0.00     0.037 C 
HETATM    9  C   UNL     1      -2.325 -13.493 -39.176  1.00  0.00     0.070 C 
HETATM   10  C   UNL     1      -4.638 -14.448 -38.719  1.00  0.00     0.062 C 
HETATM   11  H   UNL     1      -2.777 -12.469 -36.888  1.00  0.00     0.184 HD
ENDROOT
BRANCH  10  12
HETATM   12  C   UNL     1      -4.682 -15.305 -39.937  1.00  0.00     0.256 C 
HETATM   13  N   UNL     1      -5.002 -14.624 -41.090  1.00  0.00    -0.323 N 
HETATM   14  H   UNL     1      -5.191 -13.634 -41.003  1.00  0.00     0.169 HD
HETATM   15  O   UNL     1      -4.461 -16.504 -39.818  1.00  0.00    -0.267 OA
BRANCH  13  16
HETATM   16  C   UNL     1      -5.035 -15.145 -42.401  1.00  0.00     0.035 A 
HETATM   17  C   UNL     1      -6.050 -15.975 -42.885  1.00  0.00     0.031 A 
HETATM   18  C   UNL     1      -5.998 -16.474 -44.192  1.00  0.00     0.026 A 
HETATM   19  C   UNL     1      -4.926 -16.151 -45.018  1.00  0.00     0.034 A 
HETATM   20 CL   UNL     1      -4.854 -16.779 -46.616  1.00  0.00    -0.084 Cl
HETATM   21  C   UNL     1      -3.909 -15.322 -44.551  1.00  0.00     0.026 A 
HETATM   22  C   UNL     1      -3.970 -14.813 -43.250  1.00  0.00     0.031 A 
ENDBRANCH  13  16
ENDBRANCH  10  12
BRANCH   1  23
HETATM   23  C   UNL     1      -7.137 -14.159 -38.386  1.00  0.00    -0.028 A 
HETATM   24  C   UNL     1      -7.342 -12.806 -38.701  1.00  0.00     0.010 A 
HETATM   25  C   UNL     1      -8.557 -12.377 -39.246  1.00  0.00     0.007 A 
HETATM   26  C   UNL     1      -9.591 -13.290 -39.487  1.00  0.00    -0.059 A 
HETATM   27  C   UNL     1      -9.382 -14.641 -39.194  1.00  0.00     0.007 A 
HETATM   28  C   UNL     1      -8.169 -15.071 -38.652  1.00  0.00     0.010 A 
BRANCH  26  29
HETATM   29  C   UNL     1     -10.907 -12.829 -40.061  1.00  0.00     0.034 C 
HETATM   30  C   UNL     1     -10.876 -11.361 -40.459  1.00  0.00     0.010 C 
ENDBRANCH  26  29
ENDBRANCH   1  23
BRANCH   5  31
HETATM   31  C   UNL     1      -6.033 -13.542 -33.021  1.00  0.00     0.085 C 
BRANCH  31  32
HETATM   32  C   UNL     1      -6.119 -14.922 -32.377  1.00  0.00     0.034 C 
BRANCH  32  33
HETATM   33  C   UNL     1      -5.042 -15.152 -31.324  1.00  0.00     0.164 C 
BRANCH  33  34
HETATM   34  O   UNL     1      -5.652 -15.374 -30.057  1.00  0.00    -0.401 OA
HETATM   35  H   UNL     1      -6.613 -15.283 -30.174  1.00  0.00     0.209 HD
ENDBRANCH  33  34
ENDBRANCH  32  33
ENDBRANCH  31  32
ENDBRANCH   5  31
TORSDOF 8
ENDMDL
MODEL 8
REMARK VINA RESULT:      -7.7      3.623      7.187
REMARK  8 active torsions:
REMARK  status: ('A' for Active; 'I' for Inactive)
REMARK    1  A    between atoms: C_2  and  C_3 
REMARK    2  A    between atoms: C_6  and  C_7 
REMARK    3  A    between atoms: C_11  and  C_12 
REMARK    4  A    between atoms: C_12  and  C_13 
REMARK    5  A    between atoms: C_13  and  C_14 
REMARK    6  A    between atoms: C_14  and  O_15 
REMARK    7  A    between atoms: C_20  and  C_21 
REMARK       I    between atoms: C_21  and  N_22 
REMARK    8  A    between atoms: N_22  and  C_23 
ROOT
HETATM    1  C   UNL     1      -6.313   1.841 -32.011  1.00  0.00     0.202 C 
HETATM    2  N   UNL     1      -6.489   0.797 -33.029  1.00  0.00    -0.083 N 
HETATM    3  C   UNL     1      -7.607   0.675 -33.809  1.00  0.00     0.726 A 
HETATM    4  N   UNL     1      -7.502  -0.393 -34.558  1.00  0.00    -0.046 NA
HETATM    5  C   UNL     1      -6.297  -0.928 -34.165  1.00  0.00     0.166 A 
HETATM    6  N   UNL     1      -5.645  -0.239 -33.216  1.00  0.00    -0.140 NA
HETATM    7  N   UNL     1      -8.617   1.556 -33.666  1.00  0.00    -0.192 N 
HETATM    8  C   UNL     1      -8.682   2.459 -32.609  1.00  0.00     0.037 C 
HETATM    9  C   UNL     1     -10.032   3.101 -32.394  1.00  0.00     0.070 C 
HETATM   10  C   UNL     1      -7.600   2.639 -31.811  1.00  0.00     0.062 C 
HETATM   11  H   UNL     1      -9.478   1.361 -34.170  1.00  0.00     0.184 HD
ENDROOT
BRANCH  10  12
HETATM   12  C   UNL     1      -7.581   3.496 -30.592  1.00  0.00     0.256 C 
HETATM   13  N   UNL     1      -7.574   4.848 -30.857  1.00  0.00    -0.323 N 
HETATM   14  H   UNL     1      -7.565   5.126 -31.829  1.00  0.00     0.169 HD
HETATM   15  O   UNL     1      -7.549   2.954 -29.495  1.00  0.00    -0.267 OA
BRANCH  13  16
HETATM   16  C   UNL     1      -7.643   5.896 -29.916  1.00  0.00     0.035 A 
HETATM   17  C   UNL     1      -8.754   6.147 -29.107  1.00  0.00     0.031 A 
HETATM   18  C   UNL     1      -8.756   7.224 -28.214  1.00  0.00     0.026 A 
HETATM   19  C   UNL     1      -7.647   8.061 -28.131  1.00  0.00     0.034 A 
HETATM   20 CL   UNL     1      -7.657   9.395 -27.047  1.00  0.00    -0.084 Cl
HETATM   21  C   UNL     1      -6.531   7.822 -28.927  1.00  0.00     0.026 A 
HETATM   22  C   UNL     1      -6.525   6.737 -29.810  1.00  0.00     0.031 A 
ENDBRANCH  13  16
ENDBRANCH  10  12
BRANCH   1  23
HETATM   23  C   UNL     1      -5.125   2.732 -32.362  1.00  0.00    -0.028 A 
HETATM   24  C   UNL     1      -3.896   2.636 -31.687  1.00  0.00     0.010 A 
HETATM   25  C   UNL     1      -2.828   3.472 -32.028  1.00  0.00     0.007 A 
HETATM   26  C   UNL     1      -2.964   4.420 -33.050  1.00  0.00    -0.059 A 
HETATM   27  C   UNL     1      -4.179   4.503 -33.738  1.00  0.00     0.007 A 
HETATM   28  C   UNL     1      -5.245   3.668 -33.400  1.00  0.00     0.010 A 
BRANCH  26  29
HETATM   29  C   UNL     1      -1.819   5.332 -33.411  1.00  0.00     0.034 C 
HETATM   30  C   UNL     1      -1.474   5.260 -34.891  1.00  0.00     0.010 C 
ENDBRANCH  26  29
ENDBRANCH   1  23
BRANCH   5  31
HETATM   31  C   UNL     1      -5.783  -2.210 -34.711  1.00  0.00     0.085 C 
BRANCH  31  32
HETATM   32  C   UNL     1      -6.809  -3.339 -34.705  1.00  0.00     0.034 C 
BRANCH  32  33
HETATM   33  C   UNL     1      -6.343  -4.567 -35.478  1.00  0.00     0.164 C 
BRANCH  33  34
HETATM   34  O   UNL     1      -5.411  -5.301 -34.691  1.00  0.00    -0.401 OA
HETATM   35  H   UNL     1      -5.591  -6.247 -34.829  1.00  0.00     0.209 HD
ENDBRANCH  33  34
ENDBRANCH  32  33
ENDBRANCH  31  32
ENDBRANCH   5  31
TORSDOF 8
ENDMDL
MODEL 9
REMARK VINA RESULT:      -7.6      2.119      2.631
REMARK  8 active torsions:
REMARK  status: ('A' for Active; 'I' for Inactive)
REMARK    1  A    between atoms: C_2  and  C_3 
REMARK    2  A    between atoms: C_6  and  C_7 
REMARK    3  A    between atoms: C_11  and  C_12 
REMARK    4  A    between atoms: C_12  and  C_13 
REMARK    5  A    between atoms: C_13  and  C_14 
REMARK    6  A    between atoms: C_14  and  O_15 
REMARK    7  A    between atoms: C_20  and  C_21 
REMARK       I    between atoms: C_21  and  N_22 
REMARK    8  A    between atoms: N_22  and  C_23 
ROOT
HETATM    1  C   UNL     1      -6.139   4.131 -32.679  1.00  0.00     0.202 C 
HETATM    2  N   UNL     1      -4.753   4.379 -32.261  1.00  0.00    -0.083 N 
HETATM    3  C   UNL     1      -4.402   4.814 -31.012  1.00  0.00     0.726 A 
HETATM    4  N   UNL     1      -3.111   5.019 -30.969  1.00  0.00    -0.046 NA
HETATM    5  C   UNL     1      -2.709   4.730 -32.253  1.00  0.00     0.166 A 
HETATM    6  N   UNL     1      -3.687   4.347 -33.088  1.00  0.00    -0.140 NA
HETATM    7  N   UNL     1      -5.359   5.025 -30.087  1.00  0.00    -0.192 N 
HETATM    8  C   UNL     1      -6.716   5.036 -30.399  1.00  0.00     0.037 C 
HETATM    9  C   UNL     1      -7.612   5.645 -29.348  1.00  0.00     0.070 C 
HETATM   10  C   UNL     1      -7.129   4.599 -31.615  1.00  0.00     0.062 C 
HETATM   11  H   UNL     1      -5.075   5.466 -29.216  1.00  0.00     0.184 HD
ENDROOT
BRANCH  10  12
HETATM   12  C   UNL     1      -8.536   4.659 -32.102  1.00  0.00     0.256 C 
HETATM   13  N   UNL     1      -9.365   3.712 -31.540  1.00  0.00    -0.323 N 
HETATM   14  H   UNL     1      -8.948   3.069 -30.880  1.00  0.00     0.169 HD
HETATM   15  O   UNL     1      -8.829   5.496 -32.946  1.00  0.00    -0.267 OA
BRANCH  13  16
HETATM   16  C   UNL     1     -10.755   3.578 -31.738  1.00  0.00     0.035 A 
HETATM   17  C   UNL     1     -11.329   2.930 -32.834  1.00  0.00     0.031 A 
HETATM   18  C   UNL     1     -12.720   2.861 -32.973  1.00  0.00     0.026 A 
HETATM   19  C   UNL     1     -13.544   3.449 -32.018  1.00  0.00     0.034 A 
HETATM   20 CL   UNL     1     -15.252   3.380 -32.199  1.00  0.00    -0.084 Cl
HETATM   21  C   UNL     1     -12.988   4.094 -30.917  1.00  0.00     0.026 A 
HETATM   22  C   UNL     1     -11.597   4.151 -30.773  1.00  0.00     0.031 A 
ENDBRANCH  13  16
ENDBRANCH  10  12
BRANCH   1  23
HETATM   23  C   UNL     1      -6.330   2.661 -33.045  1.00  0.00    -0.028 A 
HETATM   24  C   UNL     1      -6.120   1.628 -32.118  1.00  0.00     0.010 A 
HETATM   25  C   UNL     1      -6.297   0.291 -32.486  1.00  0.00     0.007 A 
HETATM   26  C   UNL     1      -6.690  -0.042 -33.789  1.00  0.00    -0.059 A 
HETATM   27  C   UNL     1      -6.921   0.985 -34.709  1.00  0.00     0.007 A 
HETATM   28  C   UNL     1      -6.746   2.321 -34.342  1.00  0.00     0.010 A 
BRANCH  26  29
HETATM   29  C   UNL     1      -6.870  -1.484 -34.194  1.00  0.00     0.034 C 
HETATM   30  C   UNL     1      -5.541  -2.172 -34.468  1.00  0.00     0.010 C 
ENDBRANCH  26  29
ENDBRANCH   1  23
BRANCH   5  31
HETATM   31  C   UNL     1      -1.301   4.889 -32.699  1.00  0.00     0.085 C 
BRANCH  31  32
HETATM   32  C   UNL     1      -0.500   5.889 -31.870  1.00  0.00     0.034 C 
BRANCH  32  33
HETATM   33  C   UNL     1       0.529   5.219 -30.968  1.00  0.00     0.164 C 
BRANCH  33  34
HETATM   34  O   UNL     1      -0.136   4.435 -29.984  1.00  0.00    -0.401 OA
HETATM   35  H   UNL     1       0.403   3.642 -29.825  1.00  0.00     0.209 HD
ENDBRANCH  33  34
ENDBRANCH  32  33
ENDBRANCH  31  32
ENDBRANCH   5  31
TORSDOF 8
ENDMDL
MODEL 10
REMARK VINA RESULT:      -7.6      3.574      6.217
REMARK  8 active torsions:
REMARK  status: ('A' for Active; 'I' for Inactive)
REMARK    1  A    between atoms: C_2  and  C_3 
REMARK    2  A    between atoms: C_6  and  C_7 
REMARK    3  A    between atoms: C_11  and  C_12 
REMARK    4  A    between atoms: C_12  and  C_13 
REMARK    5  A    between atoms: C_13  and  C_14 
REMARK    6  A    between atoms: C_14  and  O_15 
REMARK    7  A    between atoms: C_20  and  C_21 
REMARK       I    between atoms: C_21  and  N_22 
REMARK    8  A    between atoms: N_22  and  C_23 
ROOT
HETATM    1  C   UNL     1      -6.869   1.756 -33.691  1.00  0.00     0.202 C 
HETATM    2  N   UNL     1      -6.075   0.553 -33.407  1.00  0.00    -0.083 N 
HETATM    3  C   UNL     1      -5.237   0.430 -32.333  1.00  0.00     0.726 A 
HETATM    4  N   UNL     1      -4.612  -0.717 -32.396  1.00  0.00    -0.046 NA
HETATM    5  C   UNL     1      -5.078  -1.258 -33.573  1.00  0.00     0.166 A 
HETATM    6  N   UNL     1      -5.969  -0.506 -34.237  1.00  0.00    -0.140 NA
HETATM    7  N   UNL     1      -5.120   1.450 -31.460  1.00  0.00    -0.192 N 
HETATM    8  C   UNL     1      -5.641   2.717 -31.711  1.00  0.00     0.037 C 
HETATM    9  C   UNL     1      -5.110   3.817 -30.824  1.00  0.00     0.070 C 
HETATM   10  C   UNL     1      -6.493   2.900 -32.751  1.00  0.00     0.062 C 
HETATM   11  H   UNL     1      -4.398   1.373 -30.749  1.00  0.00     0.184 HD
ENDROOT
BRANCH  10  12
HETATM   12  C   UNL     1      -7.033   4.220 -33.180  1.00  0.00     0.256 C 
HETATM   13  N   UNL     1      -8.040   4.704 -32.374  1.00  0.00    -0.323 N 
HETATM   14  H   UNL     1      -8.324   4.125 -31.595  1.00  0.00     0.169 HD
HETATM   15  O   UNL     1      -6.574   4.740 -34.189  1.00  0.00    -0.267 OA
BRANCH  13  16
HETATM   16  C   UNL     1      -8.680   5.957 -32.477  1.00  0.00     0.035 A 
HETATM   17  C   UNL     1      -8.124   7.156 -32.025  1.00  0.00     0.031 A 
HETATM   18  C   UNL     1      -8.833   8.357 -32.140  1.00  0.00     0.026 A 
HETATM   19  C   UNL     1     -10.107   8.362 -32.702  1.00  0.00     0.034 A 
HETATM   20 CL   UNL     1     -10.985   9.835 -32.826  1.00  0.00    -0.084 Cl
HETATM   21  C   UNL     1     -10.672   7.176 -33.162  1.00  0.00     0.026 A 
HETATM   22  C   UNL     1      -9.956   5.979 -33.058  1.00  0.00     0.031 A 
ENDBRANCH  13  16
ENDBRANCH  10  12
BRANCH   1  23
HETATM   23  C   UNL     1      -8.360   1.433 -33.647  1.00  0.00    -0.028 A 
HETATM   24  C   UNL     1      -8.880   0.422 -32.823  1.00  0.00     0.010 A 
HETATM   25  C   UNL     1     -10.251   0.146 -32.810  1.00  0.00     0.007 A 
HETATM   26  C   UNL     1     -11.131   0.875 -33.620  1.00  0.00    -0.059 A 
HETATM   27  C   UNL     1     -10.619   1.897 -34.426  1.00  0.00     0.007 A 
HETATM   28  C   UNL     1      -9.251   2.175 -34.438  1.00  0.00     0.010 A 
BRANCH  26  29
HETATM   29  C   UNL     1     -12.609   0.572 -33.619  1.00  0.00     0.034 C 
HETATM   30  C   UNL     1     -13.368   1.422 -34.626  1.00  0.00     0.010 C 
ENDBRANCH  26  29
ENDBRANCH   1  23
BRANCH   5  31
HETATM   31  C   UNL     1      -4.585  -2.557 -34.100  1.00  0.00     0.085 C 
BRANCH  31  32
HETATM   32  C   UNL     1      -5.422  -3.115 -35.246  1.00  0.00     0.034 C 
BRANCH  32  33
HETATM   33  C   UNL     1      -6.630  -3.908 -34.764  1.00  0.00     0.164 C 
BRANCH  33  34
HETATM   34  O   UNL     1      -6.661  -5.174 -35.415  1.00  0.00    -0.401 OA
HETATM   35  H   UNL     1      -5.940  -5.712 -35.046  1.00  0.00     0.209 HD
ENDBRANCH  33  34
ENDBRANCH  32  33
ENDBRANCH  31  32
ENDBRANCH   5  31
TORSDOF 8
ENDMDL
