MODEL 1
REMARK VINA RESULT:      -8.2      0.000      0.000
REMARK  4 active torsions:
REMARK  status: ('A' for Active; 'I' for Inactive)
REMARK    1  A    between atoms: N_6  and  N_7 
REMARK       I    between atoms: N_7  and  C_8 
REMARK    2  A    between atoms: C_8  and  C_9 
REMARK    3  A    between atoms: C_10  and  O_11 
REMARK    4  A    between atoms: C_14  and  N_15 
ROOT
HETATM    1  N   UNL     1      -5.934   4.067 -32.207  1.00  0.00    -0.242 N 
HETATM    2  C   UNL     1      -5.355   4.688 -33.302  1.00  0.00     0.274 C 
HETATM    3  O   UNL     1      -5.955   5.223 -34.230  1.00  0.00    -0.266 OA
HETATM    4  H   UNL     1      -5.364   3.679 -31.470  1.00  0.00     0.192 HD
ENDROOT
BRANCH   1   5
HETATM    5  N   UNL     1      -7.276   3.874 -32.157  1.00  0.00    -0.166 NA
HETATM    6  C   UNL     1      -7.765   2.735 -32.538  1.00  0.00     0.157 A 
HETATM    7  C   UNL     1      -9.286   2.531 -32.682  1.00  0.00     0.279 A 
HETATM    8  C   UNL     1      -7.149   1.450 -32.901  1.00  0.00     0.028 A 
HETATM    9  N   UNL     1      -9.436   1.240 -33.155  1.00  0.00    -0.316 N 
HETATM   10  O   UNL     1     -10.135   3.361 -32.442  1.00  0.00    -0.265 OA
HETATM   11  C   UNL     1     -10.705   0.618 -33.421  1.00  0.00     0.159 C 
HETATM   12  C   UNL     1      -8.196   0.601 -33.277  1.00  0.00     0.050 A 
HETATM   13  C   UNL     1      -7.957  -0.703 -33.677  1.00  0.00     0.032 A 
HETATM   14  C   UNL     1      -6.635  -1.158 -33.681  1.00  0.00     0.021 A 
HETATM   15  C   UNL     1      -5.592  -0.313 -33.270  1.00  0.00     0.012 A 
HETATM   16  C   UNL     1      -5.839   1.000 -32.861  1.00  0.00     0.035 A 
HETATM   17 BR   UNL     1      -3.817  -0.968 -33.258  1.00  0.00    -0.051 Br
ENDBRANCH   1   5
BRANCH   2  18
HETATM   18  C   UNL     1      -3.873   4.804 -33.261  1.00  0.00     0.068 A 
HETATM   19  C   UNL     1      -3.194   5.250 -34.401  1.00  0.00     0.081 A 
HETATM   20  C   UNL     1      -1.824   5.484 -34.354  1.00  0.00     0.039 A 
HETATM   21  C   UNL     1      -1.118   5.236 -33.175  1.00  0.00     0.026 A 
HETATM   22  C   UNL     1      -1.760   4.692 -32.058  1.00  0.00     0.006 A 
HETATM   23  C   UNL     1      -3.147   4.518 -32.095  1.00  0.00     0.043 A 
BRANCH  19  24
HETATM   24  O   UNL     1      -3.819   5.508 -35.591  1.00  0.00    -0.360 OA
HETATM   25  H   UNL     1      -4.525   4.833 -35.716  1.00  0.00     0.217 HD
ENDBRANCH  19  24
BRANCH  22  26
HETATM   26  N   UNL     1      -1.068   4.549 -30.849  1.00  0.00    -0.303 NA
HETATM   27  H   UNL     1      -0.783   3.593 -30.654  1.00  0.00     0.124 HD
HETATM   28  H   UNL     1      -1.533   4.970 -30.050  1.00  0.00     0.124 HD
ENDBRANCH  22  26
ENDBRANCH   2  18
TORSDOF 4
ENDMDL
MODEL 2
REMARK VINA RESULT:      -8.0      3.852      6.073
REMARK  4 active torsions:
REMARK  status: ('A' for Active; 'I' for Inactive)
REMARK    1  A    between atoms: N_6  and  N_7 
REMARK       I    between atoms: N_7  and  C_8 
REMARK    2  A    between atoms: C_8  and  C_9 
REMARK    3  A    between atoms: C_10  and  O_11 
REMARK    4  A    between atoms: C_14  and  N_15 
ROOT
HETATM    1  N   UNL     1      -7.439   0.220 -34.930  1.00  0.00    -0.242 N 
HETATM    2  C   UNL     1      -8.476   0.686 -34.137  1.00  0.00     0.274 C 
HETATM    3  O   UNL     1      -9.134   0.018 -33.343  1.00  0.00    -0.266 OA
HETATM    4  H   UNL     1      -6.928   0.846 -35.535  1.00  0.00     0.192 HD
ENDROOT
BRANCH   1   5
HETATM    5  N   UNL     1      -7.160  -1.107 -34.988  1.00  0.00    -0.166 NA
HETATM    6  C   UNL     1      -6.101  -1.555 -34.390  1.00  0.00     0.157 A 
HETATM    7  C   UNL     1      -5.636  -3.012 -34.583  1.00  0.00     0.279 A 
HETATM    8  C   UNL     1      -5.136  -0.942 -33.465  1.00  0.00     0.028 A 
HETATM    9  N   UNL     1      -4.465  -3.118 -33.856  1.00  0.00    -0.316 N 
HETATM   10  O   UNL     1      -6.197  -3.848 -35.257  1.00  0.00    -0.265 OA
HETATM   11  C   UNL     1      -3.690  -4.325 -33.742  1.00  0.00     0.159 C 
HETATM   12  C   UNL     1      -4.171  -1.920 -33.195  1.00  0.00     0.050 A 
HETATM   13  C   UNL     1      -3.108  -1.666 -32.344  1.00  0.00     0.032 A 
HETATM   14  C   UNL     1      -3.030  -0.404 -31.748  1.00  0.00     0.021 A 
HETATM   15  C   UNL     1      -4.019   0.561 -31.995  1.00  0.00     0.012 A 
HETATM   16  C   UNL     1      -5.093   0.298 -32.849  1.00  0.00     0.035 A 
HETATM   17 BR   UNL     1      -3.901   2.249 -31.149  1.00  0.00    -0.051 Br
ENDBRANCH   1   5
BRANCH   2  18
HETATM   18  C   UNL     1      -8.712   2.152 -34.188  1.00  0.00     0.068 A 
HETATM   19  C   UNL     1      -9.982   2.626 -34.538  1.00  0.00     0.081 A 
HETATM   20  C   UNL     1     -10.264   3.986 -34.476  1.00  0.00     0.039 A 
HETATM   21  C   UNL     1      -9.264   4.886 -34.101  1.00  0.00     0.026 A 
HETATM   22  C   UNL     1      -7.962   4.444 -33.850  1.00  0.00     0.006 A 
HETATM   23  C   UNL     1      -7.703   3.070 -33.854  1.00  0.00     0.043 A 
BRANCH  19  24
HETATM   24  O   UNL     1     -11.008   1.803 -34.919  1.00  0.00    -0.360 OA
HETATM   25  H   UNL     1     -10.723   1.317 -35.727  1.00  0.00     0.217 HD
ENDBRANCH  19  24
BRANCH  22  26
HETATM   26  N   UNL     1      -6.996   5.337 -33.370  1.00  0.00    -0.303 NA
HETATM   27  H   UNL     1      -6.140   5.343 -33.919  1.00  0.00     0.124 HD
HETATM   28  H   UNL     1      -6.801   5.248 -32.378  1.00  0.00     0.124 HD
ENDBRANCH  22  26
ENDBRANCH   2  18
TORSDOF 4
ENDMDL
MODEL 3
REMARK VINA RESULT:      -8.0      3.931      6.823
REMARK  4 active torsions:
REMARK  status: ('A' for Active; 'I' for Inactive)
REMARK    1  A    between atoms: N_6  and  N_7 
REMARK       I    between atoms: N_7  and  C_8 
REMARK    2  A    between atoms: C_8  and  C_9 
REMARK    3  A    between atoms: C_10  and  O_11 
REMARK    4  A    between atoms: C_14  and  N_15 
ROOT
HETATM    1  N   UNL     1      -3.238   0.261 -32.796  1.00  0.00    -0.242 N 
HETATM    2  C   UNL     1      -3.658  -0.813 -32.028  1.00  0.00     0.274 C 
HETATM    3  O   UNL     1      -3.977  -0.772 -30.842  1.00  0.00    -0.266 OA
HETATM    4  H   UNL     1      -3.025   0.145 -33.776  1.00  0.00     0.192 HD
ENDROOT
BRANCH   1   5
HETATM    5  N   UNL     1      -3.003   1.468 -32.221  1.00  0.00    -0.166 NA
HETATM    6  C   UNL     1      -3.874   2.417 -32.369  1.00  0.00     0.157 A 
HETATM    7  C   UNL     1      -3.570   3.854 -31.903  1.00  0.00     0.279 A 
HETATM    8  C   UNL     1      -5.233   2.453 -32.931  1.00  0.00     0.028 A 
HETATM    9  N   UNL     1      -4.679   4.595 -32.266  1.00  0.00    -0.316 N 
HETATM   10  O   UNL     1      -2.551   4.219 -31.358  1.00  0.00    -0.265 OA
HETATM   11  C   UNL     1      -4.833   6.002 -32.007  1.00  0.00     0.159 C 
HETATM   12  C   UNL     1      -5.656   3.785 -32.857  1.00  0.00     0.050 A 
HETATM   13  C   UNL     1      -6.910   4.167 -33.305  1.00  0.00     0.032 A 
HETATM   14  C   UNL     1      -7.753   3.180 -33.822  1.00  0.00     0.021 A 
HETATM   15  C   UNL     1      -7.337   1.840 -33.861  1.00  0.00     0.012 A 
HETATM   16  C   UNL     1      -6.074   1.458 -33.402  1.00  0.00     0.035 A 
HETATM   17 BR   UNL     1      -8.512   0.522 -34.539  1.00  0.00    -0.051 Br
ENDBRANCH   1   5
BRANCH   2  18
HETATM   18  C   UNL     1      -3.841  -2.092 -32.762  1.00  0.00     0.068 A 
HETATM   19  C   UNL     1      -3.184  -3.240 -32.304  1.00  0.00     0.081 A 
HETATM   20  C   UNL     1      -3.431  -4.473 -32.897  1.00  0.00     0.039 A 
HETATM   21  C   UNL     1      -4.310  -4.558 -33.979  1.00  0.00     0.026 A 
HETATM   22  C   UNL     1      -4.895  -3.409 -34.518  1.00  0.00     0.006 A 
HETATM   23  C   UNL     1      -4.689  -2.183 -33.878  1.00  0.00     0.043 A 
BRANCH  19  24
HETATM   24  O   UNL     1      -2.307  -3.231 -31.252  1.00  0.00    -0.360 OA
HETATM   25  H   UNL     1      -1.714  -2.452 -31.359  1.00  0.00     0.217 HD
ENDBRANCH  19  24
BRANCH  22  26
HETATM   26  N   UNL     1      -5.856  -3.516 -35.531  1.00  0.00    -0.303 NA
HETATM   27  H   UNL     1      -6.175  -2.619 -35.885  1.00  0.00     0.124 HD
HETATM   28  H   UNL     1      -6.636  -4.126 -35.304  1.00  0.00     0.124 HD
ENDBRANCH  22  26
ENDBRANCH   2  18
TORSDOF 4
ENDMDL
MODEL 4
REMARK VINA RESULT:      -7.9      3.848      5.425
REMARK  4 active torsions:
REMARK  status: ('A' for Active; 'I' for Inactive)
REMARK    1  A    between atoms: N_6  and  N_7 
REMARK       I    between atoms: N_7  and  C_8 
REMARK    2  A    between atoms: C_8  and  C_9 
REMARK    3  A    between atoms: C_10  and  O_11 
REMARK    4  A    between atoms: C_14  and  N_15 
ROOT
HETATM    1  N   UNL     1      -4.297   0.625 -30.840  1.00  0.00    -0.242 N 
HETATM    2  C   UNL     1      -3.936   1.875 -31.316  1.00  0.00     0.274 C 
HETATM    3  O   UNL     1      -3.002   2.116 -32.077  1.00  0.00    -0.266 OA
HETATM    4  H   UNL     1      -5.101   0.511 -30.240  1.00  0.00     0.192 HD
ENDROOT
BRANCH   1   5
HETATM    5  N   UNL     1      -3.515  -0.457 -31.084  1.00  0.00    -0.166 NA
HETATM    6  C   UNL     1      -3.887  -1.315 -31.982  1.00  0.00     0.157 A 
HETATM    7  C   UNL     1      -3.140  -2.651 -32.163  1.00  0.00     0.279 A 
HETATM    8  C   UNL     1      -4.966  -1.316 -32.981  1.00  0.00     0.028 A 
HETATM    9  N   UNL     1      -3.836  -3.325 -33.149  1.00  0.00    -0.316 N 
HETATM   10  O   UNL     1      -2.166  -3.005 -31.536  1.00  0.00    -0.265 OA
HETATM   11  C   UNL     1      -3.474  -4.623 -33.652  1.00  0.00     0.159 C 
HETATM   12  C   UNL     1      -4.896  -2.550 -33.637  1.00  0.00     0.050 A 
HETATM   13  C   UNL     1      -5.779  -2.877 -34.653  1.00  0.00     0.032 A 
HETATM   14  C   UNL     1      -6.740  -1.930 -35.018  1.00  0.00     0.021 A 
HETATM   15  C   UNL     1      -6.784  -0.680 -34.381  1.00  0.00     0.012 A 
HETATM   16  C   UNL     1      -5.886  -0.353 -33.361  1.00  0.00     0.035 A 
HETATM   17 BR   UNL     1      -8.077   0.592 -34.918  1.00  0.00    -0.051 Br
ENDBRANCH   1   5
BRANCH   2  18
HETATM   18  C   UNL     1      -4.849   2.988 -30.948  1.00  0.00     0.068 A 
HETATM   19  C   UNL     1      -4.332   4.284 -30.836  1.00  0.00     0.081 A 
HETATM   20  C   UNL     1      -5.183   5.361 -30.614  1.00  0.00     0.039 A 
HETATM   21  C   UNL     1      -6.554   5.143 -30.464  1.00  0.00     0.026 A 
HETATM   22  C   UNL     1      -7.076   3.846 -30.468  1.00  0.00     0.006 A 
HETATM   23  C   UNL     1      -6.223   2.776 -30.753  1.00  0.00     0.043 A 
BRANCH  19  24
HETATM   24  O   UNL     1      -3.000   4.572 -30.967  1.00  0.00    -0.360 OA
HETATM   25  H   UNL     1      -2.859   5.501 -30.671  1.00  0.00     0.217 HD
ENDBRANCH  19  24
BRANCH  22  26
HETATM   26  N   UNL     1      -8.461   3.644 -30.425  1.00  0.00    -0.303 NA
HETATM   27  H   UNL     1      -8.763   2.796 -30.896  1.00  0.00     0.124 HD
HETATM   28  H   UNL     1      -9.010   4.448 -30.717  1.00  0.00     0.124 HD
ENDBRANCH  22  26
ENDBRANCH   2  18
TORSDOF 4
ENDMDL
MODEL 5
REMARK VINA RESULT:      -7.8     16.774     18.892
REMARK  4 active torsions:
REMARK  status: ('A' for Active; 'I' for Inactive)
REMARK    1  A    between atoms: N_6  and  N_7 
REMARK       I    between atoms: N_7  and  C_8 
REMARK    2  A    between atoms: C_8  and  C_9 
REMARK    3  A    between atoms: C_10  and  O_11 
REMARK    4  A    between atoms: C_14  and  N_15 
ROOT
HETATM    1  N   UNL     1      -6.271 -12.244 -39.404  1.00  0.00    -0.242 N 
HETATM    2  C   UNL     1      -7.284 -12.791 -38.634  1.00  0.00     0.274 C 
HETATM    3  O   UNL     1      -7.226 -13.031 -37.430  1.00  0.00    -0.266 OA
HETATM    4  H   UNL     1      -6.414 -12.049 -40.385  1.00  0.00     0.192 HD
ENDROOT
BRANCH   1   5
HETATM    5  N   UNL     1      -5.033 -12.056 -38.881  1.00  0.00    -0.166 NA
HETATM    6  C   UNL     1      -4.048 -12.779 -39.315  1.00  0.00     0.157 A 
HETATM    7  C   UNL     1      -2.671 -12.741 -38.625  1.00  0.00     0.279 A 
HETATM    8  C   UNL     1      -3.915 -13.725 -40.433  1.00  0.00     0.028 A 
HETATM    9  N   UNL     1      -1.898 -13.663 -39.307  1.00  0.00    -0.316 N 
HETATM   10  O   UNL     1      -2.376 -12.050 -37.675  1.00  0.00    -0.265 OA
HETATM   11  C   UNL     1      -0.520 -13.946 -39.005  1.00  0.00     0.159 C 
HETATM   12  C   UNL     1      -2.613 -14.234 -40.367  1.00  0.00     0.050 A 
HETATM   13  C   UNL     1      -2.155 -15.160 -41.289  1.00  0.00     0.032 A 
HETATM   14  C   UNL     1      -3.027 -15.564 -42.304  1.00  0.00     0.021 A 
HETATM   15  C   UNL     1      -4.320 -15.025 -42.386  1.00  0.00     0.012 A 
HETATM   16  C   UNL     1      -4.776 -14.086 -41.457  1.00  0.00     0.035 A 
HETATM   17 BR   UNL     1      -5.467 -15.570 -43.788  1.00  0.00    -0.051 Br
ENDBRANCH   1   5
BRANCH   2  18
HETATM   18  C   UNL     1      -8.583 -12.988 -39.329  1.00  0.00     0.068 A 
HETATM   19  C   UNL     1      -9.110 -14.280 -39.436  1.00  0.00     0.081 A 
HETATM   20  C   UNL     1     -10.377 -14.478 -39.972  1.00  0.00     0.039 A 
HETATM   21  C   UNL     1     -11.110 -13.386 -40.442  1.00  0.00     0.026 A 
HETATM   22  C   UNL     1     -10.559 -12.101 -40.441  1.00  0.00     0.006 A 
HETATM   23  C   UNL     1      -9.310 -11.903 -39.844  1.00  0.00     0.043 A 
BRANCH  19  24
HETATM   24  O   UNL     1      -8.447 -15.396 -39.001  1.00  0.00    -0.360 OA
HETATM   25  H   UNL     1      -7.921 -15.147 -38.207  1.00  0.00     0.217 HD
ENDBRANCH  19  24
BRANCH  22  26
HETATM   26  N   UNL     1     -11.340 -11.000 -40.812  1.00  0.00    -0.303 NA
HETATM   27  H   UNL     1     -12.326 -11.107 -40.592  1.00  0.00     0.124 HD
HETATM   28  H   UNL     1     -11.203 -10.695 -41.771  1.00  0.00     0.124 HD
ENDBRANCH  22  26
ENDBRANCH   2  18
TORSDOF 4
ENDMDL
MODEL 6
REMARK VINA RESULT:      -7.7      3.722      5.970
REMARK  4 active torsions:
REMARK  status: ('A' for Active; 'I' for Inactive)
REMARK    1  A    between atoms: N_6  and  N_7 
REMARK       I    between atoms: N_7  and  C_8 
REMARK    2  A    between atoms: C_8  and  C_9 
REMARK    3  A    between atoms: C_10  and  O_11 
REMARK    4  A    between atoms: C_14  and  N_15 
ROOT
HETATM    1  N   UNL     1      -8.245  -0.413 -33.456  1.00  0.00    -0.242 N 
HETATM    2  C   UNL     1      -7.411  -0.468 -34.561  1.00  0.00     0.274 C 
HETATM    3  O   UNL     1      -7.353   0.361 -35.465  1.00  0.00    -0.266 OA
HETATM    4  H   UNL     1      -8.206  -1.124 -32.740  1.00  0.00     0.192 HD
ENDROOT
BRANCH   1   5
HETATM    5  N   UNL     1      -9.205   0.542 -33.366  1.00  0.00    -0.166 NA
HETATM    6  C   UNL     1      -8.989   1.586 -32.628  1.00  0.00     0.157 A 
HETATM    7  C   UNL     1     -10.112   2.601 -32.339  1.00  0.00     0.279 A 
HETATM    8  C   UNL     1      -7.798   2.091 -31.929  1.00  0.00     0.028 A 
HETATM    9  N   UNL     1      -9.549   3.534 -31.489  1.00  0.00    -0.316 N 
HETATM   10  O   UNL     1     -11.243   2.544 -32.770  1.00  0.00    -0.265 OA
HETATM   11  C   UNL     1     -10.244   4.682 -30.971  1.00  0.00     0.159 C 
HETATM   12  C   UNL     1      -8.198   3.249 -31.252  1.00  0.00     0.050 A 
HETATM   13  C   UNL     1      -7.304   3.982 -30.489  1.00  0.00     0.032 A 
HETATM   14  C   UNL     1      -5.979   3.542 -30.425  1.00  0.00     0.021 A 
HETATM   15  C   UNL     1      -5.575   2.400 -31.135  1.00  0.00     0.012 A 
HETATM   16  C   UNL     1      -6.479   1.667 -31.908  1.00  0.00     0.035 A 
HETATM   17 BR   UNL     1      -3.768   1.846 -31.052  1.00  0.00    -0.051 Br
ENDBRANCH   1   5
BRANCH   2  18
HETATM   18  C   UNL     1      -6.428  -1.584 -34.565  1.00  0.00     0.068 A 
HETATM   19  C   UNL     1      -5.133  -1.351 -34.087  1.00  0.00     0.081 A 
HETATM   20  C   UNL     1      -4.232  -2.403 -33.966  1.00  0.00     0.039 A 
HETATM   21  C   UNL     1      -4.610  -3.689 -34.358  1.00  0.00     0.026 A 
HETATM   22  C   UNL     1      -5.861  -3.922 -34.935  1.00  0.00     0.006 A 
HETATM   23  C   UNL     1      -6.782  -2.872 -34.996  1.00  0.00     0.043 A 
BRANCH  19  24
HETATM   24  O   UNL     1      -4.693  -0.118 -33.690  1.00  0.00    -0.360 OA
HETATM   25  H   UNL     1      -5.319   0.556 -34.040  1.00  0.00     0.217 HD
ENDBRANCH  19  24
BRANCH  22  26
HETATM   26  N   UNL     1      -6.271  -5.230 -35.224  1.00  0.00    -0.303 NA
HETATM   27  H   UNL     1      -7.268  -5.313 -35.405  1.00  0.00     0.124 HD
HETATM   28  H   UNL     1      -5.955  -5.925 -34.555  1.00  0.00     0.124 HD
ENDBRANCH  22  26
ENDBRANCH   2  18
TORSDOF 4
ENDMDL
MODEL 7
REMARK VINA RESULT:      -7.6      3.783      6.820
REMARK  4 active torsions:
REMARK  status: ('A' for Active; 'I' for Inactive)
REMARK    1  A    between atoms: N_6  and  N_7 
REMARK       I    between atoms: N_7  and  C_8 
REMARK    2  A    between atoms: C_8  and  C_9 
REMARK    3  A    between atoms: C_10  and  O_11 
REMARK    4  A    between atoms: C_14  and  N_15 
ROOT
HETATM    1  N   UNL     1      -3.650   0.439 -33.039  1.00  0.00    -0.242 N 
HETATM    2  C   UNL     1      -3.599  -0.819 -32.459  1.00  0.00     0.274 C 
HETATM    3  O   UNL     1      -3.147  -1.084 -31.348  1.00  0.00    -0.266 OA
HETATM    4  H   UNL     1      -4.068   0.574 -33.948  1.00  0.00     0.192 HD
ENDROOT
BRANCH   1   5
HETATM    5  N   UNL     1      -3.044   1.496 -32.442  1.00  0.00    -0.166 NA
HETATM    6  C   UNL     1      -3.775   2.448 -31.951  1.00  0.00     0.157 A 
HETATM    7  C   UNL     1      -3.139   3.754 -31.437  1.00  0.00     0.279 A 
HETATM    8  C   UNL     1      -5.223   2.592 -31.739  1.00  0.00     0.028 A 
HETATM    9  N   UNL     1      -4.203   4.547 -31.048  1.00  0.00    -0.316 N 
HETATM   10  O   UNL     1      -1.953   4.002 -31.417  1.00  0.00    -0.265 OA
HETATM   11  C   UNL     1      -4.067   5.864 -30.486  1.00  0.00     0.159 C 
HETATM   12  C   UNL     1      -5.419   3.874 -31.213  1.00  0.00     0.050 A 
HETATM   13  C   UNL     1      -6.686   4.334 -30.891  1.00  0.00     0.032 A 
HETATM   14  C   UNL     1      -7.768   3.473 -31.093  1.00  0.00     0.021 A 
HETATM   15  C   UNL     1      -7.562   2.176 -31.589  1.00  0.00     0.012 A 
HETATM   16  C   UNL     1      -6.282   1.715 -31.905  1.00  0.00     0.035 A 
HETATM   17 BR   UNL     1      -9.045   1.024 -31.823  1.00  0.00    -0.051 Br
ENDBRANCH   1   5
BRANCH   2  18
HETATM   18  C   UNL     1      -4.262  -1.904 -33.227  1.00  0.00     0.068 A 
HETATM   19  C   UNL     1      -5.366  -1.594 -34.031  1.00  0.00     0.081 A 
HETATM   20  C   UNL     1      -5.930  -2.563 -34.852  1.00  0.00     0.039 A 
HETATM   21  C   UNL     1      -5.416  -3.861 -34.847  1.00  0.00     0.026 A 
HETATM   22  C   UNL     1      -4.383  -4.218 -33.976  1.00  0.00     0.006 A 
HETATM   23  C   UNL     1      -3.782  -3.223 -33.199  1.00  0.00     0.043 A 
BRANCH  19  24
HETATM   24  O   UNL     1      -5.925  -0.345 -34.083  1.00  0.00    -0.360 OA
HETATM   25  H   UNL     1      -5.999  -0.007 -33.161  1.00  0.00     0.217 HD
ENDBRANCH  19  24
BRANCH  22  26
HETATM   26  N   UNL     1      -3.803  -5.490 -34.055  1.00  0.00    -0.303 NA
HETATM   27  H   UNL     1      -2.789  -5.481 -33.975  1.00  0.00     0.124 HD
HETATM   28  H   UNL     1      -4.108  -6.040 -34.852  1.00  0.00     0.124 HD
ENDBRANCH  22  26
ENDBRANCH   2  18
TORSDOF 4
ENDMDL
MODEL 8
REMARK VINA RESULT:      -7.6      3.310      7.190
REMARK  4 active torsions:
REMARK  status: ('A' for Active; 'I' for Inactive)
REMARK    1  A    between atoms: N_6  and  N_7 
REMARK       I    between atoms: N_7  and  C_8 
REMARK    2  A    between atoms: C_8  and  C_9 
REMARK    3  A    between atoms: C_10  and  O_11 
REMARK    4  A    between atoms: C_14  and  N_15 
ROOT
HETATM    1  N   UNL     1      -3.824   1.630 -32.392  1.00  0.00    -0.242 N 
HETATM    2  C   UNL     1      -3.988   0.323 -31.964  1.00  0.00     0.274 C 
HETATM    3  O   UNL     1      -3.451  -0.190 -30.985  1.00  0.00    -0.266 OA
HETATM    4  H   UNL     1      -4.330   1.981 -33.192  1.00  0.00     0.192 HD
ENDROOT
BRANCH   1   5
HETATM    5  N   UNL     1      -2.899   2.434 -31.809  1.00  0.00    -0.166 NA
HETATM    6  C   UNL     1      -3.116   3.711 -31.756  1.00  0.00     0.157 A 
HETATM    7  C   UNL     1      -2.020   4.685 -31.281  1.00  0.00     0.279 A 
HETATM    8  C   UNL     1      -4.287   4.543 -32.070  1.00  0.00     0.028 A 
HETATM    9  N   UNL     1      -2.574   5.945 -31.408  1.00  0.00    -0.316 N 
HETATM   10  O   UNL     1      -0.912   4.371 -30.904  1.00  0.00    -0.265 OA
HETATM   11  C   UNL     1      -1.898   7.166 -31.058  1.00  0.00     0.159 C 
HETATM   12  C   UNL     1      -3.897   5.870 -31.859  1.00  0.00     0.050 A 
HETATM   13  C   UNL     1      -4.778   6.920 -32.063  1.00  0.00     0.032 A 
HETATM   14  C   UNL     1      -6.079   6.616 -32.473  1.00  0.00     0.021 A 
HETATM   15  C   UNL     1      -6.475   5.281 -32.649  1.00  0.00     0.012 A 
HETATM   16  C   UNL     1      -5.585   4.226 -32.436  1.00  0.00     0.035 A 
HETATM   17 BR   UNL     1      -8.252   4.902 -33.176  1.00  0.00    -0.051 Br
ENDBRANCH   1   5
BRANCH   2  18
HETATM   18  C   UNL     1      -5.001  -0.471 -32.707  1.00  0.00     0.068 A 
HETATM   19  C   UNL     1      -6.347  -0.090 -32.642  1.00  0.00     0.081 A 
HETATM   20  C   UNL     1      -7.298  -0.738 -33.422  1.00  0.00     0.039 A 
HETATM   21  C   UNL     1      -6.913  -1.799 -34.245  1.00  0.00     0.026 A 
HETATM   22  C   UNL     1      -5.595  -2.263 -34.245  1.00  0.00     0.006 A 
HETATM   23  C   UNL     1      -4.634  -1.566 -33.505  1.00  0.00     0.043 A 
BRANCH  19  24
HETATM   24  O   UNL     1      -6.796   0.937 -31.855  1.00  0.00    -0.360 OA
HETATM   25  H   UNL     1      -7.773   0.994 -31.960  1.00  0.00     0.217 HD
ENDBRANCH  19  24
BRANCH  22  26
HETATM   26  N   UNL     1      -5.196  -3.254 -35.151  1.00  0.00    -0.303 NA
HETATM   27  H   UNL     1      -5.456  -3.053 -36.113  1.00  0.00     0.124 HD
HETATM   28  H   UNL     1      -5.461  -4.196 -34.882  1.00  0.00     0.124 HD
ENDBRANCH  22  26
ENDBRANCH   2  18
TORSDOF 4
ENDMDL
MODEL 9
REMARK VINA RESULT:      -7.6      3.517      7.204
REMARK  4 active torsions:
REMARK  status: ('A' for Active; 'I' for Inactive)
REMARK    1  A    between atoms: N_6  and  N_7 
REMARK       I    between atoms: N_7  and  C_8 
REMARK    2  A    between atoms: C_8  and  C_9 
REMARK    3  A    between atoms: C_10  and  O_11 
REMARK    4  A    between atoms: C_14  and  N_15 
ROOT
HETATM    1  N   UNL     1      -3.711   1.804 -32.800  1.00  0.00    -0.242 N 
HETATM    2  C   UNL     1      -4.067   0.529 -32.392  1.00  0.00     0.274 C 
HETATM    3  O   UNL     1      -3.761  -0.000 -31.326  1.00  0.00    -0.266 OA
HETATM    4  H   UNL     1      -4.033   2.175 -33.683  1.00  0.00     0.192 HD
ENDROOT
BRANCH   1   5
HETATM    5  N   UNL     1      -2.837   2.541 -32.070  1.00  0.00    -0.166 NA
HETATM    6  C   UNL     1      -3.080   3.800 -31.877  1.00  0.00     0.157 A 
HETATM    7  C   UNL     1      -2.032   4.721 -31.223  1.00  0.00     0.279 A 
HETATM    8  C   UNL     1      -4.247   4.651 -32.159  1.00  0.00     0.028 A 
HETATM    9  N   UNL     1      -2.601   5.982 -31.231  1.00  0.00    -0.316 N 
HETATM   10  O   UNL     1      -0.943   4.376 -30.821  1.00  0.00    -0.265 OA
HETATM   11  C   UNL     1      -1.969   7.158 -30.696  1.00  0.00     0.159 C 
HETATM   12  C   UNL     1      -3.894   5.947 -31.766  1.00  0.00     0.050 A 
HETATM   13  C   UNL     1      -4.781   7.004 -31.895  1.00  0.00     0.032 A 
HETATM   14  C   UNL     1      -6.050   6.738 -32.416  1.00  0.00     0.021 A 
HETATM   15  C   UNL     1      -6.410   5.430 -32.775  1.00  0.00     0.012 A 
HETATM   16  C   UNL     1      -5.515   4.366 -32.638  1.00  0.00     0.035 A 
HETATM   17 BR   UNL     1      -8.146   5.097 -33.449  1.00  0.00    -0.051 Br
ENDBRANCH   1   5
BRANCH   2  18
HETATM   18  C   UNL     1      -4.998  -0.196 -33.296  1.00  0.00     0.068 A 
HETATM   19  C   UNL     1      -4.839  -1.576 -33.473  1.00  0.00     0.081 A 
HETATM   20  C   UNL     1      -5.767  -2.298 -34.214  1.00  0.00     0.039 A 
HETATM   21  C   UNL     1      -6.841  -1.637 -34.816  1.00  0.00     0.026 A 
HETATM   22  C   UNL     1      -6.959  -0.247 -34.738  1.00  0.00     0.006 A 
HETATM   23  C   UNL     1      -6.057   0.463 -33.940  1.00  0.00     0.043 A 
BRANCH  19  24
HETATM   24  O   UNL     1      -3.810  -2.287 -32.918  1.00  0.00    -0.360 OA
HETATM   25  H   UNL     1      -3.513  -2.956 -33.577  1.00  0.00     0.217 HD
ENDBRANCH  19  24
BRANCH  22  26
HETATM   26  N   UNL     1      -8.094   0.393 -35.251  1.00  0.00    -0.303 NA
HETATM   27  H   UNL     1      -7.886   1.258 -35.743  1.00  0.00     0.124 HD
HETATM   28  H   UNL     1      -8.843   0.520 -34.577  1.00  0.00     0.124 HD
ENDBRANCH  22  26
ENDBRANCH   2  18
TORSDOF 4
ENDMDL
MODEL 10
REMARK VINA RESULT:      -7.5      1.862      2.090
REMARK  4 active torsions:
REMARK  status: ('A' for Active; 'I' for Inactive)
REMARK    1  A    between atoms: N_6  and  N_7 
REMARK       I    between atoms: N_7  and  C_8 
REMARK    2  A    between atoms: C_8  and  C_9 
REMARK    3  A    between atoms: C_10  and  O_11 
REMARK    4  A    between atoms: C_14  and  N_15 
ROOT
HETATM    1  N   UNL     1      -6.087   4.933 -33.497  1.00  0.00    -0.242 N 
HETATM    2  C   UNL     1      -5.479   5.241 -32.291  1.00  0.00     0.274 C 
HETATM    3  O   UNL     1      -6.030   5.287 -31.194  1.00  0.00    -0.266 OA
HETATM    4  H   UNL     1      -5.551   4.886 -34.351  1.00  0.00     0.192 HD
ENDROOT
BRANCH   1   5
HETATM    5  N   UNL     1      -7.435   4.792 -33.571  1.00  0.00    -0.166 NA
HETATM    6  C   UNL     1      -7.938   3.606 -33.716  1.00  0.00     0.157 A 
HETATM    7  C   UNL     1      -9.440   3.408 -33.997  1.00  0.00     0.279 A 
HETATM    8  C   UNL     1      -7.355   2.256 -33.665  1.00  0.00     0.028 A 
HETATM    9  N   UNL     1      -9.605   2.043 -34.148  1.00  0.00    -0.316 N 
HETATM   10  O   UNL     1     -10.264   4.292 -34.081  1.00  0.00    -0.265 OA
HETATM   11  C   UNL     1     -10.867   1.405 -34.410  1.00  0.00     0.159 C 
HETATM   12  C   UNL     1      -8.396   1.365 -33.948  1.00  0.00     0.050 A 
HETATM   13  C   UNL     1      -8.185  -0.004 -33.976  1.00  0.00     0.032 A 
HETATM   14  C   UNL     1      -6.899  -0.476 -33.698  1.00  0.00     0.021 A 
HETATM   15  C   UNL     1      -5.866   0.420 -33.381  1.00  0.00     0.012 A 
HETATM   16  C   UNL     1      -6.086   1.800 -33.348  1.00  0.00     0.035 A 
HETATM   17 BR   UNL     1      -4.143  -0.252 -32.981  1.00  0.00    -0.051 Br
ENDBRANCH   1   5
BRANCH   2  18
HETATM   18  C   UNL     1      -4.003   5.412 -32.344  1.00  0.00     0.068 A 
HETATM   19  C   UNL     1      -3.186   4.490 -31.679  1.00  0.00     0.081 A 
HETATM   20  C   UNL     1      -1.804   4.555 -31.813  1.00  0.00     0.039 A 
HETATM   21  C   UNL     1      -1.228   5.568 -32.583  1.00  0.00     0.026 A 
HETATM   22  C   UNL     1      -2.020   6.559 -33.168  1.00  0.00     0.006 A 
HETATM   23  C   UNL     1      -3.411   6.451 -33.080  1.00  0.00     0.043 A 
BRANCH  19  24
HETATM   24  O   UNL     1      -3.680   3.475 -30.905  1.00  0.00    -0.360 OA
HETATM   25  H   UNL     1      -3.006   3.259 -30.221  1.00  0.00     0.217 HD
ENDBRANCH  19  24
BRANCH  22  26
HETATM   26  N   UNL     1      -1.445   7.506 -34.025  1.00  0.00    -0.303 NA
HETATM   27  H   UNL     1      -1.074   7.106 -34.883  1.00  0.00     0.124 HD
HETATM   28  H   UNL     1      -0.771   8.119 -33.578  1.00  0.00     0.124 HD
ENDBRANCH  22  26
ENDBRANCH   2  18
TORSDOF 4
ENDMDL
