MODEL 1
REMARK VINA RESULT:      -8.3      0.000      0.000
REMARK  3 active torsions:
REMARK  status: ('A' for Active; 'I' for Inactive)
REMARK    1  A    between atoms: C_6  and  N_7 
REMARK       I    between atoms: N_7  and  C_8 
REMARK    2  A    between atoms: C_8  and  C_9 
REMARK    3  A    between atoms: C_9  and  C_10 
ROOT
HETATM    1  C   UNL     1      -9.870   1.507 -34.448  1.00  0.00     0.286 C 
HETATM    2  N   UNL     1     -10.554   2.783 -34.932  1.00  0.00    -0.056 N 
HETATM    3  H   UNL     1     -10.387   3.512 -34.205  1.00  0.00     0.278 HD
HETATM    4  H   UNL     1     -10.086   3.139 -35.775  1.00  0.00     0.278 HD
HETATM    5  C   UNL     1     -12.034   2.613 -35.168  1.00  0.00     0.209 C 
HETATM    6  C   UNL     1     -12.701   2.092 -33.869  1.00  0.00     0.115 C 
HETATM    7  N   UNL     1     -12.018   0.912 -33.340  1.00  0.00    -0.353 N 
HETATM    8  C   UNL     1     -10.658   0.743 -33.364  1.00  0.00     0.249 C 
HETATM    9  O   UNL     1     -10.117  -0.054 -32.605  1.00  0.00    -0.271 OA
HETATM   10  C   UNL     1     -12.627   3.941 -35.637  1.00  0.00     0.035 C 
HETATM   11  C   UNL     1     -12.710   4.992 -34.532  1.00  0.00     0.002 C 
HETATM   12  C   UNL     1     -13.429   4.455 -33.301  1.00  0.00     0.002 C 
HETATM   13  C   UNL     1     -12.787   3.173 -32.781  1.00  0.00     0.027 C 
HETATM   14  H   UNL     1     -12.483   0.380 -32.605  1.00  0.00     0.163 HD
ENDROOT
BRANCH   1  15
HETATM   15  C   UNL     1      -8.450   1.799 -33.950  1.00  0.00     0.146 C 
BRANCH  15  16
HETATM   16  C   UNL     1      -7.522   0.739 -34.499  1.00  0.00     0.224 C 
HETATM   17  N   UNL     1      -7.152  -0.233 -33.604  1.00  0.00    -0.327 N 
HETATM   18  H   UNL     1      -7.412  -0.110 -32.630  1.00  0.00     0.169 HD
HETATM   19  O   UNL     1      -7.145   0.865 -35.666  1.00  0.00    -0.273 OA
BRANCH  17  20
HETATM   20  C   UNL     1      -6.313  -1.342 -33.862  1.00  0.00     0.036 A 
HETATM   21  C   UNL     1      -6.714  -2.470 -34.581  1.00  0.00     0.053 A 
HETATM   22  C   UNL     1      -5.820  -3.523 -34.790  1.00  0.00     0.036 A 
HETATM   23  C   UNL     1      -4.523  -3.466 -34.286  1.00  0.00     0.024 A 
HETATM   24 CL   UNL     1      -6.330  -4.908 -35.677  1.00  0.00    -0.084 Cl
HETATM   25  C   UNL     1      -4.118  -2.349 -33.562  1.00  0.00     0.004 A 
HETATM   26  C   UNL     1      -5.010  -1.294 -33.347  1.00  0.00     0.029 A 
ENDBRANCH  17  20
ENDBRANCH  15  16
ENDBRANCH   1  15
TORSDOF 3
ENDMDL
MODEL 2
REMARK VINA RESULT:      -8.0      5.269      7.027
REMARK  3 active torsions:
REMARK  status: ('A' for Active; 'I' for Inactive)
REMARK    1  A    between atoms: C_6  and  N_7 
REMARK       I    between atoms: N_7  and  C_8 
REMARK    2  A    between atoms: C_8  and  C_9 
REMARK    3  A    between atoms: C_9  and  C_10 
ROOT
HETATM    1  C   UNL     1      -3.843   3.172 -32.510  1.00  0.00     0.286 C 
HETATM    2  N   UNL     1      -2.633   3.883 -33.110  1.00  0.00    -0.056 N 
HETATM    3  H   UNL     1      -2.074   4.256 -32.312  1.00  0.00     0.278 HD
HETATM    4  H   UNL     1      -2.015   3.204 -33.571  1.00  0.00     0.278 HD
HETATM    5  C   UNL     1      -3.006   5.001 -34.051  1.00  0.00     0.209 C 
HETATM    6  C   UNL     1      -3.923   6.008 -33.310  1.00  0.00     0.115 C 
HETATM    7  N   UNL     1      -5.052   5.344 -32.660  1.00  0.00    -0.353 N 
HETATM    8  C   UNL     1      -4.964   4.124 -32.041  1.00  0.00     0.249 C 
HETATM    9  O   UNL     1      -5.805   3.784 -31.216  1.00  0.00    -0.271 OA
HETATM   10  C   UNL     1      -1.733   5.655 -34.588  1.00  0.00     0.035 C 
HETATM   11  C   UNL     1      -0.997   6.495 -33.547  1.00  0.00     0.002 C 
HETATM   12  C   UNL     1      -1.923   7.513 -32.891  1.00  0.00     0.002 C 
HETATM   13  C   UNL     1      -3.154   6.852 -32.282  1.00  0.00     0.027 C 
HETATM   14  H   UNL     1      -5.812   5.925 -32.311  1.00  0.00     0.163 HD
ENDROOT
BRANCH   1  15
HETATM   15  C   UNL     1      -3.425   2.254 -31.355  1.00  0.00     0.146 C 
BRANCH  15  16
HETATM   16  C   UNL     1      -3.910   0.854 -31.656  1.00  0.00     0.224 C 
HETATM   17  N   UNL     1      -4.317   0.643 -32.949  1.00  0.00    -0.327 N 
HETATM   18  H   UNL     1      -4.385   1.447 -33.566  1.00  0.00     0.169 HD
HETATM   19  O   UNL     1      -3.946   0.053 -30.719  1.00  0.00    -0.273 OA
BRANCH  17  20
HETATM   20  C   UNL     1      -4.795  -0.570 -33.496  1.00  0.00     0.036 A 
HETATM   21  C   UNL     1      -4.069  -1.764 -33.493  1.00  0.00     0.053 A 
HETATM   22  C   UNL     1      -4.617  -2.919 -34.056  1.00  0.00     0.036 A 
HETATM   23  C   UNL     1      -5.886  -2.899 -34.628  1.00  0.00     0.024 A 
HETATM   24 CL   UNL     1      -3.709  -4.382 -34.046  1.00  0.00    -0.084 Cl
HETATM   25  C   UNL     1      -6.613  -1.712 -34.642  1.00  0.00     0.004 A 
HETATM   26  C   UNL     1      -6.067  -0.552 -34.083  1.00  0.00     0.029 A 
ENDBRANCH  17  20
ENDBRANCH  15  16
ENDBRANCH   1  15
TORSDOF 3
ENDMDL
MODEL 3
REMARK VINA RESULT:      -7.9      2.879      4.812
REMARK  3 active torsions:
REMARK  status: ('A' for Active; 'I' for Inactive)
REMARK    1  A    between atoms: C_6  and  N_7 
REMARK       I    between atoms: N_7  and  C_8 
REMARK    2  A    between atoms: C_8  and  C_9 
REMARK    3  A    between atoms: C_9  and  C_10 
ROOT
HETATM    1  C   UNL     1      -8.140   2.522 -32.839  1.00  0.00     0.286 C 
HETATM    2  N   UNL     1      -6.696   2.955 -33.075  1.00  0.00    -0.056 N 
HETATM    3  H   UNL     1      -6.185   2.122 -33.440  1.00  0.00     0.278 HD
HETATM    4  H   UNL     1      -6.652   3.646 -33.835  1.00  0.00     0.278 HD
HETATM    5  C   UNL     1      -6.019   3.477 -31.832  1.00  0.00     0.209 C 
HETATM    6  C   UNL     1      -6.093   2.399 -30.720  1.00  0.00     0.115 C 
HETATM    7  N   UNL     1      -7.457   1.910 -30.524  1.00  0.00    -0.353 N 
HETATM    8  C   UNL     1      -8.348   1.706 -31.545  1.00  0.00     0.249 C 
HETATM    9  O   UNL     1      -9.316   0.970 -31.388  1.00  0.00    -0.271 OA
HETATM   10  C   UNL     1      -4.582   3.873 -32.168  1.00  0.00     0.035 C 
HETATM   11  C   UNL     1      -3.666   2.677 -32.418  1.00  0.00     0.002 C 
HETATM   12  C   UNL     1      -3.724   1.676 -31.270  1.00  0.00     0.002 C 
HETATM   13  C   UNL     1      -5.150   1.217 -30.988  1.00  0.00     0.027 C 
HETATM   14  H   UNL     1      -7.648   1.347 -29.696  1.00  0.00     0.163 HD
ENDROOT
BRANCH   1  15
HETATM   15  C   UNL     1      -8.684   1.739 -34.040  1.00  0.00     0.146 C 
BRANCH  15  16
HETATM   16  C   UNL     1      -7.609   0.790 -34.520  1.00  0.00     0.224 C 
HETATM   17  N   UNL     1      -7.401  -0.308 -33.724  1.00  0.00    -0.327 N 
HETATM   18  H   UNL     1      -7.877  -0.345 -32.827  1.00  0.00     0.169 HD
HETATM   19  O   UNL     1      -6.989   1.105 -35.538  1.00  0.00    -0.273 OA
BRANCH  17  20
HETATM   20  C   UNL     1      -6.475  -1.352 -33.951  1.00  0.00     0.036 A 
HETATM   21  C   UNL     1      -6.792  -2.542 -34.611  1.00  0.00     0.053 A 
HETATM   22  C   UNL     1      -5.814  -3.524 -34.793  1.00  0.00     0.036 A 
HETATM   23  C   UNL     1      -4.519  -3.334 -34.321  1.00  0.00     0.024 A 
HETATM   24 CL   UNL     1      -6.220  -4.985 -35.607  1.00  0.00    -0.084 Cl
HETATM   25  C   UNL     1      -4.197  -2.154 -33.656  1.00  0.00     0.004 A 
HETATM   26  C   UNL     1      -5.172  -1.171 -33.467  1.00  0.00     0.029 A 
ENDBRANCH  17  20
ENDBRANCH  15  16
ENDBRANCH   1  15
TORSDOF 3
ENDMDL
MODEL 4
REMARK VINA RESULT:      -7.9      3.297      4.481
REMARK  3 active torsions:
REMARK  status: ('A' for Active; 'I' for Inactive)
REMARK    1  A    between atoms: C_6  and  N_7 
REMARK       I    between atoms: N_7  and  C_8 
REMARK    2  A    between atoms: C_8  and  C_9 
REMARK    3  A    between atoms: C_9  and  C_10 
ROOT
HETATM    1  C   UNL     1      -5.622   2.685 -31.940  1.00  0.00     0.286 C 
HETATM    2  N   UNL     1      -6.788   1.749 -31.634  1.00  0.00    -0.056 N 
HETATM    3  H   UNL     1      -6.663   0.903 -32.231  1.00  0.00     0.278 HD
HETATM    4  H   UNL     1      -6.723   1.404 -30.669  1.00  0.00     0.278 HD
HETATM    5  C   UNL     1      -8.136   2.373 -31.894  1.00  0.00     0.209 C 
HETATM    6  C   UNL     1      -8.197   2.865 -33.363  1.00  0.00     0.115 C 
HETATM    7  N   UNL     1      -7.050   3.704 -33.706  1.00  0.00    -0.353 N 
HETATM    8  C   UNL     1      -5.775   3.473 -33.258  1.00  0.00     0.249 C 
HETATM    9  O   UNL     1      -4.813   3.956 -33.844  1.00  0.00    -0.271 OA
HETATM   10  C   UNL     1      -9.233   1.360 -31.570  1.00  0.00     0.035 C 
HETATM   11  C   UNL     1      -9.329   0.225 -32.587  1.00  0.00     0.002 C 
HETATM   12  C   UNL     1      -9.451   0.756 -34.010  1.00  0.00     0.002 C 
HETATM   13  C   UNL     1      -8.311   1.705 -34.363  1.00  0.00     0.027 C 
HETATM   14  H   UNL     1      -7.087   4.231 -34.578  1.00  0.00     0.163 HD
ENDROOT
BRANCH   1  15
HETATM   15  C   UNL     1      -4.291   1.923 -31.941  1.00  0.00     0.146 C 
BRANCH  15  16
HETATM   16  C   UNL     1      -4.583   0.447 -32.087  1.00  0.00     0.224 C 
HETATM   17  N   UNL     1      -4.792   0.018 -33.373  1.00  0.00    -0.327 N 
HETATM   18  H   UNL     1      -4.862   0.719 -34.106  1.00  0.00     0.169 HD
HETATM   19  O   UNL     1      -4.658  -0.220 -31.053  1.00  0.00    -0.273 OA
BRANCH  17  20
HETATM   20  C   UNL     1      -5.064  -1.306 -33.787  1.00  0.00     0.036 A 
HETATM   21  C   UNL     1      -4.137  -2.349 -33.720  1.00  0.00     0.053 A 
HETATM   22  C   UNL     1      -4.489  -3.630 -34.151  1.00  0.00     0.036 A 
HETATM   23  C   UNL     1      -5.762  -3.887 -34.654  1.00  0.00     0.024 A 
HETATM   24 CL   UNL     1      -3.334  -4.903 -34.063  1.00  0.00    -0.084 Cl
HETATM   25  C   UNL     1      -6.690  -2.852 -34.731  1.00  0.00     0.004 A 
HETATM   26  C   UNL     1      -6.341  -1.567 -34.305  1.00  0.00     0.029 A 
ENDBRANCH  17  20
ENDBRANCH  15  16
ENDBRANCH   1  15
TORSDOF 3
ENDMDL
MODEL 5
REMARK VINA RESULT:      -7.8      1.934      2.968
REMARK  3 active torsions:
REMARK  status: ('A' for Active; 'I' for Inactive)
REMARK    1  A    between atoms: C_6  and  N_7 
REMARK       I    between atoms: N_7  and  C_8 
REMARK    2  A    between atoms: C_8  and  C_9 
REMARK    3  A    between atoms: C_9  and  C_10 
ROOT
HETATM    1  C   UNL     1      -8.035   2.162 -33.357  1.00  0.00     0.286 C 
HETATM    2  N   UNL     1      -9.356   1.511 -33.758  1.00  0.00    -0.056 N 
HETATM    3  H   UNL     1      -9.383   1.495 -34.801  1.00  0.00     0.278 HD
HETATM    4  H   UNL     1      -9.363   0.522 -33.479  1.00  0.00     0.278 HD
HETATM    5  C   UNL     1     -10.565   2.233 -33.217  1.00  0.00     0.209 C 
HETATM    6  C   UNL     1     -10.522   3.714 -33.674  1.00  0.00     0.115 C 
HETATM    7  N   UNL     1      -9.237   4.342 -33.370  1.00  0.00    -0.353 N 
HETATM    8  C   UNL     1      -8.030   3.701 -33.476  1.00  0.00     0.249 C 
HETATM    9  O   UNL     1      -6.990   4.343 -33.571  1.00  0.00    -0.271 OA
HETATM   10  C   UNL     1     -11.832   1.515 -33.679  1.00  0.00     0.035 C 
HETATM   11  C   UNL     1     -12.125   1.700 -35.166  1.00  0.00     0.002 C 
HETATM   12  C   UNL     1     -12.136   3.173 -35.556  1.00  0.00     0.002 C 
HETATM   13  C   UNL     1     -10.838   3.873 -35.169  1.00  0.00     0.027 C 
HETATM   14  H   UNL     1      -9.169   5.356 -33.453  1.00  0.00     0.163 HD
ENDROOT
BRANCH   1  15
HETATM   15  C   UNL     1      -6.866   1.575 -34.158  1.00  0.00     0.146 C 
BRANCH  15  16
HETATM   16  C   UNL     1      -6.724   0.114 -33.798  1.00  0.00     0.224 C 
HETATM   17  N   UNL     1      -6.146  -0.671 -34.763  1.00  0.00    -0.327 N 
HETATM   18  H   UNL     1      -5.975  -0.259 -35.676  1.00  0.00     0.169 HD
HETATM   19  O   UNL     1      -7.178  -0.248 -32.710  1.00  0.00    -0.273 OA
BRANCH  17  20
HETATM   20  C   UNL     1      -5.881  -2.058 -34.676  1.00  0.00     0.036 A 
HETATM   21  C   UNL     1      -4.688  -2.592 -34.184  1.00  0.00     0.053 A 
HETATM   22  C   UNL     1      -4.509  -3.977 -34.133  1.00  0.00     0.036 A 
HETATM   23  C   UNL     1      -5.509  -4.841 -34.570  1.00  0.00     0.024 A 
HETATM   24 CL   UNL     1      -3.031  -4.620 -33.526  1.00  0.00    -0.084 Cl
HETATM   25  C   UNL     1      -6.698  -4.316 -35.069  1.00  0.00     0.004 A 
HETATM   26  C   UNL     1      -6.881  -2.932 -35.126  1.00  0.00     0.029 A 
ENDBRANCH  17  20
ENDBRANCH  15  16
ENDBRANCH   1  15
TORSDOF 3
ENDMDL
MODEL 6
REMARK VINA RESULT:      -7.8      1.636      2.009
REMARK  3 active torsions:
REMARK  status: ('A' for Active; 'I' for Inactive)
REMARK    1  A    between atoms: C_6  and  N_7 
REMARK       I    between atoms: N_7  and  C_8 
REMARK    2  A    between atoms: C_8  and  C_9 
REMARK    3  A    between atoms: C_9  and  C_10 
ROOT
HETATM    1  C   UNL     1      -9.637   1.948 -32.516  1.00  0.00     0.286 C 
HETATM    2  N   UNL     1     -10.356   1.836 -33.858  1.00  0.00    -0.056 N 
HETATM    3  H   UNL     1     -10.002   2.613 -34.457  1.00  0.00     0.278 HD
HETATM    4  H   UNL     1     -10.069   0.977 -34.343  1.00  0.00     0.278 HD
HETATM    5  C   UNL     1     -11.857   1.913 -33.738  1.00  0.00     0.209 C 
HETATM    6  C   UNL     1     -12.245   3.229 -33.016  1.00  0.00     0.115 C 
HETATM    7  N   UNL     1     -11.514   3.400 -31.761  1.00  0.00    -0.353 N 
HETATM    8  C   UNL     1     -10.200   3.047 -31.590  1.00  0.00     0.249 C 
HETATM    9  O   UNL     1      -9.541   3.530 -30.676  1.00  0.00    -0.271 OA
HETATM   10  C   UNL     1     -12.481   1.803 -35.128  1.00  0.00     0.035 C 
HETATM   11  C   UNL     1     -12.275   3.050 -35.986  1.00  0.00     0.002 C 
HETATM   12  C   UNL     1     -12.730   4.311 -35.260  1.00  0.00     0.002 C 
HETATM   13  C   UNL     1     -12.045   4.465 -33.906  1.00  0.00     0.027 C 
HETATM   14  H   UNL     1     -11.829   4.126 -31.119  1.00  0.00     0.163 HD
ENDROOT
BRANCH   1  15
HETATM   15  C   UNL     1      -8.131   2.157 -32.713  1.00  0.00     0.146 C 
BRANCH  15  16
HETATM   16  C   UNL     1      -7.446   0.811 -32.633  1.00  0.00     0.224 C 
HETATM   17  N   UNL     1      -6.909   0.359 -33.811  1.00  0.00    -0.327 N 
HETATM   18  H   UNL     1      -7.111   0.879 -34.660  1.00  0.00     0.169 HD
HETATM   19  O   UNL     1      -7.474   0.226 -31.549  1.00  0.00    -0.273 OA
BRANCH  17  20
HETATM   20  C   UNL     1      -6.203  -0.851 -34.008  1.00  0.00     0.036 A 
HETATM   21  C   UNL     1      -6.762  -1.992 -34.589  1.00  0.00     0.053 A 
HETATM   22  C   UNL     1      -5.993  -3.148 -34.745  1.00  0.00     0.036 A 
HETATM   23  C   UNL     1      -4.666  -3.182 -34.326  1.00  0.00     0.024 A 
HETATM   24 CL   UNL     1      -6.698  -4.546 -35.461  1.00  0.00    -0.084 Cl
HETATM   25  C   UNL     1      -4.104  -2.052 -33.739  1.00  0.00     0.004 A 
HETATM   26  C   UNL     1      -4.870  -0.894 -33.576  1.00  0.00     0.029 A 
ENDBRANCH  17  20
ENDBRANCH  15  16
ENDBRANCH   1  15
TORSDOF 3
ENDMDL
MODEL 7
REMARK VINA RESULT:      -7.8      5.503      7.778
REMARK  3 active torsions:
REMARK  status: ('A' for Active; 'I' for Inactive)
REMARK    1  A    between atoms: C_6  and  N_7 
REMARK       I    between atoms: N_7  and  C_8 
REMARK    2  A    between atoms: C_8  and  C_9 
REMARK    3  A    between atoms: C_9  and  C_10 
ROOT
HETATM    1  C   UNL     1      -6.968   2.175 -33.152  1.00  0.00     0.286 C 
HETATM    2  N   UNL     1      -5.817   1.174 -33.109  1.00  0.00    -0.056 N 
HETATM    3  H   UNL     1      -5.488   1.047 -34.091  1.00  0.00     0.278 HD
HETATM    4  H   UNL     1      -5.013   1.579 -32.612  1.00  0.00     0.278 HD
HETATM    5  C   UNL     1      -6.205  -0.156 -32.515  1.00  0.00     0.209 C 
HETATM    6  C   UNL     1      -7.407  -0.736 -33.304  1.00  0.00     0.115 C 
HETATM    7  N   UNL     1      -8.498   0.230 -33.426  1.00  0.00    -0.353 N 
HETATM    8  C   UNL     1      -8.308   1.573 -33.625  1.00  0.00     0.249 C 
HETATM    9  O   UNL     1      -9.211   2.268 -34.079  1.00  0.00    -0.271 OA
HETATM   10  C   UNL     1      -4.994  -1.088 -32.526  1.00  0.00     0.035 C 
HETATM   11  C   UNL     1      -4.623  -1.583 -33.922  1.00  0.00     0.002 C 
HETATM   12  C   UNL     1      -5.820  -2.202 -34.634  1.00  0.00     0.002 C 
HETATM   13  C   UNL     1      -7.003  -1.242 -34.696  1.00  0.00     0.027 C 
HETATM   14  H   UNL     1      -9.402  -0.108 -33.755  1.00  0.00     0.163 HD
ENDROOT
BRANCH   1  15
HETATM   15  C   UNL     1      -6.611   3.390 -34.017  1.00  0.00     0.146 C 
BRANCH  15  16
HETATM   16  C   UNL     1      -5.352   4.018 -33.464  1.00  0.00     0.224 C 
HETATM   17  N   UNL     1      -4.639   4.778 -34.356  1.00  0.00    -0.327 N 
HETATM   18  H   UNL     1      -4.924   4.765 -35.331  1.00  0.00     0.169 HD
HETATM   19  O   UNL     1      -5.053   3.755 -32.297  1.00  0.00    -0.273 OA
BRANCH  17  20
HETATM   20  C   UNL     1      -3.442   5.486 -34.095  1.00  0.00     0.036 A 
HETATM   21  C   UNL     1      -3.348   6.547 -33.191  1.00  0.00     0.053 A 
HETATM   22  C   UNL     1      -2.124   7.192 -32.993  1.00  0.00     0.036 A 
HETATM   23  C   UNL     1      -0.988   6.792 -33.690  1.00  0.00     0.024 A 
HETATM   24 CL   UNL     1      -2.025   8.500 -31.878  1.00  0.00    -0.084 Cl
HETATM   25  C   UNL     1      -1.075   5.740 -34.597  1.00  0.00     0.004 A 
HETATM   26  C   UNL     1      -2.297   5.094 -34.802  1.00  0.00     0.029 A 
ENDBRANCH  17  20
ENDBRANCH  15  16
ENDBRANCH   1  15
TORSDOF 3
ENDMDL
MODEL 8
REMARK VINA RESULT:      -7.7      5.454      7.614
REMARK  3 active torsions:
REMARK  status: ('A' for Active; 'I' for Inactive)
REMARK    1  A    between atoms: C_6  and  N_7 
REMARK       I    between atoms: N_7  and  C_8 
REMARK    2  A    between atoms: C_8  and  C_9 
REMARK    3  A    between atoms: C_9  and  C_10 
ROOT
HETATM    1  C   UNL     1      -3.982   3.908 -32.874  1.00  0.00     0.286 C 
HETATM    2  N   UNL     1      -2.793   4.379 -32.041  1.00  0.00    -0.056 N 
HETATM    3  H   UNL     1      -3.143   5.136 -31.414  1.00  0.00     0.278 HD
HETATM    4  H   UNL     1      -2.485   3.632 -31.407  1.00  0.00     0.278 HD
HETATM    5  C   UNL     1      -1.644   4.886 -32.877  1.00  0.00     0.209 C 
HETATM    6  C   UNL     1      -2.150   6.021 -33.805  1.00  0.00     0.115 C 
HETATM    7  N   UNL     1      -3.336   5.621 -34.560  1.00  0.00    -0.353 N 
HETATM    8  C   UNL     1      -4.342   4.846 -34.045  1.00  0.00     0.249 C 
HETATM    9  O   UNL     1      -5.453   4.843 -34.564  1.00  0.00    -0.271 OA
HETATM   10  C   UNL     1      -0.513   5.342 -31.957  1.00  0.00     0.035 C 
HETATM   11  C   UNL     1      -0.821   6.642 -31.216  1.00  0.00     0.002 C 
HETATM   12  C   UNL     1      -1.252   7.745 -32.174  1.00  0.00     0.002 C 
HETATM   13  C   UNL     1      -2.435   7.320 -33.037  1.00  0.00     0.027 C 
HETATM   14  H   UNL     1      -3.633   6.216 -35.333  1.00  0.00     0.163 HD
ENDROOT
BRANCH   1  15
HETATM   15  C   UNL     1      -5.217   3.681 -31.992  1.00  0.00     0.146 C 
BRANCH  15  16
HETATM   16  C   UNL     1      -5.654   2.242 -32.142  1.00  0.00     0.224 C 
HETATM   17  N   UNL     1      -5.429   1.689 -33.377  1.00  0.00    -0.327 N 
HETATM   18  H   UNL     1      -5.112   2.300 -34.124  1.00  0.00     0.169 HD
HETATM   19  O   UNL     1      -6.212   1.716 -31.176  1.00  0.00    -0.273 OA
BRANCH  17  20
HETATM   20  C   UNL     1      -5.725   0.364 -33.775  1.00  0.00     0.036 A 
HETATM   21  C   UNL     1      -4.865  -0.718 -33.577  1.00  0.00     0.053 A 
HETATM   22  C   UNL     1      -5.236  -1.996 -34.003  1.00  0.00     0.036 A 
HETATM   23  C   UNL     1      -6.461  -2.209 -34.629  1.00  0.00     0.024 A 
HETATM   24 CL   UNL     1      -4.164  -3.319 -33.753  1.00  0.00    -0.084 Cl
HETATM   25  C   UNL     1      -7.321  -1.135 -34.836  1.00  0.00     0.004 A 
HETATM   26  C   UNL     1      -6.952   0.146 -34.417  1.00  0.00     0.029 A 
ENDBRANCH  17  20
ENDBRANCH  15  16
ENDBRANCH   1  15
TORSDOF 3
ENDMDL
MODEL 9
REMARK VINA RESULT:      -7.7      3.836      5.782
REMARK  3 active torsions:
REMARK  status: ('A' for Active; 'I' for Inactive)
REMARK    1  A    between atoms: C_6  and  N_7 
REMARK       I    between atoms: N_7  and  C_8 
REMARK    2  A    between atoms: C_8  and  C_9 
REMARK    3  A    between atoms: C_9  and  C_10 
ROOT
HETATM    1  C   UNL     1      -6.854   3.675 -31.630  1.00  0.00     0.286 C 
HETATM    2  N   UNL     1      -6.051   4.471 -32.656  1.00  0.00    -0.056 N 
HETATM    3  H   UNL     1      -5.692   3.787 -33.357  1.00  0.00     0.278 HD
HETATM    4  H   UNL     1      -6.672   5.092 -33.188  1.00  0.00     0.278 HD
HETATM    5  C   UNL     1      -4.906   5.242 -32.048  1.00  0.00     0.209 C 
HETATM    6  C   UNL     1      -3.988   4.264 -31.270  1.00  0.00     0.115 C 
HETATM    7  N   UNL     1      -4.743   3.434 -30.333  1.00  0.00    -0.353 N 
HETATM    8  C   UNL     1      -5.987   2.924 -30.597  1.00  0.00     0.249 C 
HETATM    9  O   UNL     1      -6.413   1.963 -29.965  1.00  0.00    -0.271 OA
HETATM   10  C   UNL     1      -4.161   5.993 -33.150  1.00  0.00     0.035 C 
HETATM   11  C   UNL     1      -3.339   5.079 -34.057  1.00  0.00     0.002 C 
HETATM   12  C   UNL     1      -2.406   4.182 -33.253  1.00  0.00     0.002 C 
HETATM   13  C   UNL     1      -3.161   3.370 -32.206  1.00  0.00     0.027 C 
HETATM   14  H   UNL     1      -4.220   2.898 -29.641  1.00  0.00     0.163 HD
ENDROOT
BRANCH   1  15
HETATM   15  C   UNL     1      -7.808   2.692 -32.320  1.00  0.00     0.146 C 
BRANCH  15  16
HETATM   16  C   UNL     1      -6.987   1.720 -33.136  1.00  0.00     0.224 C 
HETATM   17  N   UNL     1      -6.876   0.460 -32.603  1.00  0.00    -0.327 N 
HETATM   18  H   UNL     1      -7.231   0.305 -31.664  1.00  0.00     0.169 HD
HETATM   19  O   UNL     1      -6.457   2.148 -34.163  1.00  0.00    -0.273 OA
BRANCH  17  20
HETATM   20  C   UNL     1      -6.185  -0.637 -33.167  1.00  0.00     0.036 A 
HETATM   21  C   UNL     1      -6.806  -1.661 -33.886  1.00  0.00     0.053 A 
HETATM   22  C   UNL     1      -6.046  -2.710 -34.411  1.00  0.00     0.036 A 
HETATM   23  C   UNL     1      -4.667  -2.752 -34.225  1.00  0.00     0.024 A 
HETATM   24 CL   UNL     1      -6.827  -3.965 -35.293  1.00  0.00    -0.084 Cl
HETATM   25  C   UNL     1      -4.041  -1.739 -33.504  1.00  0.00     0.004 A 
HETATM   26  C   UNL     1      -4.797  -0.690 -32.973  1.00  0.00     0.029 A 
ENDBRANCH  17  20
ENDBRANCH  15  16
ENDBRANCH   1  15
TORSDOF 3
ENDMDL
MODEL 10
REMARK VINA RESULT:      -7.6      6.865      8.676
REMARK  3 active torsions:
REMARK  status: ('A' for Active; 'I' for Inactive)
REMARK    1  A    between atoms: C_6  and  N_7 
REMARK       I    between atoms: N_7  and  C_8 
REMARK    2  A    between atoms: C_8  and  C_9 
REMARK    3  A    between atoms: C_9  and  C_10 
ROOT
HETATM    1  C   UNL     1      -5.134   3.324 -32.902  1.00  0.00     0.286 C 
HETATM    2  N   UNL     1      -4.927   1.813 -32.826  1.00  0.00    -0.056 N 
HETATM    3  H   UNL     1      -4.537   1.513 -33.746  1.00  0.00     0.278 HD
HETATM    4  H   UNL     1      -4.192   1.590 -32.143  1.00  0.00     0.278 HD
HETATM    5  C   UNL     1      -6.194   1.053 -32.524  1.00  0.00     0.209 C 
HETATM    6  C   UNL     1      -7.267   1.407 -33.586  1.00  0.00     0.115 C 
HETATM    7  N   UNL     1      -7.432   2.852 -33.735  1.00  0.00    -0.353 N 
HETATM    8  C   UNL     1      -6.396   3.747 -33.683  1.00  0.00     0.249 C 
HETATM    9  O   UNL     1      -6.517   4.868 -34.167  1.00  0.00    -0.271 OA
HETATM   10  C   UNL     1      -5.887  -0.444 -32.479  1.00  0.00     0.035 C 
HETATM   11  C   UNL     1      -5.603  -1.045 -33.854  1.00  0.00     0.002 C 
HETATM   12  C   UNL     1      -6.715  -0.725 -34.847  1.00  0.00     0.002 C 
HETATM   13  C   UNL     1      -6.967   0.775 -34.954  1.00  0.00     0.027 C 
HETATM   14  H   UNL     1      -8.238   3.189 -34.261  1.00  0.00     0.163 HD
ENDROOT
BRANCH   1  15
HETATM   15  C   UNL     1      -3.901   4.020 -33.490  1.00  0.00     0.146 C 
BRANCH  15  16
HETATM   16  C   UNL     1      -2.936   4.317 -32.365  1.00  0.00     0.224 C 
HETATM   17  N   UNL     1      -2.524   5.623 -32.279  1.00  0.00    -0.327 N 
HETATM   18  H   UNL     1      -2.785   6.257 -33.029  1.00  0.00     0.169 HD
HETATM   19  O   UNL     1      -2.570   3.369 -31.667  1.00  0.00    -0.273 OA
BRANCH  17  20
HETATM   20  C   UNL     1      -1.645   6.169 -31.316  1.00  0.00     0.036 A 
HETATM   21  C   UNL     1      -2.056   6.640 -30.066  1.00  0.00     0.053 A 
HETATM   22  C   UNL     1      -1.119   7.166 -29.172  1.00  0.00     0.036 A 
HETATM   23  C   UNL     1       0.230   7.229 -29.511  1.00  0.00     0.024 A 
HETATM   24 CL   UNL     1      -1.641   7.744 -27.638  1.00  0.00    -0.084 Cl
HETATM   25  C   UNL     1       0.646   6.768 -30.756  1.00  0.00     0.004 A 
HETATM   26  C   UNL     1      -0.287   6.246 -31.656  1.00  0.00     0.029 A 
ENDBRANCH  17  20
ENDBRANCH  15  16
ENDBRANCH   1  15
TORSDOF 3
ENDMDL
