MODEL 1
REMARK VINA RESULT:      -9.3      0.000      0.000
REMARK  8 active torsions:
REMARK  status: ('A' for Active; 'I' for Inactive)
REMARK    1  A    between atoms: O_2  and  C_3 
REMARK    2  A    between atoms: C_3  and  C_4 
REMARK    3  A    between atoms: C_7  and  C_8 
REMARK    4  A    between atoms: C_8  and  N_9 
REMARK    5  A    between atoms: C_18  and  C_19 
REMARK    6  A    between atoms: C_19  and  N_20 
REMARK    7  A    between atoms: C_24  and  O_25 
REMARK    8  A    between atoms: C_24  and  C_26 
ROOT
HETATM    1  N   UNL     1      -9.400   0.737 -33.592  1.00  0.00    -0.061 N 
HETATM    2  H   UNL     1      -9.683  -0.244 -33.493  1.00  0.00     0.280 HD
HETATM    3  C   UNL     1      -8.982   1.151 -32.197  1.00  0.00     0.276 C 
HETATM    4  C   UNL     1      -8.345   2.507 -32.083  1.00  0.00     0.002 A 
HETATM    5  C   UNL     1      -9.052   3.653 -32.448  1.00  0.00     0.076 A 
HETATM    6  O   UNL     1     -10.354   3.578 -32.857  1.00  0.00    -0.349 OA
HETATM    7  C   UNL     1     -10.488   2.981 -34.151  1.00  0.00     0.203 C 
HETATM    8  C   UNL     1     -10.656   1.460 -34.060  1.00  0.00     0.262 C 
HETATM    9  C   UNL     1      -7.052   2.658 -31.547  1.00  0.00     0.020 A 
HETATM   10  C   UNL     1      -6.465   3.931 -31.394  1.00  0.00    -0.032 A 
HETATM   11  C   UNL     1      -7.192   5.058 -31.799  1.00  0.00     0.011 A 
HETATM   12  C   UNL     1      -8.489   4.919 -32.302  1.00  0.00     0.038 A 
ENDROOT
BRANCH  10  13
HETATM   13  C   UNL     1      -5.082   4.064 -30.797  1.00  0.00     0.273 C 
BRANCH  13  14
HETATM   14  N   UNL     1      -4.079   4.845 -31.630  1.00  0.00    -0.067 N 
HETATM   15  H   UNL     1      -4.501   4.966 -32.560  1.00  0.00     0.280 HD
HETATM   16  C   UNL     1      -3.794   6.228 -31.088  1.00  0.00     0.238 C 
HETATM   17  C   UNL     1      -2.817   6.941 -32.005  1.00  0.00     0.071 C 
HETATM   18  C   UNL     1      -1.473   6.193 -32.100  1.00  0.00     0.089 C 
HETATM   19  C   UNL     1      -1.794   4.790 -32.654  1.00  0.00     0.071 C 
HETATM   20  C   UNL     1      -2.813   4.033 -31.814  1.00  0.00     0.238 C 
BRANCH  18  21
HETATM   21  O   UNL     1      -0.713   6.856 -33.110  1.00  0.00    -0.385 OA
HETATM   22  H   UNL     1      -0.320   7.676 -32.754  1.00  0.00     0.211 HD
ENDBRANCH  18  21
BRANCH  18  23
HETATM   23  C   UNL     1      -0.683   6.242 -30.797  1.00  0.00    -0.006 A 
HETATM   24  C   UNL     1       0.045   5.163 -30.302  1.00  0.00     0.126 A 
HETATM   25  N   UNL     1       0.690   5.149 -29.115  1.00  0.00    -0.272 NA
HETATM   26  C   UNL     1       0.696   6.292 -28.399  1.00  0.00     0.116 A 
HETATM   27  C   UNL     1       0.066   7.445 -28.818  1.00  0.00     0.020 A 
HETATM   28  C   UNL     1      -0.624   7.418 -30.028  1.00  0.00     0.013 A 
ENDBRANCH  18  23
ENDBRANCH  13  14
ENDBRANCH  10  13
BRANCH   1  29
HETATM   29  C   UNL     1      -8.307   0.720 -34.641  1.00  0.00     0.273 C 
BRANCH  29  30
HETATM   30  C   UNL     1      -7.184  -0.256 -34.389  1.00  0.00    -0.033 A 
HETATM   31  C   UNL     1      -7.327  -1.624 -34.658  1.00  0.00     0.010 A 
HETATM   32  C   UNL     1      -6.277  -2.509 -34.390  1.00  0.00     0.018 A 
HETATM   33  C   UNL     1      -5.063  -2.042 -33.869  1.00  0.00     0.039 A 
HETATM   34  C   UNL     1      -4.904  -0.672 -33.634  1.00  0.00     0.018 A 
HETATM   35  C   UNL     1      -5.954   0.212 -33.895  1.00  0.00     0.010 A 
BRANCH  33  36
HETATM   36  C   UNL     1      -3.989  -3.033 -33.582  1.00  0.00     0.292 C 
HETATM   37  O   UNL     1      -3.839  -4.053 -34.231  1.00  0.00    -0.259 OA
BRANCH  36  38
HETATM   38  O   UNL     1      -3.264  -2.651 -32.502  1.00  0.00    -0.323 OA
HETATM   39  C   UNL     1      -2.895  -3.733 -31.642  1.00  0.00     0.213 C 
ENDBRANCH  36  38
ENDBRANCH  33  36
ENDBRANCH  29  30
ENDBRANCH   1  29
TORSDOF 8
ENDMDL
MODEL 2
REMARK VINA RESULT:      -9.0      1.985      3.016
REMARK  8 active torsions:
REMARK  status: ('A' for Active; 'I' for Inactive)
REMARK    1  A    between atoms: O_2  and  C_3 
REMARK    2  A    between atoms: C_3  and  C_4 
REMARK    3  A    between atoms: C_7  and  C_8 
REMARK    4  A    between atoms: C_8  and  N_9 
REMARK    5  A    between atoms: C_18  and  C_19 
REMARK    6  A    between atoms: C_19  and  N_20 
REMARK    7  A    between atoms: C_24  and  O_25 
REMARK    8  A    between atoms: C_24  and  C_26 
ROOT
HETATM    1  N   UNL     1      -7.360   1.741 -32.452  1.00  0.00    -0.061 N 
HETATM    2  H   UNL     1      -7.589   0.878 -31.945  1.00  0.00     0.280 HD
HETATM    3  C   UNL     1      -6.163   2.304 -31.717  1.00  0.00     0.276 C 
HETATM    4  C   UNL     1      -5.502   3.489 -32.361  1.00  0.00     0.002 A 
HETATM    5  C   UNL     1      -6.212   4.673 -32.561  1.00  0.00     0.076 A 
HETATM    6  O   UNL     1      -7.499   4.806 -32.122  1.00  0.00    -0.349 OA
HETATM    7  C   UNL     1      -8.422   4.024 -32.888  1.00  0.00     0.203 C 
HETATM    8  C   UNL     1      -8.597   2.618 -32.304  1.00  0.00     0.262 C 
HETATM    9  C   UNL     1      -4.140   3.456 -32.717  1.00  0.00     0.020 A 
HETATM   10  C   UNL     1      -3.500   4.578 -33.280  1.00  0.00    -0.032 A 
HETATM   11  C   UNL     1      -4.252   5.741 -33.494  1.00  0.00     0.011 A 
HETATM   12  C   UNL     1      -5.596   5.794 -33.114  1.00  0.00     0.038 A 
ENDROOT
BRANCH  10  13
HETATM   13  C   UNL     1      -2.031   4.519 -33.634  1.00  0.00     0.273 C 
BRANCH  13  14
HETATM   14  N   UNL     1      -1.088   5.179 -32.641  1.00  0.00    -0.067 N 
HETATM   15  H   UNL     1      -0.156   4.777 -32.811  1.00  0.00     0.280 HD
HETATM   16  C   UNL     1      -0.968   6.675 -32.826  1.00  0.00     0.238 C 
HETATM   17  C   UNL     1       0.022   7.233 -31.820  1.00  0.00     0.071 C 
HETATM   18  C   UNL     1      -0.435   6.980 -30.369  1.00  0.00     0.089 C 
HETATM   19  C   UNL     1      -0.548   5.449 -30.210  1.00  0.00     0.071 C 
HETATM   20  C   UNL     1      -1.484   4.809 -31.225  1.00  0.00     0.238 C 
BRANCH  18  21
HETATM   21  O   UNL     1       0.645   7.389 -29.530  1.00  0.00    -0.385 OA
HETATM   22  H   UNL     1       1.419   6.809 -29.669  1.00  0.00     0.211 HD
ENDBRANCH  18  21
BRANCH  18  23
HETATM   23  C   UNL     1      -1.669   7.792 -29.994  1.00  0.00    -0.006 A 
HETATM   24  C   UNL     1      -2.438   7.538 -28.861  1.00  0.00     0.126 A 
HETATM   25  N   UNL     1      -3.578   8.188 -28.543  1.00  0.00    -0.272 NA
HETATM   26  C   UNL     1      -3.951   9.212 -29.336  1.00  0.00     0.116 A 
HETATM   27  C   UNL     1      -3.233   9.601 -30.449  1.00  0.00     0.020 A 
HETATM   28  C   UNL     1      -2.082   8.886 -30.775  1.00  0.00     0.013 A 
ENDBRANCH  18  23
ENDBRANCH  13  14
ENDBRANCH  10  13
BRANCH   1  29
HETATM   29  C   UNL     1      -7.122   1.297 -33.881  1.00  0.00     0.273 C 
BRANCH  29  30
HETATM   30  C   UNL     1      -6.601  -0.109 -34.043  1.00  0.00    -0.033 A 
HETATM   31  C   UNL     1      -5.272  -0.440 -33.742  1.00  0.00     0.010 A 
HETATM   32  C   UNL     1      -4.811  -1.747 -33.928  1.00  0.00     0.018 A 
HETATM   33  C   UNL     1      -5.671  -2.749 -34.395  1.00  0.00     0.039 A 
HETATM   34  C   UNL     1      -7.008  -2.432 -34.661  1.00  0.00     0.018 A 
HETATM   35  C   UNL     1      -7.467  -1.125 -34.483  1.00  0.00     0.010 A 
BRANCH  33  36
HETATM   36  C   UNL     1      -5.119  -4.118 -34.595  1.00  0.00     0.292 C 
HETATM   37  O   UNL     1      -5.816  -5.079 -34.870  1.00  0.00    -0.259 OA
BRANCH  36  38
HETATM   38  O   UNL     1      -3.779  -4.127 -34.388  1.00  0.00    -0.323 OA
HETATM   39  C   UNL     1      -3.375  -4.896 -33.251  1.00  0.00     0.213 C 
ENDBRANCH  36  38
ENDBRANCH  33  36
ENDBRANCH  29  30
ENDBRANCH   1  29
TORSDOF 8
ENDMDL
MODEL 3
REMARK VINA RESULT:      -9.0      2.286      5.681
REMARK  8 active torsions:
REMARK  status: ('A' for Active; 'I' for Inactive)
REMARK    1  A    between atoms: O_2  and  C_3 
REMARK    2  A    between atoms: C_3  and  C_4 
REMARK    3  A    between atoms: C_7  and  C_8 
REMARK    4  A    between atoms: C_8  and  N_9 
REMARK    5  A    between atoms: C_18  and  C_19 
REMARK    6  A    between atoms: C_19  and  N_20 
REMARK    7  A    between atoms: C_24  and  O_25 
REMARK    8  A    between atoms: C_24  and  C_26 
ROOT
HETATM    1  N   UNL     1      -7.880   0.176 -34.401  1.00  0.00    -0.061 N 
HETATM    2  H   UNL     1      -8.545   0.437 -35.138  1.00  0.00     0.280 HD
HETATM    3  C   UNL     1      -6.749   1.171 -34.544  1.00  0.00     0.276 C 
HETATM    4  C   UNL     1      -5.707   1.132 -33.463  1.00  0.00     0.002 A 
HETATM    5  C   UNL     1      -4.956  -0.024 -33.247  1.00  0.00     0.076 A 
HETATM    6  O   UNL     1      -5.103  -1.121 -34.048  1.00  0.00    -0.349 OA
HETATM    7  C   UNL     1      -6.350  -1.791 -33.835  1.00  0.00     0.203 C 
HETATM    8  C   UNL     1      -7.452  -1.243 -34.749  1.00  0.00     0.262 C 
HETATM    9  C   UNL     1      -5.420   2.272 -32.690  1.00  0.00     0.020 A 
HETATM   10  C   UNL     1      -4.412   2.258 -31.704  1.00  0.00    -0.032 A 
HETATM   11  C   UNL     1      -3.697   1.071 -31.494  1.00  0.00     0.011 A 
HETATM   12  C   UNL     1      -3.954  -0.056 -32.279  1.00  0.00     0.038 A 
ENDROOT
BRANCH  10  13
HETATM   13  C   UNL     1      -4.112   3.505 -30.903  1.00  0.00     0.273 C 
BRANCH  13  14
HETATM   14  N   UNL     1      -3.625   4.701 -31.705  1.00  0.00    -0.067 N 
HETATM   15  H   UNL     1      -4.047   4.618 -32.640  1.00  0.00     0.280 HD
HETATM   16  C   UNL     1      -4.069   6.030 -31.135  1.00  0.00     0.238 C 
HETATM   17  C   UNL     1      -3.570   7.155 -32.023  1.00  0.00     0.071 C 
HETATM   18  C   UNL     1      -2.031   7.176 -32.108  1.00  0.00     0.089 C 
HETATM   19  C   UNL     1      -1.609   5.812 -32.693  1.00  0.00     0.071 C 
HETATM   20  C   UNL     1      -2.122   4.629 -31.883  1.00  0.00     0.238 C 
BRANCH  18  21
HETATM   21  O   UNL     1      -1.695   8.152 -33.094  1.00  0.00    -0.385 OA
HETATM   22  H   UNL     1      -0.753   8.073 -33.341  1.00  0.00     0.211 HD
ENDBRANCH  18  21
BRANCH  18  23
HETATM   23  C   UNL     1      -1.378   7.580 -30.792  1.00  0.00    -0.006 A 
HETATM   24  C   UNL     1      -1.973   8.443 -29.875  1.00  0.00     0.126 A 
HETATM   25  N   UNL     1      -1.389   8.881 -28.739  1.00  0.00    -0.272 NA
HETATM   26  C   UNL     1      -0.176   8.379 -28.431  1.00  0.00     0.116 A 
HETATM   27  C   UNL     1       0.484   7.466 -29.228  1.00  0.00     0.020 A 
HETATM   28  C   UNL     1      -0.126   7.063 -30.414  1.00  0.00     0.013 A 
ENDBRANCH  18  23
ENDBRANCH  13  14
ENDBRANCH  10  13
BRANCH   1  29
HETATM   29  C   UNL     1      -8.680   0.250 -33.116  1.00  0.00     0.273 C 
BRANCH  29  30
HETATM   30  C   UNL     1     -10.150   0.541 -33.286  1.00  0.00    -0.033 A 
HETATM   31  C   UNL     1     -11.114  -0.474 -33.207  1.00  0.00     0.010 A 
HETATM   32  C   UNL     1     -12.468  -0.178 -33.395  1.00  0.00     0.018 A 
HETATM   33  C   UNL     1     -12.885   1.136 -33.643  1.00  0.00     0.039 A 
HETATM   34  C   UNL     1     -11.930   2.158 -33.686  1.00  0.00     0.018 A 
HETATM   35  C   UNL     1     -10.577   1.862 -33.505  1.00  0.00     0.010 A 
BRANCH  33  36
HETATM   36  C   UNL     1     -14.337   1.388 -33.857  1.00  0.00     0.292 C 
HETATM   37  O   UNL     1     -15.019   0.726 -34.620  1.00  0.00    -0.259 OA
BRANCH  36  38
HETATM   38  O   UNL     1     -14.749   2.455 -33.128  1.00  0.00    -0.323 OA
HETATM   39  C   UNL     1     -15.787   2.149 -32.192  1.00  0.00     0.213 C 
ENDBRANCH  36  38
ENDBRANCH  33  36
ENDBRANCH  29  30
ENDBRANCH   1  29
TORSDOF 8
ENDMDL
MODEL 4
REMARK VINA RESULT:      -8.8      1.544      1.974
REMARK  8 active torsions:
REMARK  status: ('A' for Active; 'I' for Inactive)
REMARK    1  A    between atoms: O_2  and  C_3 
REMARK    2  A    between atoms: C_3  and  C_4 
REMARK    3  A    between atoms: C_7  and  C_8 
REMARK    4  A    between atoms: C_8  and  N_9 
REMARK    5  A    between atoms: C_18  and  C_19 
REMARK    6  A    between atoms: C_19  and  N_20 
REMARK    7  A    between atoms: C_24  and  O_25 
REMARK    8  A    between atoms: C_24  and  C_26 
ROOT
HETATM    1  N   UNL     1      -9.418   1.963 -32.461  1.00  0.00    -0.061 N 
HETATM    2  H   UNL     1      -9.488   0.957 -32.271  1.00  0.00     0.280 HD
HETATM    3  C   UNL     1      -9.067   2.576 -31.123  1.00  0.00     0.276 C 
HETATM    4  C   UNL     1      -8.726   4.039 -31.146  1.00  0.00     0.002 A 
HETATM    5  C   UNL     1      -9.663   4.977 -31.578  1.00  0.00     0.076 A 
HETATM    6  O   UNL     1     -10.929   4.600 -31.927  1.00  0.00    -0.349 OA
HETATM    7  C   UNL     1     -10.963   3.874 -33.161  1.00  0.00     0.203 C 
HETATM    8  C   UNL     1     -10.807   2.365 -32.938  1.00  0.00     0.262 C 
HETATM    9  C   UNL     1      -7.482   4.501 -30.676  1.00  0.00     0.020 A 
HETATM   10  C   UNL     1      -7.170   5.876 -30.652  1.00  0.00    -0.032 A 
HETATM   11  C   UNL     1      -8.125   6.788 -31.121  1.00  0.00     0.011 A 
HETATM   12  C   UNL     1      -9.375   6.340 -31.559  1.00  0.00     0.038 A 
ENDROOT
BRANCH  10  13
HETATM   13  C   UNL     1      -5.834   6.345 -30.122  1.00  0.00     0.273 C 
BRANCH  13  14
HETATM   14  N   UNL     1      -4.886   6.931 -31.156  1.00  0.00    -0.067 N 
HETATM   15  H   UNL     1      -5.458   7.513 -31.782  1.00  0.00     0.280 HD
HETATM   16  C   UNL     1      -3.826   7.830 -30.560  1.00  0.00     0.238 C 
HETATM   17  C   UNL     1      -2.958   8.396 -31.670  1.00  0.00     0.071 C 
HETATM   18  C   UNL     1      -2.236   7.283 -32.454  1.00  0.00     0.089 C 
HETATM   19  C   UNL     1      -3.340   6.384 -33.049  1.00  0.00     0.071 C 
HETATM   20  C   UNL     1      -4.286   5.822 -31.998  1.00  0.00     0.238 C 
BRANCH  18  21
HETATM   21  O   UNL     1      -1.600   7.919 -33.562  1.00  0.00    -0.385 OA
HETATM   22  H   UNL     1      -0.968   8.594 -33.247  1.00  0.00     0.211 HD
ENDBRANCH  18  21
BRANCH  18  23
HETATM   23  C   UNL     1      -1.166   6.583 -31.624  1.00  0.00    -0.006 A 
HETATM   24  C   UNL     1      -0.707   5.296 -31.895  1.00  0.00     0.126 A 
HETATM   25  N   UNL     1       0.180   4.619 -31.135  1.00  0.00    -0.272 NA
HETATM   26  C   UNL     1       0.723   5.270 -30.086  1.00  0.00     0.116 A 
HETATM   27  C   UNL     1       0.396   6.570 -29.757  1.00  0.00     0.020 A 
HETATM   28  C   UNL     1      -0.553   7.229 -30.537  1.00  0.00     0.013 A 
ENDBRANCH  18  23
ENDBRANCH  13  14
ENDBRANCH  10  13
BRANCH   1  29
HETATM   29  C   UNL     1      -8.367   2.078 -33.547  1.00  0.00     0.273 C 
BRANCH  29  30
HETATM   30  C   UNL     1      -7.516   0.851 -33.755  1.00  0.00    -0.033 A 
HETATM   31  C   UNL     1      -7.402   0.240 -35.012  1.00  0.00     0.010 A 
HETATM   32  C   UNL     1      -6.625  -0.913 -35.168  1.00  0.00     0.018 A 
HETATM   33  C   UNL     1      -5.934  -1.463 -34.081  1.00  0.00     0.039 A 
HETATM   34  C   UNL     1      -6.015  -0.835 -32.833  1.00  0.00     0.018 A 
HETATM   35  C   UNL     1      -6.796   0.312 -32.674  1.00  0.00     0.010 A 
BRANCH  33  36
HETATM   36  C   UNL     1      -5.141  -2.704 -34.302  1.00  0.00     0.292 C 
HETATM   37  O   UNL     1      -4.157  -2.987 -33.642  1.00  0.00    -0.259 OA
BRANCH  36  38
HETATM   38  O   UNL     1      -5.646  -3.415 -35.340  1.00  0.00    -0.323 OA
HETATM   39  C   UNL     1      -6.473  -4.513 -34.940  1.00  0.00     0.213 C 
ENDBRANCH  36  38
ENDBRANCH  33  36
ENDBRANCH  29  30
ENDBRANCH   1  29
TORSDOF 8
ENDMDL
MODEL 5
REMARK VINA RESULT:      -8.8      2.823      8.749
REMARK  8 active torsions:
REMARK  status: ('A' for Active; 'I' for Inactive)
REMARK    1  A    between atoms: O_2  and  C_3 
REMARK    2  A    between atoms: C_3  and  C_4 
REMARK    3  A    between atoms: C_7  and  C_8 
REMARK    4  A    between atoms: C_8  and  N_9 
REMARK    5  A    between atoms: C_18  and  C_19 
REMARK    6  A    between atoms: C_19  and  N_20 
REMARK    7  A    between atoms: C_24  and  O_25 
REMARK    8  A    between atoms: C_24  and  C_26 
ROOT
HETATM    1  N   UNL     1      -1.715   9.044 -29.081  1.00  0.00    -0.061 N 
HETATM    2  H   UNL     1      -1.404   9.805 -29.696  1.00  0.00     0.280 HD
HETATM    3  C   UNL     1      -3.201   8.934 -29.341  1.00  0.00     0.276 C 
HETATM    4  C   UNL     1      -3.891   7.765 -28.696  1.00  0.00     0.002 A 
HETATM    5  C   UNL     1      -3.900   7.629 -27.307  1.00  0.00     0.076 A 
HETATM    6  O   UNL     1      -3.343   8.581 -26.501  1.00  0.00    -0.349 OA
HETATM    7  C   UNL     1      -1.913   8.591 -26.574  1.00  0.00     0.203 C 
HETATM    8  C   UNL     1      -1.406   9.533 -27.672  1.00  0.00     0.262 C 
HETATM    9  C   UNL     1      -4.593   6.821 -29.467  1.00  0.00     0.020 A 
HETATM   10  C   UNL     1      -5.281   5.746 -28.867  1.00  0.00    -0.032 A 
HETATM   11  C   UNL     1      -5.244   5.624 -27.471  1.00  0.00     0.011 A 
HETATM   12  C   UNL     1      -4.576   6.576 -26.696  1.00  0.00     0.038 A 
ENDROOT
BRANCH  10  13
HETATM   13  C   UNL     1      -6.043   4.759 -29.720  1.00  0.00     0.273 C 
BRANCH  13  14
HETATM   14  N   UNL     1      -5.409   3.384 -29.861  1.00  0.00    -0.067 N 
HETATM   15  H   UNL     1      -4.881   3.215 -28.994  1.00  0.00     0.280 HD
HETATM   16  C   UNL     1      -6.419   2.265 -29.991  1.00  0.00     0.238 C 
HETATM   17  C   UNL     1      -5.693   0.935 -30.084  1.00  0.00     0.071 C 
HETATM   18  C   UNL     1      -4.770   0.874 -31.317  1.00  0.00     0.089 C 
HETATM   19  C   UNL     1      -3.753   2.023 -31.156  1.00  0.00     0.071 C 
HETATM   20  C   UNL     1      -4.411   3.387 -31.001  1.00  0.00     0.238 C 
BRANCH  18  21
HETATM   21  O   UNL     1      -4.023  -0.337 -31.201  1.00  0.00    -0.385 OA
HETATM   22  H   UNL     1      -3.967  -0.784 -32.068  1.00  0.00     0.211 HD
ENDBRANCH  18  21
BRANCH  18  23
HETATM   23  C   UNL     1      -5.546   0.835 -32.628  1.00  0.00    -0.006 A 
HETATM   24  C   UNL     1      -6.233   1.932 -33.144  1.00  0.00     0.126 A 
HETATM   25  N   UNL     1      -6.993   1.908 -34.260  1.00  0.00    -0.272 NA
HETATM   26  C   UNL     1      -7.019   0.762 -34.969  1.00  0.00     0.116 A 
HETATM   27  C   UNL     1      -6.326  -0.371 -34.593  1.00  0.00     0.020 A 
HETATM   28  C   UNL     1      -5.582  -0.329 -33.416  1.00  0.00     0.013 A 
ENDBRANCH  18  23
ENDBRANCH  13  14
ENDBRANCH  10  13
BRANCH   1  29
HETATM   29  C   UNL     1      -0.873   7.851 -29.487  1.00  0.00     0.273 C 
BRANCH  29  30
HETATM   30  C   UNL     1      -1.194   7.262 -30.838  1.00  0.00    -0.033 A 
HETATM   31  C   UNL     1      -1.397   8.073 -31.963  1.00  0.00     0.010 A 
HETATM   32  C   UNL     1      -1.719   7.499 -33.198  1.00  0.00     0.018 A 
HETATM   33  C   UNL     1      -1.826   6.109 -33.334  1.00  0.00     0.039 A 
HETATM   34  C   UNL     1      -1.588   5.294 -32.221  1.00  0.00     0.018 A 
HETATM   35  C   UNL     1      -1.273   5.867 -30.987  1.00  0.00     0.010 A 
BRANCH  33  36
HETATM   36  C   UNL     1      -2.194   5.556 -34.667  1.00  0.00     0.292 C 
HETATM   37  O   UNL     1      -1.431   4.884 -35.339  1.00  0.00    -0.259 OA
BRANCH  36  38
HETATM   38  O   UNL     1      -3.448   5.939 -35.012  1.00  0.00    -0.323 OA
HETATM   39  C   UNL     1      -4.464   5.007 -34.628  1.00  0.00     0.213 C 
ENDBRANCH  36  38
ENDBRANCH  33  36
ENDBRANCH  29  30
ENDBRANCH   1  29
TORSDOF 8
ENDMDL
MODEL 6
REMARK VINA RESULT:      -8.7      6.269     11.372
REMARK  8 active torsions:
REMARK  status: ('A' for Active; 'I' for Inactive)
REMARK    1  A    between atoms: O_2  and  C_3 
REMARK    2  A    between atoms: C_3  and  C_4 
REMARK    3  A    between atoms: C_7  and  C_8 
REMARK    4  A    between atoms: C_8  and  N_9 
REMARK    5  A    between atoms: C_18  and  C_19 
REMARK    6  A    between atoms: C_19  and  N_20 
REMARK    7  A    between atoms: C_24  and  O_25 
REMARK    8  A    between atoms: C_24  and  C_26 
ROOT
HETATM    1  N   UNL     1      -0.882   6.563 -28.035  1.00  0.00    -0.061 N 
HETATM    2  H   UNL     1      -0.944   5.579 -28.317  1.00  0.00     0.280 HD
HETATM    3  C   UNL     1      -0.223   6.525 -26.673  1.00  0.00     0.276 C 
HETATM    4  C   UNL     1       0.157   7.859 -26.096  1.00  0.00     0.002 A 
HETATM    5  C   UNL     1      -0.818   8.823 -25.840  1.00  0.00     0.076 A 
HETATM    6  O   UNL     1      -2.143   8.558 -26.047  1.00  0.00    -0.349 OA
HETATM    7  C   UNL     1      -2.473   8.472 -27.437  1.00  0.00     0.203 C 
HETATM    8  C   UNL     1      -2.326   7.041 -27.969  1.00  0.00     0.262 C 
HETATM    9  C   UNL     1       1.489   8.143 -25.741  1.00  0.00     0.020 A 
HETATM   10  C   UNL     1       1.848   9.374 -25.156  1.00  0.00    -0.032 A 
HETATM   11  C   UNL     1       0.847  10.331 -24.941  1.00  0.00     0.011 A 
HETATM   12  C   UNL     1      -0.484  10.045 -25.261  1.00  0.00     0.038 A 
ENDROOT
BRANCH  10  13
HETATM   13  C   UNL     1       3.284   9.643 -24.767  1.00  0.00     0.273 C 
BRANCH  13  14
HETATM   14  N   UNL     1       3.607   9.479 -23.291  1.00  0.00    -0.067 N 
HETATM   15  H   UNL     1       2.844   9.933 -22.772  1.00  0.00     0.280 HD
HETATM   16  C   UNL     1       3.655   8.036 -22.841  1.00  0.00     0.238 C 
HETATM   17  C   UNL     1       3.943   7.979 -21.352  1.00  0.00     0.071 C 
HETATM   18  C   UNL     1       5.303   8.618 -21.008  1.00  0.00     0.089 C 
HETATM   19  C   UNL     1       5.224  10.085 -21.477  1.00  0.00     0.071 C 
HETATM   20  C   UNL     1       4.883  10.225 -22.954  1.00  0.00     0.238 C 
BRANCH  18  21
HETATM   21  O   UNL     1       5.380   8.659 -19.583  1.00  0.00    -0.385 OA
HETATM   22  H   UNL     1       5.535   7.762 -19.227  1.00  0.00     0.211 HD
ENDBRANCH  18  21
BRANCH  18  23
HETATM   23  C   UNL     1       6.480   7.802 -21.528  1.00  0.00    -0.006 A 
HETATM   24  C   UNL     1       7.497   8.340 -22.314  1.00  0.00     0.126 A 
HETATM   25  N   UNL     1       8.510   7.630 -22.854  1.00  0.00    -0.272 NA
HETATM   26  C   UNL     1       8.587   6.321 -22.541  1.00  0.00     0.116 A 
HETATM   27  C   UNL     1       7.676   5.690 -21.718  1.00  0.00     0.020 A 
HETATM   28  C   UNL     1       6.619   6.440 -21.207  1.00  0.00     0.013 A 
ENDBRANCH  18  23
ENDBRANCH  13  14
ENDBRANCH  10  13
BRANCH   1  29
HETATM   29  C   UNL     1      -0.092   7.232 -29.143  1.00  0.00     0.273 C 
BRANCH  29  30
HETATM   30  C   UNL     1      -0.517   6.876 -30.545  1.00  0.00    -0.033 A 
HETATM   31  C   UNL     1      -1.087   7.827 -31.404  1.00  0.00     0.010 A 
HETATM   32  C   UNL     1      -1.495   7.460 -32.691  1.00  0.00     0.018 A 
HETATM   33  C   UNL     1      -1.325   6.148 -33.149  1.00  0.00     0.039 A 
HETATM   34  C   UNL     1      -0.724   5.205 -32.308  1.00  0.00     0.018 A 
HETATM   35  C   UNL     1      -0.322   5.567 -31.020  1.00  0.00     0.010 A 
BRANCH  33  36
HETATM   36  C   UNL     1      -1.800   5.810 -34.519  1.00  0.00     0.292 C 
HETATM   37  O   UNL     1      -1.098   5.253 -35.345  1.00  0.00    -0.259 OA
BRANCH  36  38
HETATM   38  O   UNL     1      -3.072   6.242 -34.703  1.00  0.00    -0.323 OA
HETATM   39  C   UNL     1      -4.046   5.194 -34.686  1.00  0.00     0.213 C 
ENDBRANCH  36  38
ENDBRANCH  33  36
ENDBRANCH  29  30
ENDBRANCH   1  29
TORSDOF 8
ENDMDL
MODEL 7
REMARK VINA RESULT:      -8.6      2.484      8.473
REMARK  8 active torsions:
REMARK  status: ('A' for Active; 'I' for Inactive)
REMARK    1  A    between atoms: O_2  and  C_3 
REMARK    2  A    between atoms: C_3  and  C_4 
REMARK    3  A    between atoms: C_7  and  C_8 
REMARK    4  A    between atoms: C_8  and  N_9 
REMARK    5  A    between atoms: C_18  and  C_19 
REMARK    6  A    between atoms: C_19  and  N_20 
REMARK    7  A    between atoms: C_24  and  O_25 
REMARK    8  A    between atoms: C_24  and  C_26 
ROOT
HETATM    1  N   UNL     1      -3.508   3.358 -32.820  1.00  0.00    -0.061 N 
HETATM    2  H   UNL     1      -3.009   2.918 -33.602  1.00  0.00     0.280 HD
HETATM    3  C   UNL     1      -4.706   4.021 -33.464  1.00  0.00     0.276 C 
HETATM    4  C   UNL     1      -5.718   4.598 -32.515  1.00  0.00     0.002 A 
HETATM    5  C   UNL     1      -5.358   5.612 -31.628  1.00  0.00     0.076 A 
HETATM    6  O   UNL     1      -4.101   6.147 -31.642  1.00  0.00    -0.349 OA
HETATM    7  C   UNL     1      -3.114   5.241 -31.137  1.00  0.00     0.203 C 
HETATM    8  C   UNL     1      -2.521   4.369 -32.251  1.00  0.00     0.262 C 
HETATM    9  C   UNL     1      -7.061   4.177 -32.543  1.00  0.00     0.020 A 
HETATM   10  C   UNL     1      -8.028   4.746 -31.688  1.00  0.00    -0.032 A 
HETATM   11  C   UNL     1      -7.624   5.742 -30.789  1.00  0.00     0.011 A 
HETATM   12  C   UNL     1      -6.299   6.188 -30.777  1.00  0.00     0.038 A 
ENDROOT
BRANCH  10  13
HETATM   13  C   UNL     1      -9.467   4.288 -31.755  1.00  0.00     0.273 C 
BRANCH  13  14
HETATM   14  N   UNL     1      -9.910   3.702 -33.086  1.00  0.00    -0.067 N 
HETATM   15  H   UNL     1      -9.092   3.738 -33.709  1.00  0.00     0.280 HD
HETATM   16  C   UNL     1     -10.336   2.254 -32.995  1.00  0.00     0.238 C 
HETATM   17  C   UNL     1     -10.720   1.751 -34.375  1.00  0.00     0.071 C 
HETATM   18  C   UNL     1     -11.900   2.547 -34.965  1.00  0.00     0.089 C 
HETATM   19  C   UNL     1     -11.437   4.016 -35.046  1.00  0.00     0.071 C 
HETATM   20  C   UNL     1     -10.983   4.575 -33.706  1.00  0.00     0.238 C 
BRANCH  18  21
HETATM   21  O   UNL     1     -12.052   2.102 -36.314  1.00  0.00    -0.385 OA
HETATM   22  H   UNL     1     -11.190   2.114 -36.772  1.00  0.00     0.211 HD
ENDBRANCH  18  21
BRANCH  18  23
HETATM   23  C   UNL     1     -13.208   2.288 -34.226  1.00  0.00    -0.006 A 
HETATM   24  C   UNL     1     -13.733   3.158 -33.273  1.00  0.00     0.126 A 
HETATM   25  N   UNL     1     -14.846   2.922 -32.546  1.00  0.00    -0.272 NA
HETATM   26  C   UNL     1     -15.542   1.801 -32.823  1.00  0.00     0.116 A 
HETATM   27  C   UNL     1     -15.157   0.896 -33.791  1.00  0.00     0.020 A 
HETATM   28  C   UNL     1     -13.983   1.148 -34.498  1.00  0.00     0.013 A 
ENDBRANCH  18  23
ENDBRANCH  13  14
ENDBRANCH  10  13
BRANCH   1  29
HETATM   29  C   UNL     1      -3.803   2.222 -31.862  1.00  0.00     0.273 C 
BRANCH  29  30
HETATM   30  C   UNL     1      -4.316   0.955 -32.500  1.00  0.00    -0.033 A 
HETATM   31  C   UNL     1      -3.451  -0.088 -32.860  1.00  0.00     0.010 A 
HETATM   32  C   UNL     1      -3.953  -1.240 -33.475  1.00  0.00     0.018 A 
HETATM   33  C   UNL     1      -5.324  -1.380 -33.721  1.00  0.00     0.039 A 
HETATM   34  C   UNL     1      -6.195  -0.357 -33.330  1.00  0.00     0.018 A 
HETATM   35  C   UNL     1      -5.695   0.797 -32.723  1.00  0.00     0.010 A 
BRANCH  33  36
HETATM   36  C   UNL     1      -5.798  -2.619 -34.398  1.00  0.00     0.292 C 
HETATM   37  O   UNL     1      -6.978  -2.900 -34.515  1.00  0.00    -0.259 OA
BRANCH  36  38
HETATM   38  O   UNL     1      -4.747  -3.370 -34.809  1.00  0.00    -0.323 OA
HETATM   39  C   UNL     1      -4.821  -4.740 -34.401  1.00  0.00     0.213 C 
ENDBRANCH  36  38
ENDBRANCH  33  36
ENDBRANCH  29  30
ENDBRANCH   1  29
TORSDOF 8
ENDMDL
MODEL 8
REMARK VINA RESULT:      -8.5      2.516      5.821
REMARK  8 active torsions:
REMARK  status: ('A' for Active; 'I' for Inactive)
REMARK    1  A    between atoms: O_2  and  C_3 
REMARK    2  A    between atoms: C_3  and  C_4 
REMARK    3  A    between atoms: C_7  and  C_8 
REMARK    4  A    between atoms: C_8  and  N_9 
REMARK    5  A    between atoms: C_18  and  C_19 
REMARK    6  A    between atoms: C_19  and  N_20 
REMARK    7  A    between atoms: C_24  and  O_25 
REMARK    8  A    between atoms: C_24  and  C_26 
ROOT
HETATM    1  N   UNL     1      -8.794   1.966 -33.027  1.00  0.00    -0.061 N 
HETATM    2  H   UNL     1      -9.582   2.565 -33.299  1.00  0.00     0.280 HD
HETATM    3  C   UNL     1      -7.574   2.683 -33.563  1.00  0.00     0.276 C 
HETATM    4  C   UNL     1      -6.248   2.111 -33.149  1.00  0.00     0.002 A 
HETATM    5  C   UNL     1      -5.903   0.804 -33.495  1.00  0.00     0.076 A 
HETATM    6  O   UNL     1      -6.729   0.038 -34.269  1.00  0.00    -0.349 OA
HETATM    7  C   UNL     1      -7.910  -0.370 -33.570  1.00  0.00     0.203 C 
HETATM    8  C   UNL     1      -9.048   0.643 -33.738  1.00  0.00     0.262 C 
HETATM    9  C   UNL     1      -5.301   2.894 -32.462  1.00  0.00     0.020 A 
HETATM   10  C   UNL     1      -4.037   2.380 -32.111  1.00  0.00    -0.032 A 
HETATM   11  C   UNL     1      -3.736   1.053 -32.448  1.00  0.00     0.011 A 
HETATM   12  C   UNL     1      -4.657   0.279 -33.159  1.00  0.00     0.038 A 
ENDROOT
BRANCH  10  13
HETATM   13  C   UNL     1      -3.033   3.252 -31.391  1.00  0.00     0.273 C 
BRANCH  13  14
HETATM   14  N   UNL     1      -2.814   4.633 -31.989  1.00  0.00    -0.067 N 
HETATM   15  H   UNL     1      -3.239   4.618 -32.925  1.00  0.00     0.280 HD
HETATM   16  C   UNL     1      -3.490   5.740 -31.211  1.00  0.00     0.238 C 
HETATM   17  C   UNL     1      -3.247   7.068 -31.905  1.00  0.00     0.071 C 
HETATM   18  C   UNL     1      -1.746   7.405 -31.984  1.00  0.00     0.089 C 
HETATM   19  C   UNL     1      -1.084   6.262 -32.781  1.00  0.00     0.071 C 
HETATM   20  C   UNL     1      -1.331   4.888 -32.174  1.00  0.00     0.238 C 
BRANCH  18  21
HETATM   21  O   UNL     1      -1.637   8.572 -32.799  1.00  0.00    -0.385 OA
HETATM   22  H   UNL     1      -2.521   8.953 -32.963  1.00  0.00     0.211 HD
ENDBRANCH  18  21
BRANCH  18  23
HETATM   23  C   UNL     1      -1.143   7.716 -30.619  1.00  0.00    -0.006 A 
HETATM   24  C   UNL     1      -1.776   8.512 -29.666  1.00  0.00     0.126 A 
HETATM   25  N   UNL     1      -1.236   8.869 -28.481  1.00  0.00    -0.272 NA
HETATM   26  C   UNL     1      -0.034   8.348 -28.164  1.00  0.00     0.116 A 
HETATM   27  C   UNL     1       0.659   7.494 -28.998  1.00  0.00     0.020 A 
HETATM   28  C   UNL     1       0.095   7.175 -30.231  1.00  0.00     0.013 A 
ENDBRANCH  18  23
ENDBRANCH  13  14
ENDBRANCH  10  13
BRANCH   1  29
HETATM   29  C   UNL     1      -8.897   1.852 -31.520  1.00  0.00     0.273 C 
BRANCH  29  30
HETATM   30  C   UNL     1      -8.695   3.138 -30.759  1.00  0.00    -0.033 A 
HETATM   31  C   UNL     1      -9.553   4.234 -30.929  1.00  0.00     0.010 A 
HETATM   32  C   UNL     1      -9.325   5.424 -30.228  1.00  0.00     0.018 A 
HETATM   33  C   UNL     1      -8.253   5.533 -29.334  1.00  0.00     0.039 A 
HETATM   34  C   UNL     1      -7.416   4.429 -29.134  1.00  0.00     0.018 A 
HETATM   35  C   UNL     1      -7.638   3.243 -29.838  1.00  0.00     0.010 A 
BRANCH  33  36
HETATM   36  C   UNL     1      -8.046   6.831 -28.634  1.00  0.00     0.292 C 
HETATM   37  O   UNL     1      -8.638   7.135 -27.613  1.00  0.00    -0.259 OA
BRANCH  36  38
HETATM   38  O   UNL     1      -7.159   7.602 -29.310  1.00  0.00    -0.323 OA
HETATM   39  C   UNL     1      -7.534   8.981 -29.388  1.00  0.00     0.213 C 
ENDBRANCH  36  38
ENDBRANCH  33  36
ENDBRANCH  29  30
ENDBRANCH   1  29
TORSDOF 8
ENDMDL
MODEL 9
REMARK VINA RESULT:      -8.2      2.425      9.482
REMARK  8 active torsions:
REMARK  status: ('A' for Active; 'I' for Inactive)
REMARK    1  A    between atoms: O_2  and  C_3 
REMARK    2  A    between atoms: C_3  and  C_4 
REMARK    3  A    between atoms: C_7  and  C_8 
REMARK    4  A    between atoms: C_8  and  N_9 
REMARK    5  A    between atoms: C_18  and  C_19 
REMARK    6  A    between atoms: C_19  and  N_20 
REMARK    7  A    between atoms: C_24  and  O_25 
REMARK    8  A    between atoms: C_24  and  C_26 
ROOT
HETATM    1  N   UNL     1      -4.251   1.634 -31.264  1.00  0.00    -0.061 N 
HETATM    2  H   UNL     1      -3.844   2.081 -30.435  1.00  0.00     0.280 HD
HETATM    3  C   UNL     1      -5.366   0.769 -30.717  1.00  0.00     0.276 C 
HETATM    4  C   UNL     1      -6.256   0.129 -31.744  1.00  0.00     0.002 A 
HETATM    5  C   UNL     1      -5.730  -0.760 -32.681  1.00  0.00     0.076 A 
HETATM    6  O   UNL     1      -4.411  -1.118 -32.650  1.00  0.00    -0.349 OA
HETATM    7  C   UNL     1      -3.545  -0.051 -33.051  1.00  0.00     0.203 C 
HETATM    8  C   UNL     1      -3.115   0.810 -31.858  1.00  0.00     0.262 C 
HETATM    9  C   UNL     1      -7.645   0.359 -31.744  1.00  0.00     0.020 A 
HETATM   10  C   UNL     1      -8.495  -0.274 -32.675  1.00  0.00    -0.032 A 
HETATM   11  C   UNL     1      -7.927  -1.137 -33.621  1.00  0.00     0.011 A 
HETATM   12  C   UNL     1      -6.554  -1.396 -33.607  1.00  0.00     0.038 A 
ENDROOT
BRANCH  10  13
HETATM   13  C   UNL     1      -9.985  -0.022 -32.638  1.00  0.00     0.273 C 
BRANCH  13  14
HETATM   14  N   UNL     1     -10.527   0.882 -33.734  1.00  0.00    -0.067 N 
HETATM   15  H   UNL     1     -10.139   0.533 -34.620  1.00  0.00     0.280 HD
HETATM   16  C   UNL     1     -12.033   0.840 -33.860  1.00  0.00     0.238 C 
HETATM   17  C   UNL     1     -12.472   1.739 -35.001  1.00  0.00     0.071 C 
HETATM   18  C   UNL     1     -12.067   3.207 -34.759  1.00  0.00     0.089 C 
HETATM   19  C   UNL     1     -10.529   3.219 -34.635  1.00  0.00     0.071 C 
HETATM   20  C   UNL     1     -10.009   2.294 -33.544  1.00  0.00     0.238 C 
BRANCH  18  21
HETATM   21  O   UNL     1     -12.375   3.913 -35.961  1.00  0.00    -0.385 OA
HETATM   22  H   UNL     1     -11.904   3.514 -36.718  1.00  0.00     0.211 HD
ENDBRANCH  18  21
BRANCH  18  23
HETATM   23  C   UNL     1     -12.844   3.847 -33.614  1.00  0.00    -0.006 A 
HETATM   24  C   UNL     1     -12.490   5.063 -33.035  1.00  0.00     0.126 A 
HETATM   25  N   UNL     1     -13.109   5.618 -31.971  1.00  0.00    -0.272 NA
HETATM   26  C   UNL     1     -14.200   4.988 -31.489  1.00  0.00     0.116 A 
HETATM   27  C   UNL     1     -14.686   3.812 -32.023  1.00  0.00     0.020 A 
HETATM   28  C   UNL     1     -14.003   3.243 -33.096  1.00  0.00     0.013 A 
ENDBRANCH  18  23
ENDBRANCH  13  14
ENDBRANCH  10  13
BRANCH   1  29
HETATM   29  C   UNL     1      -4.671   2.785 -32.156  1.00  0.00     0.273 C 
BRANCH  29  30
HETATM   30  C   UNL     1      -3.753   3.982 -32.142  1.00  0.00    -0.033 A 
HETATM   31  C   UNL     1      -3.914   5.020 -31.213  1.00  0.00     0.010 A 
HETATM   32  C   UNL     1      -3.063   6.130 -31.242  1.00  0.00     0.018 A 
HETATM   33  C   UNL     1      -2.027   6.214 -32.181  1.00  0.00     0.039 A 
HETATM   34  C   UNL     1      -1.841   5.162 -33.086  1.00  0.00     0.018 A 
HETATM   35  C   UNL     1      -2.694   4.057 -33.063  1.00  0.00     0.010 A 
BRANCH  33  36
HETATM   36  C   UNL     1      -1.167   7.429 -32.178  1.00  0.00     0.292 C 
HETATM   37  O   UNL     1      -1.582   8.535 -32.479  1.00  0.00    -0.259 OA
BRANCH  36  38
HETATM   38  O   UNL     1       0.107   7.111 -31.842  1.00  0.00    -0.323 OA
HETATM   39  C   UNL     1       0.279   6.802 -30.456  1.00  0.00     0.213 C 
ENDBRANCH  36  38
ENDBRANCH  33  36
ENDBRANCH  29  30
ENDBRANCH   1  29
TORSDOF 8
ENDMDL
MODEL 10
REMARK VINA RESULT:      -8.2      3.051      9.894
REMARK  8 active torsions:
REMARK  status: ('A' for Active; 'I' for Inactive)
REMARK    1  A    between atoms: O_2  and  C_3 
REMARK    2  A    between atoms: C_3  and  C_4 
REMARK    3  A    between atoms: C_7  and  C_8 
REMARK    4  A    between atoms: C_8  and  N_9 
REMARK    5  A    between atoms: C_18  and  C_19 
REMARK    6  A    between atoms: C_19  and  N_20 
REMARK    7  A    between atoms: C_24  and  O_25 
REMARK    8  A    between atoms: C_24  and  C_26 
ROOT
HETATM    1  N   UNL     1      -1.177   5.684 -31.248  1.00  0.00    -0.061 N 
HETATM    2  H   UNL     1      -0.525   5.381 -30.516  1.00  0.00     0.280 HD
HETATM    3  C   UNL     1      -1.948   4.432 -31.607  1.00  0.00     0.276 C 
HETATM    4  C   UNL     1      -3.107   4.628 -32.543  1.00  0.00     0.002 A 
HETATM    5  C   UNL     1      -2.902   5.134 -33.827  1.00  0.00     0.076 A 
HETATM    6  O   UNL     1      -1.644   5.404 -34.286  1.00  0.00    -0.349 OA
HETATM    7  C   UNL     1      -1.063   6.548 -33.651  1.00  0.00     0.203 C 
HETATM    8  C   UNL     1      -0.285   6.163 -32.387  1.00  0.00     0.262 C 
HETATM    9  C   UNL     1      -4.411   4.247 -32.173  1.00  0.00     0.020 A 
HETATM   10  C   UNL     1      -5.497   4.384 -33.061  1.00  0.00    -0.032 A 
HETATM   11  C   UNL     1      -5.259   4.924 -34.332  1.00  0.00     0.011 A 
HETATM   12  C   UNL     1      -3.963   5.275 -34.719  1.00  0.00     0.038 A 
ENDROOT
BRANCH  10  13
HETATM   13  C   UNL     1      -6.883   3.948 -32.642  1.00  0.00     0.273 C 
BRANCH  13  14
HETATM   14  N   UNL     1      -7.289   2.546 -33.071  1.00  0.00    -0.067 N 
HETATM   15  H   UNL     1      -8.215   2.631 -33.509  1.00  0.00     0.280 HD
HETATM   16  C   UNL     1      -6.363   1.940 -34.102  1.00  0.00     0.238 C 
HETATM   17  C   UNL     1      -6.872   0.565 -34.493  1.00  0.00     0.071 C 
HETATM   18  C   UNL     1      -6.915  -0.393 -33.287  1.00  0.00     0.089 C 
HETATM   19  C   UNL     1      -7.865   0.250 -32.255  1.00  0.00     0.071 C 
HETATM   20  C   UNL     1      -7.448   1.658 -31.853  1.00  0.00     0.238 C 
BRANCH  18  21
HETATM   21  O   UNL     1      -7.564  -1.581 -33.739  1.00  0.00    -0.385 OA
HETATM   22  H   UNL     1      -7.114  -2.370 -33.380  1.00  0.00     0.211 HD
ENDBRANCH  18  21
BRANCH  18  23
HETATM   23  C   UNL     1      -5.524  -0.767 -32.787  1.00  0.00    -0.006 A 
HETATM   24  C   UNL     1      -4.753  -1.779 -33.355  1.00  0.00     0.126 A 
HETATM   25  N   UNL     1      -3.553  -2.185 -32.888  1.00  0.00    -0.272 NA
HETATM   26  C   UNL     1      -3.028  -1.506 -31.848  1.00  0.00     0.116 A 
HETATM   27  C   UNL     1      -3.669  -0.442 -31.245  1.00  0.00     0.020 A 
HETATM   28  C   UNL     1      -4.924  -0.071 -31.724  1.00  0.00     0.013 A 
ENDBRANCH  18  23
ENDBRANCH  13  14
ENDBRANCH  10  13
BRANCH   1  29
HETATM   29  C   UNL     1      -1.975   6.805 -30.615  1.00  0.00     0.273 C 
BRANCH  29  30
HETATM   30  C   UNL     1      -1.246   7.606 -29.566  1.00  0.00    -0.033 A 
HETATM   31  C   UNL     1       0.119   7.411 -29.311  1.00  0.00     0.010 A 
HETATM   32  C   UNL     1       0.763   8.151 -28.313  1.00  0.00     0.018 A 
HETATM   33  C   UNL     1       0.063   9.110 -27.569  1.00  0.00     0.039 A 
HETATM   34  C   UNL     1      -1.290   9.334 -27.847  1.00  0.00     0.018 A 
HETATM   35  C   UNL     1      -1.936   8.590 -28.838  1.00  0.00     0.010 A 
BRANCH  33  36
HETATM   36  C   UNL     1       0.795   9.851 -26.505  1.00  0.00     0.292 C 
HETATM   37  O   UNL     1       1.168  11.003 -26.638  1.00  0.00    -0.259 OA
BRANCH  36  38
HETATM   38  O   UNL     1       1.005   9.055 -25.428  1.00  0.00    -0.323 OA
HETATM   39  C   UNL     1       1.638   9.723 -24.331  1.00  0.00     0.213 C 
ENDBRANCH  36  38
ENDBRANCH  33  36
ENDBRANCH  29  30
ENDBRANCH   1  29
TORSDOF 8
ENDMDL
