MODEL 1
REMARK VINA RESULT:      -8.4      0.000      0.000
REMARK  8 active torsions:
REMARK  status: ('A' for Active; 'I' for Inactive)
REMARK    1  A    between atoms: C_2  and  O_3 
REMARK    2  A    between atoms: O_3  and  C_4 
REMARK    3  A    between atoms: C_4  and  C_5 
REMARK    4  A    between atoms: C_5  and  C_6 
REMARK    5  A    between atoms: C_6  and  N_7 
REMARK    6  A    between atoms: C_12  and  C_13 
REMARK    7  A    between atoms: C_23  and  C_24 
REMARK    8  A    between atoms: C_25  and  O_26 
ROOT
HETATM    1  N   UNL     1      -4.536   1.979 -32.857  1.00  0.00    -0.334 N 
HETATM    2  C   UNL     1      -3.645   1.607 -31.848  1.00  0.00     0.273 A 
HETATM    3  O   UNL     1      -3.006   2.317 -31.092  1.00  0.00    -0.266 OA
HETATM    4  C   UNL     1      -3.620   0.196 -31.939  1.00  0.00     0.129 A 
HETATM    5  C   UNL     1      -4.424  -0.292 -32.926  1.00  0.00     0.034 A 
HETATM    6  C   UNL     1      -5.102   0.832 -33.617  1.00  0.00     0.159 A 
HETATM    7  N   UNL     1      -3.020  -0.837 -31.338  1.00  0.00    -0.272 N 
HETATM    8  H   UNL     1      -2.358  -0.836 -30.566  1.00  0.00     0.189 HD
HETATM    9  N   UNL     1      -3.397  -2.017 -31.892  1.00  0.00    -0.173 NA
HETATM   10  C   UNL     1      -4.260  -1.691 -32.893  1.00  0.00     0.101 A 
ENDROOT
BRANCH  10  11
HETATM   11  C   UNL     1      -4.868  -2.746 -33.721  1.00  0.00     0.028 A 
HETATM   12  C   UNL     1      -4.281  -4.022 -33.838  1.00  0.00     0.078 A 
HETATM   13  C   UNL     1      -4.867  -5.031 -34.602  1.00  0.00     0.037 A 
HETATM   14  C   UNL     1      -6.059  -4.785 -35.276  1.00  0.00     0.003 A 
HETATM   15  C   UNL     1      -6.654  -3.529 -35.190  1.00  0.00     0.001 A 
HETATM   16  C   UNL     1      -6.061  -2.518 -34.425  1.00  0.00     0.017 A 
BRANCH  12  17
HETATM   17  O   UNL     1      -3.103  -4.357 -33.218  1.00  0.00    -0.360 OA
HETATM   18  H   UNL     1      -2.388  -3.941 -33.752  1.00  0.00     0.217 HD
ENDBRANCH  12  17
ENDBRANCH  10  11
BRANCH   6  19
HETATM   19  C   UNL     1      -6.601   0.697 -33.454  1.00  0.00    -0.031 A 
HETATM   20  C   UNL     1      -7.239   0.544 -32.208  1.00  0.00     0.011 A 
HETATM   21  C   UNL     1      -8.629   0.431 -32.122  1.00  0.00     0.024 A 
HETATM   22  C   UNL     1      -9.404   0.494 -33.276  1.00  0.00     0.034 A 
HETATM   23 CL   UNL     1     -11.116   0.358 -33.170  1.00  0.00    -0.084 Cl
HETATM   24  C   UNL     1      -8.801   0.675 -34.517  1.00  0.00     0.024 A 
HETATM   25  C   UNL     1      -7.410   0.779 -34.603  1.00  0.00     0.011 A 
ENDBRANCH   6  19
BRANCH   1  26
HETATM   26  C   UNL     1      -4.772   3.358 -33.246  1.00  0.00     0.129 C 
BRANCH  26  27
HETATM   27  C   UNL     1      -5.907   4.029 -32.469  1.00  0.00     0.046 C 
BRANCH  27  28
HETATM   28  C   UNL     1      -6.784   4.947 -33.312  1.00  0.00     0.169 C 
BRANCH  28  29
HETATM   29  O   UNL     1      -7.821   4.183 -33.924  1.00  0.00    -0.387 OA
BRANCH  29  30
HETATM   30  C   UNL     1      -9.143   4.579 -33.542  1.00  0.00     0.113 C 
HETATM   31  C   UNL     1      -9.536   4.040 -32.169  1.00  0.00     0.039 C 
HETATM   32  C   UNL     1     -10.090   4.032 -34.606  1.00  0.00     0.039 C 
ENDBRANCH  29  30
ENDBRANCH  28  29
ENDBRANCH  27  28
ENDBRANCH  26  27
ENDBRANCH   1  26
TORSDOF 8
ENDMDL
MODEL 2
REMARK VINA RESULT:      -8.3      1.610      2.896
REMARK  8 active torsions:
REMARK  status: ('A' for Active; 'I' for Inactive)
REMARK    1  A    between atoms: C_2  and  O_3 
REMARK    2  A    between atoms: O_3  and  C_4 
REMARK    3  A    between atoms: C_4  and  C_5 
REMARK    4  A    between atoms: C_5  and  C_6 
REMARK    5  A    between atoms: C_6  and  N_7 
REMARK    6  A    between atoms: C_12  and  C_13 
REMARK    7  A    between atoms: C_23  and  C_24 
REMARK    8  A    between atoms: C_25  and  O_26 
ROOT
HETATM    1  N   UNL     1      -5.238   2.454 -32.684  1.00  0.00    -0.334 N 
HETATM    2  C   UNL     1      -4.352   2.172 -31.641  1.00  0.00     0.273 A 
HETATM    3  O   UNL     1      -3.823   2.941 -30.859  1.00  0.00    -0.266 OA
HETATM    4  C   UNL     1      -4.174   0.772 -31.733  1.00  0.00     0.129 A 
HETATM    5  C   UNL     1      -4.883   0.207 -32.753  1.00  0.00     0.034 A 
HETATM    6  C   UNL     1      -5.649   1.258 -33.468  1.00  0.00     0.159 A 
HETATM    7  N   UNL     1      -3.492  -0.196 -31.111  1.00  0.00    -0.272 N 
HETATM    8  H   UNL     1      -2.864  -0.129 -30.314  1.00  0.00     0.189 HD
HETATM    9  N   UNL     1      -3.720  -1.405 -31.682  1.00  0.00    -0.173 NA
HETATM   10  C   UNL     1      -4.573  -1.167 -32.716  1.00  0.00     0.101 A 
ENDROOT
BRANCH  10  11
HETATM   11  C   UNL     1      -5.032  -2.275 -33.570  1.00  0.00     0.028 A 
HETATM   12  C   UNL     1      -4.332  -3.496 -33.632  1.00  0.00     0.078 A 
HETATM   13  C   UNL     1      -4.779  -4.556 -34.421  1.00  0.00     0.037 A 
HETATM   14  C   UNL     1      -5.940  -4.418 -35.175  1.00  0.00     0.003 A 
HETATM   15  C   UNL     1      -6.645  -3.218 -35.142  1.00  0.00     0.001 A 
HETATM   16  C   UNL     1      -6.192  -2.155 -34.352  1.00  0.00     0.017 A 
BRANCH  12  17
HETATM   17  O   UNL     1      -3.173  -3.725 -32.934  1.00  0.00    -0.360 OA
HETATM   18  H   UNL     1      -3.444  -4.171 -32.098  1.00  0.00     0.217 HD
ENDBRANCH  12  17
ENDBRANCH  10  11
BRANCH   6  19
HETATM   19  C   UNL     1      -7.130   0.964 -33.364  1.00  0.00    -0.031 A 
HETATM   20  C   UNL     1      -7.778   0.642 -32.157  1.00  0.00     0.011 A 
HETATM   21  C   UNL     1      -9.152   0.387 -32.125  1.00  0.00     0.024 A 
HETATM   22  C   UNL     1      -9.902   0.474 -33.294  1.00  0.00     0.034 A 
HETATM   23 CL   UNL     1     -11.594   0.164 -33.254  1.00  0.00    -0.084 Cl
HETATM   24  C   UNL     1      -9.291   0.819 -34.495  1.00  0.00     0.024 A 
HETATM   25  C   UNL     1      -7.916   1.066 -34.528  1.00  0.00     0.011 A 
ENDBRANCH   6  19
BRANCH   1  26
HETATM   26  C   UNL     1      -5.603   3.802 -33.079  1.00  0.00     0.129 C 
BRANCH  26  27
HETATM   27  C   UNL     1      -5.236   4.137 -34.526  1.00  0.00     0.046 C 
BRANCH  27  28
HETATM   28  C   UNL     1      -4.111   5.157 -34.666  1.00  0.00     0.169 C 
BRANCH  28  29
HETATM   29  O   UNL     1      -3.469   5.331 -33.404  1.00  0.00    -0.387 OA
BRANCH  29  30
HETATM   30  C   UNL     1      -2.083   5.678 -33.497  1.00  0.00     0.113 C 
HETATM   31  C   UNL     1      -1.477   5.295 -34.844  1.00  0.00     0.039 C 
HETATM   32  C   UNL     1      -1.368   4.931 -32.375  1.00  0.00     0.039 C 
ENDBRANCH  29  30
ENDBRANCH  28  29
ENDBRANCH  27  28
ENDBRANCH  26  27
ENDBRANCH   1  26
TORSDOF 8
ENDMDL
MODEL 3
REMARK VINA RESULT:      -7.7      3.556      6.286
REMARK  8 active torsions:
REMARK  status: ('A' for Active; 'I' for Inactive)
REMARK    1  A    between atoms: C_2  and  O_3 
REMARK    2  A    between atoms: O_3  and  C_4 
REMARK    3  A    between atoms: C_4  and  C_5 
REMARK    4  A    between atoms: C_5  and  C_6 
REMARK    5  A    between atoms: C_6  and  N_7 
REMARK    6  A    between atoms: C_12  and  C_13 
REMARK    7  A    between atoms: C_23  and  C_24 
REMARK    8  A    between atoms: C_25  and  O_26 
ROOT
HETATM    1  N   UNL     1      -8.341   1.898 -31.940  1.00  0.00    -0.334 N 
HETATM    2  C   UNL     1      -8.650   2.888 -31.004  1.00  0.00     0.273 A 
HETATM    3  O   UNL     1      -9.615   2.966 -30.265  1.00  0.00    -0.266 OA
HETATM    4  C   UNL     1      -7.592   3.815 -31.148  1.00  0.00     0.129 A 
HETATM    5  C   UNL     1      -6.685   3.450 -32.100  1.00  0.00     0.034 A 
HETATM    6  C   UNL     1      -7.091   2.157 -32.704  1.00  0.00     0.159 A 
HETATM    7  N   UNL     1      -7.204   4.983 -30.625  1.00  0.00    -0.272 N 
HETATM    8  H   UNL     1      -7.645   5.540 -29.897  1.00  0.00     0.189 HD
HETATM    9  N   UNL     1      -6.054   5.422 -31.197  1.00  0.00    -0.173 NA
HETATM   10  C   UNL     1      -5.728   4.484 -32.128  1.00  0.00     0.101 A 
ENDROOT
BRANCH  10  11
HETATM   11  C   UNL     1      -4.520   4.647 -32.954  1.00  0.00     0.028 A 
HETATM   12  C   UNL     1      -3.236   4.364 -32.446  1.00  0.00     0.078 A 
HETATM   13  C   UNL     1      -2.093   4.495 -33.234  1.00  0.00     0.037 A 
HETATM   14  C   UNL     1      -2.205   4.919 -34.554  1.00  0.00     0.003 A 
HETATM   15  C   UNL     1      -3.460   5.219 -35.078  1.00  0.00     0.001 A 
HETATM   16  C   UNL     1      -4.605   5.090 -34.284  1.00  0.00     0.017 A 
BRANCH  12  17
HETATM   17  O   UNL     1      -3.022   3.949 -31.155  1.00  0.00    -0.360 OA
HETATM   18  H   UNL     1      -2.427   3.167 -31.218  1.00  0.00     0.217 HD
ENDBRANCH  12  17
ENDBRANCH  10  11
BRANCH   6  19
HETATM   19  C   UNL     1      -6.017   1.121 -32.451  1.00  0.00    -0.031 A 
HETATM   20  C   UNL     1      -5.349   0.976 -31.220  1.00  0.00     0.011 A 
HETATM   21  C   UNL     1      -4.370  -0.007 -31.046  1.00  0.00     0.024 A 
HETATM   22  C   UNL     1      -4.062  -0.873 -32.090  1.00  0.00     0.034 A 
HETATM   23 CL   UNL     1      -2.860  -2.085 -31.874  1.00  0.00    -0.084 Cl
HETATM   24  C   UNL     1      -4.730  -0.770 -33.307  1.00  0.00     0.024 A 
HETATM   25  C   UNL     1      -5.702   0.217 -33.483  1.00  0.00     0.011 A 
ENDBRANCH   6  19
BRANCH   1  26
HETATM   26  C   UNL     1      -9.231   0.798 -32.262  1.00  0.00     0.129 C 
BRANCH  26  27
HETATM   27  C   UNL     1      -9.490   0.637 -33.762  1.00  0.00     0.046 C 
BRANCH  27  28
HETATM   28  C   UNL     1     -10.627   1.501 -34.296  1.00  0.00     0.169 C 
BRANCH  28  29
HETATM   29  O   UNL     1     -11.553   1.772 -33.245  1.00  0.00    -0.387 OA
BRANCH  29  30
HETATM   30  C   UNL     1     -12.920   1.531 -33.593  1.00  0.00     0.113 C 
HETATM   31  C   UNL     1     -13.239   0.043 -33.700  1.00  0.00     0.039 C 
HETATM   32  C   UNL     1     -13.156   2.210 -34.939  1.00  0.00     0.039 C 
ENDBRANCH  29  30
ENDBRANCH  28  29
ENDBRANCH  27  28
ENDBRANCH  26  27
ENDBRANCH   1  26
TORSDOF 8
ENDMDL
MODEL 4
REMARK VINA RESULT:      -7.5      2.391      3.827
REMARK  8 active torsions:
REMARK  status: ('A' for Active; 'I' for Inactive)
REMARK    1  A    between atoms: C_2  and  O_3 
REMARK    2  A    between atoms: O_3  and  C_4 
REMARK    3  A    between atoms: C_4  and  C_5 
REMARK    4  A    between atoms: C_5  and  C_6 
REMARK    5  A    between atoms: C_6  and  N_7 
REMARK    6  A    between atoms: C_12  and  C_13 
REMARK    7  A    between atoms: C_23  and  C_24 
REMARK    8  A    between atoms: C_25  and  O_26 
ROOT
HETATM    1  N   UNL     1      -7.495   4.087 -31.219  1.00  0.00    -0.334 N 
HETATM    2  C   UNL     1      -7.163   3.675 -29.926  1.00  0.00     0.273 A 
HETATM    3  O   UNL     1      -7.183   4.317 -28.891  1.00  0.00    -0.266 OA
HETATM    4  C   UNL     1      -6.747   2.336 -30.107  1.00  0.00     0.129 A 
HETATM    5  C   UNL     1      -6.804   1.927 -31.407  1.00  0.00     0.034 A 
HETATM    6  C   UNL     1      -7.304   3.037 -32.256  1.00  0.00     0.159 A 
HETATM    7  N   UNL     1      -6.290   1.319 -29.368  1.00  0.00    -0.272 N 
HETATM    8  H   UNL     1      -6.124   1.277 -28.366  1.00  0.00     0.189 HD
HETATM    9  N   UNL     1      -6.037   0.228 -30.133  1.00  0.00    -0.173 NA
HETATM   10  C   UNL     1      -6.338   0.598 -31.409  1.00  0.00     0.101 A 
ENDROOT
BRANCH  10  11
HETATM   11  C   UNL     1      -6.170  -0.357 -32.518  1.00  0.00     0.028 A 
HETATM   12  C   UNL     1      -4.961  -1.053 -32.714  1.00  0.00     0.078 A 
HETATM   13  C   UNL     1      -4.807  -1.976 -33.749  1.00  0.00     0.037 A 
HETATM   14  C   UNL     1      -5.863  -2.222 -34.620  1.00  0.00     0.003 A 
HETATM   15  C   UNL     1      -7.066  -1.537 -34.458  1.00  0.00     0.001 A 
HETATM   16  C   UNL     1      -7.215  -0.610 -33.420  1.00  0.00     0.017 A 
BRANCH  12  17
HETATM   17  O   UNL     1      -3.860  -0.873 -31.913  1.00  0.00    -0.360 OA
HETATM   18  H   UNL     1      -3.646  -1.761 -31.544  1.00  0.00     0.217 HD
ENDBRANCH  12  17
ENDBRANCH  10  11
BRANCH   6  19
HETATM   19  C   UNL     1      -8.598   2.622 -32.922  1.00  0.00    -0.031 A 
HETATM   20  C   UNL     1      -8.995   3.067 -34.197  1.00  0.00     0.011 A 
HETATM   21  C   UNL     1     -10.201   2.641 -34.763  1.00  0.00     0.024 A 
HETATM   22  C   UNL     1     -11.014   1.747 -34.074  1.00  0.00     0.034 A 
HETATM   23 CL   UNL     1     -12.496   1.221 -34.772  1.00  0.00    -0.084 Cl
HETATM   24  C   UNL     1     -10.630   1.269 -32.825  1.00  0.00     0.024 A 
HETATM   25  C   UNL     1      -9.429   1.701 -32.257  1.00  0.00     0.011 A 
ENDBRANCH   6  19
BRANCH   1  26
HETATM   26  C   UNL     1      -7.839   5.456 -31.557  1.00  0.00     0.129 C 
BRANCH  26  27
HETATM   27  C   UNL     1      -7.163   5.961 -32.834  1.00  0.00     0.046 C 
BRANCH  27  28
HETATM   28  C   UNL     1      -5.681   6.281 -32.672  1.00  0.00     0.169 C 
BRANCH  28  29
HETATM   29  O   UNL     1      -4.975   5.862 -33.839  1.00  0.00    -0.387 OA
BRANCH  29  30
HETATM   30  C   UNL     1      -3.641   5.410 -33.584  1.00  0.00     0.113 C 
HETATM   31  C   UNL     1      -2.808   5.312 -34.858  1.00  0.00     0.039 C 
HETATM   32  C   UNL     1      -3.761   4.035 -32.935  1.00  0.00     0.039 C 
ENDBRANCH  29  30
ENDBRANCH  28  29
ENDBRANCH  27  28
ENDBRANCH  26  27
ENDBRANCH   1  26
TORSDOF 8
ENDMDL
MODEL 5
REMARK VINA RESULT:      -7.5      3.748      5.789
REMARK  8 active torsions:
REMARK  status: ('A' for Active; 'I' for Inactive)
REMARK    1  A    between atoms: C_2  and  O_3 
REMARK    2  A    between atoms: O_3  and  C_4 
REMARK    3  A    between atoms: C_4  and  C_5 
REMARK    4  A    between atoms: C_5  and  C_6 
REMARK    5  A    between atoms: C_6  and  N_7 
REMARK    6  A    between atoms: C_12  and  C_13 
REMARK    7  A    between atoms: C_23  and  C_24 
REMARK    8  A    between atoms: C_25  and  O_26 
ROOT
HETATM    1  N   UNL     1      -6.211   4.152 -29.648  1.00  0.00    -0.334 N 
HETATM    2  C   UNL     1      -7.590   3.971 -29.778  1.00  0.00     0.273 A 
HETATM    3  O   UNL     1      -8.495   4.662 -29.346  1.00  0.00    -0.266 OA
HETATM    4  C   UNL     1      -7.693   2.758 -30.497  1.00  0.00     0.129 A 
HETATM    5  C   UNL     1      -6.482   2.207 -30.798  1.00  0.00     0.034 A 
HETATM    6  C   UNL     1      -5.398   3.073 -30.271  1.00  0.00     0.159 A 
HETATM    7  N   UNL     1      -8.649   1.956 -30.978  1.00  0.00    -0.272 N 
HETATM    8  H   UNL     1      -9.660   2.060 -30.932  1.00  0.00     0.189 HD
HETATM    9  N   UNL     1      -8.118   0.873 -31.600  1.00  0.00    -0.173 NA
HETATM   10  C   UNL     1      -6.768   1.009 -31.481  1.00  0.00     0.101 A 
ENDROOT
BRANCH  10  11
HETATM   11  C   UNL     1      -5.867  -0.009 -32.046  1.00  0.00     0.028 A 
HETATM   12  C   UNL     1      -6.184  -0.695 -33.236  1.00  0.00     0.078 A 
HETATM   13  C   UNL     1      -5.321  -1.642 -33.787  1.00  0.00     0.037 A 
HETATM   14  C   UNL     1      -4.116  -1.932 -33.155  1.00  0.00     0.003 A 
HETATM   15  C   UNL     1      -3.783  -1.279 -31.971  1.00  0.00     0.001 A 
HETATM   16  C   UNL     1      -4.653  -0.331 -31.419  1.00  0.00     0.017 A 
BRANCH  12  17
HETATM   17  O   UNL     1      -7.352  -0.485 -33.927  1.00  0.00    -0.360 OA
HETATM   18  H   UNL     1      -7.493   0.490 -33.931  1.00  0.00     0.217 HD
ENDBRANCH  12  17
ENDBRANCH  10  11
BRANCH   6  19
HETATM   19  C   UNL     1      -4.542   3.566 -31.418  1.00  0.00    -0.031 A 
HETATM   20  C   UNL     1      -3.146   3.393 -31.479  1.00  0.00     0.011 A 
HETATM   21  C   UNL     1      -2.411   3.865 -32.571  1.00  0.00     0.024 A 
HETATM   22  C   UNL     1      -3.062   4.494 -33.627  1.00  0.00     0.034 A 
HETATM   23 CL   UNL     1      -2.157   5.072 -34.971  1.00  0.00    -0.084 Cl
HETATM   24  C   UNL     1      -4.444   4.651 -33.605  1.00  0.00     0.024 A 
HETATM   25  C   UNL     1      -5.178   4.187 -32.510  1.00  0.00     0.011 A 
ENDBRANCH   6  19
BRANCH   1  26
HETATM   26  C   UNL     1      -5.616   5.203 -28.842  1.00  0.00     0.129 C 
BRANCH  26  27
HETATM   27  C   UNL     1      -5.253   6.457 -29.641  1.00  0.00     0.046 C 
BRANCH  27  28
HETATM   28  C   UNL     1      -3.756   6.733 -29.725  1.00  0.00     0.169 C 
BRANCH  28  29
HETATM   29  O   UNL     1      -3.390   6.955 -31.086  1.00  0.00    -0.387 OA
BRANCH  29  30
HETATM   30  C   UNL     1      -2.129   7.612 -31.252  1.00  0.00     0.113 C 
HETATM   31  C   UNL     1      -1.777   7.830 -32.721  1.00  0.00     0.039 C 
HETATM   32  C   UNL     1      -1.080   6.720 -30.594  1.00  0.00     0.039 C 
ENDBRANCH  29  30
ENDBRANCH  28  29
ENDBRANCH  27  28
ENDBRANCH  26  27
ENDBRANCH   1  26
TORSDOF 8
ENDMDL
MODEL 6
REMARK VINA RESULT:      -7.4      3.279      7.926
REMARK  8 active torsions:
REMARK  status: ('A' for Active; 'I' for Inactive)
REMARK    1  A    between atoms: C_2  and  O_3 
REMARK    2  A    between atoms: O_3  and  C_4 
REMARK    3  A    between atoms: C_4  and  C_5 
REMARK    4  A    between atoms: C_5  and  C_6 
REMARK    5  A    between atoms: C_6  and  N_7 
REMARK    6  A    between atoms: C_12  and  C_13 
REMARK    7  A    between atoms: C_23  and  C_24 
REMARK    8  A    between atoms: C_25  and  O_26 
ROOT
HETATM    1  N   UNL     1      -6.163   1.259 -32.806  1.00  0.00    -0.334 N 
HETATM    2  C   UNL     1      -6.370   0.753 -31.521  1.00  0.00     0.273 A 
HETATM    3  O   UNL     1      -6.283  -0.397 -31.130  1.00  0.00    -0.266 OA
HETATM    4  C   UNL     1      -6.754   1.894 -30.779  1.00  0.00     0.129 A 
HETATM    5  C   UNL     1      -6.793   3.033 -31.529  1.00  0.00     0.034 A 
HETATM    6  C   UNL     1      -6.405   2.722 -32.927  1.00  0.00     0.159 A 
HETATM    7  N   UNL     1      -7.111   2.203 -29.528  1.00  0.00    -0.272 N 
HETATM    8  H   UNL     1      -7.190   1.598 -28.714  1.00  0.00     0.189 HD
HETATM    9  N   UNL     1      -7.392   3.525 -29.407  1.00  0.00    -0.173 NA
HETATM   10  C   UNL     1      -7.213   4.051 -30.650  1.00  0.00     0.101 A 
ENDROOT
BRANCH  10  11
HETATM   11  C   UNL     1      -7.441   5.486 -30.888  1.00  0.00     0.028 A 
HETATM   12  C   UNL     1      -8.601   6.136 -30.420  1.00  0.00     0.078 A 
HETATM   13  C   UNL     1      -8.809   7.500 -30.622  1.00  0.00     0.037 A 
HETATM   14  C   UNL     1      -7.859   8.251 -31.307  1.00  0.00     0.003 A 
HETATM   15  C   UNL     1      -6.710   7.633 -31.793  1.00  0.00     0.001 A 
HETATM   16  C   UNL     1      -6.506   6.262 -31.591  1.00  0.00     0.017 A 
BRANCH  12  17
HETATM   17  O   UNL     1      -9.598   5.479 -29.742  1.00  0.00    -0.360 OA
HETATM   18  H   UNL     1     -10.084   6.172 -29.238  1.00  0.00     0.217 HD
ENDBRANCH  12  17
ENDBRANCH  10  11
BRANCH   6  19
HETATM   19  C   UNL     1      -5.159   3.500 -33.292  1.00  0.00    -0.031 A 
HETATM   20  C   UNL     1      -3.926   3.351 -32.630  1.00  0.00     0.011 A 
HETATM   21  C   UNL     1      -2.808   4.094 -33.019  1.00  0.00     0.024 A 
HETATM   22  C   UNL     1      -2.900   4.978 -34.090  1.00  0.00     0.034 A 
HETATM   23 CL   UNL     1      -1.522   5.890 -34.570  1.00  0.00    -0.084 Cl
HETATM   24  C   UNL     1      -4.099   5.122 -34.780  1.00  0.00     0.024 A 
HETATM   25  C   UNL     1      -5.218   4.384 -34.385  1.00  0.00     0.011 A 
ENDBRANCH   6  19
BRANCH   1  26
HETATM   26  C   UNL     1      -5.895   0.421 -33.961  1.00  0.00     0.129 C 
BRANCH  26  27
HETATM   27  C   UNL     1      -7.129  -0.319 -34.482  1.00  0.00     0.046 C 
BRANCH  27  28
HETATM   28  C   UNL     1      -7.036  -1.838 -34.383  1.00  0.00     0.169 C 
BRANCH  28  29
HETATM   29  O   UNL     1      -5.674  -2.219 -34.198  1.00  0.00    -0.387 OA
BRANCH  29  30
HETATM   30  C   UNL     1      -5.291  -3.391 -34.925  1.00  0.00     0.113 C 
HETATM   31  C   UNL     1      -6.457  -4.357 -35.124  1.00  0.00     0.039 C 
HETATM   32  C   UNL     1      -4.189  -4.069 -34.116  1.00  0.00     0.039 C 
ENDBRANCH  29  30
ENDBRANCH  28  29
ENDBRANCH  27  28
ENDBRANCH  26  27
ENDBRANCH   1  26
TORSDOF 8
ENDMDL
MODEL 7
REMARK VINA RESULT:      -7.2      3.333      6.710
REMARK  8 active torsions:
REMARK  status: ('A' for Active; 'I' for Inactive)
REMARK    1  A    between atoms: C_2  and  O_3 
REMARK    2  A    between atoms: O_3  and  C_4 
REMARK    3  A    between atoms: C_4  and  C_5 
REMARK    4  A    between atoms: C_5  and  C_6 
REMARK    5  A    between atoms: C_6  and  N_7 
REMARK    6  A    between atoms: C_12  and  C_13 
REMARK    7  A    between atoms: C_23  and  C_24 
REMARK    8  A    between atoms: C_25  and  O_26 
ROOT
HETATM    1  N   UNL     1      -6.281   3.836 -32.294  1.00  0.00    -0.334 N 
HETATM    2  C   UNL     1      -6.453   5.016 -33.021  1.00  0.00     0.273 A 
HETATM    3  O   UNL     1      -5.681   5.948 -33.157  1.00  0.00    -0.266 OA
HETATM    4  C   UNL     1      -7.766   4.896 -33.531  1.00  0.00     0.129 A 
HETATM    5  C   UNL     1      -8.384   3.739 -33.158  1.00  0.00     0.034 A 
HETATM    6  C   UNL     1      -7.465   2.935 -32.315  1.00  0.00     0.159 A 
HETATM    7  N   UNL     1      -8.618   5.601 -34.284  1.00  0.00    -0.272 N 
HETATM    8  H   UNL     1      -8.486   6.508 -34.726  1.00  0.00     0.189 HD
HETATM    9  N   UNL     1      -9.799   4.951 -34.434  1.00  0.00    -0.173 NA
HETATM   10  C   UNL     1      -9.673   3.796 -33.724  1.00  0.00     0.101 A 
ENDROOT
BRANCH  10  11
HETATM   11  C   UNL     1     -10.789   2.838 -33.661  1.00  0.00     0.028 A 
HETATM   12  C   UNL     1     -12.126   3.269 -33.552  1.00  0.00     0.078 A 
HETATM   13  C   UNL     1     -13.187   2.364 -33.517  1.00  0.00     0.037 A 
HETATM   14  C   UNL     1     -12.935   0.998 -33.586  1.00  0.00     0.003 A 
HETATM   15  C   UNL     1     -11.622   0.543 -33.681  1.00  0.00     0.001 A 
HETATM   16  C   UNL     1     -10.559   1.454 -33.712  1.00  0.00     0.017 A 
BRANCH  12  17
HETATM   17  O   UNL     1     -12.475   4.594 -33.468  1.00  0.00    -0.360 OA
HETATM   18  H   UNL     1     -11.643   5.080 -33.260  1.00  0.00     0.217 HD
ENDBRANCH  12  17
ENDBRANCH  10  11
BRANCH   6  19
HETATM   19  C   UNL     1      -7.187   1.609 -32.991  1.00  0.00    -0.031 A 
HETATM   20  C   UNL     1      -6.995   1.467 -34.378  1.00  0.00     0.011 A 
HETATM   21  C   UNL     1      -6.734   0.215 -34.942  1.00  0.00     0.024 A 
HETATM   22  C   UNL     1      -6.638  -0.908 -34.127  1.00  0.00     0.034 A 
HETATM   23 CL   UNL     1      -6.314  -2.448 -34.821  1.00  0.00    -0.084 Cl
HETATM   24  C   UNL     1      -6.795  -0.790 -32.749  1.00  0.00     0.024 A 
HETATM   25  C   UNL     1      -7.063   0.460 -32.187  1.00  0.00     0.011 A 
ENDBRANCH   6  19
BRANCH   1  26
HETATM   26  C   UNL     1      -5.123   3.574 -31.458  1.00  0.00     0.129 C 
BRANCH  26  27
HETATM   27  C   UNL     1      -3.950   2.946 -32.214  1.00  0.00     0.046 C 
BRANCH  27  28
HETATM   28  C   UNL     1      -2.700   3.818 -32.264  1.00  0.00     0.169 C 
BRANCH  28  29
HETATM   29  O   UNL     1      -2.736   4.634 -33.433  1.00  0.00    -0.387 OA
BRANCH  29  30
HETATM   30  C   UNL     1      -1.646   5.555 -33.537  1.00  0.00     0.113 C 
HETATM   31  C   UNL     1      -2.075   6.995 -33.268  1.00  0.00     0.039 C 
HETATM   32  C   UNL     1      -1.101   5.433 -34.957  1.00  0.00     0.039 C 
ENDBRANCH  29  30
ENDBRANCH  28  29
ENDBRANCH  27  28
ENDBRANCH  26  27
ENDBRANCH   1  26
TORSDOF 8
ENDMDL
MODEL 8
REMARK VINA RESULT:      -7.1      4.437      8.014
REMARK  8 active torsions:
REMARK  status: ('A' for Active; 'I' for Inactive)
REMARK    1  A    between atoms: C_2  and  O_3 
REMARK    2  A    between atoms: O_3  and  C_4 
REMARK    3  A    between atoms: C_4  and  C_5 
REMARK    4  A    between atoms: C_5  and  C_6 
REMARK    5  A    between atoms: C_6  and  N_7 
REMARK    6  A    between atoms: C_12  and  C_13 
REMARK    7  A    between atoms: C_23  and  C_24 
REMARK    8  A    between atoms: C_25  and  O_26 
ROOT
HETATM    1  N   UNL     1      -4.513   4.543 -33.426  1.00  0.00    -0.334 N 
HETATM    2  C   UNL     1      -3.846   5.236 -34.439  1.00  0.00     0.273 A 
HETATM    3  O   UNL     1      -4.114   5.300 -35.625  1.00  0.00    -0.266 OA
HETATM    4  C   UNL     1      -2.745   5.815 -33.767  1.00  0.00     0.129 A 
HETATM    5  C   UNL     1      -2.709   5.514 -32.436  1.00  0.00     0.034 A 
HETATM    6  C   UNL     1      -3.868   4.654 -32.090  1.00  0.00     0.159 A 
HETATM    7  N   UNL     1      -1.688   6.585 -34.050  1.00  0.00    -0.272 N 
HETATM    8  H   UNL     1      -1.407   6.988 -34.941  1.00  0.00     0.189 HD
HETATM    9  N   UNL     1      -0.935   6.816 -32.945  1.00  0.00    -0.173 NA
HETATM   10  C   UNL     1      -1.551   6.141 -31.936  1.00  0.00     0.101 A 
ENDROOT
BRANCH  10  11
HETATM   11  C   UNL     1      -0.990   6.169 -30.575  1.00  0.00     0.028 A 
HETATM   12  C   UNL     1       0.170   5.442 -30.241  1.00  0.00     0.078 A 
HETATM   13  C   UNL     1       0.718   5.485 -28.959  1.00  0.00     0.037 A 
HETATM   14  C   UNL     1       0.112   6.256 -27.972  1.00  0.00     0.003 A 
HETATM   15  C   UNL     1      -1.044   6.975 -28.270  1.00  0.00     0.001 A 
HETATM   16  C   UNL     1      -1.592   6.926 -29.558  1.00  0.00     0.017 A 
BRANCH  12  17
HETATM   17  O   UNL     1       0.833   4.646 -31.142  1.00  0.00    -0.360 OA
HETATM   18  H   UNL     1       1.095   5.238 -31.884  1.00  0.00     0.217 HD
ENDBRANCH  12  17
ENDBRANCH  10  11
BRANCH   6  19
HETATM   19  C   UNL     1      -4.736   5.362 -31.072  1.00  0.00    -0.031 A 
HETATM   20  C   UNL     1      -5.266   4.734 -29.929  1.00  0.00     0.011 A 
HETATM   21  C   UNL     1      -6.056   5.444 -29.020  1.00  0.00     0.024 A 
HETATM   22  C   UNL     1      -6.308   6.796 -29.228  1.00  0.00     0.034 A 
HETATM   23 CL   UNL     1      -7.278   7.670 -28.107  1.00  0.00    -0.084 Cl
HETATM   24  C   UNL     1      -5.772   7.448 -30.334  1.00  0.00     0.024 A 
HETATM   25  C   UNL     1      -4.989   6.736 -31.246  1.00  0.00     0.011 A 
ENDBRANCH   6  19
BRANCH   1  26
HETATM   26  C   UNL     1      -5.639   3.659 -33.671  1.00  0.00     0.129 C 
BRANCH  26  27
HETATM   27  C   UNL     1      -5.533   2.316 -32.947  1.00  0.00     0.046 C 
BRANCH  27  28
HETATM   28  C   UNL     1      -6.789   1.456 -33.037  1.00  0.00     0.169 C 
BRANCH  28  29
HETATM   29  O   UNL     1      -6.418   0.090 -33.215  1.00  0.00    -0.387 OA
BRANCH  29  30
HETATM   30  C   UNL     1      -7.290  -0.644 -34.082  1.00  0.00     0.113 C 
HETATM   31  C   UNL     1      -6.727  -2.014 -34.447  1.00  0.00     0.039 C 
HETATM   32  C   UNL     1      -7.466   0.198 -35.342  1.00  0.00     0.039 C 
ENDBRANCH  29  30
ENDBRANCH  28  29
ENDBRANCH  27  28
ENDBRANCH  26  27
ENDBRANCH   1  26
TORSDOF 8
ENDMDL
MODEL 9
REMARK VINA RESULT:      -7.0     14.112     15.527
REMARK  8 active torsions:
REMARK  status: ('A' for Active; 'I' for Inactive)
REMARK    1  A    between atoms: C_2  and  O_3 
REMARK    2  A    between atoms: O_3  and  C_4 
REMARK    3  A    between atoms: C_4  and  C_5 
REMARK    4  A    between atoms: C_5  and  C_6 
REMARK    5  A    between atoms: C_6  and  N_7 
REMARK    6  A    between atoms: C_12  and  C_13 
REMARK    7  A    between atoms: C_23  and  C_24 
REMARK    8  A    between atoms: C_25  and  O_26 
ROOT
HETATM    1  N   UNL     1      -5.582 -13.791 -38.367  1.00  0.00    -0.334 N 
HETATM    2  C   UNL     1      -5.084 -12.634 -38.969  1.00  0.00     0.273 A 
HETATM    3  O   UNL     1      -5.671 -11.814 -39.652  1.00  0.00    -0.266 OA
HETATM    4  C   UNL     1      -3.710 -12.659 -38.637  1.00  0.00     0.129 A 
HETATM    5  C   UNL     1      -3.358 -13.744 -37.888  1.00  0.00     0.034 A 
HETATM    6  C   UNL     1      -4.555 -14.585 -37.639  1.00  0.00     0.159 A 
HETATM    7  N   UNL     1      -2.613 -11.923 -38.849  1.00  0.00    -0.272 N 
HETATM    8  H   UNL     1      -2.512 -11.053 -39.366  1.00  0.00     0.189 HD
HETATM    9  N   UNL     1      -1.524 -12.481 -38.262  1.00  0.00    -0.173 NA
HETATM   10  C   UNL     1      -1.971 -13.624 -37.674  1.00  0.00     0.101 A 
ENDROOT
BRANCH  10  11
HETATM   11  C   UNL     1      -1.038 -14.496 -36.941  1.00  0.00     0.028 A 
HETATM   12  C   UNL     1       0.064 -15.099 -37.580  1.00  0.00     0.078 A 
HETATM   13  C   UNL     1       0.964 -15.905 -36.883  1.00  0.00     0.037 A 
HETATM   14  C   UNL     1       0.780 -16.134 -35.523  1.00  0.00     0.003 A 
HETATM   15  C   UNL     1      -0.308 -15.560 -34.868  1.00  0.00     0.001 A 
HETATM   16  C   UNL     1      -1.210 -14.755 -35.572  1.00  0.00     0.017 A 
BRANCH  12  17
HETATM   17  O   UNL     1       0.324 -14.942 -38.919  1.00  0.00    -0.360 OA
HETATM   18  H   UNL     1      -0.077 -14.079 -39.173  1.00  0.00     0.217 HD
ENDBRANCH  12  17
ENDBRANCH  10  11
BRANCH   6  19
HETATM   19  C   UNL     1      -4.816 -14.666 -36.151  1.00  0.00    -0.031 A 
HETATM   20  C   UNL     1      -4.817 -15.871 -35.424  1.00  0.00     0.011 A 
HETATM   21  C   UNL     1      -5.058 -15.880 -34.047  1.00  0.00     0.024 A 
HETATM   22  C   UNL     1      -5.277 -14.683 -33.373  1.00  0.00     0.034 A 
HETATM   23 CL   UNL     1      -5.570 -14.694 -31.678  1.00  0.00    -0.084 Cl
HETATM   24  C   UNL     1      -5.252 -13.475 -34.062  1.00  0.00     0.024 A 
HETATM   25  C   UNL     1      -5.019 -13.467 -35.440  1.00  0.00     0.011 A 
ENDBRANCH   6  19
BRANCH   1  26
HETATM   26  C   UNL     1      -6.938 -14.272 -38.561  1.00  0.00     0.129 C 
BRANCH  26  27
HETATM   27  C   UNL     1      -7.968 -13.582 -37.664  1.00  0.00     0.046 C 
BRANCH  27  28
HETATM   28  C   UNL     1      -9.275 -13.232 -38.368  1.00  0.00     0.169 C 
BRANCH  28  29
HETATM   29  O   UNL     1      -9.014 -12.304 -39.420  1.00  0.00    -0.387 OA
BRANCH  29  30
HETATM   30  C   UNL     1      -9.977 -12.335 -40.479  1.00  0.00     0.113 C 
HETATM   31  C   UNL     1     -10.906 -11.124 -40.453  1.00  0.00     0.039 C 
HETATM   32  C   UNL     1     -10.788 -13.615 -40.296  1.00  0.00     0.039 C 
ENDBRANCH  29  30
ENDBRANCH  28  29
ENDBRANCH  27  28
ENDBRANCH  26  27
ENDBRANCH   1  26
TORSDOF 8
ENDMDL
MODEL 10
REMARK VINA RESULT:      -7.0      3.860      6.259
REMARK  8 active torsions:
REMARK  status: ('A' for Active; 'I' for Inactive)
REMARK    1  A    between atoms: C_2  and  O_3 
REMARK    2  A    between atoms: O_3  and  C_4 
REMARK    3  A    between atoms: C_4  and  C_5 
REMARK    4  A    between atoms: C_5  and  C_6 
REMARK    5  A    between atoms: C_6  and  N_7 
REMARK    6  A    between atoms: C_12  and  C_13 
REMARK    7  A    between atoms: C_23  and  C_24 
REMARK    8  A    between atoms: C_25  and  O_26 
ROOT
HETATM    1  N   UNL     1      -7.765   4.372 -30.472  1.00  0.00    -0.334 N 
HETATM    2  C   UNL     1      -7.159   4.904 -29.332  1.00  0.00     0.273 A 
HETATM    3  O   UNL     1      -7.640   5.096 -28.230  1.00  0.00    -0.266 OA
HETATM    4  C   UNL     1      -5.852   5.215 -29.772  1.00  0.00     0.129 A 
HETATM    5  C   UNL     1      -5.641   4.912 -31.086  1.00  0.00     0.034 A 
HETATM    6  C   UNL     1      -6.877   4.328 -31.665  1.00  0.00     0.159 A 
HETATM    7  N   UNL     1      -4.726   5.742 -29.279  1.00  0.00    -0.272 N 
HETATM    8  H   UNL     1      -4.532   6.078 -28.339  1.00  0.00     0.189 HD
HETATM    9  N   UNL     1      -3.754   5.804 -30.224  1.00  0.00    -0.173 NA
HETATM   10  C   UNL     1      -4.316   5.305 -31.359  1.00  0.00     0.101 A 
ENDROOT
BRANCH  10  11
HETATM   11  C   UNL     1      -3.533   5.229 -32.604  1.00  0.00     0.028 A 
HETATM   12  C   UNL     1      -2.161   4.909 -32.592  1.00  0.00     0.078 A 
HETATM   13  C   UNL     1      -1.422   4.813 -33.771  1.00  0.00     0.037 A 
HETATM   14  C   UNL     1      -2.039   5.040 -34.997  1.00  0.00     0.003 A 
HETATM   15  C   UNL     1      -3.392   5.371 -35.037  1.00  0.00     0.001 A 
HETATM   16  C   UNL     1      -4.129   5.470 -33.851  1.00  0.00     0.017 A 
BRANCH  12  17
HETATM   17  O   UNL     1      -1.461   4.677 -31.434  1.00  0.00    -0.360 OA
HETATM   18  H   UNL     1      -0.734   4.058 -31.677  1.00  0.00     0.217 HD
ENDBRANCH  12  17
ENDBRANCH  10  11
BRANCH   6  19
HETATM   19  C   UNL     1      -6.596   2.918 -32.140  1.00  0.00    -0.031 A 
HETATM   20  C   UNL     1      -6.603   2.537 -33.495  1.00  0.00     0.011 A 
HETATM   21  C   UNL     1      -6.328   1.219 -33.872  1.00  0.00     0.024 A 
HETATM   22  C   UNL     1      -6.018   0.270 -32.903  1.00  0.00     0.034 A 
HETATM   23 CL   UNL     1      -5.677  -1.351 -33.367  1.00  0.00    -0.084 Cl
HETATM   24  C   UNL     1      -5.975   0.628 -31.559  1.00  0.00     0.024 A 
HETATM   25  C   UNL     1      -6.258   1.943 -31.182  1.00  0.00     0.011 A 
ENDBRANCH   6  19
BRANCH   1  26
HETATM   26  C   UNL     1      -9.177   4.043 -30.546  1.00  0.00     0.129 C 
BRANCH  26  27
HETATM   27  C   UNL     1      -9.896   4.685 -31.735  1.00  0.00     0.046 C 
BRANCH  27  28
HETATM   28  C   UNL     1     -10.377   3.692 -32.786  1.00  0.00     0.169 C 
BRANCH  28  29
HETATM   29  O   UNL     1     -10.236   2.364 -32.285  1.00  0.00    -0.387 OA
BRANCH  29  30
HETATM   30  C   UNL     1     -10.201   1.356 -33.301  1.00  0.00     0.113 C 
HETATM   31  C   UNL     1     -11.576   1.099 -33.912  1.00  0.00     0.039 C 
HETATM   32  C   UNL     1      -9.681   0.084 -32.639  1.00  0.00     0.039 C 
ENDBRANCH  29  30
ENDBRANCH  28  29
ENDBRANCH  27  28
ENDBRANCH  26  27
ENDBRANCH   1  26
TORSDOF 8
ENDMDL
