MODEL 1
REMARK VINA RESULT:      -7.8      0.000      0.000
REMARK  10 active torsions:
REMARK  status: ('A' for Active; 'I' for Inactive)
REMARK    1  A    between atoms: C_2  and  C_3 
REMARK    2  A    between atoms: C_3  and  N_4 
REMARK    3  A    between atoms: C_7  and  C_8 
REMARK       I    between atoms: C_8  and  N_9 
REMARK    4  A    between atoms: N_9  and  C_10 
REMARK    5  A    between atoms: C_10  and  C_11 
REMARK    6  A    between atoms: C_11  and  O_12 
REMARK    7  A    between atoms: C_11  and  C_13 
REMARK    8  A    between atoms: C_13  and  O_14 
REMARK    9  A    between atoms: O_14  and  C_15 
REMARK   10  A    between atoms: C_23  and  C_24 
ROOT
HETATM    1  C   UNL     1      -7.053   4.027 -32.070  1.00  0.00     0.255 C 
HETATM    2  N   UNL     1      -7.727   3.204 -32.945  1.00  0.00    -0.354 N 
HETATM    3  O   UNL     1      -7.462   4.286 -30.945  1.00  0.00    -0.268 OA
HETATM    4  H   UNL     1      -7.250   2.973 -33.809  1.00  0.00     0.162 HD
ENDROOT
BRANCH   2   5
HETATM    5  C   UNL     1      -8.838   2.348 -32.543  1.00  0.00     0.156 C 
BRANCH   5   6
HETATM    6  C   UNL     1      -8.490   0.939 -32.017  1.00  0.00     0.160 C 
BRANCH   6   7
HETATM    7  O   UNL     1      -9.464   0.510 -31.057  1.00  0.00    -0.392 OA
HETATM    8  H   UNL     1      -9.204  -0.389 -30.758  1.00  0.00     0.210 HD
ENDBRANCH   6   7
BRANCH   6   9
HETATM    9  C   UNL     1      -8.326  -0.095 -33.138  1.00  0.00     0.209 C 
BRANCH   9  10
HETATM   10  O   UNL     1      -7.108   0.165 -33.844  1.00  0.00    -0.349 OA
BRANCH  10  11
HETATM   11  C   UNL     1      -6.254  -0.898 -33.971  1.00  0.00     0.069 A 
HETATM   12  C   UNL     1      -6.811  -2.042 -34.550  1.00  0.00     0.043 A 
HETATM   13  C   UNL     1      -6.044  -3.198 -34.741  1.00  0.00    -0.059 A 
HETATM   14  C   UNL     1      -6.644  -4.424 -35.362  1.00  0.00     0.048 C 
HETATM   15  C   UNL     1      -4.714  -3.208 -34.311  1.00  0.00     0.007 A 
HETATM   16  C   UNL     1      -4.158  -2.075 -33.717  1.00  0.00     0.003 A 
HETATM   17  C   UNL     1      -4.925  -0.921 -33.547  1.00  0.00     0.037 A 
ENDBRANCH  10  11
ENDBRANCH   9  10
ENDBRANCH   6   9
ENDBRANCH   5   6
ENDBRANCH   2   5
BRANCH   1  18
HETATM   18  C   UNL     1      -5.791   4.518 -32.580  1.00  0.00     0.075 A 
HETATM   19  C   UNL     1      -5.653   5.519 -33.566  1.00  0.00     0.158 A 
HETATM   20  N   UNL     1      -4.387   5.750 -33.897  1.00  0.00    -0.183 NA
HETATM   21  N   UNL     1      -3.693   4.847 -33.171  1.00  0.00    -0.268 N 
HETATM   22  C   UNL     1      -4.487   4.139 -32.287  1.00  0.00     0.052 A 
BRANCH  21  23
HETATM   23  C   UNL     1      -2.264   4.688 -33.439  1.00  0.00     0.106 C 
HETATM   24  C   UNL     1      -1.970   4.982 -34.915  1.00  0.00     0.034 C 
BRANCH  23  25
HETATM   25  C   UNL     1      -1.379   5.552 -32.524  1.00  0.00     0.022 C 
HETATM   26  C   UNL     1      -0.966   6.867 -33.171  1.00  0.00     0.007 C 
ENDBRANCH  23  25
ENDBRANCH  21  23
BRANCH  22  27
HETATM   27  C   UNL     1      -3.961   3.168 -31.228  1.00  0.00     0.038 A 
HETATM   28  C   UNL     1      -4.711   1.874 -30.995  1.00  0.00     0.011 A 
HETATM   29  C   UNL     1      -3.349   1.839 -31.598  1.00  0.00     0.011 A 
ENDBRANCH  22  27
ENDBRANCH   1  18
TORSDOF 10
ENDMDL
MODEL 2
REMARK VINA RESULT:      -7.7      2.475      7.839
REMARK  10 active torsions:
REMARK  status: ('A' for Active; 'I' for Inactive)
REMARK    1  A    between atoms: C_2  and  C_3 
REMARK    2  A    between atoms: C_3  and  N_4 
REMARK    3  A    between atoms: C_7  and  C_8 
REMARK       I    between atoms: C_8  and  N_9 
REMARK    4  A    between atoms: N_9  and  C_10 
REMARK    5  A    between atoms: C_10  and  C_11 
REMARK    6  A    between atoms: C_11  and  O_12 
REMARK    7  A    between atoms: C_11  and  C_13 
REMARK    8  A    between atoms: C_13  and  O_14 
REMARK    9  A    between atoms: O_14  and  C_15 
REMARK   10  A    between atoms: C_23  and  C_24 
ROOT
HETATM    1  C   UNL     1      -5.493   1.844 -32.192  1.00  0.00     0.255 C 
HETATM    2  N   UNL     1      -4.597   2.675 -32.826  1.00  0.00    -0.354 N 
HETATM    3  O   UNL     1      -6.351   2.251 -31.417  1.00  0.00    -0.268 OA
HETATM    4  H   UNL     1      -3.999   2.249 -33.526  1.00  0.00     0.162 HD
ENDROOT
BRANCH   2   5
HETATM    5  C   UNL     1      -4.739   4.127 -32.862  1.00  0.00     0.156 C 
BRANCH   5   6
HETATM    6  C   UNL     1      -5.034   4.776 -34.231  1.00  0.00     0.160 C 
BRANCH   6   7
HETATM    7  O   UNL     1      -6.015   5.810 -34.092  1.00  0.00    -0.392 OA
HETATM    8  H   UNL     1      -6.125   6.230 -34.974  1.00  0.00     0.210 HD
ENDBRANCH   6   7
BRANCH   6   9
HETATM    9  C   UNL     1      -3.773   5.300 -34.930  1.00  0.00     0.209 C 
BRANCH   9  10
HETATM   10  O   UNL     1      -2.615   4.777 -34.269  1.00  0.00    -0.349 OA
BRANCH  10  11
HETATM   11  C   UNL     1      -1.953   5.650 -33.449  1.00  0.00     0.069 A 
HETATM   12  C   UNL     1      -1.069   5.059 -32.542  1.00  0.00     0.043 A 
HETATM   13  C   UNL     1      -0.326   5.841 -31.648  1.00  0.00    -0.059 A 
HETATM   14  C   UNL     1       0.622   5.204 -30.676  1.00  0.00     0.048 C 
HETATM   15  C   UNL     1      -0.504   7.228 -31.649  1.00  0.00     0.007 A 
HETATM   16  C   UNL     1      -1.398   7.821 -32.541  1.00  0.00     0.003 A 
HETATM   17  C   UNL     1      -2.122   7.035 -33.440  1.00  0.00     0.037 A 
ENDBRANCH  10  11
ENDBRANCH   9  10
ENDBRANCH   6   9
ENDBRANCH   5   6
ENDBRANCH   2   5
BRANCH   1  18
HETATM   18  C   UNL     1      -5.366   0.452 -32.562  1.00  0.00     0.075 A 
HETATM   19  C   UNL     1      -4.709  -0.532 -31.791  1.00  0.00     0.158 A 
HETATM   20  N   UNL     1      -4.686  -1.723 -32.379  1.00  0.00    -0.183 NA
HETATM   21  N   UNL     1      -5.273  -1.503 -33.575  1.00  0.00    -0.268 N 
HETATM   22  C   UNL     1      -5.786  -0.226 -33.700  1.00  0.00     0.052 A 
BRANCH  21  23
HETATM   23  C   UNL     1      -5.240  -2.573 -34.573  1.00  0.00     0.106 C 
HETATM   24  C   UNL     1      -4.100  -3.549 -34.261  1.00  0.00     0.034 C 
BRANCH  23  25
HETATM   25  C   UNL     1      -6.579  -3.320 -34.701  1.00  0.00     0.022 C 
HETATM   26  C   UNL     1      -6.460  -4.617 -35.490  1.00  0.00     0.007 C 
ENDBRANCH  23  25
ENDBRANCH  21  23
BRANCH  22  27
HETATM   27  C   UNL     1      -6.642   0.260 -34.872  1.00  0.00     0.038 A 
HETATM   28  C   UNL     1      -8.113  -0.099 -34.892  1.00  0.00     0.011 A 
HETATM   29  C   UNL     1      -7.701   1.321 -34.701  1.00  0.00     0.011 A 
ENDBRANCH  22  27
ENDBRANCH   1  18
TORSDOF 10
ENDMDL
MODEL 3
REMARK VINA RESULT:      -7.5      1.619      2.196
REMARK  10 active torsions:
REMARK  status: ('A' for Active; 'I' for Inactive)
REMARK    1  A    between atoms: C_2  and  C_3 
REMARK    2  A    between atoms: C_3  and  N_4 
REMARK    3  A    between atoms: C_7  and  C_8 
REMARK       I    between atoms: C_8  and  N_9 
REMARK    4  A    between atoms: N_9  and  C_10 
REMARK    5  A    between atoms: C_10  and  C_11 
REMARK    6  A    between atoms: C_11  and  O_12 
REMARK    7  A    between atoms: C_11  and  C_13 
REMARK    8  A    between atoms: C_13  and  O_14 
REMARK    9  A    between atoms: O_14  and  C_15 
REMARK   10  A    between atoms: C_23  and  C_24 
ROOT
HETATM    1  C   UNL     1      -6.800   4.460 -33.762  1.00  0.00     0.255 C 
HETATM    2  N   UNL     1      -6.912   3.214 -33.186  1.00  0.00    -0.354 N 
HETATM    3  O   UNL     1      -7.758   5.081 -34.207  1.00  0.00    -0.268 OA
HETATM    4  H   UNL     1      -6.075   2.836 -32.757  1.00  0.00     0.162 HD
ENDROOT
BRANCH   2   5
HETATM    5  C   UNL     1      -8.189   2.624 -32.799  1.00  0.00     0.156 C 
BRANCH   5   6
HETATM    6  C   UNL     1      -8.199   1.715 -31.552  1.00  0.00     0.160 C 
BRANCH   6   7
HETATM    7  O   UNL     1      -9.530   1.585 -31.039  1.00  0.00    -0.392 OA
HETATM    8  H   UNL     1     -10.059   1.105 -31.715  1.00  0.00     0.210 HD
ENDBRANCH   6   7
BRANCH   6   9
HETATM    9  C   UNL     1      -7.568   0.340 -31.807  1.00  0.00     0.209 C 
BRANCH   9  10
HETATM   10  O   UNL     1      -7.379   0.162 -33.216  1.00  0.00    -0.349 OA
BRANCH  10  11
HETATM   11  C   UNL     1      -6.457  -0.782 -33.578  1.00  0.00     0.069 A 
HETATM   12  C   UNL     1      -6.988  -1.950 -34.133  1.00  0.00     0.043 A 
HETATM   13  C   UNL     1      -6.152  -2.994 -34.550  1.00  0.00    -0.059 A 
HETATM   14  C   UNL     1      -6.725  -4.246 -35.144  1.00  0.00     0.048 C 
HETATM   15  C   UNL     1      -4.771  -2.869 -34.372  1.00  0.00     0.007 A 
HETATM   16  C   UNL     1      -4.237  -1.713 -33.803  1.00  0.00     0.003 A 
HETATM   17  C   UNL     1      -5.076  -0.670 -33.407  1.00  0.00     0.037 A 
ENDBRANCH  10  11
ENDBRANCH   9  10
ENDBRANCH   6   9
ENDBRANCH   5   6
ENDBRANCH   2   5
BRANCH   1  18
HETATM   18  C   UNL     1      -5.456   4.995 -33.748  1.00  0.00     0.075 A 
HETATM   19  C   UNL     1      -4.538   4.900 -34.817  1.00  0.00     0.158 A 
HETATM   20  N   UNL     1      -3.352   5.426 -34.531  1.00  0.00    -0.183 NA
HETATM   21  N   UNL     1      -3.471   5.808 -33.241  1.00  0.00    -0.268 N 
HETATM   22  C   UNL     1      -4.753   5.655 -32.748  1.00  0.00     0.052 A 
BRANCH  21  23
HETATM   23  C   UNL     1      -2.271   6.257 -32.535  1.00  0.00     0.106 C 
HETATM   24  C   UNL     1      -1.105   5.303 -32.821  1.00  0.00     0.034 C 
BRANCH  23  25
HETATM   25  C   UNL     1      -1.883   7.709 -32.868  1.00  0.00     0.022 C 
HETATM   26  C   UNL     1      -2.023   8.646 -31.676  1.00  0.00     0.007 C 
ENDBRANCH  23  25
ENDBRANCH  21  23
BRANCH  22  27
HETATM   27  C   UNL     1      -5.225   6.149 -31.379  1.00  0.00     0.038 A 
HETATM   28  C   UNL     1      -5.513   7.626 -31.202  1.00  0.00     0.011 A 
HETATM   29  C   UNL     1      -6.633   6.644 -31.151  1.00  0.00     0.011 A 
ENDBRANCH  22  27
ENDBRANCH   1  18
TORSDOF 10
ENDMDL
MODEL 4
REMARK VINA RESULT:      -7.5      1.514      2.618
REMARK  10 active torsions:
REMARK  status: ('A' for Active; 'I' for Inactive)
REMARK    1  A    between atoms: C_2  and  C_3 
REMARK    2  A    between atoms: C_3  and  N_4 
REMARK    3  A    between atoms: C_7  and  C_8 
REMARK       I    between atoms: C_8  and  N_9 
REMARK    4  A    between atoms: N_9  and  C_10 
REMARK    5  A    between atoms: C_10  and  C_11 
REMARK    6  A    between atoms: C_11  and  O_12 
REMARK    7  A    between atoms: C_11  and  C_13 
REMARK    8  A    between atoms: C_13  and  O_14 
REMARK    9  A    between atoms: O_14  and  C_15 
REMARK   10  A    between atoms: C_23  and  C_24 
ROOT
HETATM    1  C   UNL     1      -5.600   2.917 -32.881  1.00  0.00     0.255 C 
HETATM    2  N   UNL     1      -6.523   2.763 -31.871  1.00  0.00    -0.354 N 
HETATM    3  O   UNL     1      -5.870   2.761 -34.066  1.00  0.00    -0.268 OA
HETATM    4  H   UNL     1      -6.222   3.018 -30.938  1.00  0.00     0.162 HD
ENDROOT
BRANCH   2   5
HETATM    5  C   UNL     1      -7.960   2.668 -32.109  1.00  0.00     0.156 C 
BRANCH   5   6
HETATM    6  C   UNL     1      -8.672   1.386 -31.631  1.00  0.00     0.160 C 
BRANCH   6   7
HETATM    7  O   UNL     1      -9.962   1.272 -32.245  1.00  0.00    -0.392 OA
HETATM    8  H   UNL     1     -10.240   0.332 -32.171  1.00  0.00     0.210 HD
ENDBRANCH   6   7
BRANCH   6   9
HETATM    9  C   UNL     1      -7.839   0.117 -31.857  1.00  0.00     0.209 C 
BRANCH   9  10
HETATM   10  O   UNL     1      -7.591  -0.041 -33.258  1.00  0.00    -0.349 OA
BRANCH  10  11
HETATM   11  C   UNL     1      -6.600  -0.924 -33.592  1.00  0.00     0.069 A 
HETATM   12  C   UNL     1      -7.035  -2.095 -34.220  1.00  0.00     0.043 A 
HETATM   13  C   UNL     1      -6.122  -3.080 -34.617  1.00  0.00    -0.059 A 
HETATM   14  C   UNL     1      -6.590  -4.335 -35.290  1.00  0.00     0.048 C 
HETATM   15  C   UNL     1      -4.763  -2.895 -34.344  1.00  0.00     0.007 A 
HETATM   16  C   UNL     1      -4.326  -1.736 -33.702  1.00  0.00     0.003 A 
HETATM   17  C   UNL     1      -5.241  -0.751 -33.326  1.00  0.00     0.037 A 
ENDBRANCH  10  11
ENDBRANCH   9  10
ENDBRANCH   6   9
ENDBRANCH   5   6
ENDBRANCH   2   5
BRANCH   1  18
HETATM   18  C   UNL     1      -4.292   3.333 -32.422  1.00  0.00     0.075 A 
HETATM   19  C   UNL     1      -3.514   2.641 -31.469  1.00  0.00     0.158 A 
HETATM   20  N   UNL     1      -2.374   3.260 -31.181  1.00  0.00    -0.183 NA
HETATM   21  N   UNL     1      -2.436   4.401 -31.901  1.00  0.00    -0.268 N 
HETATM   22  C   UNL     1      -3.533   4.451 -32.741  1.00  0.00     0.052 A 
BRANCH  21  23
HETATM   23  C   UNL     1      -1.419   5.426 -31.669  1.00  0.00     0.106 C 
HETATM   24  C   UNL     1      -2.022   6.600 -30.890  1.00  0.00     0.034 C 
BRANCH  23  25
HETATM   25  C   UNL     1      -0.168   4.883 -30.955  1.00  0.00     0.022 C 
HETATM   26  C   UNL     1       0.325   5.802 -29.845  1.00  0.00     0.007 C 
ENDBRANCH  23  25
ENDBRANCH  21  23
BRANCH  22  27
HETATM   27  C   UNL     1      -3.780   5.540 -33.787  1.00  0.00     0.038 A 
HETATM   28  C   UNL     1      -2.650   5.915 -34.723  1.00  0.00     0.011 A 
HETATM   29  C   UNL     1      -3.858   5.227 -35.261  1.00  0.00     0.011 A 
ENDBRANCH  22  27
ENDBRANCH   1  18
TORSDOF 10
ENDMDL
MODEL 5
REMARK VINA RESULT:      -7.4      3.374      6.769
REMARK  10 active torsions:
REMARK  status: ('A' for Active; 'I' for Inactive)
REMARK    1  A    between atoms: C_2  and  C_3 
REMARK    2  A    between atoms: C_3  and  N_4 
REMARK    3  A    between atoms: C_7  and  C_8 
REMARK       I    between atoms: C_8  and  N_9 
REMARK    4  A    between atoms: N_9  and  C_10 
REMARK    5  A    between atoms: C_10  and  C_11 
REMARK    6  A    between atoms: C_11  and  O_12 
REMARK    7  A    between atoms: C_11  and  C_13 
REMARK    8  A    between atoms: C_13  and  O_14 
REMARK    9  A    between atoms: O_14  and  C_15 
REMARK   10  A    between atoms: C_23  and  C_24 
ROOT
HETATM    1  C   UNL     1      -5.609   1.147 -32.236  1.00  0.00     0.255 C 
HETATM    2  N   UNL     1      -6.679   1.146 -31.370  1.00  0.00    -0.354 N 
HETATM    3  O   UNL     1      -5.054   2.172 -32.615  1.00  0.00    -0.268 OA
HETATM    4  H   UNL     1      -6.995   0.241 -31.039  1.00  0.00     0.162 HD
ENDROOT
BRANCH   2   5
HETATM    5  C   UNL     1      -7.091   2.319 -30.606  1.00  0.00     0.156 C 
BRANCH   5   6
HETATM    6  C   UNL     1      -8.130   3.257 -31.257  1.00  0.00     0.160 C 
BRANCH   6   7
HETATM    7  O   UNL     1      -7.501   4.099 -32.232  1.00  0.00    -0.392 OA
HETATM    8  H   UNL     1      -8.205   4.426 -32.834  1.00  0.00     0.210 HD
ENDBRANCH   6   7
BRANCH   6   9
HETATM    9  C   UNL     1      -9.321   2.504 -31.863  1.00  0.00     0.209 C 
BRANCH   9  10
HETATM   10  O   UNL     1      -9.337   2.709 -33.280  1.00  0.00    -0.349 OA
BRANCH  10  11
HETATM   11  C   UNL     1     -10.527   2.453 -33.906  1.00  0.00     0.069 A 
HETATM   12  C   UNL     1     -11.182   1.291 -33.486  1.00  0.00     0.043 A 
HETATM   13  C   UNL     1     -12.410   0.917 -34.043  1.00  0.00    -0.059 A 
HETATM   14  C   UNL     1     -13.111  -0.330 -33.592  1.00  0.00     0.048 C 
HETATM   15  C   UNL     1     -12.964   1.704 -35.057  1.00  0.00     0.007 A 
HETATM   16  C   UNL     1     -12.307   2.855 -35.492  1.00  0.00     0.003 A 
HETATM   17  C   UNL     1     -11.091   3.231 -34.918  1.00  0.00     0.037 A 
ENDBRANCH  10  11
ENDBRANCH   9  10
ENDBRANCH   6   9
ENDBRANCH   5   6
ENDBRANCH   2   5
BRANCH   1  18
HETATM   18  C   UNL     1      -5.162  -0.175 -32.619  1.00  0.00     0.075 A 
HETATM   19  C   UNL     1      -4.229  -0.952 -31.898  1.00  0.00     0.158 A 
HETATM   20  N   UNL     1      -3.948  -2.108 -32.492  1.00  0.00    -0.183 NA
HETATM   21  N   UNL     1      -4.651  -2.058 -33.644  1.00  0.00    -0.268 N 
HETATM   22  C   UNL     1      -5.475  -0.951 -33.728  1.00  0.00     0.052 A 
BRANCH  21  23
HETATM   23  C   UNL     1      -4.418  -3.098 -34.645  1.00  0.00     0.106 C 
HETATM   24  C   UNL     1      -3.800  -4.336 -33.985  1.00  0.00     0.034 C 
BRANCH  23  25
HETATM   25  C   UNL     1      -5.688  -3.475 -35.430  1.00  0.00     0.022 C 
HETATM   26  C   UNL     1      -6.568  -4.472 -34.688  1.00  0.00     0.007 C 
ENDBRANCH  23  25
ENDBRANCH  21  23
BRANCH  22  27
HETATM   27  C   UNL     1      -6.502  -0.712 -34.836  1.00  0.00     0.038 A 
HETATM   28  C   UNL     1      -7.941  -0.449 -34.446  1.00  0.00     0.011 A 
HETATM   29  C   UNL     1      -7.132   0.641 -35.061  1.00  0.00     0.011 A 
ENDBRANCH  22  27
ENDBRANCH   1  18
TORSDOF 10
ENDMDL
MODEL 6
REMARK VINA RESULT:      -7.4      1.269      2.281
REMARK  10 active torsions:
REMARK  status: ('A' for Active; 'I' for Inactive)
REMARK    1  A    between atoms: C_2  and  C_3 
REMARK    2  A    between atoms: C_3  and  N_4 
REMARK    3  A    between atoms: C_7  and  C_8 
REMARK       I    between atoms: C_8  and  N_9 
REMARK    4  A    between atoms: N_9  and  C_10 
REMARK    5  A    between atoms: C_10  and  C_11 
REMARK    6  A    between atoms: C_11  and  O_12 
REMARK    7  A    between atoms: C_11  and  C_13 
REMARK    8  A    between atoms: C_13  and  O_14 
REMARK    9  A    between atoms: O_14  and  C_15 
REMARK   10  A    between atoms: C_23  and  C_24 
ROOT
HETATM    1  C   UNL     1      -6.219   3.307 -31.022  1.00  0.00     0.255 C 
HETATM    2  N   UNL     1      -7.025   2.964 -32.084  1.00  0.00    -0.354 N 
HETATM    3  O   UNL     1      -6.612   3.331 -29.862  1.00  0.00    -0.268 OA
HETATM    4  H   UNL     1      -6.574   2.874 -32.987  1.00  0.00     0.162 HD
ENDROOT
BRANCH   2   5
HETATM    5  C   UNL     1      -8.334   2.337 -31.924  1.00  0.00     0.156 C 
BRANCH   5   6
HETATM    6  C   UNL     1      -8.377   0.795 -31.867  1.00  0.00     0.160 C 
BRANCH   6   7
HETATM    7  O   UNL     1      -9.468   0.356 -31.049  1.00  0.00    -0.392 OA
HETATM    8  H   UNL     1      -9.167  -0.443 -30.563  1.00  0.00     0.210 HD
ENDBRANCH   6   7
BRANCH   6   9
HETATM    9  C   UNL     1      -8.430   0.145 -33.256  1.00  0.00     0.209 C 
BRANCH   9  10
HETATM   10  O   UNL     1      -7.204   0.409 -33.947  1.00  0.00    -0.349 OA
BRANCH  10  11
HETATM   11  C   UNL     1      -6.324  -0.637 -34.021  1.00  0.00     0.069 A 
HETATM   12  C   UNL     1      -6.858  -1.829 -34.519  1.00  0.00     0.043 A 
HETATM   13  C   UNL     1      -6.063  -2.974 -34.648  1.00  0.00    -0.059 A 
HETATM   14  C   UNL     1      -6.638  -4.252 -35.182  1.00  0.00     0.048 C 
HETATM   15  C   UNL     1      -4.727  -2.922 -34.240  1.00  0.00     0.007 A 
HETATM   16  C   UNL     1      -4.193  -1.740 -33.726  1.00  0.00     0.003 A 
HETATM   17  C   UNL     1      -4.989  -0.598 -33.617  1.00  0.00     0.037 A 
ENDBRANCH  10  11
ENDBRANCH   9  10
ENDBRANCH   6   9
ENDBRANCH   5   6
ENDBRANCH   2   5
BRANCH   1  18
HETATM   18  C   UNL     1      -4.849   3.588 -31.392  1.00  0.00     0.075 A 
HETATM   19  C   UNL     1      -3.796   2.648 -31.363  1.00  0.00     0.158 A 
HETATM   20  N   UNL     1      -2.622   3.172 -31.699  1.00  0.00    -0.183 NA
HETATM   21  N   UNL     1      -2.895   4.481 -31.886  1.00  0.00    -0.268 N 
HETATM   22  C   UNL     1      -4.245   4.769 -31.803  1.00  0.00     0.052 A 
BRANCH  21  23
HETATM   23  C   UNL     1      -1.777   5.405 -32.079  1.00  0.00     0.106 C 
HETATM   24  C   UNL     1      -0.707   5.166 -31.008  1.00  0.00     0.034 C 
BRANCH  23  25
HETATM   25  C   UNL     1      -1.165   5.324 -33.489  1.00  0.00     0.022 C 
HETATM   26  C   UNL     1      -2.217   5.197 -34.583  1.00  0.00     0.007 C 
ENDBRANCH  23  25
ENDBRANCH  21  23
BRANCH  22  27
HETATM   27  C   UNL     1      -4.867   6.129 -32.128  1.00  0.00     0.038 A 
HETATM   28  C   UNL     1      -5.553   6.895 -31.016  1.00  0.00     0.011 A 
HETATM   29  C   UNL     1      -4.286   7.418 -31.601  1.00  0.00     0.011 A 
ENDBRANCH  22  27
ENDBRANCH   1  18
TORSDOF 10
ENDMDL
MODEL 7
REMARK VINA RESULT:      -7.2      3.269      6.327
REMARK  10 active torsions:
REMARK  status: ('A' for Active; 'I' for Inactive)
REMARK    1  A    between atoms: C_2  and  C_3 
REMARK    2  A    between atoms: C_3  and  N_4 
REMARK    3  A    between atoms: C_7  and  C_8 
REMARK       I    between atoms: C_8  and  N_9 
REMARK    4  A    between atoms: N_9  and  C_10 
REMARK    5  A    between atoms: C_10  and  C_11 
REMARK    6  A    between atoms: C_11  and  O_12 
REMARK    7  A    between atoms: C_11  and  C_13 
REMARK    8  A    between atoms: C_13  and  O_14 
REMARK    9  A    between atoms: O_14  and  C_15 
REMARK   10  A    between atoms: C_23  and  C_24 
ROOT
HETATM    1  C   UNL     1      -5.931   1.674 -32.512  1.00  0.00     0.255 C 
HETATM    2  N   UNL     1      -6.510   1.562 -31.268  1.00  0.00    -0.354 N 
HETATM    3  O   UNL     1      -5.433   2.714 -32.928  1.00  0.00    -0.268 OA
HETATM    4  H   UNL     1      -6.797   0.632 -30.983  1.00  0.00     0.162 HD
ENDROOT
BRANCH   2   5
HETATM    5  C   UNL     1      -6.356   2.566 -30.220  1.00  0.00     0.156 C 
BRANCH   5   6
HETATM    6  C   UNL     1      -7.383   3.718 -30.189  1.00  0.00     0.160 C 
BRANCH   6   7
HETATM    7  O   UNL     1      -6.988   4.763 -31.086  1.00  0.00    -0.392 OA
HETATM    8  H   UNL     1      -6.759   4.342 -31.944  1.00  0.00     0.210 HD
ENDBRANCH   6   7
BRANCH   6   9
HETATM    9  C   UNL     1      -8.816   3.252 -30.479  1.00  0.00     0.209 C 
BRANCH   9  10
HETATM   10  O   UNL     1      -9.092   3.417 -31.874  1.00  0.00    -0.349 OA
BRANCH  10  11
HETATM   11  C   UNL     1      -9.869   2.447 -32.446  1.00  0.00     0.069 A 
HETATM   12  C   UNL     1     -11.031   2.908 -33.072  1.00  0.00     0.043 A 
HETATM   13  C   UNL     1     -11.912   2.018 -33.699  1.00  0.00    -0.059 A 
HETATM   14  C   UNL     1     -13.158   2.516 -34.369  1.00  0.00     0.048 C 
HETATM   15  C   UNL     1     -11.633   0.649 -33.663  1.00  0.00     0.007 A 
HETATM   16  C   UNL     1     -10.484   0.181 -33.026  1.00  0.00     0.003 A 
HETATM   17  C   UNL     1      -9.602   1.077 -32.418  1.00  0.00     0.037 A 
ENDBRANCH  10  11
ENDBRANCH   9  10
ENDBRANCH   6   9
ENDBRANCH   5   6
ENDBRANCH   2   5
BRANCH   1  18
HETATM   18  C   UNL     1      -5.915   0.440 -33.266  1.00  0.00     0.075 A 
HETATM   19  C   UNL     1      -6.580   0.236 -34.495  1.00  0.00     0.158 A 
HETATM   20  N   UNL     1      -6.451  -1.004 -34.955  1.00  0.00    -0.183 NA
HETATM   21  N   UNL     1      -5.753  -1.636 -33.988  1.00  0.00    -0.268 N 
HETATM   22  C   UNL     1      -5.323  -0.785 -32.986  1.00  0.00     0.052 A 
BRANCH  21  23
HETATM   23  C   UNL     1      -5.598  -3.088 -34.078  1.00  0.00     0.106 C 
HETATM   24  C   UNL     1      -6.712  -3.684 -34.946  1.00  0.00     0.034 C 
BRANCH  23  25
HETATM   25  C   UNL     1      -4.214  -3.516 -34.597  1.00  0.00     0.022 C 
HETATM   26  C   UNL     1      -3.559  -4.581 -33.728  1.00  0.00     0.007 C 
ENDBRANCH  23  25
ENDBRANCH  21  23
BRANCH  22  27
HETATM   27  C   UNL     1      -4.381  -1.184 -31.848  1.00  0.00     0.038 A 
HETATM   28  C   UNL     1      -2.889  -1.159 -32.102  1.00  0.00     0.011 A 
HETATM   29  C   UNL     1      -3.493  -0.178 -31.158  1.00  0.00     0.011 A 
ENDBRANCH  22  27
ENDBRANCH   1  18
TORSDOF 10
ENDMDL
MODEL 8
REMARK VINA RESULT:      -7.1      2.819      8.390
REMARK  10 active torsions:
REMARK  status: ('A' for Active; 'I' for Inactive)
REMARK    1  A    between atoms: C_2  and  C_3 
REMARK    2  A    between atoms: C_3  and  N_4 
REMARK    3  A    between atoms: C_7  and  C_8 
REMARK       I    between atoms: C_8  and  N_9 
REMARK    4  A    between atoms: N_9  and  C_10 
REMARK    5  A    between atoms: C_10  and  C_11 
REMARK    6  A    between atoms: C_11  and  O_12 
REMARK    7  A    between atoms: C_11  and  C_13 
REMARK    8  A    between atoms: C_13  and  O_14 
REMARK    9  A    between atoms: O_14  and  C_15 
REMARK   10  A    between atoms: C_23  and  C_24 
ROOT
HETATM    1  C   UNL     1      -4.257   3.286 -32.386  1.00  0.00     0.255 C 
HETATM    2  N   UNL     1      -3.251   3.608 -33.270  1.00  0.00    -0.354 N 
HETATM    3  O   UNL     1      -4.314   3.730 -31.246  1.00  0.00    -0.268 OA
HETATM    4  H   UNL     1      -3.356   3.269 -34.220  1.00  0.00     0.162 HD
ENDROOT
BRANCH   2   5
HETATM    5  C   UNL     1      -2.312   4.703 -33.049  1.00  0.00     0.156 C 
BRANCH   5   6
HETATM    6  C   UNL     1      -1.974   5.600 -34.259  1.00  0.00     0.160 C 
BRANCH   6   7
HETATM    7  O   UNL     1      -3.163   6.210 -34.775  1.00  0.00    -0.392 OA
HETATM    8  H   UNL     1      -3.169   7.145 -34.472  1.00  0.00     0.210 HD
ENDBRANCH   6   7
BRANCH   6   9
HETATM    9  C   UNL     1      -0.904   6.653 -33.944  1.00  0.00     0.209 C 
BRANCH   9  10
HETATM   10  O   UNL     1      -1.543   7.858 -33.507  1.00  0.00    -0.349 OA
BRANCH  10  11
HETATM   11  C   UNL     1      -1.562   8.065 -32.154  1.00  0.00     0.069 A 
HETATM   12  C   UNL     1      -0.601   7.353 -31.430  1.00  0.00     0.043 A 
HETATM   13  C   UNL     1      -0.511   7.478 -30.038  1.00  0.00    -0.059 A 
HETATM   14  C   UNL     1       0.521   6.712 -29.264  1.00  0.00     0.048 C 
HETATM   15  C   UNL     1      -1.421   8.302 -29.370  1.00  0.00     0.007 A 
HETATM   16  C   UNL     1      -2.393   9.002 -30.086  1.00  0.00     0.003 A 
HETATM   17  C   UNL     1      -2.464   8.885 -31.476  1.00  0.00     0.037 A 
ENDBRANCH  10  11
ENDBRANCH   9  10
ENDBRANCH   6   9
ENDBRANCH   5   6
ENDBRANCH   2   5
BRANCH   1  18
HETATM   18  C   UNL     1      -5.270   2.416 -32.942  1.00  0.00     0.075 A 
HETATM   19  C   UNL     1      -6.344   2.843 -33.752  1.00  0.00     0.158 A 
HETATM   20  N   UNL     1      -7.166   1.853 -34.089  1.00  0.00    -0.183 NA
HETATM   21  N   UNL     1      -6.664   0.782 -33.438  1.00  0.00    -0.268 N 
HETATM   22  C   UNL     1      -5.464   1.047 -32.804  1.00  0.00     0.052 A 
BRANCH  21  23
HETATM   23  C   UNL     1      -7.445  -0.455 -33.428  1.00  0.00     0.106 C 
HETATM   24  C   UNL     1      -8.929  -0.138 -33.206  1.00  0.00     0.034 C 
BRANCH  23  25
HETATM   25  C   UNL     1      -7.252  -1.300 -34.700  1.00  0.00     0.022 C 
HETATM   26  C   UNL     1      -6.336  -2.497 -34.481  1.00  0.00     0.007 C 
ENDBRANCH  23  25
ENDBRANCH  21  23
BRANCH  22  27
HETATM   27  C   UNL     1      -4.585  -0.006 -32.126  1.00  0.00     0.038 A 
HETATM   28  C   UNL     1      -3.381  -0.536 -32.877  1.00  0.00     0.011 A 
HETATM   29  C   UNL     1      -3.183   0.304 -31.662  1.00  0.00     0.011 A 
ENDBRANCH  22  27
ENDBRANCH   1  18
TORSDOF 10
ENDMDL
MODEL 9
REMARK VINA RESULT:      -7.0      2.378      7.637
REMARK  10 active torsions:
REMARK  status: ('A' for Active; 'I' for Inactive)
REMARK    1  A    between atoms: C_2  and  C_3 
REMARK    2  A    between atoms: C_3  and  N_4 
REMARK    3  A    between atoms: C_7  and  C_8 
REMARK       I    between atoms: C_8  and  N_9 
REMARK    4  A    between atoms: N_9  and  C_10 
REMARK    5  A    between atoms: C_10  and  C_11 
REMARK    6  A    between atoms: C_11  and  O_12 
REMARK    7  A    between atoms: C_11  and  C_13 
REMARK    8  A    between atoms: C_13  and  O_14 
REMARK    9  A    between atoms: O_14  and  C_15 
REMARK   10  A    between atoms: C_23  and  C_24 
ROOT
HETATM    1  C   UNL     1      -6.160   1.517 -31.352  1.00  0.00     0.255 C 
HETATM    2  N   UNL     1      -5.665   2.649 -31.961  1.00  0.00    -0.354 N 
HETATM    3  O   UNL     1      -6.870   1.550 -30.354  1.00  0.00    -0.268 OA
HETATM    4  H   UNL     1      -5.177   2.515 -32.839  1.00  0.00     0.162 HD
ENDROOT
BRANCH   2   5
HETATM    5  C   UNL     1      -6.142   3.994 -31.658  1.00  0.00     0.156 C 
BRANCH   5   6
HETATM    6  C   UNL     1      -5.432   4.756 -30.519  1.00  0.00     0.160 C 
BRANCH   6   7
HETATM    7  O   UNL     1      -4.130   4.205 -30.286  1.00  0.00    -0.392 OA
HETATM    8  H   UNL     1      -4.229   3.228 -30.244  1.00  0.00     0.210 HD
ENDBRANCH   6   7
BRANCH   6   9
HETATM    9  C   UNL     1      -5.356   6.268 -30.766  1.00  0.00     0.209 C 
BRANCH   9  10
HETATM   10  O   UNL     1      -5.093   6.507 -32.153  1.00  0.00    -0.349 OA
BRANCH  10  11
HETATM   11  C   UNL     1      -3.794   6.803 -32.470  1.00  0.00     0.069 A 
HETATM   12  C   UNL     1      -3.220   5.985 -33.448  1.00  0.00     0.043 A 
HETATM   13  C   UNL     1      -1.899   6.184 -33.866  1.00  0.00    -0.059 A 
HETATM   14  C   UNL     1      -1.285   5.305 -34.916  1.00  0.00     0.048 C 
HETATM   15  C   UNL     1      -1.141   7.195 -33.266  1.00  0.00     0.007 A 
HETATM   16  C   UNL     1      -1.703   8.002 -32.277  1.00  0.00     0.003 A 
HETATM   17  C   UNL     1      -3.028   7.808 -31.879  1.00  0.00     0.037 A 
ENDBRANCH  10  11
ENDBRANCH   9  10
ENDBRANCH   6   9
ENDBRANCH   5   6
ENDBRANCH   2   5
BRANCH   1  18
HETATM   18  C   UNL     1      -5.811   0.286 -32.027  1.00  0.00     0.075 A 
HETATM   19  C   UNL     1      -4.691  -0.515 -31.717  1.00  0.00     0.158 A 
HETATM   20  N   UNL     1      -4.565  -1.565 -32.521  1.00  0.00    -0.183 NA
HETATM   21  N   UNL     1      -5.572  -1.415 -33.408  1.00  0.00    -0.268 N 
HETATM   22  C   UNL     1      -6.412  -0.362 -33.099  1.00  0.00     0.052 A 
BRANCH  21  23
HETATM   23  C   UNL     1      -5.614  -2.302 -34.570  1.00  0.00     0.106 C 
HETATM   24  C   UNL     1      -4.297  -3.080 -34.687  1.00  0.00     0.034 C 
BRANCH  23  25
HETATM   25  C   UNL     1      -6.815  -3.264 -34.551  1.00  0.00     0.022 C 
HETATM   26  C   UNL     1      -6.485  -4.635 -35.126  1.00  0.00     0.007 C 
ENDBRANCH  23  25
ENDBRANCH  21  23
BRANCH  22  27
HETATM   27  C   UNL     1      -7.722  -0.049 -33.826  1.00  0.00     0.038 A 
HETATM   28  C   UNL     1      -7.900   1.323 -34.440  1.00  0.00     0.011 A 
HETATM   29  C   UNL     1      -7.780   0.129 -35.323  1.00  0.00     0.011 A 
ENDBRANCH  22  27
ENDBRANCH   1  18
TORSDOF 10
ENDMDL
MODEL 10
REMARK VINA RESULT:      -7.0     16.086     17.882
REMARK  10 active torsions:
REMARK  status: ('A' for Active; 'I' for Inactive)
REMARK    1  A    between atoms: C_2  and  C_3 
REMARK    2  A    between atoms: C_3  and  N_4 
REMARK    3  A    between atoms: C_7  and  C_8 
REMARK       I    between atoms: C_8  and  N_9 
REMARK    4  A    between atoms: N_9  and  C_10 
REMARK    5  A    between atoms: C_10  and  C_11 
REMARK    6  A    between atoms: C_11  and  O_12 
REMARK    7  A    between atoms: C_11  and  C_13 
REMARK    8  A    between atoms: C_13  and  O_14 
REMARK    9  A    between atoms: O_14  and  C_15 
REMARK   10  A    between atoms: C_23  and  C_24 
ROOT
HETATM    1  C   UNL     1      -3.844 -12.950 -38.255  1.00  0.00     0.255 C 
HETATM    2  N   UNL     1      -4.008 -13.977 -37.352  1.00  0.00    -0.354 N 
HETATM    3  O   UNL     1      -3.598 -11.797 -37.920  1.00  0.00    -0.268 OA
HETATM    4  H   UNL     1      -4.104 -14.910 -37.738  1.00  0.00     0.162 HD
ENDROOT
BRANCH   2   5
HETATM    5  C   UNL     1      -3.644 -13.869 -35.943  1.00  0.00     0.156 C 
BRANCH   5   6
HETATM    6  C   UNL     1      -4.796 -13.826 -34.917  1.00  0.00     0.160 C 
BRANCH   6   7
HETATM    7  O   UNL     1      -4.939 -12.505 -34.381  1.00  0.00    -0.392 OA
HETATM    8  H   UNL     1      -4.605 -11.876 -35.059  1.00  0.00     0.210 HD
ENDBRANCH   6   7
BRANCH   6   9
HETATM    9  C   UNL     1      -6.126 -14.338 -35.486  1.00  0.00     0.209 C 
BRANCH   9  10
HETATM   10  O   UNL     1      -6.706 -13.324 -36.314  1.00  0.00    -0.349 OA
BRANCH  10  11
HETATM   11  C   UNL     1      -7.543 -13.769 -37.302  1.00  0.00     0.069 A 
HETATM   12  C   UNL     1      -8.047 -12.775 -38.146  1.00  0.00     0.043 A 
HETATM   13  C   UNL     1      -8.912 -13.097 -39.199  1.00  0.00    -0.059 A 
HETATM   14  C   UNL     1      -9.452 -12.028 -40.103  1.00  0.00     0.048 C 
HETATM   15  C   UNL     1      -9.297 -14.429 -39.378  1.00  0.00     0.007 A 
HETATM   16  C   UNL     1      -8.811 -15.422 -38.528  1.00  0.00     0.003 A 
HETATM   17  C   UNL     1      -7.935 -15.095 -37.492  1.00  0.00     0.037 A 
ENDBRANCH  10  11
ENDBRANCH   9  10
ENDBRANCH   6   9
ENDBRANCH   5   6
ENDBRANCH   2   5
BRANCH   1  18
HETATM   18  C   UNL     1      -3.936 -13.364 -39.638  1.00  0.00     0.075 A 
HETATM   19  C   UNL     1      -5.002 -13.044 -40.507  1.00  0.00     0.158 A 
HETATM   20  N   UNL     1      -4.872 -13.591 -41.711  1.00  0.00    -0.183 NA
HETATM   21  N   UNL     1      -3.746 -14.329 -41.610  1.00  0.00    -0.268 N 
HETATM   22  C   UNL     1      -3.090 -14.153 -40.406  1.00  0.00     0.052 A 
BRANCH  21  23
HETATM   23  C   UNL     1      -3.406 -15.233 -42.709  1.00  0.00     0.106 C 
HETATM   24  C   UNL     1      -3.688 -16.684 -42.304  1.00  0.00     0.034 C 
BRANCH  23  25
HETATM   25  C   UNL     1      -4.128 -14.882 -44.023  1.00  0.00     0.022 C 
HETATM   26  C   UNL     1      -3.634 -15.704 -45.206  1.00  0.00     0.007 C 
ENDBRANCH  23  25
ENDBRANCH  21  23
BRANCH  22  27
HETATM   27  C   UNL     1      -1.713 -14.731 -40.071  1.00  0.00     0.038 A 
HETATM   28  C   UNL     1      -0.490 -14.099 -40.700  1.00  0.00     0.011 A 
HETATM   29  C   UNL     1      -0.713 -13.975 -39.232  1.00  0.00     0.011 A 
ENDBRANCH  22  27
ENDBRANCH   1  18
TORSDOF 10
ENDMDL
