MODEL 1
REMARK VINA RESULT:      -8.4      0.000      0.000
REMARK  7 active torsions:
REMARK  status: ('A' for Active; 'I' for Inactive)
REMARK    1  A    between atoms: C_5  and  N_6 
REMARK    2  A    between atoms: N_6  and  C_9 
REMARK    3  A    between atoms: C_9  and  C_10 
REMARK    4  A    between atoms: C_10  and  C_11 
REMARK    5  A    between atoms: C_10  and  C_13 
REMARK    6  A    between atoms: C_11  and  O_12 
REMARK    7  A    between atoms: C_13  and  C_14 
ROOT
HETATM    1  N   UNL     1      -4.127   2.207 -32.605  1.00  0.00    -0.066 N 
HETATM    2  H   UNL     1      -3.137   2.270 -32.298  1.00  0.00     0.278 HD
HETATM    3  H   UNL     1      -4.086   1.998 -33.621  1.00  0.00     0.278 HD
ENDROOT
BRANCH   1   4
HETATM    4  C   UNL     1      -4.808   1.085 -31.920  1.00  0.00     0.220 C 
HETATM    5  C   UNL     1      -5.592   0.252 -32.886  1.00  0.00    -0.021 A 
HETATM    6  C   UNL     1      -4.893  -0.914 -33.253  1.00  0.00    -0.040 A 
HETATM    7  C   UNL     1      -6.834   0.563 -33.426  1.00  0.00     0.010 A 
HETATM    8  C   UNL     1      -5.421  -1.771 -34.217  1.00  0.00    -0.055 A 
HETATM    9  C   UNL     1      -3.571  -0.968 -32.525  1.00  0.00     0.018 C 
HETATM   10  C   UNL     1      -4.712  -3.003 -34.697  1.00  0.00     0.049 C 
HETATM   11  C   UNL     1      -6.689  -1.464 -34.743  1.00  0.00     0.007 A 
HETATM   12  C   UNL     1      -7.387  -0.314 -34.352  1.00  0.00     0.001 A 
HETATM   13  C   UNL     1      -3.800   0.060 -31.393  1.00  0.00     0.047 C 
HETATM   14  C   UNL     1      -3.159  -2.314 -31.940  1.00  0.00     0.015 C 
ENDBRANCH   1   4
BRANCH   1  15
HETATM   15  C   UNL     1      -4.744   3.553 -32.463  1.00  0.00     0.240 C 
BRANCH  15  16
HETATM   16  C   UNL     1      -3.900   4.622 -33.185  1.00  0.00     0.040 C 
BRANCH  16  17
HETATM   17  C   UNL     1      -4.499   4.923 -34.567  1.00  0.00     0.170 C 
BRANCH  17  18
HETATM   18  O   UNL     1      -3.578   5.717 -35.317  1.00  0.00    -0.400 OA
HETATM   19  H   UNL     1      -2.682   5.407 -35.067  1.00  0.00     0.209 HD
ENDBRANCH  17  18
ENDBRANCH  16  17
BRANCH  16  20
HETATM   20  C   UNL     1      -2.408   4.255 -33.348  1.00  0.00     0.067 C 
BRANCH  20  21
HETATM   21  C   UNL     1      -1.494   5.040 -32.445  1.00  0.00     0.034 A 
HETATM   22  N   UNL     1      -1.158   4.442 -31.269  1.00  0.00    -0.266 NA
HETATM   23  C   UNL     1      -0.309   5.130 -30.464  1.00  0.00     0.117 A 
HETATM   24  C   UNL     1       0.180   6.392 -30.752  1.00  0.00     0.019 A 
HETATM   25  C   UNL     1      -0.206   6.991 -31.944  1.00  0.00     0.003 A 
HETATM   26  C   UNL     1      -1.054   6.308 -32.809  1.00  0.00     0.027 A 
ENDBRANCH  20  21
ENDBRANCH  16  20
ENDBRANCH  15  16
ENDBRANCH   1  15
TORSDOF 7
ENDMDL
MODEL 2
REMARK VINA RESULT:      -8.1      1.596      1.724
REMARK  7 active torsions:
REMARK  status: ('A' for Active; 'I' for Inactive)
REMARK    1  A    between atoms: C_5  and  N_6 
REMARK    2  A    between atoms: N_6  and  C_9 
REMARK    3  A    between atoms: C_9  and  C_10 
REMARK    4  A    between atoms: C_10  and  C_11 
REMARK    5  A    between atoms: C_10  and  C_13 
REMARK    6  A    between atoms: C_11  and  O_12 
REMARK    7  A    between atoms: C_13  and  C_14 
ROOT
HETATM    1  N   UNL     1      -4.766   1.572 -32.295  1.00  0.00    -0.066 N 
HETATM    2  H   UNL     1      -4.915   1.586 -33.322  1.00  0.00     0.278 HD
HETATM    3  H   UNL     1      -5.336   2.357 -31.925  1.00  0.00     0.278 HD
ENDROOT
BRANCH   1   4
HETATM    4  C   UNL     1      -5.276   0.307 -31.718  1.00  0.00     0.220 C 
HETATM    5  C   UNL     1      -5.887  -0.564 -32.771  1.00  0.00    -0.021 A 
HETATM    6  C   UNL     1      -4.999  -1.573 -33.190  1.00  0.00    -0.040 A 
HETATM    7  C   UNL     1      -7.147  -0.415 -33.337  1.00  0.00     0.010 A 
HETATM    8  C   UNL     1      -5.355  -2.428 -34.232  1.00  0.00    -0.055 A 
HETATM    9  C   UNL     1      -3.707  -1.472 -32.415  1.00  0.00     0.018 C 
HETATM   10  C   UNL     1      -4.443  -3.492 -34.768  1.00  0.00     0.049 C 
HETATM   11  C   UNL     1      -6.640  -2.287 -34.786  1.00  0.00     0.007 A 
HETATM   12  C   UNL     1      -7.525  -1.296 -34.343  1.00  0.00     0.001 A 
HETATM   13  C   UNL     1      -4.131  -0.582 -31.223  1.00  0.00     0.047 C 
HETATM   14  C   UNL     1      -3.101  -2.775 -31.910  1.00  0.00     0.015 C 
ENDBRANCH   1   4
BRANCH   1  15
HETATM   15  C   UNL     1      -3.341   1.904 -32.027  1.00  0.00     0.240 C 
BRANCH  15  16
HETATM   16  C   UNL     1      -3.199   3.364 -31.552  1.00  0.00     0.040 C 
BRANCH  16  17
HETATM   17  C   UNL     1      -4.574   3.929 -31.165  1.00  0.00     0.170 C 
BRANCH  17  18
HETATM   18  O   UNL     1      -4.937   3.440 -29.871  1.00  0.00    -0.400 OA
HETATM   19  H   UNL     1      -4.378   2.651 -29.710  1.00  0.00     0.209 HD
ENDBRANCH  17  18
ENDBRANCH  16  17
BRANCH  16  20
HETATM   20  C   UNL     1      -2.534   4.308 -32.578  1.00  0.00     0.067 C 
BRANCH  20  21
HETATM   21  C   UNL     1      -1.425   5.143 -31.996  1.00  0.00     0.034 A 
HETATM   22  N   UNL     1      -0.715   4.571 -30.984  1.00  0.00    -0.266 NA
HETATM   23  C   UNL     1       0.307   5.305 -30.475  1.00  0.00     0.117 A 
HETATM   24  C   UNL     1       0.623   6.587 -30.890  1.00  0.00     0.019 A 
HETATM   25  C   UNL     1      -0.140   7.158 -31.901  1.00  0.00     0.003 A 
HETATM   26  C   UNL     1      -1.180   6.428 -32.468  1.00  0.00     0.027 A 
ENDBRANCH  20  21
ENDBRANCH  16  20
ENDBRANCH  15  16
ENDBRANCH   1  15
TORSDOF 7
ENDMDL
MODEL 3
REMARK VINA RESULT:      -7.9      3.002      5.326
REMARK  7 active torsions:
REMARK  status: ('A' for Active; 'I' for Inactive)
REMARK    1  A    between atoms: C_5  and  N_6 
REMARK    2  A    between atoms: N_6  and  C_9 
REMARK    3  A    between atoms: C_9  and  C_10 
REMARK    4  A    between atoms: C_10  and  C_11 
REMARK    5  A    between atoms: C_10  and  C_13 
REMARK    6  A    between atoms: C_11  and  O_12 
REMARK    7  A    between atoms: C_13  and  C_14 
ROOT
HETATM    1  N   UNL     1      -4.217   1.165 -32.826  1.00  0.00    -0.066 N 
HETATM    2  H   UNL     1      -3.188   1.112 -32.695  1.00  0.00     0.278 HD
HETATM    3  H   UNL     1      -4.368   1.071 -33.849  1.00  0.00     0.278 HD
ENDROOT
BRANCH   1   4
HETATM    4  C   UNL     1      -4.882   0.029 -32.146  1.00  0.00     0.220 C 
HETATM    5  C   UNL     1      -5.416  -0.960 -33.135  1.00  0.00    -0.021 A 
HETATM    6  C   UNL     1      -4.555  -2.064 -33.282  1.00  0.00    -0.040 A 
HETATM    7  C   UNL     1      -6.582  -0.836 -33.879  1.00  0.00     0.010 A 
HETATM    8  C   UNL     1      -4.836  -3.049 -34.228  1.00  0.00    -0.055 A 
HETATM    9  C   UNL     1      -3.365  -1.911 -32.364  1.00  0.00     0.018 C 
HETATM   10  C   UNL     1      -3.941  -4.226 -34.479  1.00  0.00     0.049 C 
HETATM   11  C   UNL     1      -6.029  -2.930 -34.962  1.00  0.00     0.007 A 
HETATM   12  C   UNL     1      -6.892  -1.839 -34.790  1.00  0.00     0.001 A 
HETATM   13  C   UNL     1      -3.872  -0.830 -31.380  1.00  0.00     0.047 C 
HETATM   14  C   UNL     1      -2.918  -3.151 -31.600  1.00  0.00     0.015 C 
ENDBRANCH   1   4
BRANCH   1  15
HETATM   15  C   UNL     1      -4.665   2.530 -32.442  1.00  0.00     0.240 C 
BRANCH  15  16
HETATM   16  C   UNL     1      -5.784   3.023 -33.382  1.00  0.00     0.040 C 
BRANCH  16  17
HETATM   17  C   UNL     1      -5.309   4.256 -34.166  1.00  0.00     0.170 C 
BRANCH  17  18
HETATM   18  O   UNL     1      -6.338   5.249 -34.152  1.00  0.00    -0.400 OA
HETATM   19  H   UNL     1      -5.909   6.090 -34.418  1.00  0.00     0.209 HD
ENDBRANCH  17  18
ENDBRANCH  16  17
BRANCH  16  20
HETATM   20  C   UNL     1      -7.114   3.356 -32.671  1.00  0.00     0.067 C 
BRANCH  20  21
HETATM   21  C   UNL     1      -8.137   2.255 -32.765  1.00  0.00     0.034 A 
HETATM   22  N   UNL     1      -8.809   2.162 -33.946  1.00  0.00    -0.266 NA
HETATM   23  C   UNL     1      -9.710   1.152 -34.048  1.00  0.00     0.117 A 
HETATM   24  C   UNL     1     -10.003   0.267 -33.025  1.00  0.00     0.019 A 
HETATM   25  C   UNL     1      -9.326   0.407 -31.821  1.00  0.00     0.003 A 
HETATM   26  C   UNL     1      -8.375   1.413 -31.684  1.00  0.00     0.027 A 
ENDBRANCH  20  21
ENDBRANCH  16  20
ENDBRANCH  15  16
ENDBRANCH   1  15
TORSDOF 7
ENDMDL
MODEL 4
REMARK VINA RESULT:      -7.8      3.981      7.001
REMARK  7 active torsions:
REMARK  status: ('A' for Active; 'I' for Inactive)
REMARK    1  A    between atoms: C_5  and  N_6 
REMARK    2  A    between atoms: N_6  and  C_9 
REMARK    3  A    between atoms: C_9  and  C_10 
REMARK    4  A    between atoms: C_10  and  C_11 
REMARK    5  A    between atoms: C_10  and  C_13 
REMARK    6  A    between atoms: C_11  and  O_12 
REMARK    7  A    between atoms: C_13  and  C_14 
ROOT
HETATM    1  N   UNL     1      -4.741   1.509 -31.895  1.00  0.00    -0.066 N 
HETATM    2  H   UNL     1      -3.995   1.348 -32.599  1.00  0.00     0.278 HD
HETATM    3  H   UNL     1      -4.269   1.984 -31.101  1.00  0.00     0.278 HD
ENDROOT
BRANCH   1   4
HETATM    4  C   UNL     1      -5.776   2.418 -32.439  1.00  0.00     0.220 C 
HETATM    5  C   UNL     1      -6.706   1.694 -33.361  1.00  0.00    -0.021 A 
HETATM    6  C   UNL     1      -7.911   1.349 -32.718  1.00  0.00    -0.040 A 
HETATM    7  C   UNL     1      -6.451   1.337 -34.679  1.00  0.00     0.010 A 
HETATM    8  C   UNL     1      -8.867   0.588 -33.387  1.00  0.00    -0.055 A 
HETATM    9  C   UNL     1      -7.891   1.850 -31.293  1.00  0.00     0.018 C 
HETATM   10  C   UNL     1     -10.149   0.138 -32.752  1.00  0.00     0.049 C 
HETATM   11  C   UNL     1      -8.614   0.248 -34.728  1.00  0.00     0.007 A 
HETATM   12  C   UNL     1      -7.423   0.619 -35.366  1.00  0.00     0.001 A 
HETATM   13  C   UNL     1      -6.741   2.883 -31.345  1.00  0.00     0.047 C 
HETATM   14  C   UNL     1      -9.165   2.505 -30.773  1.00  0.00     0.015 C 
ENDBRANCH   1   4
BRANCH   1  15
HETATM   15  C   UNL     1      -5.205   0.187 -31.398  1.00  0.00     0.240 C 
BRANCH  15  16
HETATM   16  C   UNL     1      -4.344  -0.950 -31.985  1.00  0.00     0.040 C 
BRANCH  16  17
HETATM   17  C   UNL     1      -2.878  -0.774 -31.562  1.00  0.00     0.170 C 
BRANCH  17  18
HETATM   18  O   UNL     1      -2.241  -2.054 -31.525  1.00  0.00    -0.400 OA
HETATM   19  H   UNL     1      -1.488  -2.003 -32.151  1.00  0.00     0.209 HD
ENDBRANCH  17  18
ENDBRANCH  16  17
BRANCH  16  20
HETATM   20  C   UNL     1      -4.417  -1.079 -33.522  1.00  0.00     0.067 C 
BRANCH  20  21
HETATM   21  C   UNL     1      -4.909  -2.423 -33.990  1.00  0.00     0.034 A 
HETATM   22  N   UNL     1      -4.039  -3.461 -33.847  1.00  0.00    -0.266 NA
HETATM   23  C   UNL     1      -4.488  -4.681 -34.237  1.00  0.00     0.117 A 
HETATM   24  C   UNL     1      -5.733  -4.906 -34.799  1.00  0.00     0.019 A 
HETATM   25  C   UNL     1      -6.587  -3.823 -34.962  1.00  0.00     0.003 A 
HETATM   26  C   UNL     1      -6.175  -2.560 -34.551  1.00  0.00     0.027 A 
ENDBRANCH  20  21
ENDBRANCH  16  20
ENDBRANCH  15  16
ENDBRANCH   1  15
TORSDOF 7
ENDMDL
MODEL 5
REMARK VINA RESULT:      -7.8      3.866      6.176
REMARK  7 active torsions:
REMARK  status: ('A' for Active; 'I' for Inactive)
REMARK    1  A    between atoms: C_5  and  N_6 
REMARK    2  A    between atoms: N_6  and  C_9 
REMARK    3  A    between atoms: C_9  and  C_10 
REMARK    4  A    between atoms: C_10  and  C_11 
REMARK    5  A    between atoms: C_10  and  C_13 
REMARK    6  A    between atoms: C_11  and  O_12 
REMARK    7  A    between atoms: C_13  and  C_14 
ROOT
HETATM    1  N   UNL     1      -5.719   0.101 -30.933  1.00  0.00    -0.066 N 
HETATM    2  H   UNL     1      -6.712  -0.155 -31.095  1.00  0.00     0.278 HD
HETATM    3  H   UNL     1      -5.324  -0.678 -30.371  1.00  0.00     0.278 HD
ENDROOT
BRANCH   1   4
HETATM    4  C   UNL     1      -4.989   0.172 -32.219  1.00  0.00     0.220 C 
HETATM    5  C   UNL     1      -4.615  -1.193 -32.708  1.00  0.00    -0.021 A 
HETATM    6  C   UNL     1      -5.509  -1.654 -33.694  1.00  0.00    -0.040 A 
HETATM    7  C   UNL     1      -3.561  -1.974 -32.252  1.00  0.00     0.010 A 
HETATM    8  C   UNL     1      -5.380  -2.944 -34.206  1.00  0.00    -0.055 A 
HETATM    9  C   UNL     1      -6.557  -0.602 -33.967  1.00  0.00     0.018 C 
HETATM   10  C   UNL     1      -6.324  -3.524 -35.217  1.00  0.00     0.049 C 
HETATM   11  C   UNL     1      -4.298  -3.722 -33.757  1.00  0.00     0.007 A 
HETATM   12  C   UNL     1      -3.399  -3.244 -32.795  1.00  0.00     0.001 A 
HETATM   13  C   UNL     1      -5.899   0.656 -33.351  1.00  0.00     0.047 C 
HETATM   14  C   UNL     1      -6.917  -0.347 -35.425  1.00  0.00     0.015 C 
ENDBRANCH   1   4
BRANCH   1  15
HETATM   15  C   UNL     1      -5.686   1.316 -30.076  1.00  0.00     0.240 C 
BRANCH  15  16
HETATM   16  C   UNL     1      -6.383   2.499 -30.777  1.00  0.00     0.040 C 
BRANCH  16  17
HETATM   17  C   UNL     1      -5.777   3.827 -30.299  1.00  0.00     0.170 C 
BRANCH  17  18
HETATM   18  O   UNL     1      -5.317   3.678 -28.953  1.00  0.00    -0.400 OA
HETATM   19  H   UNL     1      -4.444   3.234 -29.010  1.00  0.00     0.209 HD
ENDBRANCH  17  18
ENDBRANCH  16  17
BRANCH  16  20
HETATM   20  C   UNL     1      -7.915   2.543 -30.584  1.00  0.00     0.067 C 
BRANCH  20  21
HETATM   21  C   UNL     1      -8.684   1.986 -31.753  1.00  0.00     0.034 A 
HETATM   22  N   UNL     1      -8.829   2.816 -32.823  1.00  0.00    -0.266 NA
HETATM   23  C   UNL     1      -9.494   2.309 -33.893  1.00  0.00     0.117 A 
HETATM   24  C   UNL     1     -10.053   1.044 -33.930  1.00  0.00     0.019 A 
HETATM   25  C   UNL     1      -9.918   0.232 -32.811  1.00  0.00     0.003 A 
HETATM   26  C   UNL     1      -9.221   0.704 -31.704  1.00  0.00     0.027 A 
ENDBRANCH  20  21
ENDBRANCH  16  20
ENDBRANCH  15  16
ENDBRANCH   1  15
TORSDOF 7
ENDMDL
MODEL 6
REMARK VINA RESULT:      -7.7      5.007      8.107
REMARK  7 active torsions:
REMARK  status: ('A' for Active; 'I' for Inactive)
REMARK    1  A    between atoms: C_5  and  N_6 
REMARK    2  A    between atoms: N_6  and  C_9 
REMARK    3  A    between atoms: C_9  and  C_10 
REMARK    4  A    between atoms: C_10  and  C_11 
REMARK    5  A    between atoms: C_10  and  C_13 
REMARK    6  A    between atoms: C_11  and  O_12 
REMARK    7  A    between atoms: C_13  and  C_14 
ROOT
HETATM    1  N   UNL     1      -8.130   0.895 -34.678  1.00  0.00    -0.066 N 
HETATM    2  H   UNL     1      -7.211   0.942 -35.159  1.00  0.00     0.278 HD
HETATM    3  H   UNL     1      -8.818   0.676 -35.424  1.00  0.00     0.278 HD
ENDROOT
BRANCH   1   4
HETATM    4  C   UNL     1      -8.139  -0.209 -33.691  1.00  0.00     0.220 C 
HETATM    5  C   UNL     1      -6.950  -1.102 -33.862  1.00  0.00    -0.021 A 
HETATM    6  C   UNL     1      -5.938  -0.803 -32.929  1.00  0.00    -0.040 A 
HETATM    7  C   UNL     1      -6.787  -2.085 -34.830  1.00  0.00     0.010 A 
HETATM    8  C   UNL     1      -4.714  -1.467 -32.990  1.00  0.00    -0.055 A 
HETATM    9  C   UNL     1      -6.390   0.318 -32.024  1.00  0.00     0.018 C 
HETATM   10  C   UNL     1      -3.571  -1.168 -32.066  1.00  0.00     0.049 C 
HETATM   11  C   UNL     1      -4.563  -2.477 -33.957  1.00  0.00     0.007 A 
HETATM   12  C   UNL     1      -5.586  -2.783 -34.864  1.00  0.00     0.001 A 
HETATM   13  C   UNL     1      -7.918   0.313 -32.269  1.00  0.00     0.047 C 
HETATM   14  C   UNL     1      -6.094   0.168 -30.537  1.00  0.00     0.015 C 
ENDBRANCH   1   4
BRANCH   1  15
HETATM   15  C   UNL     1      -8.457   2.253 -34.168  1.00  0.00     0.240 C 
BRANCH  15  16
HETATM   16  C   UNL     1      -9.953   2.567 -34.368  1.00  0.00     0.040 C 
BRANCH  16  17
HETATM   17  C   UNL     1     -10.129   4.017 -34.846  1.00  0.00     0.170 C 
BRANCH  17  18
HETATM   18  O   UNL     1     -11.368   4.135 -35.549  1.00  0.00    -0.400 OA
HETATM   19  H   UNL     1     -11.785   4.964 -35.231  1.00  0.00     0.209 HD
ENDBRANCH  17  18
ENDBRANCH  16  17
BRANCH  16  20
HETATM   20  C   UNL     1     -10.828   2.337 -33.116  1.00  0.00     0.067 C 
BRANCH  20  21
HETATM   21  C   UNL     1     -12.107   1.596 -33.405  1.00  0.00     0.034 A 
HETATM   22  N   UNL     1     -13.217   2.366 -33.577  1.00  0.00    -0.266 NA
HETATM   23  C   UNL     1     -14.368   1.707 -33.868  1.00  0.00     0.117 A 
HETATM   24  C   UNL     1     -14.473   0.330 -33.952  1.00  0.00     0.019 A 
HETATM   25  C   UNL     1     -13.331  -0.431 -33.739  1.00  0.00     0.003 A 
HETATM   26  C   UNL     1     -12.126   0.207 -33.464  1.00  0.00     0.027 A 
ENDBRANCH  20  21
ENDBRANCH  16  20
ENDBRANCH  15  16
ENDBRANCH   1  15
TORSDOF 7
ENDMDL
MODEL 7
REMARK VINA RESULT:      -7.6      2.971      4.522
REMARK  7 active torsions:
REMARK  status: ('A' for Active; 'I' for Inactive)
REMARK    1  A    between atoms: C_5  and  N_6 
REMARK    2  A    between atoms: N_6  and  C_9 
REMARK    3  A    between atoms: C_9  and  C_10 
REMARK    4  A    between atoms: C_10  and  C_11 
REMARK    5  A    between atoms: C_10  and  C_13 
REMARK    6  A    between atoms: C_11  and  O_12 
REMARK    7  A    between atoms: C_13  and  C_14 
ROOT
HETATM    1  N   UNL     1      -7.752   0.727 -33.072  1.00  0.00    -0.066 N 
HETATM    2  H   UNL     1      -8.411  -0.052 -33.261  1.00  0.00     0.278 HD
HETATM    3  H   UNL     1      -7.449   0.597 -32.088  1.00  0.00     0.278 HD
ENDROOT
BRANCH   1   4
HETATM    4  C   UNL     1      -6.563   0.619 -33.948  1.00  0.00     0.220 C 
HETATM    5  C   UNL     1      -5.309   0.453 -33.147  1.00  0.00    -0.021 A 
HETATM    6  C   UNL     1      -4.902  -0.894 -33.093  1.00  0.00    -0.040 A 
HETATM    7  C   UNL     1      -4.617   1.456 -32.479  1.00  0.00     0.010 A 
HETATM    8  C   UNL     1      -3.805  -1.261 -32.315  1.00  0.00    -0.055 A 
HETATM    9  C   UNL     1      -5.856  -1.750 -33.892  1.00  0.00     0.018 C 
HETATM   10  C   UNL     1      -3.344  -2.680 -32.165  1.00  0.00     0.049 C 
HETATM   11  C   UNL     1      -3.095  -0.240 -31.659  1.00  0.00     0.007 A 
HETATM   12  C   UNL     1      -3.494   1.101 -31.741  1.00  0.00     0.001 A 
HETATM   13  C   UNL     1      -6.579  -0.685 -34.751  1.00  0.00     0.047 C 
HETATM   14  C   UNL     1      -5.240  -2.819 -34.786  1.00  0.00     0.015 C 
ENDBRANCH   1   4
BRANCH   1  15
HETATM   15  C   UNL     1      -8.512   2.004 -33.129  1.00  0.00     0.240 C 
BRANCH  15  16
HETATM   16  C   UNL     1      -8.032   2.976 -32.033  1.00  0.00     0.040 C 
BRANCH  16  17
HETATM   17  C   UNL     1      -9.038   3.001 -30.873  1.00  0.00     0.170 C 
BRANCH  17  18
HETATM   18  O   UNL     1      -9.601   1.697 -30.708  1.00  0.00    -0.400 OA
HETATM   19  H   UNL     1      -9.728   1.338 -31.612  1.00  0.00     0.209 HD
ENDBRANCH  17  18
ENDBRANCH  16  17
BRANCH  16  20
HETATM   20  C   UNL     1      -7.787   4.420 -32.523  1.00  0.00     0.067 C 
BRANCH  20  21
HETATM   21  C   UNL     1      -6.352   4.696 -32.886  1.00  0.00     0.034 A 
HETATM   22  N   UNL     1      -6.052   4.651 -34.213  1.00  0.00    -0.266 NA
HETATM   23  C   UNL     1      -4.766   4.930 -34.550  1.00  0.00     0.117 A 
HETATM   24  C   UNL     1      -3.767   5.205 -33.633  1.00  0.00     0.019 A 
HETATM   25  C   UNL     1      -4.095   5.212 -32.284  1.00  0.00     0.003 A 
HETATM   26  C   UNL     1      -5.407   4.957 -31.899  1.00  0.00     0.027 A 
ENDBRANCH  20  21
ENDBRANCH  16  20
ENDBRANCH  15  16
ENDBRANCH   1  15
TORSDOF 7
ENDMDL
MODEL 8
REMARK VINA RESULT:      -7.5      4.403      7.869
REMARK  7 active torsions:
REMARK  status: ('A' for Active; 'I' for Inactive)
REMARK    1  A    between atoms: C_5  and  N_6 
REMARK    2  A    between atoms: N_6  and  C_9 
REMARK    3  A    between atoms: C_9  and  C_10 
REMARK    4  A    between atoms: C_10  and  C_11 
REMARK    5  A    between atoms: C_10  and  C_13 
REMARK    6  A    between atoms: C_11  and  O_12 
REMARK    7  A    between atoms: C_13  and  C_14 
ROOT
HETATM    1  N   UNL     1      -7.467   0.273 -32.649  1.00  0.00    -0.066 N 
HETATM    2  H   UNL     1      -7.476  -0.590 -32.071  1.00  0.00     0.278 HD
HETATM    3  H   UNL     1      -7.276   1.046 -31.982  1.00  0.00     0.278 HD
ENDROOT
BRANCH   1   4
HETATM    4  C   UNL     1      -6.365   0.220 -33.637  1.00  0.00     0.220 C 
HETATM    5  C   UNL     1      -5.088  -0.237 -33.004  1.00  0.00    -0.021 A 
HETATM    6  C   UNL     1      -4.846  -1.602 -33.250  1.00  0.00    -0.040 A 
HETATM    7  C   UNL     1      -4.233   0.530 -32.222  1.00  0.00     0.010 A 
HETATM    8  C   UNL     1      -3.750  -2.234 -32.665  1.00  0.00    -0.055 A 
HETATM    9  C   UNL     1      -5.951  -2.171 -34.108  1.00  0.00     0.018 C 
HETATM   10  C   UNL     1      -3.457  -3.695 -32.837  1.00  0.00     0.049 C 
HETATM   11  C   UNL     1      -2.876  -1.448 -31.893  1.00  0.00     0.007 A 
HETATM   12  C   UNL     1      -3.113  -0.085 -31.675  1.00  0.00     0.001 A 
HETATM   13  C   UNL     1      -6.598  -0.884 -34.672  1.00  0.00     0.047 C 
HETATM   14  C   UNL     1      -5.537  -3.095 -35.246  1.00  0.00     0.015 C 
ENDBRANCH   1   4
BRANCH   1  15
HETATM   15  C   UNL     1      -8.837   0.488 -33.183  1.00  0.00     0.240 C 
BRANCH  15  16
HETATM   16  C   UNL     1      -9.186   1.990 -33.208  1.00  0.00     0.040 C 
BRANCH  16  17
HETATM   17  C   UNL     1      -9.673   2.441 -31.822  1.00  0.00     0.170 C 
BRANCH  17  18
HETATM   18  O   UNL     1      -9.527   1.361 -30.897  1.00  0.00    -0.400 OA
HETATM   19  H   UNL     1      -9.150   0.613 -31.407  1.00  0.00     0.209 HD
ENDBRANCH  17  18
ENDBRANCH  16  17
BRANCH  16  20
HETATM   20  C   UNL     1     -10.238   2.384 -34.268  1.00  0.00     0.067 C 
BRANCH  20  21
HETATM   21  C   UNL     1     -11.653   2.081 -33.851  1.00  0.00     0.034 A 
HETATM   22  N   UNL     1     -12.376   3.136 -33.381  1.00  0.00    -0.266 NA
HETATM   23  C   UNL     1     -13.663   2.877 -33.033  1.00  0.00     0.117 A 
HETATM   24  C   UNL     1     -14.243   1.622 -33.088  1.00  0.00     0.019 A 
HETATM   25  C   UNL     1     -13.472   0.559 -33.541  1.00  0.00     0.003 A 
HETATM   26  C   UNL     1     -12.157   0.788 -33.932  1.00  0.00     0.027 A 
ENDBRANCH  20  21
ENDBRANCH  16  20
ENDBRANCH  15  16
ENDBRANCH   1  15
TORSDOF 7
ENDMDL
MODEL 9
REMARK VINA RESULT:      -7.5      2.182      4.320
REMARK  7 active torsions:
REMARK  status: ('A' for Active; 'I' for Inactive)
REMARK    1  A    between atoms: C_5  and  N_6 
REMARK    2  A    between atoms: N_6  and  C_9 
REMARK    3  A    between atoms: C_9  and  C_10 
REMARK    4  A    between atoms: C_10  and  C_11 
REMARK    5  A    between atoms: C_10  and  C_13 
REMARK    6  A    between atoms: C_11  and  O_12 
REMARK    7  A    between atoms: C_13  and  C_14 
ROOT
HETATM    1  N   UNL     1      -4.051   1.585 -32.377  1.00  0.00    -0.066 N 
HETATM    2  H   UNL     1      -3.432   1.256 -33.143  1.00  0.00     0.278 HD
HETATM    3  H   UNL     1      -4.774   2.169 -32.841  1.00  0.00     0.278 HD
ENDROOT
BRANCH   1   4
HETATM    4  C   UNL     1      -4.721   0.436 -31.726  1.00  0.00     0.220 C 
HETATM    5  C   UNL     1      -5.578  -0.315 -32.696  1.00  0.00    -0.021 A 
HETATM    6  C   UNL     1      -4.931  -1.471 -33.175  1.00  0.00    -0.040 A 
HETATM    7  C   UNL     1      -6.840   0.056 -33.143  1.00  0.00     0.010 A 
HETATM    8  C   UNL     1      -5.534  -2.252 -34.159  1.00  0.00    -0.055 A 
HETATM    9  C   UNL     1      -3.572  -1.600 -32.529  1.00  0.00     0.018 C 
HETATM   10  C   UNL     1      -4.884  -3.466 -34.755  1.00  0.00     0.049 C 
HETATM   11  C   UNL     1      -6.820  -1.885 -34.591  1.00  0.00     0.007 A 
HETATM   12  C   UNL     1      -7.466  -0.747 -34.089  1.00  0.00     0.001 A 
HETATM   13  C   UNL     1      -3.712  -0.642 -31.322  1.00  0.00     0.047 C 
HETATM   14  C   UNL     1      -3.162  -2.989 -32.054  1.00  0.00     0.015 C 
ENDBRANCH   1   4
BRANCH   1  15
HETATM   15  C   UNL     1      -3.262   2.488 -31.497  1.00  0.00     0.240 C 
BRANCH  15  16
HETATM   16  C   UNL     1      -3.889   3.896 -31.453  1.00  0.00     0.040 C 
BRANCH  16  17
HETATM   17  C   UNL     1      -2.804   4.948 -31.177  1.00  0.00     0.170 C 
BRANCH  17  18
HETATM   18  O   UNL     1      -1.556   4.288 -30.944  1.00  0.00    -0.400 OA
HETATM   19  H   UNL     1      -1.264   3.941 -31.814  1.00  0.00     0.209 HD
ENDBRANCH  17  18
ENDBRANCH  16  17
BRANCH  16  20
HETATM   20  C   UNL     1      -5.026   4.058 -30.421  1.00  0.00     0.067 C 
BRANCH  20  21
HETATM   21  C   UNL     1      -6.384   3.697 -30.962  1.00  0.00     0.034 A 
HETATM   22  N   UNL     1      -6.566   3.890 -32.298  1.00  0.00    -0.266 NA
HETATM   23  C   UNL     1      -7.778   3.537 -32.798  1.00  0.00     0.117 A 
HETATM   24  C   UNL     1      -8.821   3.048 -32.031  1.00  0.00     0.019 A 
HETATM   25  C   UNL     1      -8.617   2.892 -30.666  1.00  0.00     0.003 A 
HETATM   26  C   UNL     1      -7.381   3.218 -30.118  1.00  0.00     0.027 A 
ENDBRANCH  20  21
ENDBRANCH  16  20
ENDBRANCH  15  16
ENDBRANCH   1  15
TORSDOF 7
ENDMDL
MODEL 10
REMARK VINA RESULT:      -7.4      4.213      7.795
REMARK  7 active torsions:
REMARK  status: ('A' for Active; 'I' for Inactive)
REMARK    1  A    between atoms: C_5  and  N_6 
REMARK    2  A    between atoms: N_6  and  C_9 
REMARK    3  A    between atoms: C_9  and  C_10 
REMARK    4  A    between atoms: C_10  and  C_11 
REMARK    5  A    between atoms: C_10  and  C_13 
REMARK    6  A    between atoms: C_11  and  O_12 
REMARK    7  A    between atoms: C_13  and  C_14 
ROOT
HETATM    1  N   UNL     1      -7.718   0.091 -32.559  1.00  0.00    -0.066 N 
HETATM    2  H   UNL     1      -7.837  -0.697 -33.226  1.00  0.00     0.278 HD
HETATM    3  H   UNL     1      -7.473   0.911 -33.146  1.00  0.00     0.278 HD
ENDROOT
BRANCH   1   4
HETATM    4  C   UNL     1      -8.994   0.374 -31.864  1.00  0.00     0.220 C 
HETATM    5  C   UNL     1      -9.255   1.846 -31.782  1.00  0.00    -0.021 A 
HETATM    6  C   UNL     1     -10.159   2.269 -32.775  1.00  0.00    -0.040 A 
HETATM    7  C   UNL     1      -8.671   2.740 -30.893  1.00  0.00     0.010 A 
HETATM    8  C   UNL     1     -10.455   3.623 -32.919  1.00  0.00    -0.055 A 
HETATM    9  C   UNL     1     -10.604   1.084 -33.599  1.00  0.00     0.018 C 
HETATM   10  C   UNL     1     -11.367   4.155 -33.985  1.00  0.00     0.049 C 
HETATM   11  C   UNL     1      -9.880   4.521 -32.002  1.00  0.00     0.007 A 
HETATM   12  C   UNL     1      -9.002   4.086 -31.001  1.00  0.00     0.001 A 
HETATM   13  C   UNL     1     -10.195  -0.097 -32.688  1.00  0.00     0.047 C 
HETATM   14  C   UNL     1     -12.087   0.998 -33.940  1.00  0.00     0.015 C 
ENDBRANCH   1   4
BRANCH   1  15
HETATM   15  C   UNL     1      -6.538  -0.201 -31.703  1.00  0.00     0.240 C 
BRANCH  15  16
HETATM   16  C   UNL     1      -5.272  -0.396 -32.562  1.00  0.00     0.040 C 
BRANCH  16  17
HETATM   17  C   UNL     1      -4.420   0.882 -32.544  1.00  0.00     0.170 C 
BRANCH  17  18
HETATM   18  O   UNL     1      -5.275   2.017 -32.384  1.00  0.00    -0.400 OA
HETATM   19  H   UNL     1      -4.689   2.803 -32.385  1.00  0.00     0.209 HD
ENDBRANCH  17  18
ENDBRANCH  16  17
BRANCH  16  20
HETATM   20  C   UNL     1      -5.551  -0.799 -34.027  1.00  0.00     0.067 C 
BRANCH  20  21
HETATM   21  C   UNL     1      -5.501  -2.285 -34.261  1.00  0.00     0.034 A 
HETATM   22  N   UNL     1      -4.302  -2.887 -34.027  1.00  0.00    -0.266 NA
HETATM   23  C   UNL     1      -4.258  -4.232 -34.206  1.00  0.00     0.117 A 
HETATM   24  C   UNL     1      -5.328  -4.992 -34.644  1.00  0.00     0.019 A 
HETATM   25  C   UNL     1      -6.529  -4.346 -34.907  1.00  0.00     0.003 A 
HETATM   26  C   UNL     1      -6.623  -2.972 -34.711  1.00  0.00     0.027 A 
ENDBRANCH  20  21
ENDBRANCH  16  20
ENDBRANCH  15  16
ENDBRANCH   1  15
TORSDOF 7
ENDMDL
