MODEL 1
REMARK VINA RESULT:      -9.4      0.000      0.000
REMARK  9 active torsions:
REMARK  status: ('A' for Active; 'I' for Inactive)
REMARK    1  A    between atoms: C_2  and  O_3 
REMARK    2  A    between atoms: O_3  and  C_4 
REMARK    3  A    between atoms: C_7  and  N_8 
REMARK       I    between atoms: N_8  and  C_9 
REMARK    4  A    between atoms: C_9  and  C_10 
REMARK    5  A    between atoms: C_10  and  S_11 
REMARK    6  A    between atoms: S_11  and  C_12 
REMARK    7  A    between atoms: C_16  and  C_17 
REMARK       I    between atoms: C_17  and  N_18 
REMARK    8  A    between atoms: N_18  and  C_19 
REMARK    9  A    between atoms: C_27  and  C_28 
ROOT
HETATM    1  C   UNL     1      -5.359   5.161 -31.524  1.00  0.00     0.087 C 
HETATM    2  N   UNL     1      -4.321   4.275 -31.296  1.00  0.00    -0.353 N 
HETATM    3  C   UNL     1      -4.435   2.898 -31.312  1.00  0.00     0.019 C 
HETATM    4  C   UNL     1      -3.135   2.133 -31.244  1.00  0.00     0.069 C 
HETATM    5  C   UNL     1      -5.660   2.332 -31.381  1.00  0.00     0.046 C 
HETATM    6  C   UNL     1      -6.915   3.198 -31.308  1.00  0.00     0.104 C 
HETATM    7  C   UNL     1      -6.632   4.704 -31.498  1.00  0.00     0.055 C 
HETATM    8  C   UNL     1      -7.832   5.638 -31.472  1.00  0.00     0.019 C 
HETATM    9  N   UNL     1      -8.826   6.412 -31.450  1.00  0.00    -0.096 N 
HETATM   10  H   UNL     1      -3.382   4.661 -31.434  1.00  0.00     0.166 HD
ENDROOT
BRANCH   1  11
HETATM   11  S   UNL     1      -4.986   6.852 -31.795  1.00  0.00    -0.102 SA
BRANCH  11  12
HETATM   12  C   UNL     1      -3.367   6.735 -32.639  1.00  0.00     0.184 C 
BRANCH  12  13
HETATM   13  C   UNL     1      -2.289   7.575 -31.957  1.00  0.00     0.231 C 
HETATM   14  N   UNL     1      -1.962   7.103 -30.691  1.00  0.00    -0.327 N 
HETATM   15  H   UNL     1      -2.473   6.297 -30.355  1.00  0.00     0.169 HD
HETATM   16  O   UNL     1      -1.855   8.599 -32.482  1.00  0.00    -0.272 OA
BRANCH  14  17
HETATM   17  C   UNL     1      -1.152   7.741 -29.727  1.00  0.00     0.034 A 
HETATM   18  C   UNL     1      -1.604   8.725 -28.849  1.00  0.00     0.032 A 
HETATM   19  C   UNL     1      -0.758   9.220 -27.846  1.00  0.00     0.039 A 
HETATM   20  C   UNL     1       0.535   8.724 -27.701  1.00  0.00     0.068 A 
HETATM   21  C   UNL     1       1.017   7.797 -28.621  1.00  0.00     0.039 A 
HETATM   22  C   UNL     1       0.179   7.318 -29.635  1.00  0.00     0.032 A 
BRANCH  20  23
HETATM   23  O   UNL     1       1.256   9.222 -26.649  1.00  0.00    -0.352 OA
BRANCH  23  24
HETATM   24  C   UNL     1       1.910   8.230 -25.850  1.00  0.00     0.171 C 
HETATM   25  C   UNL     1       2.781   8.941 -24.829  1.00  0.00     0.034 C 
ENDBRANCH  23  24
ENDBRANCH  20  23
ENDBRANCH  14  17
ENDBRANCH  12  13
ENDBRANCH  11  12
ENDBRANCH   1  11
BRANCH   6  26
HETATM   26  C   UNL     1      -8.052   2.718 -32.207  1.00  0.00    -0.042 A 
HETATM   27  C   UNL     1      -9.103   1.967 -31.662  1.00  0.00     0.027 A 
HETATM   28  C   UNL     1     -10.121   1.535 -32.497  1.00  0.00     0.116 A 
HETATM   29  N   UNL     1     -10.162   1.794 -33.820  1.00  0.00    -0.273 NA
HETATM   30  C   UNL     1      -9.148   2.523 -34.329  1.00  0.00     0.116 A 
HETATM   31  C   UNL     1      -8.092   3.012 -33.574  1.00  0.00     0.027 A 
ENDBRANCH   6  26
BRANCH   5  32
HETATM   32  C   UNL     1      -5.723   0.882 -31.724  1.00  0.00     0.255 C 
HETATM   33  N   UNL     1      -5.516   0.578 -33.049  1.00  0.00    -0.323 N 
HETATM   34  H   UNL     1      -5.220   1.318 -33.668  1.00  0.00     0.169 HD
HETATM   35  O   UNL     1      -5.897   0.072 -30.818  1.00  0.00    -0.268 OA
BRANCH  33  36
HETATM   36  C   UNL     1      -5.580  -0.721 -33.606  1.00  0.00     0.035 A 
HETATM   37  C   UNL     1      -4.467  -1.561 -33.739  1.00  0.00     0.031 A 
HETATM   38  C   UNL     1      -4.592  -2.836 -34.297  1.00  0.00     0.026 A 
HETATM   39  C   UNL     1      -5.836  -3.280 -34.732  1.00  0.00     0.034 A 
HETATM   40 CL   UNL     1      -5.991  -4.843 -35.430  1.00  0.00    -0.084 Cl
HETATM   41  C   UNL     1      -6.956  -2.461 -34.599  1.00  0.00     0.026 A 
HETATM   42  C   UNL     1      -6.829  -1.190 -34.028  1.00  0.00     0.031 A 
ENDBRANCH  33  36
ENDBRANCH   5  32
TORSDOF 9
ENDMDL
MODEL 2
REMARK VINA RESULT:      -8.6      1.729      2.072
REMARK  9 active torsions:
REMARK  status: ('A' for Active; 'I' for Inactive)
REMARK    1  A    between atoms: C_2  and  O_3 
REMARK    2  A    between atoms: O_3  and  C_4 
REMARK    3  A    between atoms: C_7  and  N_8 
REMARK       I    between atoms: N_8  and  C_9 
REMARK    4  A    between atoms: C_9  and  C_10 
REMARK    5  A    between atoms: C_10  and  S_11 
REMARK    6  A    between atoms: S_11  and  C_12 
REMARK    7  A    between atoms: C_16  and  C_17 
REMARK       I    between atoms: C_17  and  N_18 
REMARK    8  A    between atoms: N_18  and  C_19 
REMARK    9  A    between atoms: C_27  and  C_28 
ROOT
HETATM    1  C   UNL     1      -5.356   5.312 -30.098  1.00  0.00     0.087 C 
HETATM    2  N   UNL     1      -4.289   4.537 -30.515  1.00  0.00    -0.353 N 
HETATM    3  C   UNL     1      -4.392   3.378 -31.259  1.00  0.00     0.019 C 
HETATM    4  C   UNL     1      -3.091   2.813 -31.776  1.00  0.00     0.069 C 
HETATM    5  C   UNL     1      -5.609   2.830 -31.473  1.00  0.00     0.046 C 
HETATM    6  C   UNL     1      -6.846   3.409 -30.789  1.00  0.00     0.104 C 
HETATM    7  C   UNL     1      -6.607   4.801 -30.167  1.00  0.00     0.055 C 
HETATM    8  C   UNL     1      -7.797   5.467 -29.493  1.00  0.00     0.019 C 
HETATM    9  N   UNL     1      -8.783   6.018 -28.934  1.00  0.00    -0.096 N 
HETATM   10  H   UNL     1      -3.385   5.019 -30.536  1.00  0.00     0.166 HD
ENDROOT
BRANCH   1  11
HETATM   11  S   UNL     1      -5.042   6.912 -29.454  1.00  0.00    -0.102 SA
BRANCH  11  12
HETATM   12  C   UNL     1      -3.245   7.076 -29.753  1.00  0.00     0.184 C 
BRANCH  12  13
HETATM   13  C   UNL     1      -2.483   7.524 -28.508  1.00  0.00     0.231 C 
HETATM   14  N   UNL     1      -1.439   8.393 -28.803  1.00  0.00    -0.327 N 
HETATM   15  H   UNL     1      -1.282   8.609 -29.779  1.00  0.00     0.169 HD
HETATM   16  O   UNL     1      -2.751   7.065 -27.399  1.00  0.00    -0.272 OA
BRANCH  14  17
HETATM   17  C   UNL     1      -0.432   8.845 -27.923  1.00  0.00     0.034 A 
HETATM   18  C   UNL     1      -0.572   9.931 -27.060  1.00  0.00     0.032 A 
HETATM   19  C   UNL     1       0.440  10.236 -26.138  1.00  0.00     0.039 A 
HETATM   20  C   UNL     1       1.587   9.450 -26.058  1.00  0.00     0.068 A 
HETATM   21  C   UNL     1       1.766   8.412 -26.967  1.00  0.00     0.039 A 
HETATM   22  C   UNL     1       0.766   8.119 -27.902  1.00  0.00     0.032 A 
BRANCH  20  23
HETATM   23  O   UNL     1       2.482   9.790 -25.079  1.00  0.00    -0.352 OA
BRANCH  23  24
HETATM   24  C   UNL     1       2.571   8.853 -24.000  1.00  0.00     0.171 C 
HETATM   25  C   UNL     1       2.279   9.591 -22.705  1.00  0.00     0.034 C 
ENDBRANCH  23  24
ENDBRANCH  20  23
ENDBRANCH  14  17
ENDBRANCH  12  13
ENDBRANCH  11  12
ENDBRANCH   1  11
BRANCH   6  26
HETATM   26  C   UNL     1      -8.102   3.384 -31.657  1.00  0.00    -0.042 A 
HETATM   27  C   UNL     1      -8.255   4.321 -32.690  1.00  0.00     0.027 A 
HETATM   28  C   UNL     1      -9.405   4.285 -33.462  1.00  0.00     0.116 A 
HETATM   29  N   UNL     1     -10.401   3.395 -33.277  1.00  0.00    -0.273 NA
HETATM   30  C   UNL     1     -10.237   2.496 -32.284  1.00  0.00     0.116 A 
HETATM   31  C   UNL     1      -9.118   2.442 -31.467  1.00  0.00     0.027 A 
ENDBRANCH   6  26
BRANCH   5  32
HETATM   32  C   UNL     1      -5.712   1.788 -32.534  1.00  0.00     0.255 C 
HETATM   33  N   UNL     1      -5.773   0.490 -32.085  1.00  0.00    -0.323 N 
HETATM   34  H   UNL     1      -5.866   0.331 -31.092  1.00  0.00     0.169 HD
HETATM   35  O   UNL     1      -5.789   2.149 -33.705  1.00  0.00    -0.268 OA
BRANCH  33  36
HETATM   36  C   UNL     1      -5.822  -0.657 -32.913  1.00  0.00     0.035 A 
HETATM   37  C   UNL     1      -4.693  -1.414 -33.250  1.00  0.00     0.031 A 
HETATM   38  C   UNL     1      -4.803  -2.539 -34.073  1.00  0.00     0.026 A 
HETATM   39  C   UNL     1      -6.047  -2.913 -34.568  1.00  0.00     0.034 A 
HETATM   40 CL   UNL     1      -6.183  -4.289 -35.589  1.00  0.00    -0.084 Cl
HETATM   41  C   UNL     1      -7.182  -2.177 -34.235  1.00  0.00     0.026 A 
HETATM   42  C   UNL     1      -7.070  -1.058 -33.401  1.00  0.00     0.031 A 
ENDBRANCH  33  36
ENDBRANCH   5  32
TORSDOF 9
ENDMDL
MODEL 3
REMARK VINA RESULT:      -8.6      3.757     10.426
REMARK  9 active torsions:
REMARK  status: ('A' for Active; 'I' for Inactive)
REMARK    1  A    between atoms: C_2  and  O_3 
REMARK    2  A    between atoms: O_3  and  C_4 
REMARK    3  A    between atoms: C_7  and  N_8 
REMARK       I    between atoms: N_8  and  C_9 
REMARK    4  A    between atoms: C_9  and  C_10 
REMARK    5  A    between atoms: C_10  and  S_11 
REMARK    6  A    between atoms: S_11  and  C_12 
REMARK    7  A    between atoms: C_16  and  C_17 
REMARK       I    between atoms: C_17  and  N_18 
REMARK    8  A    between atoms: N_18  and  C_19 
REMARK    9  A    between atoms: C_27  and  C_28 
ROOT
HETATM    1  C   UNL     1      -6.538   5.962 -31.332  1.00  0.00     0.087 C 
HETATM    2  N   UNL     1      -6.543   6.595 -30.102  1.00  0.00    -0.353 N 
HETATM    3  C   UNL     1      -5.419   7.033 -29.429  1.00  0.00     0.019 C 
HETATM    4  C   UNL     1      -5.676   7.880 -28.206  1.00  0.00     0.069 C 
HETATM    5  C   UNL     1      -4.194   6.687 -29.884  1.00  0.00     0.046 C 
HETATM    6  C   UNL     1      -4.051   5.714 -31.052  1.00  0.00     0.104 C 
HETATM    7  C   UNL     1      -5.371   5.478 -31.818  1.00  0.00     0.055 C 
HETATM    8  C   UNL     1      -5.312   4.546 -33.018  1.00  0.00     0.019 C 
HETATM    9  N   UNL     1      -5.264   3.774 -34.012  1.00  0.00    -0.096 N 
HETATM   10  H   UNL     1      -7.434   7.029 -29.842  1.00  0.00     0.166 HD
ENDROOT
BRANCH   1  11
HETATM   11  S   UNL     1      -8.051   5.770 -32.194  1.00  0.00    -0.102 SA
BRANCH  11  12
HETATM   12  C   UNL     1      -8.669   4.196 -31.494  1.00  0.00     0.184 C 
BRANCH  12  13
HETATM   13  C   UNL     1      -8.457   3.013 -32.435  1.00  0.00     0.231 C 
HETATM   14  N   UNL     1      -7.845   1.934 -31.810  1.00  0.00    -0.327 N 
HETATM   15  H   UNL     1      -7.588   2.051 -30.837  1.00  0.00     0.169 HD
HETATM   16  O   UNL     1      -8.737   3.093 -33.630  1.00  0.00    -0.272 OA
BRANCH  14  17
HETATM   17  C   UNL     1      -7.340   0.767 -32.423  1.00  0.00     0.034 A 
HETATM   18  C   UNL     1      -8.122  -0.160 -33.111  1.00  0.00     0.032 A 
HETATM   19  C   UNL     1      -7.519  -1.230 -33.788  1.00  0.00     0.039 A 
HETATM   20  C   UNL     1      -6.133  -1.370 -33.800  1.00  0.00     0.068 A 
HETATM   21  C   UNL     1      -5.353  -0.492 -33.053  1.00  0.00     0.039 A 
HETATM   22  C   UNL     1      -5.956   0.563 -32.360  1.00  0.00     0.032 A 
BRANCH  20  23
HETATM   23  O   UNL     1      -5.640  -2.407 -34.547  1.00  0.00    -0.352 OA
BRANCH  23  24
HETATM   24  C   UNL     1      -6.612  -3.388 -34.920  1.00  0.00     0.171 C 
HETATM   25  C   UNL     1      -5.909  -4.728 -35.055  1.00  0.00     0.034 C 
ENDBRANCH  23  24
ENDBRANCH  20  23
ENDBRANCH  14  17
ENDBRANCH  12  13
ENDBRANCH  11  12
ENDBRANCH   1  11
BRANCH   6  26
HETATM   26  C   UNL     1      -2.899   6.046 -31.997  1.00  0.00    -0.042 A 
HETATM   27  C   UNL     1      -2.967   7.191 -32.805  1.00  0.00     0.027 A 
HETATM   28  C   UNL     1      -1.913   7.470 -33.661  1.00  0.00     0.116 A 
HETATM   29  N   UNL     1      -0.814   6.696 -33.768  1.00  0.00    -0.273 NA
HETATM   30  C   UNL     1      -0.759   5.603 -32.980  1.00  0.00     0.116 A 
HETATM   31  C   UNL     1      -1.755   5.246 -32.083  1.00  0.00     0.027 A 
ENDBRANCH   6  26
BRANCH   5  32
HETATM   32  C   UNL     1      -3.027   7.437 -29.337  1.00  0.00     0.255 C 
HETATM   33  N   UNL     1      -2.167   6.703 -28.554  1.00  0.00    -0.323 N 
HETATM   34  H   UNL     1      -2.306   5.704 -28.498  1.00  0.00     0.169 HD
HETATM   35  O   UNL     1      -2.882   8.613 -29.657  1.00  0.00    -0.268 OA
BRANCH  33  36
HETATM   36  C   UNL     1      -1.027   7.218 -27.892  1.00  0.00     0.035 A 
HETATM   37  C   UNL     1       0.226   7.351 -28.505  1.00  0.00     0.031 A 
HETATM   38  C   UNL     1       1.318   7.867 -27.800  1.00  0.00     0.026 A 
HETATM   39  C   UNL     1       1.163   8.251 -26.473  1.00  0.00     0.034 A 
HETATM   40 CL   UNL     1       2.506   8.876 -25.601  1.00  0.00    -0.084 Cl
HETATM   41  C   UNL     1      -0.078   8.134 -25.851  1.00  0.00     0.026 A 
HETATM   42  C   UNL     1      -1.172   7.629 -26.563  1.00  0.00     0.031 A 
ENDBRANCH  33  36
ENDBRANCH   5  32
TORSDOF 9
ENDMDL
MODEL 4
REMARK VINA RESULT:      -8.5      3.723      9.900
REMARK  9 active torsions:
REMARK  status: ('A' for Active; 'I' for Inactive)
REMARK    1  A    between atoms: C_2  and  O_3 
REMARK    2  A    between atoms: O_3  and  C_4 
REMARK    3  A    between atoms: C_7  and  N_8 
REMARK       I    between atoms: N_8  and  C_9 
REMARK    4  A    between atoms: C_9  and  C_10 
REMARK    5  A    between atoms: C_10  and  S_11 
REMARK    6  A    between atoms: S_11  and  C_12 
REMARK    7  A    between atoms: C_16  and  C_17 
REMARK       I    between atoms: C_17  and  N_18 
REMARK    8  A    between atoms: N_18  and  C_19 
REMARK    9  A    between atoms: C_27  and  C_28 
ROOT
HETATM    1  C   UNL     1      -7.013   3.993 -31.160  1.00  0.00     0.087 C 
HETATM    2  N   UNL     1      -5.779   3.502 -31.547  1.00  0.00    -0.353 N 
HETATM    3  C   UNL     1      -4.609   4.236 -31.588  1.00  0.00     0.019 C 
HETATM    4  C   UNL     1      -3.348   3.445 -31.840  1.00  0.00     0.069 C 
HETATM    5  C   UNL     1      -4.656   5.575 -31.411  1.00  0.00     0.046 C 
HETATM    6  C   UNL     1      -6.001   6.291 -31.298  1.00  0.00     0.104 C 
HETATM    7  C   UNL     1      -7.188   5.331 -31.066  1.00  0.00     0.055 C 
HETATM    8  C   UNL     1      -8.562   5.964 -30.910  1.00  0.00     0.019 C 
HETATM    9  N   UNL     1      -9.701   6.487 -30.780  1.00  0.00    -0.096 N 
HETATM   10  H   UNL     1      -5.682   2.483 -31.496  1.00  0.00     0.166 HD
ENDROOT
BRANCH   1  11
HETATM   11  S   UNL     1      -8.315   2.863 -30.848  1.00  0.00    -0.102 SA
BRANCH  11  12
HETATM   12  C   UNL     1      -9.091   2.740 -32.500  1.00  0.00     0.184 C 
BRANCH  12  13
HETATM   13  C   UNL     1      -8.497   1.615 -33.344  1.00  0.00     0.231 C 
HETATM   14  N   UNL     1      -7.751   0.716 -32.590  1.00  0.00    -0.327 N 
HETATM   15  H   UNL     1      -7.660   0.910 -31.601  1.00  0.00     0.169 HD
HETATM   16  O   UNL     1      -8.625   1.601 -34.567  1.00  0.00    -0.272 OA
BRANCH  14  17
HETATM   17  C   UNL     1      -6.923  -0.320 -33.073  1.00  0.00     0.034 A 
HETATM   18  C   UNL     1      -7.368  -1.375 -33.868  1.00  0.00     0.032 A 
HETATM   19  C   UNL     1      -6.453  -2.296 -34.398  1.00  0.00     0.039 A 
HETATM   20  C   UNL     1      -5.088  -2.159 -34.155  1.00  0.00     0.068 A 
HETATM   21  C   UNL     1      -4.646  -1.153 -33.300  1.00  0.00     0.039 A 
HETATM   22  C   UNL     1      -5.562  -0.246 -32.754  1.00  0.00     0.032 A 
BRANCH  20  23
HETATM   23  O   UNL     1      -4.272  -3.068 -34.774  1.00  0.00    -0.352 OA
BRANCH  23  24
HETATM   24  C   UNL     1      -4.488  -4.427 -34.382  1.00  0.00     0.171 C 
HETATM   25  C   UNL     1      -3.472  -4.779 -33.308  1.00  0.00     0.034 C 
ENDBRANCH  23  24
ENDBRANCH  20  23
ENDBRANCH  14  17
ENDBRANCH  12  13
ENDBRANCH  11  12
ENDBRANCH   1  11
BRANCH   6  26
HETATM   26  C   UNL     1      -6.005   7.448 -30.302  1.00  0.00    -0.042 A 
HETATM   27  C   UNL     1      -6.069   7.185 -28.926  1.00  0.00     0.027 A 
HETATM   28  C   UNL     1      -6.078   8.250 -28.040  1.00  0.00     0.116 A 
HETATM   29  N   UNL     1      -6.031   9.542 -28.425  1.00  0.00    -0.273 NA
HETATM   30  C   UNL     1      -5.962   9.780 -29.751  1.00  0.00     0.116 A 
HETATM   31  C   UNL     1      -5.934   8.783 -30.715  1.00  0.00     0.027 A 
ENDBRANCH   6  26
BRANCH   5  32
HETATM   32  C   UNL     1      -3.368   6.273 -31.136  1.00  0.00     0.255 C 
HETATM   33  N   UNL     1      -2.902   6.170 -29.846  1.00  0.00    -0.323 N 
HETATM   34  H   UNL     1      -3.381   5.546 -29.214  1.00  0.00     0.169 HD
HETATM   35  O   UNL     1      -2.794   6.833 -32.066  1.00  0.00    -0.268 OA
BRANCH  33  36
HETATM   36  C   UNL     1      -1.732   6.793 -29.351  1.00  0.00     0.035 A 
HETATM   37  C   UNL     1      -0.450   6.243 -29.483  1.00  0.00     0.031 A 
HETATM   38  C   UNL     1       0.671   6.905 -28.973  1.00  0.00     0.026 A 
HETATM   39  C   UNL     1       0.515   8.123 -28.321  1.00  0.00     0.034 A 
HETATM   40 CL   UNL     1       1.890   8.933 -27.683  1.00  0.00    -0.084 Cl
HETATM   41  C   UNL     1      -0.751   8.688 -28.189  1.00  0.00     0.026 A 
HETATM   42  C   UNL     1      -1.870   8.030 -28.712  1.00  0.00     0.031 A 
ENDBRANCH  33  36
ENDBRANCH   5  32
TORSDOF 9
ENDMDL
MODEL 5
REMARK VINA RESULT:      -8.4      3.383      5.882
REMARK  9 active torsions:
REMARK  status: ('A' for Active; 'I' for Inactive)
REMARK    1  A    between atoms: C_2  and  O_3 
REMARK    2  A    between atoms: O_3  and  C_4 
REMARK    3  A    between atoms: C_7  and  N_8 
REMARK       I    between atoms: N_8  and  C_9 
REMARK    4  A    between atoms: C_9  and  C_10 
REMARK    5  A    between atoms: C_10  and  S_11 
REMARK    6  A    between atoms: S_11  and  C_12 
REMARK    7  A    between atoms: C_16  and  C_17 
REMARK       I    between atoms: C_17  and  N_18 
REMARK    8  A    between atoms: N_18  and  C_19 
REMARK    9  A    between atoms: C_27  and  C_28 
ROOT
HETATM    1  C   UNL     1     -11.021   3.129 -33.135  1.00  0.00     0.087 C 
HETATM    2  N   UNL     1     -11.222   1.763 -33.061  1.00  0.00    -0.353 N 
HETATM    3  C   UNL     1     -10.223   0.810 -33.100  1.00  0.00     0.019 C 
HETATM    4  C   UNL     1     -10.654  -0.605 -32.795  1.00  0.00     0.069 C 
HETATM    5  C   UNL     1      -8.959   1.182 -33.402  1.00  0.00     0.046 C 
HETATM    6  C   UNL     1      -8.659   2.618 -33.827  1.00  0.00     0.104 C 
HETATM    7  C   UNL     1      -9.818   3.597 -33.540  1.00  0.00     0.055 C 
HETATM    8  C   UNL     1      -9.591   5.056 -33.903  1.00  0.00     0.019 C 
HETATM    9  N   UNL     1      -9.404   6.265 -34.204  1.00  0.00    -0.096 N 
HETATM   10  H   UNL     1     -12.115   1.477 -32.648  1.00  0.00     0.166 HD
ENDROOT
BRANCH   1  11
HETATM   11  S   UNL     1     -12.349   4.204 -32.741  1.00  0.00    -0.102 SA
BRANCH  11  12
HETATM   12  C   UNL     1     -12.253   4.245 -30.915  1.00  0.00     0.184 C 
BRANCH  12  13
HETATM   13  C   UNL     1     -10.816   4.324 -30.406  1.00  0.00     0.231 C 
HETATM   14  N   UNL     1     -10.343   5.630 -30.338  1.00  0.00    -0.327 N 
HETATM   15  H   UNL     1     -10.969   6.362 -30.648  1.00  0.00     0.169 HD
HETATM   16  O   UNL     1     -10.164   3.307 -30.177  1.00  0.00    -0.272 OA
BRANCH  14  17
HETATM   17  C   UNL     1      -9.016   6.044 -30.091  1.00  0.00     0.034 A 
HETATM   18  C   UNL     1      -8.284   6.878 -30.934  1.00  0.00     0.032 A 
HETATM   19  C   UNL     1      -7.013   7.331 -30.552  1.00  0.00     0.039 A 
HETATM   20  C   UNL     1      -6.474   6.971 -29.319  1.00  0.00     0.068 A 
HETATM   21  C   UNL     1      -7.167   6.078 -28.507  1.00  0.00     0.039 A 
HETATM   22  C   UNL     1      -8.426   5.609 -28.898  1.00  0.00     0.032 A 
BRANCH  20  23
HETATM   23  O   UNL     1      -5.259   7.522 -29.010  1.00  0.00    -0.352 OA
BRANCH  23  24
HETATM   24  C   UNL     1      -4.393   7.725 -30.132  1.00  0.00     0.171 C 
HETATM   25  C   UNL     1      -3.325   6.645 -30.111  1.00  0.00     0.034 C 
ENDBRANCH  23  24
ENDBRANCH  20  23
ENDBRANCH  14  17
ENDBRANCH  12  13
ENDBRANCH  11  12
ENDBRANCH   1  11
BRANCH   6  26
HETATM   26  C   UNL     1      -7.326   3.151 -33.309  1.00  0.00    -0.042 A 
HETATM   27  C   UNL     1      -7.171   3.437 -31.944  1.00  0.00     0.027 A 
HETATM   28  C   UNL     1      -5.955   3.927 -31.496  1.00  0.00     0.116 A 
HETATM   29  N   UNL     1      -4.898   4.151 -32.302  1.00  0.00    -0.273 NA
HETATM   30  C   UNL     1      -5.058   3.865 -33.611  1.00  0.00     0.116 A 
HETATM   31  C   UNL     1      -6.230   3.360 -34.153  1.00  0.00     0.027 A 
ENDBRANCH   6  26
BRANCH   5  32
HETATM   32  C   UNL     1      -7.872   0.203 -33.115  1.00  0.00     0.255 C 
HETATM   33  N   UNL     1      -7.352  -0.442 -34.212  1.00  0.00    -0.323 N 
HETATM   34  H   UNL     1      -7.642  -0.136 -35.129  1.00  0.00     0.169 HD
HETATM   35  O   UNL     1      -7.483   0.081 -31.957  1.00  0.00    -0.268 OA
BRANCH  33  36
HETATM   36  C   UNL     1      -6.353  -1.444 -34.171  1.00  0.00     0.035 A 
HETATM   37  C   UNL     1      -5.062  -1.227 -33.671  1.00  0.00     0.031 A 
HETATM   38  C   UNL     1      -4.117  -2.257 -33.655  1.00  0.00     0.026 A 
HETATM   39  C   UNL     1      -4.456  -3.513 -34.144  1.00  0.00     0.034 A 
HETATM   40 CL   UNL     1      -3.291  -4.777 -34.136  1.00  0.00    -0.084 Cl
HETATM   41  C   UNL     1      -5.738  -3.749 -34.636  1.00  0.00     0.026 A 
HETATM   42  C   UNL     1      -6.686  -2.719 -34.639  1.00  0.00     0.031 A 
ENDBRANCH  33  36
ENDBRANCH   5  32
TORSDOF 9
ENDMDL
MODEL 6
REMARK VINA RESULT:      -8.2      5.032     10.195
REMARK  9 active torsions:
REMARK  status: ('A' for Active; 'I' for Inactive)
REMARK    1  A    between atoms: C_2  and  O_3 
REMARK    2  A    between atoms: O_3  and  C_4 
REMARK    3  A    between atoms: C_7  and  N_8 
REMARK       I    between atoms: N_8  and  C_9 
REMARK    4  A    between atoms: C_9  and  C_10 
REMARK    5  A    between atoms: C_10  and  S_11 
REMARK    6  A    between atoms: S_11  and  C_12 
REMARK    7  A    between atoms: C_16  and  C_17 
REMARK       I    between atoms: C_17  and  N_18 
REMARK    8  A    between atoms: N_18  and  C_19 
REMARK    9  A    between atoms: C_27  and  C_28 
ROOT
HETATM    1  C   UNL     1      -9.545   4.389 -32.648  1.00  0.00     0.087 C 
HETATM    2  N   UNL     1     -10.200   3.214 -32.968  1.00  0.00    -0.353 N 
HETATM    3  C   UNL     1      -9.590   1.985 -33.136  1.00  0.00     0.019 C 
HETATM    4  C   UNL     1     -10.522   0.805 -33.275  1.00  0.00     0.069 C 
HETATM    5  C   UNL     1      -8.241   1.910 -33.169  1.00  0.00     0.046 C 
HETATM    6  C   UNL     1      -7.398   3.183 -33.155  1.00  0.00     0.104 C 
HETATM    7  C   UNL     1      -8.198   4.444 -32.763  1.00  0.00     0.055 C 
HETATM    8  C   UNL     1      -7.427   5.752 -32.692  1.00  0.00     0.019 C 
HETATM    9  N   UNL     1      -6.788   6.837 -32.634  1.00  0.00    -0.096 N 
HETATM   10  H   UNL     1     -11.203   3.205 -32.759  1.00  0.00     0.166 HD
ENDROOT
BRANCH   1  11
HETATM   11  S   UNL     1     -10.490   5.778 -32.149  1.00  0.00    -0.102 SA
BRANCH  11  12
HETATM   12  C   UNL     1     -11.348   6.210 -33.706  1.00  0.00     0.184 C 
BRANCH  12  13
HETATM   13  C   UNL     1     -12.837   5.879 -33.666  1.00  0.00     0.231 C 
HETATM   14  N   UNL     1     -13.196   5.156 -32.534  1.00  0.00    -0.327 N 
HETATM   15  H   UNL     1     -12.452   4.910 -31.892  1.00  0.00     0.169 HD
HETATM   16  O   UNL     1     -13.580   6.170 -34.602  1.00  0.00    -0.272 OA
BRANCH  14  17
HETATM   17  C   UNL     1     -14.437   4.535 -32.276  1.00  0.00     0.034 A 
HETATM   18  C   UNL     1     -15.592   5.217 -31.899  1.00  0.00     0.032 A 
HETATM   19  C   UNL     1     -16.810   4.531 -31.776  1.00  0.00     0.039 A 
HETATM   20  C   UNL     1     -16.885   3.167 -32.049  1.00  0.00     0.068 A 
HETATM   21  C   UNL     1     -15.721   2.467 -32.352  1.00  0.00     0.039 A 
HETATM   22  C   UNL     1     -14.502   3.148 -32.454  1.00  0.00     0.032 A 
BRANCH  20  23
HETATM   23  O   UNL     1     -18.132   2.607 -31.968  1.00  0.00    -0.352 OA
BRANCH  23  24
HETATM   24  C   UNL     1     -19.184   3.410 -32.511  1.00  0.00     0.171 C 
HETATM   25  C   UNL     1     -19.491   2.909 -33.912  1.00  0.00     0.034 C 
ENDBRANCH  23  24
ENDBRANCH  20  23
ENDBRANCH  14  17
ENDBRANCH  12  13
ENDBRANCH  11  12
ENDBRANCH   1  11
BRANCH   6  26
HETATM   26  C   UNL     1      -6.105   3.059 -32.352  1.00  0.00    -0.042 A 
HETATM   27  C   UNL     1      -4.867   3.094 -33.012  1.00  0.00     0.027 A 
HETATM   28  C   UNL     1      -3.707   2.973 -32.265  1.00  0.00     0.116 A 
HETATM   29  N   UNL     1      -3.694   2.821 -30.925  1.00  0.00    -0.273 NA
HETATM   30  C   UNL     1      -4.891   2.796 -30.303  1.00  0.00     0.116 A 
HETATM   31  C   UNL     1      -6.105   2.922 -30.960  1.00  0.00     0.027 A 
ENDBRANCH   6  26
BRANCH   5  32
HETATM   32  C   UNL     1      -7.629   0.558 -33.021  1.00  0.00     0.255 C 
HETATM   33  N   UNL     1      -6.940   0.098 -34.119  1.00  0.00    -0.323 N 
HETATM   34  H   UNL     1      -6.791   0.732 -34.890  1.00  0.00     0.169 HD
HETATM   35  O   UNL     1      -7.729  -0.016 -31.941  1.00  0.00    -0.268 OA
BRANCH  33  36
HETATM   36  C   UNL     1      -6.325  -1.173 -34.221  1.00  0.00     0.035 A 
HETATM   37  C   UNL     1      -4.981  -1.407 -33.904  1.00  0.00     0.031 A 
HETATM   38  C   UNL     1      -4.428  -2.685 -34.024  1.00  0.00     0.026 A 
HETATM   39  C   UNL     1      -5.218  -3.740 -34.466  1.00  0.00     0.034 A 
HETATM   40 CL   UNL     1      -4.537  -5.310 -34.625  1.00  0.00    -0.084 Cl
HETATM   41  C   UNL     1      -6.559  -3.527 -34.776  1.00  0.00     0.026 A 
HETATM   42  C   UNL     1      -7.113  -2.249 -34.643  1.00  0.00     0.031 A 
ENDBRANCH  33  36
ENDBRANCH   5  32
TORSDOF 9
ENDMDL
MODEL 7
REMARK VINA RESULT:      -8.1      3.784     10.299
REMARK  9 active torsions:
REMARK  status: ('A' for Active; 'I' for Inactive)
REMARK    1  A    between atoms: C_2  and  O_3 
REMARK    2  A    between atoms: O_3  and  C_4 
REMARK    3  A    between atoms: C_7  and  N_8 
REMARK       I    between atoms: N_8  and  C_9 
REMARK    4  A    between atoms: C_9  and  C_10 
REMARK    5  A    between atoms: C_10  and  S_11 
REMARK    6  A    between atoms: S_11  and  C_12 
REMARK    7  A    between atoms: C_16  and  C_17 
REMARK       I    between atoms: C_17  and  N_18 
REMARK    8  A    between atoms: N_18  and  C_19 
REMARK    9  A    between atoms: C_27  and  C_28 
ROOT
HETATM    1  C   UNL     1      -5.316   5.859 -32.469  1.00  0.00     0.087 C 
HETATM    2  N   UNL     1      -3.997   5.981 -32.867  1.00  0.00    -0.353 N 
HETATM    3  C   UNL     1      -3.042   6.750 -32.229  1.00  0.00     0.019 C 
HETATM    4  C   UNL     1      -1.624   6.569 -32.715  1.00  0.00     0.069 C 
HETATM    5  C   UNL     1      -3.417   7.593 -31.242  1.00  0.00     0.046 C 
HETATM    6  C   UNL     1      -4.897   7.797 -30.923  1.00  0.00     0.104 C 
HETATM    7  C   UNL     1      -5.814   6.735 -31.566  1.00  0.00     0.055 C 
HETATM    8  C   UNL     1      -7.302   6.844 -31.273  1.00  0.00     0.019 C 
HETATM    9  N   UNL     1      -8.535   6.934 -31.031  1.00  0.00    -0.096 N 
HETATM   10  H   UNL     1      -3.653   5.226 -33.469  1.00  0.00     0.166 HD
ENDROOT
BRANCH   1  11
HETATM   11  S   UNL     1      -6.304   4.600 -33.183  1.00  0.00    -0.102 SA
BRANCH  11  12
HETATM   12  C   UNL     1      -6.830   3.668 -31.699  1.00  0.00     0.184 C 
BRANCH  12  13
HETATM   13  C   UNL     1      -6.445   2.192 -31.767  1.00  0.00     0.231 C 
HETATM   14  N   UNL     1      -5.924   1.830 -33.004  1.00  0.00    -0.327 N 
HETATM   15  H   UNL     1      -5.882   2.552 -33.714  1.00  0.00     0.169 HD
HETATM   16  O   UNL     1      -6.674   1.431 -30.829  1.00  0.00    -0.272 OA
BRANCH  14  17
HETATM   17  C   UNL     1      -5.646   0.525 -33.463  1.00  0.00     0.034 A 
HETATM   18  C   UNL     1      -4.503  -0.199 -33.127  1.00  0.00     0.032 A 
HETATM   19  C   UNL     1      -4.366  -1.533 -33.536  1.00  0.00     0.039 A 
HETATM   20  C   UNL     1      -5.374  -2.159 -34.265  1.00  0.00     0.068 A 
HETATM   21  C   UNL     1      -6.482  -1.419 -34.669  1.00  0.00     0.039 A 
HETATM   22  C   UNL     1      -6.610  -0.081 -34.278  1.00  0.00     0.032 A 
BRANCH  20  23
HETATM   23  O   UNL     1      -5.174  -3.482 -34.555  1.00  0.00    -0.352 OA
BRANCH  23  24
HETATM   24  C   UNL     1      -3.868  -3.972 -34.236  1.00  0.00     0.171 C 
HETATM   25  C   UNL     1      -4.022  -5.285 -33.489  1.00  0.00     0.034 C 
ENDBRANCH  23  24
ENDBRANCH  20  23
ENDBRANCH  14  17
ENDBRANCH  12  13
ENDBRANCH  11  12
ENDBRANCH   1  11
BRANCH   6  26
HETATM   26  C   UNL     1      -5.190   7.972 -29.435  1.00  0.00    -0.042 A 
HETATM   27  C   UNL     1      -5.080   6.876 -28.567  1.00  0.00     0.027 A 
HETATM   28  C   UNL     1      -5.357   7.056 -27.222  1.00  0.00     0.116 A 
HETATM   29  N   UNL     1      -5.735   8.235 -26.689  1.00  0.00    -0.273 NA
HETATM   30  C   UNL     1      -5.831   9.283 -27.533  1.00  0.00     0.116 A 
HETATM   31  C   UNL     1      -5.561   9.207 -28.891  1.00  0.00     0.027 A 
ENDBRANCH   6  26
BRANCH   5  32
HETATM   32  C   UNL     1      -2.341   8.147 -30.371  1.00  0.00     0.255 C 
HETATM   33  N   UNL     1      -1.809   7.268 -29.457  1.00  0.00    -0.323 N 
HETATM   34  H   UNL     1      -2.084   6.298 -29.511  1.00  0.00     0.169 HD
HETATM   35  O   UNL     1      -1.971   9.302 -30.558  1.00  0.00    -0.268 OA
BRANCH  33  36
HETATM   36  C   UNL     1      -0.818   7.589 -28.499  1.00  0.00     0.035 A 
HETATM   37  C   UNL     1       0.516   7.860 -28.831  1.00  0.00     0.031 A 
HETATM   38  C   UNL     1       1.452   8.173 -27.840  1.00  0.00     0.026 A 
HETATM   39  C   UNL     1       1.059   8.212 -26.507  1.00  0.00     0.034 A 
HETATM   40 CL   UNL     1       2.211   8.584 -25.287  1.00  0.00    -0.084 Cl
HETATM   41  C   UNL     1      -0.265   7.954 -26.161  1.00  0.00     0.026 A 
HETATM   42  C   UNL     1      -1.203   7.654 -27.156  1.00  0.00     0.031 A 
ENDBRANCH  33  36
ENDBRANCH   5  32
TORSDOF 9
ENDMDL
MODEL 8
REMARK VINA RESULT:      -8.1      2.500      4.274
REMARK  9 active torsions:
REMARK  status: ('A' for Active; 'I' for Inactive)
REMARK    1  A    between atoms: C_2  and  O_3 
REMARK    2  A    between atoms: O_3  and  C_4 
REMARK    3  A    between atoms: C_7  and  N_8 
REMARK       I    between atoms: N_8  and  C_9 
REMARK    4  A    between atoms: C_9  and  C_10 
REMARK    5  A    between atoms: C_10  and  S_11 
REMARK    6  A    between atoms: S_11  and  C_12 
REMARK    7  A    between atoms: C_16  and  C_17 
REMARK       I    between atoms: C_17  and  N_18 
REMARK    8  A    between atoms: N_18  and  C_19 
REMARK    9  A    between atoms: C_27  and  C_28 
ROOT
HETATM    1  C   UNL     1      -7.456   6.169 -30.924  1.00  0.00     0.087 C 
HETATM    2  N   UNL     1      -8.330   5.160 -31.286  1.00  0.00    -0.353 N 
HETATM    3  C   UNL     1      -8.017   4.094 -32.108  1.00  0.00     0.019 C 
HETATM    4  C   UNL     1      -9.061   3.007 -32.196  1.00  0.00     0.069 C 
HETATM    5  C   UNL     1      -6.837   4.086 -32.767  1.00  0.00     0.046 C 
HETATM    6  C   UNL     1      -5.914   5.301 -32.712  1.00  0.00     0.104 C 
HETATM    7  C   UNL     1      -6.296   6.311 -31.607  1.00  0.00     0.055 C 
HETATM    8  C   UNL     1      -5.409   7.537 -31.460  1.00  0.00     0.019 C 
HETATM    9  N   UNL     1      -4.674   8.553 -31.338  1.00  0.00    -0.096 N 
HETATM   10  H   UNL     1      -9.136   5.041 -30.665  1.00  0.00     0.166 HD
ENDROOT
BRANCH   1  11
HETATM   11  S   UNL     1      -7.905   7.254 -29.624  1.00  0.00    -0.102 SA
BRANCH  11  12
HETATM   12  C   UNL     1      -7.575   6.215 -28.155  1.00  0.00     0.184 C 
BRANCH  12  13
HETATM   13  C   UNL     1      -6.097   5.864 -28.005  1.00  0.00     0.231 C 
HETATM   14  N   UNL     1      -5.352   6.903 -27.458  1.00  0.00    -0.327 N 
HETATM   15  H   UNL     1      -5.845   7.762 -27.250  1.00  0.00     0.169 HD
HETATM   16  O   UNL     1      -5.652   4.796 -28.420  1.00  0.00    -0.272 OA
BRANCH  14  17
HETATM   17  C   UNL     1      -3.947   6.982 -27.357  1.00  0.00     0.034 A 
HETATM   18  C   UNL     1      -3.232   6.795 -26.175  1.00  0.00     0.032 A 
HETATM   19  C   UNL     1      -1.830   6.778 -26.192  1.00  0.00     0.039 A 
HETATM   20  C   UNL     1      -1.133   6.927 -27.388  1.00  0.00     0.068 A 
HETATM   21  C   UNL     1      -1.838   7.189 -28.559  1.00  0.00     0.039 A 
HETATM   22  C   UNL     1      -3.238   7.228 -28.540  1.00  0.00     0.032 A 
BRANCH  20  23
HETATM   23  O   UNL     1       0.230   6.826 -27.307  1.00  0.00    -0.352 OA
BRANCH  23  24
HETATM   24  C   UNL     1       0.870   7.912 -26.631  1.00  0.00     0.171 C 
HETATM   25  C   UNL     1       1.676   8.699 -27.650  1.00  0.00     0.034 C 
ENDBRANCH  23  24
ENDBRANCH  20  23
ENDBRANCH  14  17
ENDBRANCH  12  13
ENDBRANCH  11  12
ENDBRANCH   1  11
BRANCH   6  26
HETATM   26  C   UNL     1      -4.429   4.950 -32.669  1.00  0.00    -0.042 A 
HETATM   27  C   UNL     1      -3.865   4.443 -31.488  1.00  0.00     0.027 A 
HETATM   28  C   UNL     1      -2.514   4.137 -31.469  1.00  0.00     0.116 A 
HETATM   29  N   UNL     1      -1.697   4.301 -32.529  1.00  0.00    -0.273 NA
HETATM   30  C   UNL     1      -2.254   4.782 -33.660  1.00  0.00     0.116 A 
HETATM   31  C   UNL     1      -3.597   5.105 -33.782  1.00  0.00     0.027 A 
ENDBRANCH   6  26
BRANCH   5  32
HETATM   32  C   UNL     1      -6.401   2.794 -33.370  1.00  0.00     0.255 C 
HETATM   33  N   UNL     1      -6.080   1.801 -32.473  1.00  0.00    -0.323 N 
HETATM   34  H   UNL     1      -6.271   1.961 -31.495  1.00  0.00     0.169 HD
HETATM   35  O   UNL     1      -6.408   2.684 -34.592  1.00  0.00    -0.268 OA
BRANCH  33  36
HETATM   36  C   UNL     1      -5.596   0.517 -32.818  1.00  0.00     0.035 A 
HETATM   37  C   UNL     1      -6.311  -0.391 -33.609  1.00  0.00     0.031 A 
HETATM   38  C   UNL     1      -5.780  -1.647 -33.918  1.00  0.00     0.026 A 
HETATM   39  C   UNL     1      -4.528  -2.005 -33.432  1.00  0.00     0.034 A 
HETATM   40 CL   UNL     1      -3.878  -3.553 -33.801  1.00  0.00    -0.084 Cl
HETATM   41  C   UNL     1      -3.799  -1.110 -32.652  1.00  0.00     0.026 A 
HETATM   42  C   UNL     1      -4.327   0.151 -32.355  1.00  0.00     0.031 A 
ENDBRANCH  33  36
ENDBRANCH   5  32
TORSDOF 9
ENDMDL
MODEL 9
REMARK VINA RESULT:      -8.0      2.839      4.597
REMARK  9 active torsions:
REMARK  status: ('A' for Active; 'I' for Inactive)
REMARK    1  A    between atoms: C_2  and  O_3 
REMARK    2  A    between atoms: O_3  and  C_4 
REMARK    3  A    between atoms: C_7  and  N_8 
REMARK       I    between atoms: N_8  and  C_9 
REMARK    4  A    between atoms: C_9  and  C_10 
REMARK    5  A    between atoms: C_10  and  S_11 
REMARK    6  A    between atoms: S_11  and  C_12 
REMARK    7  A    between atoms: C_16  and  C_17 
REMARK       I    between atoms: C_17  and  N_18 
REMARK    8  A    between atoms: N_18  and  C_19 
REMARK    9  A    between atoms: C_27  and  C_28 
ROOT
HETATM    1  C   UNL     1      -5.172   4.218 -33.210  1.00  0.00     0.087 C 
HETATM    2  N   UNL     1      -5.500   2.909 -33.515  1.00  0.00    -0.353 N 
HETATM    3  C   UNL     1      -6.677   2.281 -33.155  1.00  0.00     0.019 C 
HETATM    4  C   UNL     1      -6.910   0.923 -33.772  1.00  0.00     0.069 C 
HETATM    5  C   UNL     1      -7.524   2.893 -32.297  1.00  0.00     0.046 C 
HETATM    6  C   UNL     1      -7.125   4.206 -31.627  1.00  0.00     0.104 C 
HETATM    7  C   UNL     1      -5.895   4.876 -32.275  1.00  0.00     0.055 C 
HETATM    8  C   UNL     1      -5.449   6.207 -31.689  1.00  0.00     0.019 C 
HETATM    9  N   UNL     1      -5.079   7.309 -31.204  1.00  0.00    -0.096 N 
HETATM   10  H   UNL     1      -4.985   2.505 -34.302  1.00  0.00     0.166 HD
ENDROOT
BRANCH   1  11
HETATM   11  S   UNL     1      -3.803   4.958 -34.015  1.00  0.00    -0.102 SA
BRANCH  11  12
HETATM   12  C   UNL     1      -2.401   4.204 -33.113  1.00  0.00     0.184 C 
BRANCH  12  13
HETATM   13  C   UNL     1      -1.554   5.239 -32.377  1.00  0.00     0.231 C 
HETATM   14  N   UNL     1      -1.578   5.069 -30.997  1.00  0.00    -0.327 N 
HETATM   15  H   UNL     1      -2.156   4.320 -30.637  1.00  0.00     0.169 HD
HETATM   16  O   UNL     1      -1.001   6.156 -32.982  1.00  0.00    -0.272 OA
BRANCH  14  17
HETATM   17  C   UNL     1      -1.063   5.948 -30.021  1.00  0.00     0.034 A 
HETATM   18  C   UNL     1       0.229   5.878 -29.503  1.00  0.00     0.032 A 
HETATM   19  C   UNL     1       0.691   6.866 -28.621  1.00  0.00     0.039 A 
HETATM   20  C   UNL     1      -0.124   7.938 -28.266  1.00  0.00     0.068 A 
HETATM   21  C   UNL     1      -1.440   7.972 -28.719  1.00  0.00     0.039 A 
HETATM   22  C   UNL     1      -1.909   6.975 -29.583  1.00  0.00     0.032 A 
BRANCH  20  23
HETATM   23  O   UNL     1       0.445   8.883 -27.455  1.00  0.00    -0.352 OA
BRANCH  23  24
HETATM   24  C   UNL     1       1.799   8.612 -27.080  1.00  0.00     0.171 C 
HETATM   25  C   UNL     1       1.842   8.394 -25.578  1.00  0.00     0.034 C 
ENDBRANCH  23  24
ENDBRANCH  20  23
ENDBRANCH  14  17
ENDBRANCH  12  13
ENDBRANCH  11  12
ENDBRANCH   1  11
BRANCH   6  26
HETATM   26  C   UNL     1      -8.282   5.189 -31.455  1.00  0.00    -0.042 A 
HETATM   27  C   UNL     1      -8.837   5.399 -30.185  1.00  0.00     0.027 A 
HETATM   28  C   UNL     1      -9.890   6.290 -30.053  1.00  0.00     0.116 A 
HETATM   29  N   UNL     1     -10.422   6.975 -31.086  1.00  0.00    -0.273 NA
HETATM   30  C   UNL     1      -9.873   6.768 -32.301  1.00  0.00     0.116 A 
HETATM   31  C   UNL     1      -8.810   5.908 -32.532  1.00  0.00     0.027 A 
ENDBRANCH   6  26
BRANCH   5  32
HETATM   32  C   UNL     1      -8.906   2.345 -32.194  1.00  0.00     0.255 C 
HETATM   33  N   UNL     1      -9.725   2.599 -33.269  1.00  0.00    -0.323 N 
HETATM   34  H   UNL     1      -9.318   3.023 -34.090  1.00  0.00     0.169 HD
HETATM   35  O   UNL     1      -9.199   1.673 -31.209  1.00  0.00    -0.268 OA
BRANCH  33  36
HETATM   36  C   UNL     1     -11.085   2.220 -33.365  1.00  0.00     0.035 A 
HETATM   37  C   UNL     1     -11.505   0.916 -33.657  1.00  0.00     0.031 A 
HETATM   38  C   UNL     1     -12.864   0.601 -33.738  1.00  0.00     0.026 A 
HETATM   39  C   UNL     1     -13.816   1.592 -33.531  1.00  0.00     0.034 A 
HETATM   40 CL   UNL     1     -15.488   1.209 -33.641  1.00  0.00    -0.084 Cl
HETATM   41  C   UNL     1     -13.417   2.893 -33.230  1.00  0.00     0.026 A 
HETATM   42  C   UNL     1     -12.055   3.203 -33.137  1.00  0.00     0.031 A 
ENDBRANCH  33  36
ENDBRANCH   5  32
TORSDOF 9
ENDMDL
MODEL 10
REMARK VINA RESULT:      -8.0      4.155     10.905
REMARK  9 active torsions:
REMARK  status: ('A' for Active; 'I' for Inactive)
REMARK    1  A    between atoms: C_2  and  O_3 
REMARK    2  A    between atoms: O_3  and  C_4 
REMARK    3  A    between atoms: C_7  and  N_8 
REMARK       I    between atoms: N_8  and  C_9 
REMARK    4  A    between atoms: C_9  and  C_10 
REMARK    5  A    between atoms: C_10  and  S_11 
REMARK    6  A    between atoms: S_11  and  C_12 
REMARK    7  A    between atoms: C_16  and  C_17 
REMARK       I    between atoms: C_17  and  N_18 
REMARK    8  A    between atoms: N_18  and  C_19 
REMARK    9  A    between atoms: C_27  and  C_28 
ROOT
HETATM    1  C   UNL     1      -5.328   5.654 -30.212  1.00  0.00     0.087 C 
HETATM    2  N   UNL     1      -4.033   5.500 -30.672  1.00  0.00    -0.353 N 
HETATM    3  C   UNL     1      -2.960   6.289 -30.305  1.00  0.00     0.019 C 
HETATM    4  C   UNL     1      -1.605   5.809 -30.768  1.00  0.00     0.069 C 
HETATM    5  C   UNL     1      -3.175   7.410 -29.580  1.00  0.00     0.046 C 
HETATM    6  C   UNL     1      -4.599   7.873 -29.282  1.00  0.00     0.104 C 
HETATM    7  C   UNL     1      -5.667   6.798 -29.574  1.00  0.00     0.055 C 
HETATM    8  C   UNL     1      -7.112   7.165 -29.273  1.00  0.00     0.019 C 
HETATM    9  N   UNL     1      -8.309   7.470 -29.025  1.00  0.00    -0.096 N 
HETATM   10  H   UNL     1      -3.814   4.573 -31.051  1.00  0.00     0.166 HD
ENDROOT
BRANCH   1  11
HETATM   11  S   UNL     1      -6.493   4.380 -30.514  1.00  0.00    -0.102 SA
BRANCH  11  12
HETATM   12  C   UNL     1      -5.572   2.906 -29.945  1.00  0.00     0.184 C 
BRANCH  12  13
HETATM   13  C   UNL     1      -4.946   2.125 -31.098  1.00  0.00     0.231 C 
HETATM   14  N   UNL     1      -5.684   1.000 -31.448  1.00  0.00    -0.327 N 
HETATM   15  H   UNL     1      -6.515   0.809 -30.903  1.00  0.00     0.169 HD
HETATM   16  O   UNL     1      -3.859   2.453 -31.571  1.00  0.00    -0.272 OA
BRANCH  14  17
HETATM   17  C   UNL     1      -5.300  -0.030 -32.333  1.00  0.00     0.034 A 
HETATM   18  C   UNL     1      -4.240  -0.906 -32.105  1.00  0.00     0.032 A 
HETATM   19  C   UNL     1      -4.003  -1.973 -32.985  1.00  0.00     0.039 A 
HETATM   20  C   UNL     1      -4.833  -2.183 -34.083  1.00  0.00     0.068 A 
HETATM   21  C   UNL     1      -5.846  -1.268 -34.358  1.00  0.00     0.039 A 
HETATM   22  C   UNL     1      -6.069  -0.191 -33.492  1.00  0.00     0.032 A 
BRANCH  20  23
HETATM   23  O   UNL     1      -4.560  -3.291 -34.840  1.00  0.00    -0.352 OA
BRANCH  23  24
HETATM   24  C   UNL     1      -5.298  -4.461 -34.472  1.00  0.00     0.171 C 
HETATM   25  C   UNL     1      -6.515  -4.560 -35.377  1.00  0.00     0.034 C 
ENDBRANCH  23  24
ENDBRANCH  20  23
ENDBRANCH  14  17
ENDBRANCH  12  13
ENDBRANCH  11  12
ENDBRANCH   1  11
BRANCH   6  26
HETATM   26  C   UNL     1      -4.773   8.483 -27.893  1.00  0.00    -0.042 A 
HETATM   27  C   UNL     1      -4.619   7.679 -26.753  1.00  0.00     0.027 A 
HETATM   28  C   UNL     1      -4.788   8.251 -25.503  1.00  0.00     0.116 A 
HETATM   29  N   UNL     1      -5.098   9.549 -25.311  1.00  0.00    -0.273 NA
HETATM   30  C   UNL     1      -5.236  10.312 -26.416  1.00  0.00     0.116 A 
HETATM   31  C   UNL     1      -5.074   9.836 -27.708  1.00  0.00     0.027 A 
ENDBRANCH   6  26
BRANCH   5  32
HETATM   32  C   UNL     1      -1.989   8.043 -28.934  1.00  0.00     0.255 C 
HETATM   33  N   UNL     1      -1.515   7.403 -27.813  1.00  0.00    -0.323 N 
HETATM   34  H   UNL     1      -1.908   6.504 -27.573  1.00  0.00     0.169 HD
HETATM   35  O   UNL     1      -1.494   9.034 -29.461  1.00  0.00    -0.268 OA
BRANCH  33  36
HETATM   36  C   UNL     1      -0.437   7.852 -27.014  1.00  0.00     0.035 A 
HETATM   37  C   UNL     1      -0.576   8.799 -25.991  1.00  0.00     0.031 A 
HETATM   38  C   UNL     1       0.526   9.205 -25.233  1.00  0.00     0.026 A 
HETATM   39  C   UNL     1       1.781   8.667 -25.498  1.00  0.00     0.034 A 
HETATM   40 CL   UNL     1       3.140   9.173 -24.575  1.00  0.00    -0.084 Cl
HETATM   41  C   UNL     1       1.936   7.717 -26.505  1.00  0.00     0.026 A 
HETATM   42  C   UNL     1       0.828   7.304 -27.254  1.00  0.00     0.031 A 
ENDBRANCH  33  36
ENDBRANCH   5  32
TORSDOF 9
ENDMDL
