MODEL 1
REMARK VINA RESULT:      -7.7      0.000      0.000
REMARK  8 active torsions:
REMARK  status: ('A' for Active; 'I' for Inactive)
REMARK    1  A    between atoms: C_2  and  O_3 
REMARK    2  A    between atoms: O_3  and  C_4 
REMARK       I    between atoms: C_4  and  N_5 
REMARK    3  A    between atoms: C_8  and  N_9 
REMARK       I    between atoms: N_9  and  C_10 
REMARK    4  A    between atoms: C_10  and  C_11 
REMARK    5  A    between atoms: C_12  and  C_13 
REMARK    6  A    between atoms: N_18  and  C_19 
REMARK    7  A    between atoms: C_19  and  C_20 
REMARK    8  A    between atoms: C_20  and  O_21 
ROOT
HETATM    1  C   UNL     1      -7.105   2.917 -33.227  1.00  0.00     0.139 C 
HETATM    2  C   UNL     1      -8.464   3.273 -32.584  1.00  0.00     0.145 C 
HETATM    3  N   UNL     1      -8.389   3.553 -31.144  1.00  0.00    -0.335 N 
HETATM    4  C   UNL     1      -7.455   2.927 -30.320  1.00  0.00     0.255 C 
HETATM    5  O   UNL     1      -7.397   3.105 -29.106  1.00  0.00    -0.267 OA
HETATM    6  C   UNL     1      -6.454   2.029 -30.957  1.00  0.00     0.039 A 
HETATM    7  C   UNL     1      -6.259   2.036 -32.343  1.00  0.00    -0.027 A 
HETATM    8  C   UNL     1      -5.663   1.207 -30.142  1.00  0.00     0.017 A 
HETATM    9  C   UNL     1      -4.681   0.392 -30.705  1.00  0.00     0.001 A 
HETATM   10  C   UNL     1      -4.477   0.403 -32.083  1.00  0.00     0.001 A 
HETATM   11  C   UNL     1      -5.259   1.221 -32.900  1.00  0.00     0.009 A 
ENDROOT
BRANCH   1  12
HETATM   12  C   UNL     1      -6.431   4.225 -33.630  1.00  0.00     0.229 C 
HETATM   13  N   UNL     1      -5.124   4.324 -33.173  1.00  0.00    -0.356 N 
HETATM   14  H   UNL     1      -4.818   3.692 -32.443  1.00  0.00     0.162 HD
HETATM   15  O   UNL     1      -6.951   5.082 -34.335  1.00  0.00    -0.273 OA
BRANCH  13  16
HETATM   16  C   UNL     1      -4.260   5.446 -33.526  1.00  0.00     0.087 C 
HETATM   17  C   UNL     1      -4.085   6.437 -32.374  1.00  0.00     0.045 C 
HETATM   18  C   UNL     1      -3.206   5.881 -31.260  1.00  0.00     0.130 C 
HETATM   19  N   UNL     1      -1.949   5.336 -31.767  1.00  0.00    -0.328 N 
HETATM   20  C   UNL     1      -0.800   5.297 -30.984  1.00  0.00     0.362 C 
HETATM   21  C   UNL     1      -2.033   4.411 -32.887  1.00  0.00     0.130 C 
HETATM   22  O   UNL     1       0.186   4.623 -31.256  1.00  0.00    -0.238 OA
HETATM   23  C   UNL     1      -2.898   4.951 -34.020  1.00  0.00     0.045 C 
BRANCH  20  24
HETATM   24  O   UNL     1      -0.888   6.097 -29.888  1.00  0.00    -0.304 OA
BRANCH  24  25
HETATM   25  C   UNL     1       0.303   6.214 -29.095  1.00  0.00     0.176 C 
HETATM   26  C   UNL     1       0.568   7.667 -28.744  1.00  0.00     0.034 C 
ENDBRANCH  24  25
ENDBRANCH  20  24
ENDBRANCH  13  16
ENDBRANCH   1  12
BRANCH   2  27
HETATM   27  C   UNL     1      -9.488   2.182 -32.859  1.00  0.00     0.006 A 
HETATM   28  S   UNL     1     -10.948   2.597 -33.674  1.00  0.00    -0.104 SA
HETATM   29  C   UNL     1     -11.507   0.984 -33.642  1.00  0.00     0.050 A 
HETATM   30  C   UNL     1     -10.618   0.142 -33.013  1.00  0.00     0.008 A 
HETATM   31  C   UNL     1      -9.456   0.832 -32.561  1.00  0.00     0.017 A 
ENDBRANCH   2  27
BRANCH   3  32
HETATM   32  C   UNL     1      -9.149   4.679 -30.576  1.00  0.00     0.153 C 
BRANCH  32  33
HETATM   33  C   UNL     1      -8.851   6.079 -31.125  1.00  0.00     0.187 C 
BRANCH  33  34
HETATM   34  O   UNL     1      -7.451   6.344 -31.087  1.00  0.00    -0.394 OA
HETATM   35  C   UNL     1      -7.014   6.665 -29.774  1.00  0.00     0.201 C 
ENDBRANCH  33  34
ENDBRANCH  32  33
ENDBRANCH   3  32
TORSDOF 8
ENDMDL
MODEL 2
REMARK VINA RESULT:      -7.6      2.554      7.144
REMARK  8 active torsions:
REMARK  status: ('A' for Active; 'I' for Inactive)
REMARK    1  A    between atoms: C_2  and  O_3 
REMARK    2  A    between atoms: O_3  and  C_4 
REMARK       I    between atoms: C_4  and  N_5 
REMARK    3  A    between atoms: C_8  and  N_9 
REMARK       I    between atoms: N_9  and  C_10 
REMARK    4  A    between atoms: C_10  and  C_11 
REMARK    5  A    between atoms: C_12  and  C_13 
REMARK    6  A    between atoms: N_18  and  C_19 
REMARK    7  A    between atoms: C_19  and  C_20 
REMARK    8  A    between atoms: C_20  and  O_21 
ROOT
HETATM    1  C   UNL     1      -3.857   4.664 -31.119  1.00  0.00     0.139 C 
HETATM    2  C   UNL     1      -5.161   4.990 -31.880  1.00  0.00     0.145 C 
HETATM    3  N   UNL     1      -4.987   5.133 -33.332  1.00  0.00    -0.335 N 
HETATM    4  C   UNL     1      -3.803   5.618 -33.886  1.00  0.00     0.255 C 
HETATM    5  O   UNL     1      -3.642   5.792 -35.092  1.00  0.00    -0.267 OA
HETATM    6  C   UNL     1      -2.666   5.899 -32.969  1.00  0.00     0.039 A 
HETATM    7  C   UNL     1      -2.669   5.424 -31.652  1.00  0.00    -0.027 A 
HETATM    8  C   UNL     1      -1.557   6.605 -33.456  1.00  0.00     0.017 A 
HETATM    9  C   UNL     1      -0.454   6.840 -32.636  1.00  0.00     0.001 A 
HETATM   10  C   UNL     1      -0.449   6.361 -31.328  1.00  0.00     0.001 A 
HETATM   11  C   UNL     1      -1.548   5.654 -30.837  1.00  0.00     0.009 A 
ENDROOT
BRANCH   1  12
HETATM   12  C   UNL     1      -3.683   3.148 -31.135  1.00  0.00     0.229 C 
HETATM   13  N   UNL     1      -4.890   2.464 -31.076  1.00  0.00    -0.356 N 
HETATM   14  H   UNL     1      -5.719   2.968 -30.787  1.00  0.00     0.162 HD
HETATM   15  O   UNL     1      -2.605   2.577 -31.249  1.00  0.00    -0.273 OA
BRANCH  13  16
HETATM   16  C   UNL     1      -4.964   1.009 -31.180  1.00  0.00     0.087 C 
HETATM   17  C   UNL     1      -6.249   0.444 -30.569  1.00  0.00     0.045 C 
HETATM   18  C   UNL     1      -7.476   0.745 -31.422  1.00  0.00     0.130 C 
HETATM   19  N   UNL     1      -7.279   0.385 -32.823  1.00  0.00    -0.328 N 
HETATM   20  C   UNL     1      -8.345   0.035 -33.645  1.00  0.00     0.362 C 
HETATM   21  C   UNL     1      -6.061   0.859 -33.463  1.00  0.00     0.130 C 
HETATM   22  O   UNL     1      -8.274  -0.013 -34.868  1.00  0.00    -0.238 OA
HETATM   23  C   UNL     1      -4.818   0.558 -32.634  1.00  0.00     0.045 C 
BRANCH  20  24
HETATM   24  O   UNL     1      -9.472  -0.255 -32.943  1.00  0.00    -0.304 OA
BRANCH  24  25
HETATM   25  C   UNL     1     -10.663   0.437 -33.348  1.00  0.00     0.176 C 
HETATM   26  C   UNL     1     -10.539   1.923 -33.064  1.00  0.00     0.034 C 
ENDBRANCH  24  25
ENDBRANCH  20  24
ENDBRANCH  13  16
ENDBRANCH   1  12
BRANCH   2  27
HETATM   27  C   UNL     1      -5.821   6.233 -31.301  1.00  0.00     0.006 A 
HETATM   28  S   UNL     1      -6.132   6.297 -29.608  1.00  0.00    -0.104 SA
HETATM   29  C   UNL     1      -6.790   7.869 -29.717  1.00  0.00     0.050 A 
HETATM   30  C   UNL     1      -6.793   8.338 -31.011  1.00  0.00     0.008 A 
HETATM   31  C   UNL     1      -6.236   7.396 -31.924  1.00  0.00     0.017 A 
ENDBRANCH   2  27
BRANCH   3  32
HETATM   32  C   UNL     1      -5.976   4.547 -34.250  1.00  0.00     0.153 C 
BRANCH  32  33
HETATM   33  C   UNL     1      -7.404   4.361 -33.724  1.00  0.00     0.187 C 
BRANCH  33  34
HETATM   34  O   UNL     1      -8.290   5.294 -34.340  1.00  0.00    -0.394 OA
HETATM   35  C   UNL     1      -9.278   5.758 -33.430  1.00  0.00     0.201 C 
ENDBRANCH  33  34
ENDBRANCH  32  33
ENDBRANCH   3  32
TORSDOF 8
ENDMDL
MODEL 3
REMARK VINA RESULT:      -7.4      1.906      2.426
REMARK  8 active torsions:
REMARK  status: ('A' for Active; 'I' for Inactive)
REMARK    1  A    between atoms: C_2  and  O_3 
REMARK    2  A    between atoms: O_3  and  C_4 
REMARK       I    between atoms: C_4  and  N_5 
REMARK    3  A    between atoms: C_8  and  N_9 
REMARK       I    between atoms: N_9  and  C_10 
REMARK    4  A    between atoms: C_10  and  C_11 
REMARK    5  A    between atoms: C_12  and  C_13 
REMARK    6  A    between atoms: N_18  and  C_19 
REMARK    7  A    between atoms: C_19  and  C_20 
REMARK    8  A    between atoms: C_20  and  O_21 
ROOT
HETATM    1  C   UNL     1      -6.643   3.697 -33.386  1.00  0.00     0.139 C 
HETATM    2  C   UNL     1      -6.769   4.107 -31.902  1.00  0.00     0.145 C 
HETATM    3  N   UNL     1      -5.908   3.336 -30.993  1.00  0.00    -0.335 N 
HETATM    4  C   UNL     1      -5.576   2.006 -31.247  1.00  0.00     0.255 C 
HETATM    5  O   UNL     1      -4.898   1.321 -30.485  1.00  0.00    -0.267 OA
HETATM    6  C   UNL     1      -6.036   1.403 -32.528  1.00  0.00     0.039 A 
HETATM    7  C   UNL     1      -6.522   2.205 -33.567  1.00  0.00    -0.027 A 
HETATM    8  C   UNL     1      -5.927   0.017 -32.704  1.00  0.00     0.017 A 
HETATM    9  C   UNL     1      -6.302  -0.572 -33.912  1.00  0.00     0.001 A 
HETATM   10  C   UNL     1      -6.777   0.223 -34.952  1.00  0.00     0.001 A 
HETATM   11  C   UNL     1      -6.885   1.605 -34.784  1.00  0.00     0.009 A 
ENDROOT
BRANCH   1  12
HETATM   12  C   UNL     1      -5.487   4.492 -33.986  1.00  0.00     0.229 C 
HETATM   13  N   UNL     1      -4.803   5.248 -33.044  1.00  0.00    -0.356 N 
HETATM   14  H   UNL     1      -5.240   5.413 -32.145  1.00  0.00     0.162 HD
HETATM   15  O   UNL     1      -5.144   4.433 -35.161  1.00  0.00    -0.273 OA
BRANCH  13  16
HETATM   16  C   UNL     1      -3.601   6.007 -33.379  1.00  0.00     0.087 C 
HETATM   17  C   UNL     1      -3.294   7.099 -32.353  1.00  0.00     0.045 C 
HETATM   18  C   UNL     1      -2.780   6.529 -31.036  1.00  0.00     0.130 C 
HETATM   19  N   UNL     1      -1.689   5.578 -31.232  1.00  0.00    -0.328 N 
HETATM   20  C   UNL     1      -0.722   5.364 -30.257  1.00  0.00     0.362 C 
HETATM   21  C   UNL     1      -1.897   4.528 -32.219  1.00  0.00     0.130 C 
HETATM   22  O   UNL     1       0.043   4.406 -30.256  1.00  0.00    -0.238 OA
HETATM   23  C   UNL     1      -2.399   5.076 -33.549  1.00  0.00     0.045 C 
BRANCH  20  24
HETATM   24  O   UNL     1      -0.711   6.338 -29.309  1.00  0.00    -0.304 OA
BRANCH  24  25
HETATM   25  C   UNL     1       0.344   6.264 -28.339  1.00  0.00     0.176 C 
HETATM   26  C   UNL     1      -0.228   6.200 -26.934  1.00  0.00     0.034 C 
ENDBRANCH  24  25
ENDBRANCH  20  24
ENDBRANCH  13  16
ENDBRANCH   1  12
BRANCH   2  27
HETATM   27  C   UNL     1      -8.218   4.033 -31.448  1.00  0.00     0.006 A 
HETATM   28  S   UNL     1      -9.354   5.148 -32.108  1.00  0.00    -0.104 SA
HETATM   29  C   UNL     1     -10.643   4.470 -31.217  1.00  0.00     0.050 A 
HETATM   30  C   UNL     1     -10.228   3.429 -30.419  1.00  0.00     0.008 A 
HETATM   31  C   UNL     1      -8.831   3.178 -30.551  1.00  0.00     0.017 A 
ENDBRANCH   2  27
BRANCH   3  32
HETATM   32  C   UNL     1      -5.185   4.022 -29.910  1.00  0.00     0.153 C 
BRANCH  32  33
HETATM   33  C   UNL     1      -5.782   5.332 -29.383  1.00  0.00     0.187 C 
BRANCH  33  34
HETATM   34  O   UNL     1      -6.753   5.068 -28.373  1.00  0.00    -0.394 OA
HETATM   35  C   UNL     1      -7.761   6.069 -28.340  1.00  0.00     0.201 C 
ENDBRANCH  33  34
ENDBRANCH  32  33
ENDBRANCH   3  32
TORSDOF 8
ENDMDL
MODEL 4
REMARK VINA RESULT:      -7.3      2.141      4.363
REMARK  8 active torsions:
REMARK  status: ('A' for Active; 'I' for Inactive)
REMARK    1  A    between atoms: C_2  and  O_3 
REMARK    2  A    between atoms: O_3  and  C_4 
REMARK       I    between atoms: C_4  and  N_5 
REMARK    3  A    between atoms: C_8  and  N_9 
REMARK       I    between atoms: N_9  and  C_10 
REMARK    4  A    between atoms: C_10  and  C_11 
REMARK    5  A    between atoms: C_12  and  C_13 
REMARK    6  A    between atoms: N_18  and  C_19 
REMARK    7  A    between atoms: C_19  and  C_20 
REMARK    8  A    between atoms: C_20  and  O_21 
ROOT
HETATM    1  C   UNL     1      -6.671   5.371 -32.762  1.00  0.00     0.139 C 
HETATM    2  C   UNL     1      -6.224   4.891 -31.363  1.00  0.00     0.145 C 
HETATM    3  N   UNL     1      -6.378   3.445 -31.149  1.00  0.00    -0.335 N 
HETATM    4  C   UNL     1      -7.394   2.714 -31.764  1.00  0.00     0.255 C 
HETATM    5  O   UNL     1      -7.576   1.515 -31.571  1.00  0.00    -0.267 OA
HETATM    6  C   UNL     1      -8.272   3.421 -32.735  1.00  0.00     0.039 A 
HETATM    7  C   UNL     1      -7.923   4.679 -33.240  1.00  0.00    -0.027 A 
HETATM    8  C   UNL     1      -9.438   2.785 -33.184  1.00  0.00     0.017 A 
HETATM    9  C   UNL     1     -10.256   3.400 -34.132  1.00  0.00     0.001 A 
HETATM   10  C   UNL     1      -9.907   4.647 -34.643  1.00  0.00     0.001 A 
HETATM   11  C   UNL     1      -8.746   5.285 -34.203  1.00  0.00     0.009 A 
ENDROOT
BRANCH   1  12
HETATM   12  C   UNL     1      -5.479   5.218 -33.702  1.00  0.00     0.229 C 
HETATM   13  N   UNL     1      -4.363   5.928 -33.282  1.00  0.00    -0.356 N 
HETATM   14  H   UNL     1      -4.484   6.649 -32.580  1.00  0.00     0.162 HD
HETATM   15  O   UNL     1      -5.470   4.499 -34.694  1.00  0.00    -0.273 OA
BRANCH  13  16
HETATM   16  C   UNL     1      -3.082   5.845 -33.976  1.00  0.00     0.087 C 
HETATM   17  C   UNL     1      -2.194   7.064 -33.715  1.00  0.00     0.045 C 
HETATM   18  C   UNL     1      -1.627   7.075 -32.300  1.00  0.00     0.130 C 
HETATM   19  N   UNL     1      -1.005   5.803 -31.943  1.00  0.00    -0.328 N 
HETATM   20  C   UNL     1       0.022   5.728 -31.008  1.00  0.00     0.362 C 
HETATM   21  C   UNL     1      -1.778   4.596 -32.195  1.00  0.00     0.130 C 
HETATM   22  O   UNL     1       0.389   4.684 -30.483  1.00  0.00    -0.238 OA
HETATM   23  C   UNL     1      -2.345   4.556 -33.609  1.00  0.00     0.045 C 
BRANCH  20  24
HETATM   24  O   UNL     1       0.580   6.940 -30.748  1.00  0.00    -0.304 OA
BRANCH  24  25
HETATM   25  C   UNL     1       0.657   7.315 -29.365  1.00  0.00     0.176 C 
HETATM   26  C   UNL     1      -0.626   7.998 -28.926  1.00  0.00     0.034 C 
ENDBRANCH  24  25
ENDBRANCH  20  24
ENDBRANCH  13  16
ENDBRANCH   1  12
BRANCH   2  27
HETATM   27  C   UNL     1      -6.950   5.666 -30.274  1.00  0.00     0.006 A 
HETATM   28  S   UNL     1      -7.162   7.366 -30.465  1.00  0.00    -0.104 SA
HETATM   29  C   UNL     1      -8.013   7.496 -28.990  1.00  0.00     0.050 A 
HETATM   30  C   UNL     1      -8.125   6.283 -28.350  1.00  0.00     0.008 A 
HETATM   31  C   UNL     1      -7.512   5.229 -29.089  1.00  0.00     0.017 A 
ENDBRANCH   2  27
BRANCH   3  32
HETATM   32  C   UNL     1      -5.318   2.689 -30.462  1.00  0.00     0.153 C 
BRANCH  32  33
HETATM   33  C   UNL     1      -4.193   2.107 -31.326  1.00  0.00     0.187 C 
BRANCH  33  34
HETATM   34  O   UNL     1      -4.301   0.687 -31.397  1.00  0.00    -0.394 OA
HETATM   35  C   UNL     1      -4.423   0.237 -32.739  1.00  0.00     0.201 C 
ENDBRANCH  33  34
ENDBRANCH  32  33
ENDBRANCH   3  32
TORSDOF 8
ENDMDL
MODEL 5
REMARK VINA RESULT:      -7.2      3.551      8.333
REMARK  8 active torsions:
REMARK  status: ('A' for Active; 'I' for Inactive)
REMARK    1  A    between atoms: C_2  and  O_3 
REMARK    2  A    between atoms: O_3  and  C_4 
REMARK       I    between atoms: C_4  and  N_5 
REMARK    3  A    between atoms: C_8  and  N_9 
REMARK       I    between atoms: N_9  and  C_10 
REMARK    4  A    between atoms: C_10  and  C_11 
REMARK    5  A    between atoms: C_12  and  C_13 
REMARK    6  A    between atoms: N_18  and  C_19 
REMARK    7  A    between atoms: C_19  and  C_20 
REMARK    8  A    between atoms: C_20  and  O_21 
ROOT
HETATM    1  C   UNL     1      -2.977   6.108 -29.995  1.00  0.00     0.139 C 
HETATM    2  C   UNL     1      -2.717   7.301 -29.047  1.00  0.00     0.145 C 
HETATM    3  N   UNL     1      -2.738   8.610 -29.714  1.00  0.00    -0.335 N 
HETATM    4  C   UNL     1      -2.334   8.767 -31.039  1.00  0.00     0.255 C 
HETATM    5  O   UNL     1      -2.296   9.854 -31.610  1.00  0.00    -0.267 OA
HETATM    6  C   UNL     1      -1.969   7.546 -31.808  1.00  0.00     0.039 A 
HETATM    7  C   UNL     1      -2.297   6.271 -31.331  1.00  0.00    -0.027 A 
HETATM    8  C   UNL     1      -1.337   7.688 -33.050  1.00  0.00     0.017 A 
HETATM    9  C   UNL     1      -1.029   6.565 -33.818  1.00  0.00     0.001 A 
HETATM   10  C   UNL     1      -1.362   5.295 -33.352  1.00  0.00     0.001 A 
HETATM   11  C   UNL     1      -1.994   5.146 -32.117  1.00  0.00     0.009 A 
ENDROOT
BRANCH   1  12
HETATM   12  C   UNL     1      -4.487   5.914 -30.086  1.00  0.00     0.229 C 
HETATM   13  N   UNL     1      -4.847   4.791 -30.818  1.00  0.00    -0.356 N 
HETATM   14  H   UNL     1      -4.150   4.359 -31.414  1.00  0.00     0.162 HD
HETATM   15  O   UNL     1      -5.311   6.628 -29.525  1.00  0.00    -0.273 OA
BRANCH  13  16
HETATM   16  C   UNL     1      -6.235   4.359 -30.949  1.00  0.00     0.087 C 
HETATM   17  C   UNL     1      -6.587   3.946 -32.379  1.00  0.00     0.045 C 
HETATM   18  C   UNL     1      -5.951   2.617 -32.772  1.00  0.00     0.130 C 
HETATM   19  N   UNL     1      -6.191   1.574 -31.779  1.00  0.00    -0.328 N 
HETATM   20  C   UNL     1      -6.224   0.227 -32.127  1.00  0.00     0.362 C 
HETATM   21  C   UNL     1      -5.910   1.905 -30.391  1.00  0.00     0.130 C 
HETATM   22  O   UNL     1      -6.154  -0.687 -31.314  1.00  0.00    -0.238 OA
HETATM   23  C   UNL     1      -6.547   3.224 -29.970  1.00  0.00     0.045 C 
BRANCH  20  24
HETATM   24  O   UNL     1      -6.351   0.037 -33.467  1.00  0.00    -0.304 OA
BRANCH  24  25
HETATM   25  C   UNL     1      -5.707  -1.128 -34.003  1.00  0.00     0.176 C 
HETATM   26  C   UNL     1      -6.736  -2.109 -34.534  1.00  0.00     0.034 C 
ENDBRANCH  24  25
ENDBRANCH  20  24
ENDBRANCH  13  16
ENDBRANCH   1  12
BRANCH   2  27
HETATM   27  C   UNL     1      -1.410   7.111 -28.294  1.00  0.00     0.006 A 
HETATM   28  S   UNL     1      -1.458   6.897 -26.585  1.00  0.00    -0.104 SA
HETATM   29  C   UNL     1       0.239   6.729 -26.488  1.00  0.00     0.050 A 
HETATM   30  C   UNL     1       0.840   6.848 -27.720  1.00  0.00     0.008 A 
HETATM   31  C   UNL     1      -0.108   7.069 -28.761  1.00  0.00     0.017 A 
ENDBRANCH   2  27
BRANCH   3  32
HETATM   32  C   UNL     1      -3.408   9.751 -29.069  1.00  0.00     0.153 C 
BRANCH  32  33
HETATM   33  C   UNL     1      -2.689  10.416 -27.890  1.00  0.00     0.187 C 
BRANCH  33  34
HETATM   34  O   UNL     1      -1.298  10.560 -28.169  1.00  0.00    -0.394 OA
HETATM   35  C   UNL     1      -0.525  10.599 -26.977  1.00  0.00     0.201 C 
ENDBRANCH  33  34
ENDBRANCH  32  33
ENDBRANCH   3  32
TORSDOF 8
ENDMDL
MODEL 6
REMARK VINA RESULT:      -7.1      3.633      7.267
REMARK  8 active torsions:
REMARK  status: ('A' for Active; 'I' for Inactive)
REMARK    1  A    between atoms: C_2  and  O_3 
REMARK    2  A    between atoms: O_3  and  C_4 
REMARK       I    between atoms: C_4  and  N_5 
REMARK    3  A    between atoms: C_8  and  N_9 
REMARK       I    between atoms: N_9  and  C_10 
REMARK    4  A    between atoms: C_10  and  C_11 
REMARK    5  A    between atoms: C_12  and  C_13 
REMARK    6  A    between atoms: N_18  and  C_19 
REMARK    7  A    between atoms: C_19  and  C_20 
REMARK    8  A    between atoms: C_20  and  O_21 
ROOT
HETATM    1  C   UNL     1      -7.408   3.991 -33.538  1.00  0.00     0.139 C 
HETATM    2  C   UNL     1      -6.113   4.068 -32.698  1.00  0.00     0.145 C 
HETATM    3  N   UNL     1      -6.295   4.676 -31.373  1.00  0.00    -0.335 N 
HETATM    4  C   UNL     1      -7.247   5.670 -31.144  1.00  0.00     0.255 C 
HETATM    5  O   UNL     1      -7.392   6.230 -30.060  1.00  0.00    -0.267 OA
HETATM    6  C   UNL     1      -8.156   6.036 -32.262  1.00  0.00     0.039 A 
HETATM    7  C   UNL     1      -8.263   5.226 -33.399  1.00  0.00    -0.027 A 
HETATM    8  C   UNL     1      -8.954   7.183 -32.142  1.00  0.00     0.017 A 
HETATM    9  C   UNL     1      -9.854   7.525 -33.151  1.00  0.00     0.001 A 
HETATM   10  C   UNL     1      -9.969   6.717 -34.280  1.00  0.00     0.001 A 
HETATM   11  C   UNL     1      -9.181   5.572 -34.405  1.00  0.00     0.009 A 
ENDROOT
BRANCH   1  12
HETATM   12  C   UNL     1      -8.123   2.697 -33.164  1.00  0.00     0.229 C 
HETATM   13  N   UNL     1      -7.303   1.580 -33.252  1.00  0.00    -0.356 N 
HETATM   14  H   UNL     1      -6.434   1.657 -33.767  1.00  0.00     0.162 HD
HETATM   15  O   UNL     1      -9.280   2.636 -32.765  1.00  0.00    -0.273 OA
BRANCH  13  16
HETATM   16  C   UNL     1      -7.751   0.252 -32.845  1.00  0.00     0.087 C 
HETATM   17  C   UNL     1      -7.832  -0.725 -34.020  1.00  0.00     0.045 C 
HETATM   18  C   UNL     1      -6.455  -1.148 -34.518  1.00  0.00     0.130 C 
HETATM   19  N   UNL     1      -5.589  -1.600 -33.432  1.00  0.00    -0.328 N 
HETATM   20  C   UNL     1      -4.566  -2.518 -33.646  1.00  0.00     0.362 C 
HETATM   21  C   UNL     1      -5.488  -0.738 -32.264  1.00  0.00     0.130 C 
HETATM   22  O   UNL     1      -3.659  -2.724 -32.848  1.00  0.00    -0.238 OA
HETATM   23  C   UNL     1      -6.855  -0.311 -31.740  1.00  0.00     0.045 C 
BRANCH  20  24
HETATM   24  O   UNL     1      -4.688  -3.167 -34.834  1.00  0.00    -0.304 OA
BRANCH  24  25
HETATM   25  C   UNL     1      -5.155  -4.523 -34.766  1.00  0.00     0.176 C 
HETATM   26  C   UNL     1      -6.562  -4.630 -35.327  1.00  0.00     0.034 C 
ENDBRANCH  24  25
ENDBRANCH  20  24
ENDBRANCH  13  16
ENDBRANCH   1  12
BRANCH   2  27
HETATM   27  C   UNL     1      -5.019   4.791 -33.467  1.00  0.00     0.006 A 
HETATM   28  S   UNL     1      -4.037   5.938 -32.635  1.00  0.00    -0.104 SA
HETATM   29  C   UNL     1      -3.110   6.262 -34.033  1.00  0.00     0.050 A 
HETATM   30  C   UNL     1      -3.540   5.532 -35.117  1.00  0.00     0.008 A 
HETATM   31  C   UNL     1      -4.640   4.686 -34.793  1.00  0.00     0.017 A 
ENDBRANCH   2  27
BRANCH   3  32
HETATM   32  C   UNL     1      -5.634   4.086 -30.198  1.00  0.00     0.153 C 
BRANCH  32  33
HETATM   33  C   UNL     1      -4.994   2.703 -30.369  1.00  0.00     0.187 C 
BRANCH  33  34
HETATM   34  O   UNL     1      -3.646   2.827 -30.815  1.00  0.00    -0.394 OA
HETATM   35  C   UNL     1      -3.343   1.890 -31.840  1.00  0.00     0.201 C 
ENDBRANCH  33  34
ENDBRANCH  32  33
ENDBRANCH   3  32
TORSDOF 8
ENDMDL
MODEL 7
REMARK VINA RESULT:      -7.1      3.036      8.122
REMARK  8 active torsions:
REMARK  status: ('A' for Active; 'I' for Inactive)
REMARK    1  A    between atoms: C_2  and  O_3 
REMARK    2  A    between atoms: O_3  and  C_4 
REMARK       I    between atoms: C_4  and  N_5 
REMARK    3  A    between atoms: C_8  and  N_9 
REMARK       I    between atoms: N_9  and  C_10 
REMARK    4  A    between atoms: C_10  and  C_11 
REMARK    5  A    between atoms: C_12  and  C_13 
REMARK    6  A    between atoms: N_18  and  C_19 
REMARK    7  A    between atoms: C_19  and  C_20 
REMARK    8  A    between atoms: C_20  and  O_21 
ROOT
HETATM    1  C   UNL     1      -6.427   3.791 -31.824  1.00  0.00     0.139 C 
HETATM    2  C   UNL     1      -5.493   5.022 -31.817  1.00  0.00     0.145 C 
HETATM    3  N   UNL     1      -4.159   4.764 -32.376  1.00  0.00    -0.335 N 
HETATM    4  C   UNL     1      -3.546   3.516 -32.271  1.00  0.00     0.255 C 
HETATM    5  O   UNL     1      -2.414   3.281 -32.687  1.00  0.00    -0.267 OA
HETATM    6  C   UNL     1      -4.325   2.405 -31.659  1.00  0.00     0.039 A 
HETATM    7  C   UNL     1      -5.707   2.515 -31.467  1.00  0.00    -0.027 A 
HETATM    8  C   UNL     1      -3.663   1.216 -31.324  1.00  0.00     0.017 A 
HETATM    9  C   UNL     1      -4.374   0.138 -30.796  1.00  0.00     0.001 A 
HETATM   10  C   UNL     1      -5.751   0.240 -30.612  1.00  0.00     0.001 A 
HETATM   11  C   UNL     1      -6.417   1.420 -30.946  1.00  0.00     0.009 A 
ENDROOT
BRANCH   1  12
HETATM   12  C   UNL     1      -7.125   3.752 -33.180  1.00  0.00     0.229 C 
HETATM   13  N   UNL     1      -8.386   3.175 -33.125  1.00  0.00    -0.356 N 
HETATM   14  H   UNL     1      -8.632   2.628 -32.309  1.00  0.00     0.162 HD
HETATM   15  O   UNL     1      -6.662   4.230 -34.209  1.00  0.00    -0.273 OA
BRANCH  13  16
HETATM   16  C   UNL     1      -9.270   3.125 -34.285  1.00  0.00     0.087 C 
HETATM   17  C   UNL     1     -10.083   1.830 -34.347  1.00  0.00     0.045 C 
HETATM   18  C   UNL     1     -11.178   1.782 -33.288  1.00  0.00     0.130 C 
HETATM   19  N   UNL     1     -11.995   2.993 -33.282  1.00  0.00    -0.328 N 
HETATM   20  C   UNL     1     -13.318   2.980 -32.854  1.00  0.00     0.362 C 
HETATM   21  C   UNL     1     -11.290   4.265 -33.258  1.00  0.00     0.130 C 
HETATM   22  O   UNL     1     -13.954   3.990 -32.578  1.00  0.00    -0.238 OA
HETATM   23  C   UNL     1     -10.197   4.342 -34.317  1.00  0.00     0.045 C 
BRANCH  20  24
HETATM   24  O   UNL     1     -13.831   1.723 -32.782  1.00  0.00    -0.304 OA
BRANCH  24  25
HETATM   25  C   UNL     1     -15.188   1.569 -33.225  1.00  0.00     0.176 C 
HETATM   26  C   UNL     1     -15.256   0.634 -34.419  1.00  0.00     0.034 C 
ENDBRANCH  24  25
ENDBRANCH  20  24
ENDBRANCH  13  16
ENDBRANCH   1  12
BRANCH   2  27
HETATM   27  C   UNL     1      -5.377   5.597 -30.413  1.00  0.00     0.006 A 
HETATM   28  S   UNL     1      -6.649   5.304 -29.287  1.00  0.00    -0.104 SA
HETATM   29  C   UNL     1      -5.843   6.160 -28.049  1.00  0.00     0.050 A 
HETATM   30  C   UNL     1      -4.641   6.676 -28.476  1.00  0.00     0.008 A 
HETATM   31  C   UNL     1      -4.373   6.352 -29.838  1.00  0.00     0.017 A 
ENDBRANCH   2  27
BRANCH   3  32
HETATM   32  C   UNL     1      -3.533   5.755 -33.266  1.00  0.00     0.153 C 
BRANCH  32  33
HETATM   33  C   UNL     1      -3.580   5.478 -34.773  1.00  0.00     0.187 C 
BRANCH  33  34
HETATM   34  O   UNL     1      -2.279   5.161 -35.264  1.00  0.00    -0.394 OA
HETATM   35  C   UNL     1      -1.268   5.885 -34.575  1.00  0.00     0.201 C 
ENDBRANCH  33  34
ENDBRANCH  32  33
ENDBRANCH   3  32
TORSDOF 8
ENDMDL
MODEL 8
REMARK VINA RESULT:      -7.0      3.292      6.152
REMARK  8 active torsions:
REMARK  status: ('A' for Active; 'I' for Inactive)
REMARK    1  A    between atoms: C_2  and  O_3 
REMARK    2  A    between atoms: O_3  and  C_4 
REMARK       I    between atoms: C_4  and  N_5 
REMARK    3  A    between atoms: C_8  and  N_9 
REMARK       I    between atoms: N_9  and  C_10 
REMARK    4  A    between atoms: C_10  and  C_11 
REMARK    5  A    between atoms: C_12  and  C_13 
REMARK    6  A    between atoms: N_18  and  C_19 
REMARK    7  A    between atoms: C_19  and  C_20 
REMARK    8  A    between atoms: C_20  and  O_21 
ROOT
HETATM    1  C   UNL     1     -11.653   2.373 -33.934  1.00  0.00     0.139 C 
HETATM    2  C   UNL     1     -11.041   3.671 -33.361  1.00  0.00     0.145 C 
HETATM    3  N   UNL     1     -11.447   3.964 -31.980  1.00  0.00    -0.335 N 
HETATM    4  C   UNL     1     -12.698   3.593 -31.486  1.00  0.00     0.255 C 
HETATM    5  O   UNL     1     -13.084   3.864 -30.352  1.00  0.00    -0.267 OA
HETATM    6  C   UNL     1     -13.588   2.793 -32.370  1.00  0.00     0.039 A 
HETATM    7  C   UNL     1     -13.092   2.182 -33.528  1.00  0.00    -0.027 A 
HETATM    8  C   UNL     1     -14.927   2.611 -32.000  1.00  0.00     0.017 A 
HETATM    9  C   UNL     1     -15.774   1.824 -32.781  1.00  0.00     0.001 A 
HETATM   10  C   UNL     1     -15.283   1.207 -33.929  1.00  0.00     0.001 A 
HETATM   11  C   UNL     1     -13.949   1.381 -34.302  1.00  0.00     0.009 A 
ENDROOT
BRANCH   1  12
HETATM   12  C   UNL     1     -10.737   1.219 -33.538  1.00  0.00     0.229 C 
HETATM   13  N   UNL     1      -9.390   1.547 -33.610  1.00  0.00    -0.356 N 
HETATM   14  H   UNL     1      -9.120   2.374 -34.128  1.00  0.00     0.162 HD
HETATM   15  O   UNL     1     -11.131   0.131 -33.135  1.00  0.00    -0.273 OA
BRANCH  13  16
HETATM   16  C   UNL     1      -8.341   0.626 -33.180  1.00  0.00     0.087 C 
HETATM   17  C   UNL     1      -7.060   0.773 -34.003  1.00  0.00     0.045 C 
HETATM   18  C   UNL     1      -6.308   2.059 -33.681  1.00  0.00     0.130 C 
HETATM   19  N   UNL     1      -6.113   2.241 -32.245  1.00  0.00    -0.328 N 
HETATM   20  C   UNL     1      -5.041   2.968 -31.739  1.00  0.00     0.362 C 
HETATM   21  C   UNL     1      -7.283   2.084 -31.393  1.00  0.00     0.130 C 
HETATM   22  O   UNL     1      -4.977   3.372 -30.584  1.00  0.00    -0.238 OA
HETATM   23  C   UNL     1      -8.044   0.797 -31.689  1.00  0.00     0.045 C 
BRANCH  20  24
HETATM   24  O   UNL     1      -4.067   3.174 -32.665  1.00  0.00    -0.304 OA
BRANCH  24  25
HETATM   25  C   UNL     1      -3.460   4.474 -32.663  1.00  0.00     0.176 C 
HETATM   26  C   UNL     1      -2.208   4.479 -33.522  1.00  0.00     0.034 C 
ENDBRANCH  24  25
ENDBRANCH  20  24
ENDBRANCH  13  16
ENDBRANCH   1  12
BRANCH   2  27
HETATM   27  C   UNL     1     -11.350   4.853 -34.266  1.00  0.00     0.006 A 
HETATM   28  S   UNL     1     -10.050   5.842 -34.817  1.00  0.00    -0.104 SA
HETATM   29  C   UNL     1     -11.099   6.837 -35.724  1.00  0.00     0.050 A 
HETATM   30  C   UNL     1     -12.413   6.446 -35.605  1.00  0.00     0.008 A 
HETATM   31  C   UNL     1     -12.559   5.304 -34.765  1.00  0.00     0.017 A 
ENDBRANCH   2  27
BRANCH   3  32
HETATM   32  C   UNL     1     -10.453   4.453 -31.011  1.00  0.00     0.153 C 
BRANCH  32  33
HETATM   33  C   UNL     1     -10.150   5.956 -31.008  1.00  0.00     0.187 C 
BRANCH  33  34
HETATM   34  O   UNL     1     -11.336   6.705 -31.263  1.00  0.00    -0.394 OA
HETATM   35  C   UNL     1     -11.901   7.217 -30.064  1.00  0.00     0.201 C 
ENDBRANCH  33  34
ENDBRANCH  32  33
ENDBRANCH   3  32
TORSDOF 8
ENDMDL
MODEL 9
REMARK VINA RESULT:      -7.0      3.265      5.608
REMARK  8 active torsions:
REMARK  status: ('A' for Active; 'I' for Inactive)
REMARK    1  A    between atoms: C_2  and  O_3 
REMARK    2  A    between atoms: O_3  and  C_4 
REMARK       I    between atoms: C_4  and  N_5 
REMARK    3  A    between atoms: C_8  and  N_9 
REMARK       I    between atoms: N_9  and  C_10 
REMARK    4  A    between atoms: C_10  and  C_11 
REMARK    5  A    between atoms: C_12  and  C_13 
REMARK    6  A    between atoms: N_18  and  C_19 
REMARK    7  A    between atoms: C_19  and  C_20 
REMARK    8  A    between atoms: C_20  and  O_21 
ROOT
HETATM    1  C   UNL     1      -4.578   3.276 -31.280  1.00  0.00     0.139 C 
HETATM    2  C   UNL     1      -4.953   4.262 -32.409  1.00  0.00     0.145 C 
HETATM    3  N   UNL     1      -6.016   3.776 -33.300  1.00  0.00    -0.335 N 
HETATM    4  C   UNL     1      -6.179   2.419 -33.578  1.00  0.00     0.255 C 
HETATM    5  O   UNL     1      -7.027   1.985 -34.353  1.00  0.00    -0.267 OA
HETATM    6  C   UNL     1      -5.303   1.450 -32.864  1.00  0.00     0.039 A 
HETATM    7  C   UNL     1      -4.555   1.842 -31.748  1.00  0.00    -0.027 A 
HETATM    8  C   UNL     1      -5.277   0.116 -33.292  1.00  0.00     0.017 A 
HETATM    9  C   UNL     1      -4.506  -0.828 -32.613  1.00  0.00     0.001 A 
HETATM   10  C   UNL     1      -3.767  -0.444 -31.496  1.00  0.00     0.001 A 
HETATM   11  C   UNL     1      -3.792   0.883 -31.062  1.00  0.00     0.009 A 
ENDROOT
BRANCH   1  12
HETATM   12  C   UNL     1      -5.523   3.533 -30.111  1.00  0.00     0.229 C 
HETATM   13  N   UNL     1      -5.243   4.714 -29.438  1.00  0.00    -0.356 N 
HETATM   14  H   UNL     1      -4.344   5.157 -29.590  1.00  0.00     0.162 HD
HETATM   15  O   UNL     1      -6.474   2.817 -29.821  1.00  0.00    -0.273 OA
BRANCH  13  16
HETATM   16  C   UNL     1      -6.082   5.207 -28.350  1.00  0.00     0.087 C 
HETATM   17  C   UNL     1      -5.263   5.711 -27.160  1.00  0.00     0.045 C 
HETATM   18  C   UNL     1      -4.563   7.032 -27.456  1.00  0.00     0.130 C 
HETATM   19  N   UNL     1      -5.475   8.029 -28.010  1.00  0.00    -0.328 N 
HETATM   20  C   UNL     1      -5.258   9.393 -27.842  1.00  0.00     0.362 C 
HETATM   21  C   UNL     1      -6.313   7.612 -29.125  1.00  0.00     0.130 C 
HETATM   22  O   UNL     1      -5.827  10.259 -28.496  1.00  0.00    -0.238 OA
HETATM   23  C   UNL     1      -7.033   6.298 -28.847  1.00  0.00     0.045 C 
BRANCH  20  24
HETATM   24  O   UNL     1      -4.351   9.660 -26.864  1.00  0.00    -0.304 OA
BRANCH  24  25
HETATM   25  C   UNL     1      -4.714  10.689 -25.932  1.00  0.00     0.176 C 
HETATM   26  C   UNL     1      -5.663  10.145 -24.880  1.00  0.00     0.034 C 
ENDBRANCH  24  25
ENDBRANCH  20  24
ENDBRANCH  13  16
ENDBRANCH   1  12
BRANCH   2  27
HETATM   27  C   UNL     1      -3.722   4.647 -33.214  1.00  0.00     0.006 A 
HETATM   28  S   UNL     1      -2.190   4.683 -32.425  1.00  0.00    -0.104 SA
HETATM   29  C   UNL     1      -1.382   5.127 -33.863  1.00  0.00     0.050 A 
HETATM   30  C   UNL     1      -2.250   5.264 -34.922  1.00  0.00     0.008 A 
HETATM   31  C   UNL     1      -3.598   4.989 -34.548  1.00  0.00     0.017 A 
ENDBRANCH   2  27
BRANCH   3  32
HETATM   32  C   UNL     1      -7.082   4.691 -33.738  1.00  0.00     0.153 C 
BRANCH  32  33
HETATM   33  C   UNL     1      -7.658   5.654 -32.692  1.00  0.00     0.187 C 
BRANCH  33  34
HETATM   34  O   UNL     1      -8.450   4.945 -31.742  1.00  0.00    -0.394 OA
HETATM   35  C   UNL     1      -9.430   4.134 -32.377  1.00  0.00     0.201 C 
ENDBRANCH  33  34
ENDBRANCH  32  33
ENDBRANCH   3  32
TORSDOF 8
ENDMDL
MODEL 10
REMARK VINA RESULT:      -6.7      2.190      3.374
REMARK  8 active torsions:
REMARK  status: ('A' for Active; 'I' for Inactive)
REMARK    1  A    between atoms: C_2  and  O_3 
REMARK    2  A    between atoms: O_3  and  C_4 
REMARK       I    between atoms: C_4  and  N_5 
REMARK    3  A    between atoms: C_8  and  N_9 
REMARK       I    between atoms: N_9  and  C_10 
REMARK    4  A    between atoms: C_10  and  C_11 
REMARK    5  A    between atoms: C_12  and  C_13 
REMARK    6  A    between atoms: N_18  and  C_19 
REMARK    7  A    between atoms: C_19  and  C_20 
REMARK    8  A    between atoms: C_20  and  O_21 
ROOT
HETATM    1  C   UNL     1      -6.452   4.186 -32.321  1.00  0.00     0.139 C 
HETATM    2  C   UNL     1      -7.617   3.802 -33.261  1.00  0.00     0.145 C 
HETATM    3  N   UNL     1      -8.738   4.752 -33.243  1.00  0.00    -0.335 N 
HETATM    4  C   UNL     1      -9.072   5.474 -32.098  1.00  0.00     0.255 C 
HETATM    5  O   UNL     1     -10.030   6.241 -32.038  1.00  0.00    -0.267 OA
HETATM    6  C   UNL     1      -8.196   5.334 -30.904  1.00  0.00     0.039 A 
HETATM    7  C   UNL     1      -6.930   4.745 -31.004  1.00  0.00    -0.027 A 
HETATM    8  C   UNL     1      -8.632   5.851 -29.676  1.00  0.00     0.017 A 
HETATM    9  C   UNL     1      -7.812   5.782 -28.550  1.00  0.00     0.001 A 
HETATM   10  C   UNL     1      -6.549   5.205 -28.648  1.00  0.00     0.001 A 
HETATM   11  C   UNL     1      -6.106   4.690 -29.868  1.00  0.00     0.009 A 
ENDROOT
BRANCH   1  12
HETATM   12  C   UNL     1      -5.527   5.120 -33.094  1.00  0.00     0.229 C 
HETATM   13  N   UNL     1      -4.400   5.486 -32.372  1.00  0.00    -0.356 N 
HETATM   14  H   UNL     1      -4.396   5.334 -31.370  1.00  0.00     0.162 HD
HETATM   15  O   UNL     1      -5.711   5.470 -34.254  1.00  0.00    -0.273 OA
BRANCH  13  16
HETATM   16  C   UNL     1      -3.332   6.293 -32.954  1.00  0.00     0.087 C 
HETATM   17  C   UNL     1      -2.807   7.356 -31.986  1.00  0.00     0.045 C 
HETATM   18  C   UNL     1      -1.977   6.752 -30.858  1.00  0.00     0.130 C 
HETATM   19  N   UNL     1      -0.947   5.843 -31.353  1.00  0.00    -0.328 N 
HETATM   20  C   UNL     1       0.232   5.622 -30.651  1.00  0.00     0.362 C 
HETATM   21  C   UNL     1      -1.367   4.825 -32.305  1.00  0.00     0.130 C 
HETATM   22  O   UNL     1       0.994   4.689 -30.876  1.00  0.00    -0.238 OA
HETATM   23  C   UNL     1      -2.187   5.407 -33.450  1.00  0.00     0.045 C 
BRANCH  20  24
HETATM   24  O   UNL     1       0.452   6.560 -29.691  1.00  0.00    -0.304 OA
BRANCH  24  25
HETATM   25  C   UNL     1       0.662   6.065 -28.361  1.00  0.00     0.176 C 
HETATM   26  C   UNL     1       1.014   7.201 -27.418  1.00  0.00     0.034 C 
ENDBRANCH  24  25
ENDBRANCH  20  24
ENDBRANCH  13  16
ENDBRANCH   1  12
BRANCH   2  27
HETATM   27  C   UNL     1      -8.111   2.396 -32.954  1.00  0.00     0.006 A 
HETATM   28  S   UNL     1      -7.801   1.139 -34.092  1.00  0.00    -0.104 SA
HETATM   29  C   UNL     1      -8.561  -0.033 -33.110  1.00  0.00     0.050 A 
HETATM   30  C   UNL     1      -9.058   0.511 -31.948  1.00  0.00     0.008 A 
HETATM   31  C   UNL     1      -8.800   1.910 -31.858  1.00  0.00     0.017 A 
ENDBRANCH   2  27
BRANCH   3  32
HETATM   32  C   UNL     1      -9.391   5.138 -34.504  1.00  0.00     0.153 C 
BRANCH  32  33
HETATM   33  C   UNL     1     -10.781   4.556 -34.786  1.00  0.00     0.187 C 
BRANCH  33  34
HETATM   34  O   UNL     1     -10.736   3.131 -34.782  1.00  0.00    -0.394 OA
HETATM   35  C   UNL     1     -11.767   2.576 -33.976  1.00  0.00     0.201 C 
ENDBRANCH  33  34
ENDBRANCH  32  33
ENDBRANCH   3  32
TORSDOF 8
ENDMDL
