MODEL 1
REMARK VINA RESULT:     -10.2      0.000      0.000
REMARK  6 active torsions:
REMARK  status: ('A' for Active; 'I' for Inactive)
REMARK    1  A    between atoms: C_5  and  N_6 
REMARK    2  A    between atoms: C_17  and  N_18 
REMARK    3  A    between atoms: C_17  and  C_29 
REMARK       I    between atoms: N_18  and  C_19 
REMARK    4  A    between atoms: C_19  and  C_20 
REMARK    5  A    between atoms: C_20  and  C_21 
REMARK    6  A    between atoms: C_21  and  C_22 
ROOT
HETATM    1  N   UNL     1      -2.486   6.074 -32.214  1.00  0.00    -0.248 N 
HETATM    2  C   UNL     1      -2.382   6.512 -33.556  1.00  0.00     0.335 A 
HETATM    3  O   UNL     1      -1.560   7.310 -34.003  1.00  0.00    -0.246 OA
HETATM    4  N   UNL     1      -3.279   5.951 -34.444  1.00  0.00    -0.274 N 
HETATM    5  C   UNL     1      -4.194   4.973 -34.184  1.00  0.00     0.262 A 
HETATM    6  O   UNL     1      -4.897   4.453 -35.038  1.00  0.00    -0.267 OA
HETATM    7  C   UNL     1      -4.279   4.595 -32.792  1.00  0.00     0.101 A 
HETATM    8  C   UNL     1      -3.451   5.138 -31.898  1.00  0.00     0.134 A 
HETATM    9  N   UNL     1      -3.779   4.664 -30.666  1.00  0.00    -0.309 N 
HETATM   10  C   UNL     1      -4.806   3.729 -30.729  1.00  0.00     0.266 A 
HETATM   11  O   UNL     1      -5.227   3.091 -29.777  1.00  0.00    -0.270 OA
HETATM   12  C   UNL     1      -5.284   3.662 -32.188  1.00  0.00     0.249 A 
HETATM   13  H   UNL     1      -3.168   6.234 -35.407  1.00  0.00     0.173 HD
HETATM   14  H   UNL     1      -3.324   4.902 -29.796  1.00  0.00     0.170 HD
ENDROOT
BRANCH  12  15
HETATM   15  N   UNL     1      -5.232   2.307 -32.769  1.00  0.00    -0.332 N 
HETATM   16  C   UNL     1      -4.173   1.448 -32.601  1.00  0.00     0.219 C 
HETATM   17  O   UNL     1      -3.229   1.686 -31.858  1.00  0.00    -0.274 OA
HETATM   18  H   UNL     1      -5.892   2.106 -33.512  1.00  0.00     0.164 HD
BRANCH  16  19
HETATM   19  C   UNL     1      -4.247   0.208 -33.461  1.00  0.00     0.107 C 
BRANCH  19  20
HETATM   20  C   UNL     1      -5.609  -0.463 -33.296  1.00  0.00     0.047 C 
BRANCH  20  21
HETATM   21  C   UNL     1      -5.641  -1.866 -33.852  1.00  0.00    -0.058 A 
HETATM   22  C   UNL     1      -4.476  -2.646 -33.874  1.00  0.00     0.007 A 
HETATM   23  C   UNL     1      -4.506  -3.949 -34.375  1.00  0.00     0.001 A 
HETATM   24  C   UNL     1      -5.698  -4.485 -34.858  1.00  0.00     0.000 A 
HETATM   25  C   UNL     1      -6.862  -3.720 -34.836  1.00  0.00     0.001 A 
HETATM   26  C   UNL     1      -6.836  -2.418 -34.334  1.00  0.00     0.007 A 
ENDBRANCH  20  21
ENDBRANCH  19  20
ENDBRANCH  16  19
ENDBRANCH  12  15
BRANCH  12  27
HETATM   27  C   UNL     1      -6.693   4.271 -32.169  1.00  0.00     0.426 C 
HETATM   28  F   UNL     1      -6.685   5.599 -31.908  1.00  0.00    -0.167 F 
HETATM   29  F   UNL     1      -7.306   4.109 -33.368  1.00  0.00    -0.167 F 
HETATM   30  F   UNL     1      -7.494   3.676 -31.257  1.00  0.00    -0.167 F 
ENDBRANCH  12  27
BRANCH   1  31
HETATM   31  C   UNL     1      -1.577   6.621 -31.241  1.00  0.00     0.045 A 
HETATM   32  C   UNL     1      -1.954   7.705 -30.436  1.00  0.00     0.031 A 
HETATM   33  C   UNL     1      -1.091   8.215 -29.459  1.00  0.00     0.009 A 
HETATM   34  C   UNL     1       0.180   7.664 -29.278  1.00  0.00    -0.062 A 
HETATM   35  C   UNL     1       1.086   8.189 -28.205  1.00  0.00     0.048 C 
HETATM   36  C   UNL     1       0.569   6.589 -30.083  1.00  0.00     0.009 A 
HETATM   37  C   UNL     1      -0.296   6.080 -31.059  1.00  0.00     0.031 A 
ENDBRANCH   1  31
TORSDOF 6
ENDMDL
MODEL 2
REMARK VINA RESULT:      -9.6      2.154      9.003
REMARK  6 active torsions:
REMARK  status: ('A' for Active; 'I' for Inactive)
REMARK    1  A    between atoms: C_5  and  N_6 
REMARK    2  A    between atoms: C_17  and  N_18 
REMARK    3  A    between atoms: C_17  and  C_29 
REMARK       I    between atoms: N_18  and  C_19 
REMARK    4  A    between atoms: C_19  and  C_20 
REMARK    5  A    between atoms: C_20  and  C_21 
REMARK    6  A    between atoms: C_21  and  C_22 
ROOT
HETATM    1  N   UNL     1      -4.306   2.728 -31.399  1.00  0.00    -0.248 N 
HETATM    2  C   UNL     1      -5.176   3.013 -30.321  1.00  0.00     0.335 A 
HETATM    3  O   UNL     1      -5.976   2.236 -29.801  1.00  0.00    -0.246 OA
HETATM    4  N   UNL     1      -5.079   4.284 -29.788  1.00  0.00    -0.274 N 
HETATM    5  C   UNL     1      -4.191   5.258 -30.136  1.00  0.00     0.262 A 
HETATM    6  O   UNL     1      -4.096   6.333 -29.561  1.00  0.00    -0.267 OA
HETATM    7  C   UNL     1      -3.356   4.923 -31.268  1.00  0.00     0.101 A 
HETATM    8  C   UNL     1      -3.442   3.716 -31.829  1.00  0.00     0.134 A 
HETATM    9  N   UNL     1      -2.604   3.680 -32.900  1.00  0.00    -0.309 N 
HETATM   10  C   UNL     1      -1.883   4.862 -33.031  1.00  0.00     0.266 A 
HETATM   11  O   UNL     1      -1.004   5.054 -33.855  1.00  0.00    -0.270 OA
HETATM   12  C   UNL     1      -2.397   5.840 -31.963  1.00  0.00     0.249 A 
HETATM   13  H   UNL     1      -5.671   4.464 -28.990  1.00  0.00     0.173 HD
HETATM   14  H   UNL     1      -2.461   2.894 -33.519  1.00  0.00     0.170 HD
ENDROOT
BRANCH  12  15
HETATM   15  N   UNL     1      -1.341   6.352 -31.069  1.00  0.00    -0.332 N 
HETATM   16  C   UNL     1      -0.430   5.548 -30.429  1.00  0.00     0.219 C 
HETATM   17  O   UNL     1      -0.340   4.344 -30.634  1.00  0.00    -0.274 OA
HETATM   18  H   UNL     1      -1.453   7.303 -30.733  1.00  0.00     0.164 HD
BRANCH  16  19
HETATM   19  C   UNL     1       0.412   6.271 -29.403  1.00  0.00     0.107 C 
BRANCH  19  20
HETATM   20  C   UNL     1      -0.281   7.563 -28.974  1.00  0.00     0.047 C 
BRANCH  20  21
HETATM   21  C   UNL     1       0.385   8.216 -27.787  1.00  0.00    -0.058 A 
HETATM   22  C   UNL     1       1.373   7.533 -27.063  1.00  0.00     0.007 A 
HETATM   23  C   UNL     1       1.999   8.140 -25.974  1.00  0.00     0.001 A 
HETATM   24  C   UNL     1       1.646   9.434 -25.596  1.00  0.00     0.000 A 
HETATM   25  C   UNL     1       0.669  10.123 -26.311  1.00  0.00     0.001 A 
HETATM   26  C   UNL     1       0.043   9.520 -27.402  1.00  0.00     0.007 A 
ENDBRANCH  20  21
ENDBRANCH  19  20
ENDBRANCH  16  19
ENDBRANCH  12  15
BRANCH  12  27
HETATM   27  C   UNL     1      -3.124   6.938 -32.751  1.00  0.00     0.426 C 
HETATM   28  F   UNL     1      -2.372   7.449 -33.753  1.00  0.00    -0.167 F 
HETATM   29  F   UNL     1      -4.259   6.457 -33.317  1.00  0.00    -0.167 F 
HETATM   30  F   UNL     1      -3.509   7.965 -31.960  1.00  0.00    -0.167 F 
ENDBRANCH  12  27
BRANCH   1  31
HETATM   31  C   UNL     1      -4.358   1.419 -31.996  1.00  0.00     0.045 A 
HETATM   32  C   UNL     1      -5.312   1.114 -32.977  1.00  0.00     0.031 A 
HETATM   33  C   UNL     1      -5.341  -0.143 -33.591  1.00  0.00     0.009 A 
HETATM   34  C   UNL     1      -4.428  -1.134 -33.224  1.00  0.00    -0.062 A 
HETATM   35  C   UNL     1      -4.439  -2.466 -33.912  1.00  0.00     0.048 C 
HETATM   36  C   UNL     1      -3.479  -0.843 -32.239  1.00  0.00     0.009 A 
HETATM   37  C   UNL     1      -3.451   0.415 -31.627  1.00  0.00     0.031 A 
ENDBRANCH   1  31
TORSDOF 6
ENDMDL
MODEL 3
REMARK VINA RESULT:      -9.5      1.474      8.806
REMARK  6 active torsions:
REMARK  status: ('A' for Active; 'I' for Inactive)
REMARK    1  A    between atoms: C_5  and  N_6 
REMARK    2  A    between atoms: C_17  and  N_18 
REMARK    3  A    between atoms: C_17  and  C_29 
REMARK       I    between atoms: N_18  and  C_19 
REMARK    4  A    between atoms: C_19  and  C_20 
REMARK    5  A    between atoms: C_20  and  C_21 
REMARK    6  A    between atoms: C_21  and  C_22 
ROOT
HETATM    1  N   UNL     1      -5.792   1.226 -31.688  1.00  0.00    -0.248 N 
HETATM    2  C   UNL     1      -6.067   1.044 -30.311  1.00  0.00     0.335 A 
HETATM    3  O   UNL     1      -6.367  -0.013 -29.759  1.00  0.00    -0.246 OA
HETATM    4  N   UNL     1      -5.947   2.169 -29.519  1.00  0.00    -0.274 N 
HETATM    5  C   UNL     1      -5.522   3.407 -29.904  1.00  0.00     0.262 A 
HETATM    6  O   UNL     1      -5.349   4.339 -29.132  1.00  0.00    -0.267 OA
HETATM    7  C   UNL     1      -5.294   3.541 -31.325  1.00  0.00     0.101 A 
HETATM    8  C   UNL     1      -5.430   2.485 -32.128  1.00  0.00     0.134 A 
HETATM    9  N   UNL     1      -5.223   2.890 -33.410  1.00  0.00    -0.309 N 
HETATM   10  C   UNL     1      -4.873   4.234 -33.476  1.00  0.00     0.266 A 
HETATM   11  O   UNL     1      -4.550   4.821 -34.496  1.00  0.00    -0.270 OA
HETATM   12  C   UNL     1      -4.967   4.809 -32.053  1.00  0.00     0.249 A 
HETATM   13  H   UNL     1      -6.100   2.021 -28.532  1.00  0.00     0.173 HD
HETATM   14  H   UNL     1      -5.263   2.305 -34.233  1.00  0.00     0.170 HD
ENDROOT
BRANCH  12  15
HETATM   15  N   UNL     1      -3.717   5.436 -31.582  1.00  0.00    -0.332 N 
HETATM   16  C   UNL     1      -2.491   4.820 -31.633  1.00  0.00     0.219 C 
HETATM   17  O   UNL     1      -2.306   3.741 -32.182  1.00  0.00    -0.274 OA
HETATM   18  H   UNL     1      -3.816   6.248 -30.981  1.00  0.00     0.164 HD
BRANCH  16  19
HETATM   19  C   UNL     1      -1.399   5.565 -30.900  1.00  0.00     0.107 C 
BRANCH  19  20
HETATM   20  C   UNL     1      -1.808   7.022 -30.694  1.00  0.00     0.047 C 
BRANCH  20  21
HETATM   21  C   UNL     1      -1.016   7.703 -29.605  1.00  0.00    -0.058 A 
HETATM   22  C   UNL     1       0.312   7.329 -29.354  1.00  0.00     0.007 A 
HETATM   23  C   UNL     1       1.052   7.966 -28.357  1.00  0.00     0.001 A 
HETATM   24  C   UNL     1       0.473   8.983 -27.600  1.00  0.00     0.000 A 
HETATM   25  C   UNL     1      -0.844   9.366 -27.842  1.00  0.00     0.001 A 
HETATM   26  C   UNL     1      -1.585   8.732 -28.841  1.00  0.00     0.007 A 
ENDBRANCH  20  21
ENDBRANCH  19  20
ENDBRANCH  16  19
ENDBRANCH  12  15
BRANCH  12  27
HETATM   27  C   UNL     1      -6.163   5.770 -32.095  1.00  0.00     0.426 C 
HETATM   28  F   UNL     1      -7.340   5.132 -32.286  1.00  0.00    -0.167 F 
HETATM   29  F   UNL     1      -6.271   6.458 -30.932  1.00  0.00    -0.167 F 
HETATM   30  F   UNL     1      -6.035   6.701 -33.068  1.00  0.00    -0.167 F 
ENDBRANCH  12  27
BRANCH   1  31
HETATM   31  C   UNL     1      -5.899   0.090 -32.565  1.00  0.00     0.045 A 
HETATM   32  C   UNL     1      -4.777  -0.699 -32.859  1.00  0.00     0.031 A 
HETATM   33  C   UNL     1      -4.882  -1.829 -33.676  1.00  0.00     0.009 A 
HETATM   34  C   UNL     1      -6.110  -2.186 -34.239  1.00  0.00    -0.062 A 
HETATM   35  C   UNL     1      -6.225  -3.420 -35.085  1.00  0.00     0.048 C 
HETATM   36  C   UNL     1      -7.232  -1.401 -33.962  1.00  0.00     0.009 A 
HETATM   37  C   UNL     1      -7.125  -0.271 -33.142  1.00  0.00     0.031 A 
ENDBRANCH   1  31
TORSDOF 6
ENDMDL
MODEL 4
REMARK VINA RESULT:      -9.5      1.389      2.156
REMARK  6 active torsions:
REMARK  status: ('A' for Active; 'I' for Inactive)
REMARK    1  A    between atoms: C_5  and  N_6 
REMARK    2  A    between atoms: C_17  and  N_18 
REMARK    3  A    between atoms: C_17  and  C_29 
REMARK       I    between atoms: N_18  and  C_19 
REMARK    4  A    between atoms: C_19  and  C_20 
REMARK    5  A    between atoms: C_20  and  C_21 
REMARK    6  A    between atoms: C_21  and  C_22 
ROOT
HETATM    1  N   UNL     1      -2.247   6.276 -31.966  1.00  0.00    -0.248 N 
HETATM    2  C   UNL     1      -2.025   6.700 -33.298  1.00  0.00     0.335 A 
HETATM    3  O   UNL     1      -1.165   7.493 -33.678  1.00  0.00    -0.246 OA
HETATM    4  N   UNL     1      -2.840   6.130 -34.256  1.00  0.00    -0.274 N 
HETATM    5  C   UNL     1      -3.775   5.155 -34.069  1.00  0.00     0.262 A 
HETATM    6  O   UNL     1      -4.401   4.627 -34.977  1.00  0.00    -0.267 OA
HETATM    7  C   UNL     1      -3.984   4.792 -32.686  1.00  0.00     0.101 A 
HETATM    8  C   UNL     1      -3.238   5.343 -31.728  1.00  0.00     0.134 A 
HETATM    9  N   UNL     1      -3.674   4.881 -30.525  1.00  0.00    -0.309 N 
HETATM   10  C   UNL     1      -4.693   3.946 -30.669  1.00  0.00     0.266 A 
HETATM   11  O   UNL     1      -5.197   3.317 -29.753  1.00  0.00    -0.270 OA
HETATM   12  C   UNL     1      -5.040   3.864 -32.164  1.00  0.00     0.249 A 
HETATM   13  H   UNL     1      -2.644   6.404 -35.209  1.00  0.00     0.173 HD
HETATM   14  H   UNL     1      -3.297   5.128 -29.621  1.00  0.00     0.170 HD
ENDROOT
BRANCH  12  15
HETATM   15  N   UNL     1      -4.938   2.504 -32.725  1.00  0.00    -0.332 N 
HETATM   16  C   UNL     1      -3.939   1.620 -32.398  1.00  0.00     0.219 C 
HETATM   17  O   UNL     1      -3.110   1.840 -31.524  1.00  0.00    -0.274 OA
HETATM   18  H   UNL     1      -5.486   2.314 -33.558  1.00  0.00     0.164 HD
BRANCH  16  19
HETATM   19  C   UNL     1      -3.917   0.375 -33.255  1.00  0.00     0.107 C 
BRANCH  19  20
HETATM   20  C   UNL     1      -5.013  -0.589 -32.804  1.00  0.00     0.047 C 
BRANCH  20  21
HETATM   21  C   UNL     1      -6.372  -0.226 -33.351  1.00  0.00    -0.058 A 
HETATM   22  C   UNL     1      -7.430   0.073 -32.481  1.00  0.00     0.007 A 
HETATM   23  C   UNL     1      -8.684   0.423 -32.984  1.00  0.00     0.001 A 
HETATM   24  C   UNL     1      -8.894   0.477 -34.361  1.00  0.00     0.000 A 
HETATM   25  C   UNL     1      -7.849   0.185 -35.235  1.00  0.00     0.001 A 
HETATM   26  C   UNL     1      -6.593  -0.162 -34.734  1.00  0.00     0.007 A 
ENDBRANCH  20  21
ENDBRANCH  19  20
ENDBRANCH  16  19
ENDBRANCH  12  15
BRANCH  12  27
HETATM   27  C   UNL     1      -6.444   4.475 -32.277  1.00  0.00     0.426 C 
HETATM   28  F   UNL     1      -6.928   4.444 -33.540  1.00  0.00    -0.167 F 
HETATM   29  F   UNL     1      -7.328   3.801 -31.499  1.00  0.00    -0.167 F 
HETATM   30  F   UNL     1      -6.478   5.759 -31.853  1.00  0.00    -0.167 F 
ENDBRANCH  12  27
BRANCH   1  31
HETATM   31  C   UNL     1      -1.427   6.832 -30.922  1.00  0.00     0.045 A 
HETATM   32  C   UNL     1      -0.174   6.281 -30.622  1.00  0.00     0.031 A 
HETATM   33  C   UNL     1       0.646   6.843 -29.637  1.00  0.00     0.009 A 
HETATM   34  C   UNL     1       0.221   7.959 -28.913  1.00  0.00    -0.062 A 
HETATM   35  C   UNL     1       1.119   8.580 -27.884  1.00  0.00     0.048 C 
HETATM   36  C   UNL     1      -1.032   8.510 -29.196  1.00  0.00     0.009 A 
HETATM   37  C   UNL     1      -1.850   7.947 -30.183  1.00  0.00     0.031 A 
ENDBRANCH   1  31
TORSDOF 6
ENDMDL
MODEL 5
REMARK VINA RESULT:      -9.1      4.160      6.729
REMARK  6 active torsions:
REMARK  status: ('A' for Active; 'I' for Inactive)
REMARK    1  A    between atoms: C_5  and  N_6 
REMARK    2  A    between atoms: C_17  and  N_18 
REMARK    3  A    between atoms: C_17  and  C_29 
REMARK       I    between atoms: N_18  and  C_19 
REMARK    4  A    between atoms: C_19  and  C_20 
REMARK    5  A    between atoms: C_20  and  C_21 
REMARK    6  A    between atoms: C_21  and  C_22 
ROOT
HETATM    1  N   UNL     1      -9.846   4.089 -33.013  1.00  0.00    -0.248 N 
HETATM    2  C   UNL     1     -10.858   3.114 -32.842  1.00  0.00     0.335 A 
HETATM    3  O   UNL     1     -12.025   3.197 -33.221  1.00  0.00    -0.246 OA
HETATM    4  N   UNL     1     -10.469   1.946 -32.216  1.00  0.00    -0.274 N 
HETATM    5  C   UNL     1      -9.210   1.603 -31.818  1.00  0.00     0.262 A 
HETATM    6  O   UNL     1      -8.915   0.513 -31.351  1.00  0.00    -0.267 OA
HETATM    7  C   UNL     1      -8.230   2.653 -31.983  1.00  0.00     0.101 A 
HETATM    8  C   UNL     1      -8.574   3.807 -32.555  1.00  0.00     0.134 A 
HETATM    9  N   UNL     1      -7.495   4.636 -32.533  1.00  0.00    -0.309 N 
HETATM   10  C   UNL     1      -6.376   4.011 -31.996  1.00  0.00     0.266 A 
HETATM   11  O   UNL     1      -5.260   4.504 -31.942  1.00  0.00    -0.270 OA
HETATM   12  C   UNL     1      -6.810   2.620 -31.506  1.00  0.00     0.249 A 
HETATM   13  H   UNL     1     -11.185   1.238 -32.139  1.00  0.00     0.173 HD
HETATM   14  H   UNL     1      -7.461   5.578 -32.895  1.00  0.00     0.170 HD
ENDROOT
BRANCH  12  15
HETATM   15  N   UNL     1      -6.031   1.513 -32.092  1.00  0.00    -0.332 N 
HETATM   16  C   UNL     1      -5.947   1.274 -33.441  1.00  0.00     0.219 C 
HETATM   17  O   UNL     1      -6.417   2.027 -34.285  1.00  0.00    -0.274 OA
HETATM   18  H   UNL     1      -5.754   0.769 -31.460  1.00  0.00     0.164 HD
BRANCH  16  19
HETATM   19  C   UNL     1      -5.276  -0.034 -33.792  1.00  0.00     0.107 C 
BRANCH  19  20
HETATM   20  C   UNL     1      -6.268  -0.958 -34.496  1.00  0.00     0.047 C 
BRANCH  20  21
HETATM   21  C   UNL     1      -5.826  -2.401 -34.492  1.00  0.00    -0.058 A 
HETATM   22  C   UNL     1      -6.712  -3.415 -34.885  1.00  0.00     0.007 A 
HETATM   23  C   UNL     1      -6.302  -4.749 -34.895  1.00  0.00     0.001 A 
HETATM   24  C   UNL     1      -5.004  -5.084 -34.514  1.00  0.00     0.000 A 
HETATM   25  C   UNL     1      -4.115  -4.085 -34.126  1.00  0.00     0.001 A 
HETATM   26  C   UNL     1      -4.521  -2.750 -34.117  1.00  0.00     0.007 A 
ENDBRANCH  20  21
ENDBRANCH  19  20
ENDBRANCH  16  19
ENDBRANCH  12  15
BRANCH  12  27
HETATM   27  C   UNL     1      -6.719   2.696 -29.975  1.00  0.00     0.426 C 
HETATM   28  F   UNL     1      -7.822   3.241 -29.412  1.00  0.00    -0.167 F 
HETATM   29  F   UNL     1      -6.571   1.460 -29.437  1.00  0.00    -0.167 F 
HETATM   30  F   UNL     1      -5.649   3.413 -29.563  1.00  0.00    -0.167 F 
ENDBRANCH  12  27
BRANCH   1  31
HETATM   31  C   UNL     1     -10.189   5.328 -33.661  1.00  0.00     0.045 A 
HETATM   32  C   UNL     1     -10.041   5.479 -35.047  1.00  0.00     0.031 A 
HETATM   33  C   UNL     1     -10.412   6.666 -35.689  1.00  0.00     0.009 A 
HETATM   34  C   UNL     1     -10.922   7.740 -34.955  1.00  0.00    -0.062 A 
HETATM   35  C   UNL     1     -11.353   8.995 -35.652  1.00  0.00     0.048 C 
HETATM   36  C   UNL     1     -11.065   7.603 -33.571  1.00  0.00     0.009 A 
HETATM   37  C   UNL     1     -10.694   6.414 -32.931  1.00  0.00     0.031 A 
ENDBRANCH   1  31
TORSDOF 6
ENDMDL
MODEL 6
REMARK VINA RESULT:      -9.1      1.796      8.247
REMARK  6 active torsions:
REMARK  status: ('A' for Active; 'I' for Inactive)
REMARK    1  A    between atoms: C_5  and  N_6 
REMARK    2  A    between atoms: C_17  and  N_18 
REMARK    3  A    between atoms: C_17  and  C_29 
REMARK       I    between atoms: N_18  and  C_19 
REMARK    4  A    between atoms: C_19  and  C_20 
REMARK    5  A    between atoms: C_20  and  C_21 
REMARK    6  A    between atoms: C_21  and  C_22 
ROOT
HETATM    1  N   UNL     1      -4.737   0.133 -32.771  1.00  0.00    -0.248 N 
HETATM    2  C   UNL     1      -3.618  -0.032 -31.921  1.00  0.00     0.335 A 
HETATM    3  O   UNL     1      -2.985  -1.072 -31.739  1.00  0.00    -0.246 OA
HETATM    4  N   UNL     1      -3.185   1.104 -31.267  1.00  0.00    -0.274 N 
HETATM    5  C   UNL     1      -3.668   2.372 -31.409  1.00  0.00     0.262 A 
HETATM    6  O   UNL     1      -3.179   3.353 -30.868  1.00  0.00    -0.267 OA
HETATM    7  C   UNL     1      -4.833   2.471 -32.258  1.00  0.00     0.101 A 
HETATM    8  C   UNL     1      -5.300   1.389 -32.884  1.00  0.00     0.134 A 
HETATM    9  N   UNL     1      -6.427   1.738 -33.562  1.00  0.00    -0.309 N 
HETATM   10  C   UNL     1      -6.696   3.098 -33.451  1.00  0.00     0.266 A 
HETATM   11  O   UNL     1      -7.596   3.680 -34.034  1.00  0.00    -0.270 OA
HETATM   12  C   UNL     1      -5.663   3.698 -32.484  1.00  0.00     0.249 A 
HETATM   13  H   UNL     1      -2.358   0.987 -30.698  1.00  0.00     0.173 HD
HETATM   14  H   UNL     1      -6.997   1.123 -34.125  1.00  0.00     0.170 HD
ENDROOT
BRANCH  12  15
HETATM   15  N   UNL     1      -4.890   4.816 -33.058  1.00  0.00    -0.332 N 
HETATM   16  C   UNL     1      -4.441   4.843 -34.355  1.00  0.00     0.219 C 
HETATM   17  O   UNL     1      -4.742   3.994 -35.185  1.00  0.00    -0.274 OA
HETATM   18  H   UNL     1      -4.475   5.467 -32.399  1.00  0.00     0.164 HD
BRANCH  16  19
HETATM   19  C   UNL     1      -3.494   5.982 -34.654  1.00  0.00     0.107 C 
BRANCH  19  20
HETATM   20  C   UNL     1      -2.049   5.516 -34.493  1.00  0.00     0.047 C 
BRANCH  20  21
HETATM   21  C   UNL     1      -1.412   6.016 -33.219  1.00  0.00    -0.058 A 
HETATM   22  C   UNL     1      -1.573   7.351 -32.822  1.00  0.00     0.007 A 
HETATM   23  C   UNL     1      -0.997   7.812 -31.638  1.00  0.00     0.001 A 
HETATM   24  C   UNL     1      -0.254   6.946 -30.838  1.00  0.00     0.000 A 
HETATM   25  C   UNL     1      -0.091   5.616 -31.220  1.00  0.00     0.001 A 
HETATM   26  C   UNL     1      -0.668   5.152 -32.403  1.00  0.00     0.007 A 
ENDBRANCH  20  21
ENDBRANCH  19  20
ENDBRANCH  16  19
ENDBRANCH  12  15
BRANCH  12  27
HETATM   27  C   UNL     1      -6.469   4.082 -31.235  1.00  0.00     0.426 C 
HETATM   28  F   UNL     1      -7.559   4.828 -31.525  1.00  0.00    -0.167 F 
HETATM   29  F   UNL     1      -6.909   2.976 -30.585  1.00  0.00    -0.167 F 
HETATM   30  F   UNL     1      -5.725   4.769 -30.339  1.00  0.00    -0.167 F 
ENDBRANCH  12  27
BRANCH   1  31
HETATM   31  C   UNL     1      -5.234  -1.015 -33.483  1.00  0.00     0.045 A 
HETATM   32  C   UNL     1      -4.355  -1.901 -34.123  1.00  0.00     0.031 A 
HETATM   33  C   UNL     1      -4.829  -3.041 -34.780  1.00  0.00     0.009 A 
HETATM   34  C   UNL     1      -6.198  -3.313 -34.832  1.00  0.00    -0.062 A 
HETATM   35  C   UNL     1      -6.698  -4.556 -35.506  1.00  0.00     0.048 C 
HETATM   36  C   UNL     1      -7.084  -2.431 -34.207  1.00  0.00     0.009 A 
HETATM   37  C   UNL     1      -6.608  -1.291 -33.548  1.00  0.00     0.031 A 
ENDBRANCH   1  31
TORSDOF 6
ENDMDL
MODEL 7
REMARK VINA RESULT:      -9.1      1.644      2.338
REMARK  6 active torsions:
REMARK  status: ('A' for Active; 'I' for Inactive)
REMARK    1  A    between atoms: C_5  and  N_6 
REMARK    2  A    between atoms: C_17  and  N_18 
REMARK    3  A    between atoms: C_17  and  C_29 
REMARK       I    between atoms: N_18  and  C_19 
REMARK    4  A    between atoms: C_19  and  C_20 
REMARK    5  A    between atoms: C_20  and  C_21 
REMARK    6  A    between atoms: C_21  and  C_22 
ROOT
HETATM    1  N   UNL     1      -4.490   5.583 -32.258  1.00  0.00    -0.248 N 
HETATM    2  C   UNL     1      -4.192   5.598 -33.642  1.00  0.00     0.335 A 
HETATM    3  O   UNL     1      -3.353   6.303 -34.201  1.00  0.00    -0.246 OA
HETATM    4  N   UNL     1      -4.897   4.700 -34.420  1.00  0.00    -0.274 N 
HETATM    5  C   UNL     1      -5.785   3.758 -33.991  1.00  0.00     0.262 A 
HETATM    6  O   UNL     1      -6.308   2.930 -34.723  1.00  0.00    -0.267 OA
HETATM    7  C   UNL     1      -6.077   3.818 -32.577  1.00  0.00     0.101 A 
HETATM    8  C   UNL     1      -5.440   4.692 -31.797  1.00  0.00     0.134 A 
HETATM    9  N   UNL     1      -5.938   4.586 -30.536  1.00  0.00    -0.309 N 
HETATM   10  C   UNL     1      -6.886   3.574 -30.439  1.00  0.00     0.266 A 
HETATM   11  O   UNL     1      -7.421   3.216 -29.402  1.00  0.00    -0.270 OA
HETATM   12  C   UNL     1      -7.113   3.013 -31.852  1.00  0.00     0.249 A 
HETATM   13  H   UNL     1      -4.646   4.685 -35.398  1.00  0.00     0.173 HD
HETATM   14  H   UNL     1      -5.646   5.126 -29.733  1.00  0.00     0.170 HD
ENDROOT
BRANCH  12  15
HETATM   15  N   UNL     1      -6.889   1.559 -31.958  1.00  0.00    -0.332 N 
HETATM   16  C   UNL     1      -5.725   0.939 -31.575  1.00  0.00     0.219 C 
HETATM   17  O   UNL     1      -4.813   1.523 -31.002  1.00  0.00    -0.274 OA
HETATM   18  H   UNL     1      -7.525   1.044 -32.558  1.00  0.00     0.164 HD
BRANCH  16  19
HETATM   19  C   UNL     1      -5.644  -0.516 -31.975  1.00  0.00     0.107 C 
BRANCH  19  20
HETATM   20  C   UNL     1      -5.621  -0.639 -33.497  1.00  0.00     0.047 C 
BRANCH  20  21
HETATM   21  C   UNL     1      -5.616  -2.073 -33.967  1.00  0.00    -0.058 A 
HETATM   22  C   UNL     1      -6.781  -2.650 -34.493  1.00  0.00     0.007 A 
HETATM   23  C   UNL     1      -6.776  -3.972 -34.942  1.00  0.00     0.001 A 
HETATM   24  C   UNL     1      -5.608  -4.730 -34.870  1.00  0.00     0.000 A 
HETATM   25  C   UNL     1      -4.445  -4.165 -34.354  1.00  0.00     0.001 A 
HETATM   26  C   UNL     1      -4.446  -2.843 -33.907  1.00  0.00     0.007 A 
ENDBRANCH  20  21
ENDBRANCH  19  20
ENDBRANCH  16  19
ENDBRANCH  12  15
BRANCH  12  27
HETATM   27  C   UNL     1      -8.538   3.447 -32.224  1.00  0.00     0.426 C 
HETATM   28  F   UNL     1      -9.451   3.101 -31.287  1.00  0.00    -0.167 F 
HETATM   29  F   UNL     1      -8.612   4.793 -32.367  1.00  0.00    -0.167 F 
HETATM   30  F   UNL     1      -8.939   2.923 -33.404  1.00  0.00    -0.167 F 
ENDBRANCH  12  27
BRANCH   1  31
HETATM   31  C   UNL     1      -3.786   6.495 -31.394  1.00  0.00     0.045 A 
HETATM   32  C   UNL     1      -2.587   6.116 -30.775  1.00  0.00     0.031 A 
HETATM   33  C   UNL     1      -1.876   7.011 -29.968  1.00  0.00     0.009 A 
HETATM   34  C   UNL     1      -2.359   8.302 -29.744  1.00  0.00    -0.062 A 
HETATM   35  C   UNL     1      -1.575   9.270 -28.910  1.00  0.00     0.048 C 
HETATM   36  C   UNL     1      -3.560   8.687 -30.349  1.00  0.00     0.009 A 
HETATM   37  C   UNL     1      -4.269   7.789 -31.157  1.00  0.00     0.031 A 
ENDBRANCH   1  31
TORSDOF 6
ENDMDL
MODEL 8
REMARK VINA RESULT:      -9.0      3.141      4.259
REMARK  6 active torsions:
REMARK  status: ('A' for Active; 'I' for Inactive)
REMARK    1  A    between atoms: C_5  and  N_6 
REMARK    2  A    between atoms: C_17  and  N_18 
REMARK    3  A    between atoms: C_17  and  C_29 
REMARK       I    between atoms: N_18  and  C_19 
REMARK    4  A    between atoms: C_19  and  C_20 
REMARK    5  A    between atoms: C_20  and  C_21 
REMARK    6  A    between atoms: C_21  and  C_22 
ROOT
HETATM    1  N   UNL     1      -3.241   7.067 -29.889  1.00  0.00    -0.248 N 
HETATM    2  C   UNL     1      -2.004   6.863 -29.233  1.00  0.00     0.335 A 
HETATM    3  O   UNL     1      -1.669   7.327 -28.144  1.00  0.00    -0.246 OA
HETATM    4  N   UNL     1      -1.110   6.029 -29.876  1.00  0.00    -0.274 N 
HETATM    5  C   UNL     1      -1.319   5.327 -31.026  1.00  0.00     0.262 A 
HETATM    6  O   UNL     1      -0.518   4.533 -31.496  1.00  0.00    -0.267 OA
HETATM    7  C   UNL     1      -2.583   5.606 -31.670  1.00  0.00     0.101 A 
HETATM    8  C   UNL     1      -3.460   6.430 -31.096  1.00  0.00     0.134 A 
HETATM    9  N   UNL     1      -4.528   6.568 -31.927  1.00  0.00    -0.309 N 
HETATM   10  C   UNL     1      -4.407   5.771 -33.059  1.00  0.00     0.266 A 
HETATM   11  O   UNL     1      -5.265   5.644 -33.918  1.00  0.00    -0.270 OA
HETATM   12  C   UNL     1      -3.024   5.101 -33.010  1.00  0.00     0.249 A 
HETATM   13  H   UNL     1      -0.249   5.853 -29.379  1.00  0.00     0.173 HD
HETATM   14  H   UNL     1      -5.347   7.134 -31.755  1.00  0.00     0.170 HD
ENDROOT
BRANCH  12  15
HETATM   15  N   UNL     1      -3.074   3.629 -33.082  1.00  0.00    -0.332 N 
HETATM   16  C   UNL     1      -3.882   2.856 -32.285  1.00  0.00     0.219 C 
HETATM   17  O   UNL     1      -4.719   3.326 -31.524  1.00  0.00    -0.274 OA
HETATM   18  H   UNL     1      -2.308   3.171 -33.566  1.00  0.00     0.164 HD
BRANCH  16  19
HETATM   19  C   UNL     1      -3.606   1.373 -32.385  1.00  0.00     0.107 C 
BRANCH  19  20
HETATM   20  C   UNL     1      -4.845   0.582 -31.969  1.00  0.00     0.047 C 
BRANCH  20  21
HETATM   21  C   UNL     1      -5.210  -0.496 -32.961  1.00  0.00    -0.058 A 
HETATM   22  C   UNL     1      -4.295  -1.512 -33.273  1.00  0.00     0.007 A 
HETATM   23  C   UNL     1      -4.635  -2.517 -34.179  1.00  0.00     0.001 A 
HETATM   24  C   UNL     1      -5.891  -2.518 -34.783  1.00  0.00     0.000 A 
HETATM   25  C   UNL     1      -6.809  -1.516 -34.478  1.00  0.00     0.001 A 
HETATM   26  C   UNL     1      -6.472  -0.511 -33.570  1.00  0.00     0.007 A 
ENDBRANCH  20  21
ENDBRANCH  19  20
ENDBRANCH  16  19
ENDBRANCH  12  15
BRANCH  12  27
HETATM   27  C   UNL     1      -2.232   5.748 -34.155  1.00  0.00     0.426 C 
HETATM   28  F   UNL     1      -2.182   7.097 -34.060  1.00  0.00    -0.167 F 
HETATM   29  F   UNL     1      -0.950   5.306 -34.167  1.00  0.00    -0.167 F 
HETATM   30  F   UNL     1      -2.744   5.440 -35.368  1.00  0.00    -0.167 F 
ENDBRANCH  12  27
BRANCH   1  31
HETATM   31  C   UNL     1      -4.215   7.925 -29.267  1.00  0.00     0.045 A 
HETATM   32  C   UNL     1      -4.218   9.305 -29.513  1.00  0.00     0.031 A 
HETATM   33  C   UNL     1      -5.189  10.138 -28.945  1.00  0.00     0.009 A 
HETATM   34  C   UNL     1      -6.169   9.612 -28.100  1.00  0.00    -0.062 A 
HETATM   35  C   UNL     1      -7.229  10.503 -27.524  1.00  0.00     0.048 C 
HETATM   36  C   UNL     1      -6.168   8.239 -27.840  1.00  0.00     0.009 A 
HETATM   37  C   UNL     1      -5.197   7.406 -28.410  1.00  0.00     0.031 A 
ENDBRANCH   1  31
TORSDOF 6
ENDMDL
MODEL 9
REMARK VINA RESULT:      -8.8      1.950      2.353
REMARK  6 active torsions:
REMARK  status: ('A' for Active; 'I' for Inactive)
REMARK    1  A    between atoms: C_5  and  N_6 
REMARK    2  A    between atoms: C_17  and  N_18 
REMARK    3  A    between atoms: C_17  and  C_29 
REMARK       I    between atoms: N_18  and  C_19 
REMARK    4  A    between atoms: C_19  and  C_20 
REMARK    5  A    between atoms: C_20  and  C_21 
REMARK    6  A    between atoms: C_21  and  C_22 
ROOT
HETATM    1  N   UNL     1      -4.297   6.040 -31.027  1.00  0.00    -0.248 N 
HETATM    2  C   UNL     1      -5.241   6.984 -31.497  1.00  0.00     0.335 A 
HETATM    3  O   UNL     1      -5.093   8.205 -31.544  1.00  0.00    -0.246 OA
HETATM    4  N   UNL     1      -6.425   6.464 -31.980  1.00  0.00    -0.274 N 
HETATM    5  C   UNL     1      -6.750   5.147 -32.123  1.00  0.00     0.262 A 
HETATM    6  O   UNL     1      -7.782   4.750 -32.644  1.00  0.00    -0.267 OA
HETATM    7  C   UNL     1      -5.765   4.232 -31.590  1.00  0.00     0.101 A 
HETATM    8  C   UNL     1      -4.621   4.698 -31.087  1.00  0.00     0.134 A 
HETATM    9  N   UNL     1      -3.905   3.648 -30.602  1.00  0.00    -0.309 N 
HETATM   10  C   UNL     1      -4.543   2.436 -30.840  1.00  0.00     0.266 A 
HETATM   11  O   UNL     1      -4.073   1.339 -30.584  1.00  0.00    -0.270 OA
HETATM   12  C   UNL     1      -5.909   2.745 -31.473  1.00  0.00     0.249 A 
HETATM   13  H   UNL     1      -7.074   7.141 -32.356  1.00  0.00     0.173 HD
HETATM   14  H   UNL     1      -2.998   3.699 -30.161  1.00  0.00     0.170 HD
ENDROOT
BRANCH  12  15
HETATM   15  N   UNL     1      -6.126   2.084 -32.773  1.00  0.00    -0.332 N 
HETATM   16  C   UNL     1      -6.248   0.725 -32.924  1.00  0.00     0.219 C 
HETATM   17  O   UNL     1      -6.304  -0.051 -31.978  1.00  0.00    -0.274 OA
HETATM   18  H   UNL     1      -5.933   2.638 -33.602  1.00  0.00     0.164 HD
BRANCH  16  19
HETATM   19  C   UNL     1      -6.246   0.265 -34.364  1.00  0.00     0.107 C 
BRANCH  19  20
HETATM   20  C   UNL     1      -7.128  -0.973 -34.517  1.00  0.00     0.047 C 
BRANCH  20  21
HETATM   21  C   UNL     1      -6.336  -2.257 -34.530  1.00  0.00    -0.058 A 
HETATM   22  C   UNL     1      -4.963  -2.246 -34.243  1.00  0.00     0.007 A 
HETATM   23  C   UNL     1      -4.231  -3.434 -34.240  1.00  0.00     0.001 A 
HETATM   24  C   UNL     1      -4.861  -4.644 -34.524  1.00  0.00     0.000 A 
HETATM   25  C   UNL     1      -6.224  -4.667 -34.807  1.00  0.00     0.001 A 
HETATM   26  C   UNL     1      -6.960  -3.481 -34.808  1.00  0.00     0.007 A 
ENDBRANCH  20  21
ENDBRANCH  19  20
ENDBRANCH  16  19
ENDBRANCH  12  15
BRANCH  12  27
HETATM   27  C   UNL     1      -6.937   2.353 -30.402  1.00  0.00     0.426 C 
HETATM   28  F   UNL     1      -8.141   2.030 -30.926  1.00  0.00    -0.167 F 
HETATM   29  F   UNL     1      -6.512   1.276 -29.695  1.00  0.00    -0.167 F 
HETATM   30  F   UNL     1      -7.132   3.339 -29.497  1.00  0.00    -0.167 F 
ENDBRANCH  12  27
BRANCH   1  31
HETATM   31  C   UNL     1      -3.042   6.522 -30.513  1.00  0.00     0.045 A 
HETATM   32  C   UNL     1      -2.926   6.948 -29.183  1.00  0.00     0.031 A 
HETATM   33  C   UNL     1      -1.699   7.376 -28.665  1.00  0.00     0.009 A 
HETATM   34  C   UNL     1      -0.560   7.409 -29.474  1.00  0.00    -0.062 A 
HETATM   35  C   UNL     1       0.761   7.833 -28.904  1.00  0.00     0.048 C 
HETATM   36  C   UNL     1      -0.667   6.996 -30.805  1.00  0.00     0.009 A 
HETATM   37  C   UNL     1      -1.896   6.566 -31.320  1.00  0.00     0.031 A 
ENDBRANCH   1  31
TORSDOF 6
ENDMDL
MODEL 10
REMARK VINA RESULT:      -8.8      1.543      8.052
REMARK  6 active torsions:
REMARK  status: ('A' for Active; 'I' for Inactive)
REMARK    1  A    between atoms: C_5  and  N_6 
REMARK    2  A    between atoms: C_17  and  N_18 
REMARK    3  A    between atoms: C_17  and  C_29 
REMARK       I    between atoms: N_18  and  C_19 
REMARK    4  A    between atoms: C_19  and  C_20 
REMARK    5  A    between atoms: C_20  and  C_21 
REMARK    6  A    between atoms: C_21  and  C_22 
ROOT
HETATM    1  N   UNL     1      -4.691   1.337 -32.399  1.00  0.00    -0.248 N 
HETATM    2  C   UNL     1      -3.704   1.222 -31.391  1.00  0.00     0.335 A 
HETATM    3  O   UNL     1      -3.192   0.179 -30.986  1.00  0.00    -0.246 OA
HETATM    4  N   UNL     1      -3.258   2.409 -30.844  1.00  0.00    -0.274 N 
HETATM    5  C   UNL     1      -3.608   3.672 -31.220  1.00  0.00     0.262 A 
HETATM    6  O   UNL     1      -3.107   4.686 -30.756  1.00  0.00    -0.267 OA
HETATM    7  C   UNL     1      -4.646   3.726 -32.225  1.00  0.00     0.101 A 
HETATM    8  C   UNL     1      -5.124   2.600 -32.755  1.00  0.00     0.134 A 
HETATM    9  N   UNL     1      -6.124   2.923 -33.620  1.00  0.00    -0.309 N 
HETATM   10  C   UNL     1      -6.285   4.299 -33.731  1.00  0.00     0.266 A 
HETATM   11  O   UNL     1      -7.052   4.850 -34.504  1.00  0.00    -0.270 OA
HETATM   12  C   UNL     1      -5.332   4.962 -32.724  1.00  0.00     0.249 A 
HETATM   13  H   UNL     1      -2.522   2.320 -30.158  1.00  0.00     0.173 HD
HETATM   14  H   UNL     1      -6.671   2.273 -34.167  1.00  0.00     0.170 HD
ENDROOT
BRANCH  12  15
HETATM   15  N   UNL     1      -4.400   5.929 -33.335  1.00  0.00    -0.332 N 
HETATM   16  C   UNL     1      -3.373   5.570 -34.173  1.00  0.00     0.219 C 
HETATM   17  O   UNL     1      -3.210   4.427 -34.581  1.00  0.00    -0.274 OA
HETATM   18  H   UNL     1      -4.375   6.856 -32.924  1.00  0.00     0.164 HD
BRANCH  16  19
HETATM   19  C   UNL     1      -2.425   6.700 -34.500  1.00  0.00     0.107 C 
BRANCH  19  20
HETATM   20  C   UNL     1      -1.033   6.390 -33.952  1.00  0.00     0.047 C 
BRANCH  20  21
HETATM   21  C   UNL     1      -0.880   6.767 -32.498  1.00  0.00    -0.058 A 
HETATM   22  C   UNL     1      -1.644   7.808 -31.952  1.00  0.00     0.007 A 
HETATM   23  C   UNL     1      -1.515   8.150 -30.605  1.00  0.00     0.001 A 
HETATM   24  C   UNL     1      -0.622   7.456 -29.790  1.00  0.00     0.000 A 
HETATM   25  C   UNL     1       0.138   6.417 -30.322  1.00  0.00     0.001 A 
HETATM   26  C   UNL     1       0.009   6.072 -31.668  1.00  0.00     0.007 A 
ENDBRANCH  20  21
ENDBRANCH  19  20
ENDBRANCH  16  19
ENDBRANCH  12  15
BRANCH  12  27
HETATM   27  C   UNL     1      -6.250   5.577 -31.659  1.00  0.00     0.426 C 
HETATM   28  F   UNL     1      -7.245   6.323 -32.193  1.00  0.00    -0.167 F 
HETATM   29  F   UNL     1      -6.839   4.611 -30.911  1.00  0.00    -0.167 F 
HETATM   30  F   UNL     1      -5.571   6.359 -30.790  1.00  0.00    -0.167 F 
ENDBRANCH  12  27
BRANCH   1  31
HETATM   31  C   UNL     1      -5.194   0.135 -33.009  1.00  0.00     0.045 A 
HETATM   32  C   UNL     1      -6.570  -0.130 -33.049  1.00  0.00     0.031 A 
HETATM   33  C   UNL     1      -7.068  -1.276 -33.678  1.00  0.00     0.009 A 
HETATM   34  C   UNL     1      -6.198  -2.198 -34.266  1.00  0.00    -0.062 A 
HETATM   35  C   UNL     1      -6.739  -3.405 -34.971  1.00  0.00     0.048 C 
HETATM   36  C   UNL     1      -4.823  -1.949 -34.222  1.00  0.00     0.009 A 
HETATM   37  C   UNL     1      -4.327  -0.800 -33.593  1.00  0.00     0.031 A 
ENDBRANCH   1  31
TORSDOF 6
ENDMDL
