MODEL 1
REMARK VINA RESULT:      -8.8      0.000      0.000
REMARK  8 active torsions:
REMARK  status: ('A' for Active; 'I' for Inactive)
REMARK    1  A    between atoms: C_5  and  C_6 
REMARK    2  A    between atoms: N_7  and  N_8 
REMARK       I    between atoms: N_8  and  C_9 
REMARK    3  A    between atoms: C_9  and  C_10 
REMARK    4  A    between atoms: N_13  and  C_14 
REMARK    5  A    between atoms: C_18  and  N_19 
REMARK    6  A    between atoms: C_20  and  C_21 
REMARK    7  A    between atoms: C_21  and  N_22 
REMARK    8  A    between atoms: C_30  and  O_31 
ROOT
HETATM    1  C   UNL     1      -3.934  -0.440 -32.368  1.00  0.00     0.170 A 
HETATM    2  N   UNL     1      -3.185  -1.512 -31.981  1.00  0.00    -0.152 NA
HETATM    3  N   UNL     1      -3.604  -2.571 -32.654  1.00  0.00     0.012 NA
HETATM    4  N   UNL     1      -4.647  -2.214 -33.449  1.00  0.00    -0.215 N 
HETATM    5  C   UNL     1      -4.841  -0.839 -33.340  1.00  0.00     0.096 A 
ENDROOT
BRANCH   1   6
HETATM    6  C   UNL     1      -3.772   0.897 -31.816  1.00  0.00     0.293 C 
HETATM    7  N   UNL     1      -3.127   1.784 -32.660  1.00  0.00    -0.242 N 
HETATM    8  H   UNL     1      -2.809   1.480 -33.577  1.00  0.00     0.192 HD
HETATM    9  O   UNL     1      -4.182   1.156 -30.687  1.00  0.00    -0.264 OA
BRANCH   7  10
HETATM   10  N   UNL     1      -2.960   3.076 -32.266  1.00  0.00    -0.183 NA
HETATM   11  C   UNL     1      -2.287   3.837 -33.071  1.00  0.00     0.153 C 
BRANCH  11  12
HETATM   12  C   UNL     1      -2.062   5.262 -32.749  1.00  0.00     0.017 A 
HETATM   13  C   UNL     1      -1.459   5.572 -31.525  1.00  0.00     0.034 A 
HETATM   14  C   UNL     1      -1.228   6.909 -31.196  1.00  0.00     0.012 A 
HETATM   15  C   UNL     1      -1.588   7.933 -32.071  1.00  0.00     0.022 A 
HETATM   16 BR   UNL     1      -0.414   7.334 -29.543  1.00  0.00    -0.051 Br
HETATM   17  C   UNL     1      -2.189   7.622 -33.291  1.00  0.00     0.039 A 
HETATM   18  C   UNL     1      -2.426   6.291 -33.628  1.00  0.00     0.077 A 
BRANCH  18  19
HETATM   19  O   UNL     1      -3.019   6.069 -34.841  1.00  0.00    -0.360 OA
HETATM   20  H   UNL     1      -2.903   6.875 -35.390  1.00  0.00     0.217 HD
ENDBRANCH  18  19
ENDBRANCH  11  12
ENDBRANCH   7  10
ENDBRANCH   1   6
BRANCH   5  21
HETATM   21  C   UNL     1      -5.770  -0.031 -34.165  1.00  0.00     0.296 C 
BRANCH  21  22
HETATM   22  N   UNL     1      -7.188   0.041 -33.652  1.00  0.00    -0.066 N 
HETATM   23  H   UNL     1      -7.557  -0.922 -33.695  1.00  0.00     0.280 HD
HETATM   24  C   UNL     1      -7.295   0.541 -32.229  1.00  0.00     0.235 C 
HETATM   25  C   UNL     1      -8.744   0.438 -31.770  1.00  0.00     0.028 C 
HETATM   26  C   UNL     1      -9.685   1.202 -32.692  1.00  0.00     0.003 C 
HETATM   27  C   UNL     1      -9.506   0.770 -34.144  1.00  0.00     0.028 C 
HETATM   28  C   UNL     1      -8.052   0.865 -34.585  1.00  0.00     0.235 C 
ENDBRANCH  21  22
ENDBRANCH   5  21
BRANCH   4  29
HETATM   29  C   UNL     1      -5.404  -3.158 -34.183  1.00  0.00     0.225 A 
HETATM   30  N   UNL     1      -6.616  -2.828 -34.645  1.00  0.00    -0.081 NA
HETATM   31  O   UNL     1      -7.052  -3.993 -35.286  1.00  0.00    -0.103 OA
HETATM   32  N   UNL     1      -6.118  -5.010 -35.166  1.00  0.00    -0.083 NA
HETATM   33  C   UNL     1      -5.097  -4.497 -34.483  1.00  0.00     0.201 A 
BRANCH  33  34
HETATM   34  N   UNL     1      -3.985  -5.169 -34.154  1.00  0.00    -0.379 N 
HETATM   35  H   UNL     1      -3.459  -4.916 -33.320  1.00  0.00     0.158 HD
HETATM   36  H   UNL     1      -3.522  -5.842 -34.761  1.00  0.00     0.158 HD
ENDBRANCH  33  34
ENDBRANCH   4  29
TORSDOF 8
ENDMDL
MODEL 2
REMARK VINA RESULT:      -8.8      3.707      5.879
REMARK  8 active torsions:
REMARK  status: ('A' for Active; 'I' for Inactive)
REMARK    1  A    between atoms: C_5  and  C_6 
REMARK    2  A    between atoms: N_7  and  N_8 
REMARK       I    between atoms: N_8  and  C_9 
REMARK    3  A    between atoms: C_9  and  C_10 
REMARK    4  A    between atoms: N_13  and  C_14 
REMARK    5  A    between atoms: C_18  and  N_19 
REMARK    6  A    between atoms: C_20  and  C_21 
REMARK    7  A    between atoms: C_21  and  N_22 
REMARK    8  A    between atoms: C_30  and  O_31 
ROOT
HETATM    1  C   UNL     1      -8.238   4.489 -33.987  1.00  0.00     0.170 A 
HETATM    2  N   UNL     1      -8.980   5.469 -34.579  1.00  0.00    -0.152 NA
HETATM    3  N   UNL     1     -10.257   5.150 -34.456  1.00  0.00     0.012 NA
HETATM    4  N   UNL     1     -10.361   3.950 -33.826  1.00  0.00    -0.215 N 
HETATM    5  C   UNL     1      -9.087   3.530 -33.451  1.00  0.00     0.096 A 
ENDROOT
BRANCH   1   6
HETATM    6  C   UNL     1      -6.783   4.490 -33.951  1.00  0.00     0.293 C 
HETATM    7  N   UNL     1      -6.226   5.699 -33.575  1.00  0.00    -0.242 N 
HETATM    8  H   UNL     1      -6.824   6.492 -33.354  1.00  0.00     0.192 HD
HETATM    9  O   UNL     1      -6.155   3.478 -34.253  1.00  0.00    -0.264 OA
BRANCH   7  10
HETATM   10  N   UNL     1      -4.874   5.803 -33.463  1.00  0.00    -0.183 NA
HETATM   11  C   UNL     1      -4.434   6.529 -32.484  1.00  0.00     0.153 C 
BRANCH  11  12
HETATM   12  C   UNL     1      -2.983   6.694 -32.260  1.00  0.00     0.017 A 
HETATM   13  C   UNL     1      -2.507   6.609 -30.947  1.00  0.00     0.034 A 
HETATM   14  C   UNL     1      -1.140   6.754 -30.704  1.00  0.00     0.012 A 
HETATM   15  C   UNL     1      -0.248   6.980 -31.752  1.00  0.00     0.022 A 
HETATM   16 BR   UNL     1      -0.491   6.641 -28.931  1.00  0.00    -0.051 Br
HETATM   17  C   UNL     1      -0.725   7.065 -33.061  1.00  0.00     0.039 A 
HETATM   18  C   UNL     1      -2.087   6.923 -33.313  1.00  0.00     0.077 A 
BRANCH  18  19
HETATM   19  O   UNL     1      -2.475   7.018 -34.621  1.00  0.00    -0.360 OA
HETATM   20  H   UNL     1      -3.450   7.130 -34.643  1.00  0.00     0.217 HD
ENDBRANCH  18  19
ENDBRANCH  11  12
ENDBRANCH   7  10
ENDBRANCH   1   6
BRANCH   5  21
HETATM   21  C   UNL     1      -8.781   2.356 -32.601  1.00  0.00     0.296 C 
BRANCH  21  22
HETATM   22  N   UNL     1      -7.895   1.314 -33.240  1.00  0.00    -0.066 N 
HETATM   23  H   UNL     1      -7.048   1.813 -33.556  1.00  0.00     0.280 HD
HETATM   24  C   UNL     1      -7.485   0.205 -32.298  1.00  0.00     0.235 C 
HETATM   25  C   UNL     1      -6.485  -0.705 -33.001  1.00  0.00     0.028 C 
HETATM   26  C   UNL     1      -7.050  -1.268 -34.299  1.00  0.00     0.003 C 
HETATM   27  C   UNL     1      -7.558  -0.155 -35.209  1.00  0.00     0.028 C 
HETATM   28  C   UNL     1      -8.544   0.754 -34.490  1.00  0.00     0.235 C 
ENDBRANCH  21  22
ENDBRANCH   5  21
BRANCH   4  29
HETATM   29  C   UNL     1     -11.595   3.272 -33.675  1.00  0.00     0.225 A 
HETATM   30  N   UNL     1     -12.310   3.427 -32.555  1.00  0.00    -0.081 NA
HETATM   31  O   UNL     1     -13.425   2.607 -32.761  1.00  0.00    -0.103 OA
HETATM   32  N   UNL     1     -13.344   1.948 -33.977  1.00  0.00    -0.083 NA
HETATM   33  C   UNL     1     -12.211   2.356 -34.545  1.00  0.00     0.201 A 
BRANCH  33  34
HETATM   34  N   UNL     1     -11.766   1.944 -35.741  1.00  0.00    -0.379 N 
HETATM   35  H   UNL     1     -10.802   1.639 -35.852  1.00  0.00     0.158 HD
HETATM   36  H   UNL     1     -12.284   2.046 -36.611  1.00  0.00     0.158 HD
ENDBRANCH  33  34
ENDBRANCH   4  29
TORSDOF 8
ENDMDL
MODEL 3
REMARK VINA RESULT:      -8.5      4.694     10.811
REMARK  8 active torsions:
REMARK  status: ('A' for Active; 'I' for Inactive)
REMARK    1  A    between atoms: C_5  and  C_6 
REMARK    2  A    between atoms: N_7  and  N_8 
REMARK       I    between atoms: N_8  and  C_9 
REMARK    3  A    between atoms: C_9  and  C_10 
REMARK    4  A    between atoms: N_13  and  C_14 
REMARK    5  A    between atoms: C_18  and  N_19 
REMARK    6  A    between atoms: C_20  and  C_21 
REMARK    7  A    between atoms: C_21  and  N_22 
REMARK    8  A    between atoms: C_30  and  O_31 
ROOT
HETATM    1  C   UNL     1      -1.953   6.443 -31.653  1.00  0.00     0.170 A 
HETATM    2  N   UNL     1      -1.953   7.249 -32.753  1.00  0.00    -0.152 NA
HETATM    3  N   UNL     1      -2.172   8.491 -32.354  1.00  0.00     0.012 NA
HETATM    4  N   UNL     1      -2.356   8.503 -31.007  1.00  0.00    -0.215 N 
HETATM    5  C   UNL     1      -2.155   7.215 -30.517  1.00  0.00     0.096 A 
ENDROOT
BRANCH   1   6
HETATM    6  C   UNL     1      -1.767   5.000 -31.711  1.00  0.00     0.293 C 
HETATM    7  N   UNL     1      -2.899   4.298 -32.084  1.00  0.00    -0.242 N 
HETATM    8  H   UNL     1      -3.765   4.791 -32.287  1.00  0.00     0.192 HD
HETATM    9  O   UNL     1      -0.680   4.504 -31.430  1.00  0.00    -0.264 OA
BRANCH   7  10
HETATM   10  N   UNL     1      -2.830   2.945 -32.215  1.00  0.00    -0.183 NA
HETATM   11  C   UNL     1      -3.959   2.308 -32.180  1.00  0.00     0.153 C 
BRANCH  11  12
HETATM   12  C   UNL     1      -4.000   0.838 -32.331  1.00  0.00     0.017 A 
HETATM   13  C   UNL     1      -4.931   0.296 -33.224  1.00  0.00     0.034 A 
HETATM   14  C   UNL     1      -4.989  -1.088 -33.394  1.00  0.00     0.012 A 
HETATM   15  C   UNL     1      -4.132  -1.932 -32.687  1.00  0.00     0.022 A 
HETATM   16 BR   UNL     1      -6.245  -1.827 -34.599  1.00  0.00    -0.051 Br
HETATM   17  C   UNL     1      -3.205  -1.389 -31.796  1.00  0.00     0.039 A 
HETATM   18  C   UNL     1      -3.141  -0.009 -31.619  1.00  0.00     0.077 A 
BRANCH  18  19
HETATM   19  O   UNL     1      -2.205   0.445 -30.729  1.00  0.00    -0.360 OA
HETATM   20  H   UNL     1      -2.534   0.264 -29.822  1.00  0.00     0.217 HD
ENDBRANCH  18  19
ENDBRANCH  11  12
ENDBRANCH   7  10
ENDBRANCH   1   6
BRANCH   5  21
HETATM   21  C   UNL     1      -2.101   6.834 -29.086  1.00  0.00     0.296 C 
BRANCH  21  22
HETATM   22  N   UNL     1      -1.028   7.524 -28.278  1.00  0.00    -0.066 N 
HETATM   23  H   UNL     1      -1.258   8.529 -28.297  1.00  0.00     0.280 HD
HETATM   24  C   UNL     1      -0.963   7.065 -26.839  1.00  0.00     0.235 C 
HETATM   25  C   UNL     1       0.048   7.921 -26.086  1.00  0.00     0.028 C 
HETATM   26  C   UNL     1       1.424   7.876 -26.739  1.00  0.00     0.003 C 
HETATM   27  C   UNL     1       1.344   8.240 -28.218  1.00  0.00     0.028 C 
HETATM   28  C   UNL     1       0.321   7.388 -28.954  1.00  0.00     0.235 C 
ENDBRANCH  21  22
ENDBRANCH   5  21
BRANCH   4  29
HETATM   29  C   UNL     1      -2.754   9.664 -30.301  1.00  0.00     0.225 A 
HETATM   30  N   UNL     1      -1.936  10.204 -29.390  1.00  0.00    -0.081 NA
HETATM   31  O   UNL     1      -2.663  11.297 -28.903  1.00  0.00    -0.103 OA
HETATM   32  N   UNL     1      -3.912  11.373 -29.499  1.00  0.00    -0.083 NA
HETATM   33  C   UNL     1      -3.972  10.363 -30.364  1.00  0.00     0.201 A 
BRANCH  33  34
HETATM   34  N   UNL     1      -5.027  10.088 -31.144  1.00  0.00    -0.379 N 
HETATM   35  H   UNL     1      -5.972  10.159 -30.773  1.00  0.00     0.158 HD
HETATM   36  H   UNL     1      -4.963   9.661 -32.066  1.00  0.00     0.158 HD
ENDBRANCH  33  34
ENDBRANCH   4  29
TORSDOF 8
ENDMDL
MODEL 4
REMARK VINA RESULT:      -8.5      2.987      4.896
REMARK  8 active torsions:
REMARK  status: ('A' for Active; 'I' for Inactive)
REMARK    1  A    between atoms: C_5  and  C_6 
REMARK    2  A    between atoms: N_7  and  N_8 
REMARK       I    between atoms: N_8  and  C_9 
REMARK    3  A    between atoms: C_9  and  C_10 
REMARK    4  A    between atoms: N_13  and  C_14 
REMARK    5  A    between atoms: C_18  and  N_19 
REMARK    6  A    between atoms: C_20  and  C_21 
REMARK    7  A    between atoms: C_21  and  N_22 
REMARK    8  A    between atoms: C_30  and  O_31 
ROOT
HETATM    1  C   UNL     1      -6.981   2.732 -31.190  1.00  0.00     0.170 A 
HETATM    2  N   UNL     1      -7.960   2.962 -30.269  1.00  0.00    -0.152 NA
HETATM    3  N   UNL     1      -9.126   2.688 -30.830  1.00  0.00     0.012 NA
HETATM    4  N   UNL     1      -8.926   2.321 -32.124  1.00  0.00    -0.215 N 
HETATM    5  C   UNL     1      -7.556   2.273 -32.368  1.00  0.00     0.096 A 
ENDROOT
BRANCH   1   6
HETATM    6  C   UNL     1      -5.565   2.951 -30.933  1.00  0.00     0.293 C 
HETATM    7  N   UNL     1      -5.065   4.120 -31.478  1.00  0.00    -0.242 N 
HETATM    8  H   UNL     1      -5.673   4.741 -32.008  1.00  0.00     0.192 HD
HETATM    9  O   UNL     1      -4.917   2.128 -30.293  1.00  0.00    -0.264 OA
BRANCH   7  10
HETATM   10  N   UNL     1      -3.762   4.451 -31.264  1.00  0.00    -0.183 NA
HETATM   11  C   UNL     1      -3.522   5.700 -31.018  1.00  0.00     0.153 C 
BRANCH  11  12
HETATM   12  C   UNL     1      -2.144   6.165 -30.752  1.00  0.00     0.017 A 
HETATM   13  C   UNL     1      -1.938   7.023 -29.666  1.00  0.00     0.034 A 
HETATM   14  C   UNL     1      -0.647   7.474 -29.385  1.00  0.00     0.012 A 
HETATM   15  C   UNL     1       0.435   7.076 -30.171  1.00  0.00     0.022 A 
HETATM   16 BR   UNL     1      -0.363   8.634 -27.920  1.00  0.00    -0.051 Br
HETATM   17  C   UNL     1       0.227   6.221 -31.254  1.00  0.00     0.039 A 
HETATM   18  C   UNL     1      -1.057   5.768 -31.543  1.00  0.00     0.077 A 
BRANCH  18  19
HETATM   19  O   UNL     1      -1.178   4.932 -32.619  1.00  0.00    -0.360 OA
HETATM   20  H   UNL     1      -2.126   4.895 -32.873  1.00  0.00     0.217 HD
ENDBRANCH  18  19
ENDBRANCH  11  12
ENDBRANCH   7  10
ENDBRANCH   1   6
BRANCH   5  21
HETATM   21  C   UNL     1      -6.916   1.760 -33.602  1.00  0.00     0.296 C 
BRANCH  21  22
HETATM   22  N   UNL     1      -6.596   0.284 -33.594  1.00  0.00    -0.066 N 
HETATM   23  H   UNL     1      -7.082  -0.109 -32.772  1.00  0.00     0.280 HD
HETATM   24  C   UNL     1      -7.065  -0.446 -34.832  1.00  0.00     0.235 C 
HETATM   25  C   UNL     1      -6.820  -1.939 -34.656  1.00  0.00     0.028 C 
HETATM   26  C   UNL     1      -5.357  -2.242 -34.361  1.00  0.00     0.003 C 
HETATM   27  C   UNL     1      -4.854  -1.428 -33.173  1.00  0.00     0.028 C 
HETATM   28  C   UNL     1      -5.117   0.059 -33.356  1.00  0.00     0.235 C 
ENDBRANCH  21  22
ENDBRANCH   5  21
BRANCH   4  29
HETATM   29  C   UNL     1      -9.993   2.106 -33.029  1.00  0.00     0.225 A 
HETATM   30  N   UNL     1     -10.483   3.129 -33.738  1.00  0.00    -0.081 NA
HETATM   31  O   UNL     1     -11.512   2.547 -34.487  1.00  0.00    -0.103 OA
HETATM   32  N   UNL     1     -11.648   1.200 -34.189  1.00  0.00    -0.083 NA
HETATM   33  C   UNL     1     -10.710   0.924 -33.286  1.00  0.00     0.201 A 
BRANCH  33  34
HETATM   34  N   UNL     1     -10.512  -0.283 -32.737  1.00  0.00    -0.379 N 
HETATM   35  H   UNL     1     -11.293  -0.919 -32.598  1.00  0.00     0.158 HD
HETATM   36  H   UNL     1      -9.641  -0.576 -32.298  1.00  0.00     0.158 HD
ENDBRANCH  33  34
ENDBRANCH   4  29
TORSDOF 8
ENDMDL
MODEL 5
REMARK VINA RESULT:      -8.3      4.867      8.484
REMARK  8 active torsions:
REMARK  status: ('A' for Active; 'I' for Inactive)
REMARK    1  A    between atoms: C_5  and  C_6 
REMARK    2  A    between atoms: N_7  and  N_8 
REMARK       I    between atoms: N_8  and  C_9 
REMARK    3  A    between atoms: C_9  and  C_10 
REMARK    4  A    between atoms: N_13  and  C_14 
REMARK    5  A    between atoms: C_18  and  N_19 
REMARK    6  A    between atoms: C_20  and  C_21 
REMARK    7  A    between atoms: C_21  and  N_22 
REMARK    8  A    between atoms: C_30  and  O_31 
ROOT
HETATM    1  C   UNL     1      -3.412   5.583 -33.564  1.00  0.00     0.170 A 
HETATM    2  N   UNL     1      -2.778   6.778 -33.734  1.00  0.00    -0.152 NA
HETATM    3  N   UNL     1      -1.726   6.804 -32.933  1.00  0.00     0.012 NA
HETATM    4  N   UNL     1      -1.686   5.655 -32.208  1.00  0.00    -0.215 N 
HETATM    5  C   UNL     1      -2.714   4.820 -32.637  1.00  0.00     0.096 A 
ENDROOT
BRANCH   1   6
HETATM    6  C   UNL     1      -4.631   5.209 -34.267  1.00  0.00     0.293 C 
HETATM    7  N   UNL     1      -5.793   5.479 -33.568  1.00  0.00    -0.242 N 
HETATM    8  H   UNL     1      -5.749   5.901 -32.643  1.00  0.00     0.192 HD
HETATM    9  O   UNL     1      -4.571   4.690 -35.379  1.00  0.00    -0.264 OA
BRANCH   7  10
HETATM   10  N   UNL     1      -6.996   5.212 -34.147  1.00  0.00    -0.183 NA
HETATM   11  C   UNL     1      -7.795   4.442 -33.477  1.00  0.00     0.153 C 
BRANCH  11  12
HETATM   12  C   UNL     1      -9.134   4.103 -34.006  1.00  0.00     0.017 A 
HETATM   13  C   UNL     1      -9.682   2.864 -33.659  1.00  0.00     0.034 A 
HETATM   14  C   UNL     1     -10.947   2.517 -34.137  1.00  0.00     0.012 A 
HETATM   15  C   UNL     1     -11.667   3.392 -34.951  1.00  0.00     0.022 A 
HETATM   16 BR   UNL     1     -11.693   0.843 -33.673  1.00  0.00    -0.051 Br
HETATM   17  C   UNL     1     -11.118   4.628 -35.295  1.00  0.00     0.039 A 
HETATM   18  C   UNL     1      -9.856   4.981 -34.825  1.00  0.00     0.077 A 
BRANCH  18  19
HETATM   19  O   UNL     1      -9.388   6.209 -35.207  1.00  0.00    -0.360 OA
HETATM   20  H   UNL     1      -9.689   6.869 -34.546  1.00  0.00     0.217 HD
ENDBRANCH  18  19
ENDBRANCH  11  12
ENDBRANCH   7  10
ENDBRANCH   1   6
BRANCH   5  21
HETATM   21  C   UNL     1      -2.916   3.413 -32.218  1.00  0.00     0.296 C 
BRANCH  21  22
HETATM   22  N   UNL     1      -4.357   2.997 -32.036  1.00  0.00    -0.066 N 
HETATM   23  H   UNL     1      -4.920   3.683 -32.563  1.00  0.00     0.280 HD
HETATM   24  C   UNL     1      -4.659   1.612 -32.561  1.00  0.00     0.235 C 
HETATM   25  C   UNL     1      -6.157   1.354 -32.458  1.00  0.00     0.028 C 
HETATM   26  C   UNL     1      -6.663   1.524 -31.031  1.00  0.00     0.003 C 
HETATM   27  C   UNL     1      -6.270   2.884 -30.464  1.00  0.00     0.028 C 
HETATM   28  C   UNL     1      -4.774   3.134 -30.586  1.00  0.00     0.235 C 
ENDBRANCH  21  22
ENDBRANCH   5  21
BRANCH   4  29
HETATM   29  C   UNL     1      -0.758   5.447 -31.159  1.00  0.00     0.225 A 
HETATM   30  N   UNL     1       0.324   4.687 -31.366  1.00  0.00    -0.081 NA
HETATM   31  O   UNL     1       0.974   4.698 -30.127  1.00  0.00    -0.103 OA
HETATM   32  N   UNL     1       0.258   5.428 -29.191  1.00  0.00    -0.083 NA
HETATM   33  C   UNL     1      -0.816   5.892 -29.827  1.00  0.00     0.201 A 
BRANCH  33  34
HETATM   34  N   UNL     1      -1.769   6.648 -29.264  1.00  0.00    -0.379 N 
HETATM   35  H   UNL     1      -2.529   6.215 -28.744  1.00  0.00     0.158 HD
HETATM   36  H   UNL     1      -1.884   7.645 -29.434  1.00  0.00     0.158 HD
ENDBRANCH  33  34
ENDBRANCH   4  29
TORSDOF 8
ENDMDL
MODEL 6
REMARK VINA RESULT:      -8.3      4.915     10.027
REMARK  8 active torsions:
REMARK  status: ('A' for Active; 'I' for Inactive)
REMARK    1  A    between atoms: C_5  and  C_6 
REMARK    2  A    between atoms: N_7  and  N_8 
REMARK       I    between atoms: N_8  and  C_9 
REMARK    3  A    between atoms: C_9  and  C_10 
REMARK    4  A    between atoms: N_13  and  C_14 
REMARK    5  A    between atoms: C_18  and  N_19 
REMARK    6  A    between atoms: C_20  and  C_21 
REMARK    7  A    between atoms: C_21  and  N_22 
REMARK    8  A    between atoms: C_30  and  O_31 
ROOT
HETATM    1  C   UNL     1      -5.495   5.555 -29.183  1.00  0.00     0.170 A 
HETATM    2  N   UNL     1      -6.131   5.337 -27.996  1.00  0.00    -0.152 NA
HETATM    3  N   UNL     1      -5.515   6.043 -27.063  1.00  0.00     0.012 NA
HETATM    4  N   UNL     1      -4.456   6.692 -27.616  1.00  0.00    -0.215 N 
HETATM    5  C   UNL     1      -4.455   6.454 -28.988  1.00  0.00     0.096 A 
ENDROOT
BRANCH   1   6
HETATM    6  C   UNL     1      -5.883   4.920 -30.434  1.00  0.00     0.293 C 
HETATM    7  N   UNL     1      -5.060   3.876 -30.817  1.00  0.00    -0.242 N 
HETATM    8  H   UNL     1      -4.263   3.613 -30.242  1.00  0.00     0.192 HD
HETATM    9  O   UNL     1      -6.858   5.327 -31.060  1.00  0.00    -0.264 OA
BRANCH   7  10
HETATM   10  N   UNL     1      -5.353   3.178 -31.949  1.00  0.00    -0.183 NA
HETATM   11  C   UNL     1      -5.793   1.971 -31.779  1.00  0.00     0.153 C 
BRANCH  11  12
HETATM   12  C   UNL     1      -6.158   1.132 -32.940  1.00  0.00     0.017 A 
HETATM   13  C   UNL     1      -5.538  -0.115 -33.071  1.00  0.00     0.034 A 
HETATM   14  C   UNL     1      -5.867  -0.933 -34.153  1.00  0.00     0.012 A 
HETATM   15  C   UNL     1      -6.806  -0.522 -35.100  1.00  0.00     0.022 A 
HETATM   16 BR   UNL     1      -5.031  -2.619 -34.335  1.00  0.00    -0.051 Br
HETATM   17  C   UNL     1      -7.423   0.722 -34.968  1.00  0.00     0.039 A 
HETATM   18  C   UNL     1      -7.099   1.546 -33.893  1.00  0.00     0.077 A 
BRANCH  18  19
HETATM   19  O   UNL     1      -7.748   2.749 -33.834  1.00  0.00    -0.360 OA
HETATM   20  H   UNL     1      -8.281   2.849 -34.652  1.00  0.00     0.217 HD
ENDBRANCH  18  19
ENDBRANCH  11  12
ENDBRANCH   7  10
ENDBRANCH   1   6
BRANCH   5  21
HETATM   21  C   UNL     1      -3.566   7.108 -29.977  1.00  0.00     0.296 C 
BRANCH  21  22
HETATM   22  N   UNL     1      -2.182   6.513 -30.089  1.00  0.00    -0.066 N 
HETATM   23  H   UNL     1      -2.126   5.782 -29.364  1.00  0.00     0.280 HD
HETATM   24  C   UNL     1      -1.897   5.887 -31.435  1.00  0.00     0.235 C 
HETATM   25  C   UNL     1      -0.539   5.198 -31.390  1.00  0.00     0.028 C 
HETATM   26  C   UNL     1       0.570   6.162 -30.987  1.00  0.00     0.003 C 
HETATM   27  C   UNL     1       0.236   6.871 -29.679  1.00  0.00     0.028 C 
HETATM   28  C   UNL     1      -1.128   7.542 -29.733  1.00  0.00     0.235 C 
ENDBRANCH  21  22
ENDBRANCH   5  21
BRANCH   4  29
HETATM   29  C   UNL     1      -3.515   7.414 -26.844  1.00  0.00     0.225 A 
HETATM   30  N   UNL     1      -3.430   8.743 -26.968  1.00  0.00    -0.081 NA
HETATM   31  O   UNL     1      -2.402   9.091 -26.084  1.00  0.00    -0.103 OA
HETATM   32  N   UNL     1      -1.864   7.968 -25.475  1.00  0.00    -0.083 NA
HETATM   33  C   UNL     1      -2.550   6.928 -25.945  1.00  0.00     0.201 A 
BRANCH  33  34
HETATM   34  N   UNL     1      -2.331   5.651 -25.600  1.00  0.00    -0.379 N 
HETATM   35  H   UNL     1      -1.541   5.407 -25.007  1.00  0.00     0.158 HD
HETATM   36  H   UNL     1      -2.818   4.856 -26.008  1.00  0.00     0.158 HD
ENDBRANCH  33  34
ENDBRANCH   4  29
TORSDOF 8
ENDMDL
MODEL 7
REMARK VINA RESULT:      -8.2      4.471      9.266
REMARK  8 active torsions:
REMARK  status: ('A' for Active; 'I' for Inactive)
REMARK    1  A    between atoms: C_5  and  C_6 
REMARK    2  A    between atoms: N_7  and  N_8 
REMARK       I    between atoms: N_8  and  C_9 
REMARK    3  A    between atoms: C_9  and  C_10 
REMARK    4  A    between atoms: N_13  and  C_14 
REMARK    5  A    between atoms: C_18  and  N_19 
REMARK    6  A    between atoms: C_20  and  C_21 
REMARK    7  A    between atoms: C_21  and  N_22 
REMARK    8  A    between atoms: C_30  and  O_31 
ROOT
HETATM    1  C   UNL     1      -1.860   4.756 -31.430  1.00  0.00     0.170 A 
HETATM    2  N   UNL     1      -0.590   4.638 -30.947  1.00  0.00    -0.152 NA
HETATM    3  N   UNL     1      -0.397   5.597 -30.057  1.00  0.00     0.012 NA
HETATM    4  N   UNL     1      -1.514   6.368 -29.979  1.00  0.00    -0.215 N 
HETATM    5  C   UNL     1      -2.496   5.816 -30.797  1.00  0.00     0.096 A 
ENDROOT
BRANCH   1   6
HETATM    6  C   UNL     1      -2.419   3.883 -32.452  1.00  0.00     0.293 C 
HETATM    7  N   UNL     1      -3.120   2.801 -31.952  1.00  0.00    -0.242 N 
HETATM    8  H   UNL     1      -3.209   2.667 -30.947  1.00  0.00     0.192 HD
HETATM    9  O   UNL     1      -2.238   4.128 -33.642  1.00  0.00    -0.264 OA
BRANCH   7  10
HETATM   10  N   UNL     1      -3.724   1.941 -32.817  1.00  0.00    -0.183 NA
HETATM   11  C   UNL     1      -4.083   0.795 -32.328  1.00  0.00     0.153 C 
BRANCH  11  12
HETATM   12  C   UNL     1      -4.764  -0.206 -33.176  1.00  0.00     0.017 A 
HETATM   13  C   UNL     1      -4.227  -1.497 -33.228  1.00  0.00     0.034 A 
HETATM   14  C   UNL     1      -4.851  -2.466 -34.015  1.00  0.00     0.012 A 
HETATM   15  C   UNL     1      -6.001  -2.163 -34.744  1.00  0.00     0.022 A 
HETATM   16 BR   UNL     1      -4.129  -4.212 -34.090  1.00  0.00    -0.051 Br
HETATM   17  C   UNL     1      -6.535  -0.874 -34.691  1.00  0.00     0.039 A 
HETATM   18  C   UNL     1      -5.918   0.100 -33.911  1.00  0.00     0.077 A 
BRANCH  18  19
HETATM   19  O   UNL     1      -6.502   1.337 -33.911  1.00  0.00    -0.360 OA
HETATM   20  H   UNL     1      -7.395   1.253 -33.512  1.00  0.00     0.217 HD
ENDBRANCH  18  19
ENDBRANCH  11  12
ENDBRANCH   7  10
ENDBRANCH   1   6
BRANCH   5  21
HETATM   21  C   UNL     1      -3.908   6.258 -30.870  1.00  0.00     0.296 C 
BRANCH  21  22
HETATM   22  N   UNL     1      -4.821   5.670 -29.821  1.00  0.00    -0.066 N 
HETATM   23  H   UNL     1      -4.331   4.842 -29.448  1.00  0.00     0.280 HD
HETATM   24  C   UNL     1      -5.122   6.614 -28.679  1.00  0.00     0.235 C 
HETATM   25  C   UNL     1      -5.927   5.875 -27.617  1.00  0.00     0.028 C 
HETATM   26  C   UNL     1      -7.207   5.281 -28.190  1.00  0.00     0.003 C 
HETATM   27  C   UNL     1      -6.914   4.409 -29.406  1.00  0.00     0.028 C 
HETATM   28  C   UNL     1      -6.098   5.155 -30.452  1.00  0.00     0.235 C 
ENDBRANCH  21  22
ENDBRANCH   5  21
BRANCH   4  29
HETATM   29  C   UNL     1      -1.566   7.561 -29.218  1.00  0.00     0.225 A 
HETATM   30  N   UNL     1      -1.446   8.746 -29.828  1.00  0.00    -0.081 NA
HETATM   31  O   UNL     1      -1.525   9.666 -28.776  1.00  0.00    -0.103 OA
HETATM   32  N   UNL     1      -1.650   9.021 -27.555  1.00  0.00    -0.083 NA
HETATM   33  C   UNL     1      -1.675   7.718 -27.826  1.00  0.00     0.201 A 
BRANCH  33  34
HETATM   34  N   UNL     1      -1.784   6.749 -26.905  1.00  0.00    -0.379 N 
HETATM   35  H   UNL     1      -2.633   6.660 -26.352  1.00  0.00     0.158 HD
HETATM   36  H   UNL     1      -1.012   6.161 -26.598  1.00  0.00     0.158 HD
ENDBRANCH  33  34
ENDBRANCH   4  29
TORSDOF 8
ENDMDL
MODEL 8
REMARK VINA RESULT:      -8.2      3.131      5.312
REMARK  8 active torsions:
REMARK  status: ('A' for Active; 'I' for Inactive)
REMARK    1  A    between atoms: C_5  and  C_6 
REMARK    2  A    between atoms: N_7  and  N_8 
REMARK       I    between atoms: N_8  and  C_9 
REMARK    3  A    between atoms: C_9  and  C_10 
REMARK    4  A    between atoms: N_13  and  C_14 
REMARK    5  A    between atoms: C_18  and  N_19 
REMARK    6  A    between atoms: C_20  and  C_21 
REMARK    7  A    between atoms: C_21  and  N_22 
REMARK    8  A    between atoms: C_30  and  O_31 
ROOT
HETATM    1  C   UNL     1      -8.229   3.637 -32.909  1.00  0.00     0.170 A 
HETATM    2  N   UNL     1      -9.032   4.069 -31.894  1.00  0.00    -0.152 NA
HETATM    3  N   UNL     1     -10.092   3.280 -31.845  1.00  0.00     0.012 NA
HETATM    4  N   UNL     1     -10.014   2.360 -32.842  1.00  0.00    -0.215 N 
HETATM    5  C   UNL     1      -8.798   2.518 -33.502  1.00  0.00     0.096 A 
ENDROOT
BRANCH   1   6
HETATM    6  C   UNL     1      -6.978   4.284 -33.278  1.00  0.00     0.293 C 
HETATM    7  N   UNL     1      -5.909   3.959 -32.462  1.00  0.00    -0.242 N 
HETATM    8  H   UNL     1      -6.037   3.319 -31.681  1.00  0.00     0.192 HD
HETATM    9  O   UNL     1      -6.937   5.054 -34.234  1.00  0.00    -0.264 OA
BRANCH   7  10
HETATM   10  N   UNL     1      -4.679   4.471 -32.739  1.00  0.00    -0.183 NA
HETATM   11  C   UNL     1      -4.285   5.451 -31.990  1.00  0.00     0.153 C 
BRANCH  11  12
HETATM   12  C   UNL     1      -2.957   6.069 -32.193  1.00  0.00     0.017 A 
HETATM   13  C   UNL     1      -2.140   6.253 -31.072  1.00  0.00     0.034 A 
HETATM   14  C   UNL     1      -0.878   6.828 -31.233  1.00  0.00     0.012 A 
HETATM   15  C   UNL     1      -0.425   7.216 -32.494  1.00  0.00     0.022 A 
HETATM   16 BR   UNL     1       0.231   7.080 -29.722  1.00  0.00    -0.051 Br
HETATM   17  C   UNL     1      -1.242   7.031 -33.610  1.00  0.00     0.039 A 
HETATM   18  C   UNL     1      -2.503   6.461 -33.460  1.00  0.00     0.077 A 
BRANCH  18  19
HETATM   19  O   UNL     1      -3.243   6.313 -34.601  1.00  0.00    -0.360 OA
HETATM   20  H   UNL     1      -4.096   6.782 -34.475  1.00  0.00     0.217 HD
ENDBRANCH  18  19
ENDBRANCH  11  12
ENDBRANCH   7  10
ENDBRANCH   1   6
BRANCH   5  21
HETATM   21  C   UNL     1      -8.255   1.612 -34.541  1.00  0.00     0.296 C 
BRANCH  21  22
HETATM   22  N   UNL     1      -7.654   0.327 -34.022  1.00  0.00    -0.066 N 
HETATM   23  H   UNL     1      -8.365  -0.091 -33.403  1.00  0.00     0.280 HD
HETATM   24  C   UNL     1      -7.312  -0.665 -35.110  1.00  0.00     0.235 C 
HETATM   25  C   UNL     1      -6.851  -1.969 -34.471  1.00  0.00     0.028 C 
HETATM   26  C   UNL     1      -5.670  -1.753 -33.534  1.00  0.00     0.003 C 
HETATM   27  C   UNL     1      -5.977  -0.677 -32.498  1.00  0.00     0.028 C 
HETATM   28  C   UNL     1      -6.450   0.614 -33.149  1.00  0.00     0.235 C 
ENDBRANCH  21  22
ENDBRANCH   5  21
BRANCH   4  29
HETATM   29  C   UNL     1     -11.071   1.465 -33.140  1.00  0.00     0.225 A 
HETATM   30  N   UNL     1     -10.878   0.146 -33.032  1.00  0.00    -0.081 NA
HETATM   31  O   UNL     1     -12.109  -0.398 -33.417  1.00  0.00    -0.103 OA
HETATM   32  N   UNL     1     -13.003   0.596 -33.784  1.00  0.00    -0.083 NA
HETATM   33  C   UNL     1     -12.362   1.751 -33.614  1.00  0.00     0.201 A 
BRANCH  33  34
HETATM   34  N   UNL     1     -12.888   2.958 -33.864  1.00  0.00    -0.379 N 
HETATM   35  H   UNL     1     -13.040   3.620 -33.106  1.00  0.00     0.158 HD
HETATM   36  H   UNL     1     -13.298   3.232 -34.755  1.00  0.00     0.158 HD
ENDBRANCH  33  34
ENDBRANCH   4  29
TORSDOF 8
ENDMDL
MODEL 9
REMARK VINA RESULT:      -8.2      4.506     10.359
REMARK  8 active torsions:
REMARK  status: ('A' for Active; 'I' for Inactive)
REMARK    1  A    between atoms: C_5  and  C_6 
REMARK    2  A    between atoms: N_7  and  N_8 
REMARK       I    between atoms: N_8  and  C_9 
REMARK    3  A    between atoms: C_9  and  C_10 
REMARK    4  A    between atoms: N_13  and  C_14 
REMARK    5  A    between atoms: C_18  and  N_19 
REMARK    6  A    between atoms: C_20  and  C_21 
REMARK    7  A    between atoms: C_21  and  N_22 
REMARK    8  A    between atoms: C_30  and  O_31 
ROOT
HETATM    1  C   UNL     1      -3.787   6.141 -31.298  1.00  0.00     0.170 A 
HETATM    2  N   UNL     1      -4.974   6.491 -30.723  1.00  0.00    -0.152 NA
HETATM    3  N   UNL     1      -4.848   7.711 -30.229  1.00  0.00     0.012 NA
HETATM    4  N   UNL     1      -3.578   8.151 -30.437  1.00  0.00    -0.215 N 
HETATM    5  C   UNL     1      -2.891   7.195 -31.180  1.00  0.00     0.096 A 
ENDROOT
BRANCH   1   6
HETATM    6  C   UNL     1      -3.545   4.849 -31.924  1.00  0.00     0.293 C 
HETATM    7  N   UNL     1      -3.372   3.809 -31.028  1.00  0.00    -0.242 N 
HETATM    8  H   UNL     1      -3.416   3.982 -30.027  1.00  0.00     0.192 HD
HETATM    9  O   UNL     1      -3.495   4.753 -33.147  1.00  0.00    -0.264 OA
BRANCH   7  10
HETATM   10  N   UNL     1      -3.182   2.547 -31.502  1.00  0.00    -0.183 NA
HETATM   11  C   UNL     1      -4.214   1.764 -31.471  1.00  0.00     0.153 C 
BRANCH  11  12
HETATM   12  C   UNL     1      -4.124   0.378 -31.978  1.00  0.00     0.017 A 
HETATM   13  C   UNL     1      -5.122  -0.068 -32.851  1.00  0.00     0.034 A 
HETATM   14  C   UNL     1      -5.061  -1.369 -33.353  1.00  0.00     0.012 A 
HETATM   15  C   UNL     1      -4.019  -2.225 -32.994  1.00  0.00     0.022 A 
HETATM   16 BR   UNL     1      -6.406  -1.977 -34.533  1.00  0.00    -0.051 Br
HETATM   17  C   UNL     1      -3.025  -1.778 -32.122  1.00  0.00     0.039 A 
HETATM   18  C   UNL     1      -3.079  -0.482 -31.615  1.00  0.00     0.077 A 
BRANCH  18  19
HETATM   19  O   UNL     1      -2.068  -0.120 -30.768  1.00  0.00    -0.360 OA
HETATM   20  H   UNL     1      -1.623  -0.938 -30.456  1.00  0.00     0.217 HD
ENDBRANCH  18  19
ENDBRANCH  11  12
ENDBRANCH   7  10
ENDBRANCH   1   6
BRANCH   5  21
HETATM   21  C   UNL     1      -1.536   7.359 -31.756  1.00  0.00     0.296 C 
BRANCH  21  22
HETATM   22  N   UNL     1      -0.418   6.728 -30.961  1.00  0.00    -0.066 N 
HETATM   23  H   UNL     1       0.425   7.288 -31.159  1.00  0.00     0.280 HD
HETATM   24  C   UNL     1      -0.662   6.725 -29.469  1.00  0.00     0.235 C 
HETATM   25  C   UNL     1       0.581   6.200 -28.760  1.00  0.00     0.028 C 
HETATM   26  C   UNL     1       0.970   4.814 -29.255  1.00  0.00     0.003 C 
HETATM   27  C   UNL     1       1.117   4.791 -30.773  1.00  0.00     0.028 C 
HETATM   28  C   UNL     1      -0.125   5.331 -31.467  1.00  0.00     0.235 C 
ENDBRANCH  21  22
ENDBRANCH   5  21
BRANCH   4  29
HETATM   29  C   UNL     1      -3.093   9.365 -29.895  1.00  0.00     0.225 A 
HETATM   30  N   UNL     1      -2.733  10.363 -30.710  1.00  0.00    -0.081 NA
HETATM   31  O   UNL     1      -2.298  11.363 -29.832  1.00  0.00    -0.103 OA
HETATM   32  N   UNL     1      -2.368  10.938 -28.515  1.00  0.00    -0.083 NA
HETATM   33  C   UNL     1      -2.859   9.701 -28.550  1.00  0.00     0.201 A 
BRANCH  33  34
HETATM   34  N   UNL     1      -3.077   8.936 -27.471  1.00  0.00    -0.379 N 
HETATM   35  H   UNL     1      -2.895   7.936 -27.505  1.00  0.00     0.158 HD
HETATM   36  H   UNL     1      -3.561   9.252 -26.634  1.00  0.00     0.158 HD
ENDBRANCH  33  34
ENDBRANCH   4  29
TORSDOF 8
ENDMDL
MODEL 10
REMARK VINA RESULT:      -8.1      4.912     10.198
REMARK  8 active torsions:
REMARK  status: ('A' for Active; 'I' for Inactive)
REMARK    1  A    between atoms: C_5  and  C_6 
REMARK    2  A    between atoms: N_7  and  N_8 
REMARK       I    between atoms: N_8  and  C_9 
REMARK    3  A    between atoms: C_9  and  C_10 
REMARK    4  A    between atoms: N_13  and  C_14 
REMARK    5  A    between atoms: C_18  and  N_19 
REMARK    6  A    between atoms: C_20  and  C_21 
REMARK    7  A    between atoms: C_21  and  N_22 
REMARK    8  A    between atoms: C_30  and  O_31 
ROOT
HETATM    1  C   UNL     1      -5.449   5.548 -28.696  1.00  0.00     0.170 A 
HETATM    2  N   UNL     1      -6.024   5.610 -27.460  1.00  0.00    -0.152 NA
HETATM    3  N   UNL     1      -5.398   6.542 -26.761  1.00  0.00     0.012 NA
HETATM    4  N   UNL     1      -4.391   7.064 -27.511  1.00  0.00    -0.215 N 
HETATM    5  C   UNL     1      -4.439   6.496 -28.781  1.00  0.00     0.096 A 
ENDROOT
BRANCH   1   6
HETATM    6  C   UNL     1      -5.863   4.612 -29.731  1.00  0.00     0.293 C 
HETATM    7  N   UNL     1      -5.136   3.436 -29.757  1.00  0.00    -0.242 N 
HETATM    8  H   UNL     1      -4.383   3.284 -29.089  1.00  0.00     0.192 HD
HETATM    9  O   UNL     1      -6.778   4.902 -30.499  1.00  0.00    -0.264 OA
BRANCH   7  10
HETATM   10  N   UNL     1      -5.465   2.468 -30.656  1.00  0.00    -0.183 NA
HETATM   11  C   UNL     1      -4.493   1.718 -31.070  1.00  0.00     0.153 C 
BRANCH  11  12
HETATM   12  C   UNL     1      -4.743   0.625 -32.033  1.00  0.00     0.017 A 
HETATM   13  C   UNL     1      -5.802   0.773 -32.935  1.00  0.00     0.034 A 
HETATM   14  C   UNL     1      -6.059  -0.239 -33.861  1.00  0.00     0.012 A 
HETATM   15  C   UNL     1      -5.272  -1.390 -33.898  1.00  0.00     0.022 A 
HETATM   16 BR   UNL     1      -7.490  -0.044 -35.082  1.00  0.00    -0.051 Br
HETATM   17  C   UNL     1      -4.217  -1.536 -32.997  1.00  0.00     0.039 A 
HETATM   18  C   UNL     1      -3.954  -0.533 -32.068  1.00  0.00     0.077 A 
BRANCH  18  19
HETATM   19  O   UNL     1      -2.902  -0.751 -31.221  1.00  0.00    -0.360 OA
HETATM   20  H   UNL     1      -2.841   0.013 -30.607  1.00  0.00     0.217 HD
ENDBRANCH  18  19
ENDBRANCH  11  12
ENDBRANCH   7  10
ENDBRANCH   1   6
BRANCH   5  21
HETATM   21  C   UNL     1      -3.621   6.912 -29.944  1.00  0.00     0.296 C 
BRANCH  21  22
HETATM   22  N   UNL     1      -2.228   6.329 -29.992  1.00  0.00    -0.066 N 
HETATM   23  H   UNL     1      -2.136   5.741 -29.149  1.00  0.00     0.280 HD
HETATM   24  C   UNL     1      -1.968   5.477 -31.213  1.00  0.00     0.235 C 
HETATM   25  C   UNL     1      -0.595   4.829 -31.088  1.00  0.00     0.028 C 
HETATM   26  C   UNL     1       0.504   5.866 -30.898  1.00  0.00     0.003 C 
HETATM   27  C   UNL     1       0.192   6.793 -29.727  1.00  0.00     0.028 C 
HETATM   28  C   UNL     1      -1.187   7.422 -29.858  1.00  0.00     0.235 C 
ENDBRANCH  21  22
ENDBRANCH   5  21
BRANCH   4  29
HETATM   29  C   UNL     1      -3.449   7.982 -26.988  1.00  0.00     0.225 A 
HETATM   30  N   UNL     1      -3.360   9.214 -27.502  1.00  0.00    -0.081 NA
HETATM   31  O   UNL     1      -2.332   9.806 -26.761  1.00  0.00    -0.103 OA
HETATM   32  N   UNL     1      -1.796   8.914 -25.845  1.00  0.00    -0.083 NA
HETATM   33  C   UNL     1      -2.485   7.783 -25.984  1.00  0.00     0.201 A 
BRANCH  33  34
HETATM   34  N   UNL     1      -2.269   6.667 -25.274  1.00  0.00    -0.379 N 
HETATM   35  H   UNL     1      -1.980   6.725 -24.300  1.00  0.00     0.158 HD
HETATM   36  H   UNL     1      -2.228   5.732 -25.675  1.00  0.00     0.158 HD
ENDBRANCH  33  34
ENDBRANCH   4  29
TORSDOF 8
ENDMDL
