MODEL 1
REMARK VINA RESULT:      -9.6      0.000      0.000
REMARK  7 active torsions:
REMARK  status: ('A' for Active; 'I' for Inactive)
REMARK    1  A    between atoms: C_5  and  C_6 
REMARK       I    between atoms: C_6  and  N_7 
REMARK    2  A    between atoms: N_10  and  C_11 
REMARK    3  A    between atoms: C_14  and  N_15 
REMARK    4  A    between atoms: N_15  and  C_16 
REMARK    5  A    between atoms: C_16  and  N_17 
REMARK       I    between atoms: N_17  and  C_18 
REMARK    6  A    between atoms: C_18  and  C_19 
REMARK    7  A    between atoms: C_20  and  O_21 
ROOT
HETATM    1  C   UNL     1      -4.854   4.270 -32.387  1.00  0.00     0.030 A 
HETATM    2  C   UNL     1      -5.141   4.139 -33.751  1.00  0.00     0.031 A 
HETATM    3  C   UNL     1      -6.213   3.363 -34.214  1.00  0.00     0.032 A 
HETATM    4  C   UNL     1      -7.024   2.673 -33.321  1.00  0.00     0.034 A 
HETATM    5  C   UNL     1      -6.825   2.875 -31.955  1.00  0.00     0.032 A 
HETATM    6  C   UNL     1      -5.746   3.648 -31.501  1.00  0.00     0.031 A 
ENDROOT
BRANCH   4   7
HETATM    7  N   UNL     1      -8.051   1.782 -33.715  1.00  0.00    -0.333 N 
HETATM    8  H   UNL     1      -8.854   2.235 -34.137  1.00  0.00     0.168 HD
BRANCH   7   9
HETATM    9  C   UNL     1      -8.363   0.522 -33.183  1.00  0.00     0.179 C 
HETATM   10  S   UNL     1      -9.801   0.055 -32.465  1.00  0.00    -0.040 SA
BRANCH   9  11
HETATM   11  N   UNL     1      -7.270  -0.339 -33.378  1.00  0.00    -0.299 N 
HETATM   12  C   UNL     1      -6.766  -0.823 -34.582  1.00  0.00     0.260 C 
HETATM   13  O   UNL     1      -6.740  -0.215 -35.644  1.00  0.00    -0.267 OA
HETATM   14  H   UNL     1      -7.001  -0.850 -32.549  1.00  0.00     0.171 HD
BRANCH  12  15
HETATM   15  C   UNL     1      -6.108  -2.144 -34.483  1.00  0.00     0.065 A 
HETATM   16  C   UNL     1      -4.780  -2.260 -34.063  1.00  0.00     0.084 A 
HETATM   17  C   UNL     1      -4.174  -3.517 -34.003  1.00  0.00     0.038 A 
HETATM   18  C   UNL     1      -4.885  -4.652 -34.399  1.00  0.00     0.003 A 
HETATM   19  C   UNL     1      -6.204  -4.535 -34.838  1.00  0.00     0.001 A 
HETATM   20  C   UNL     1      -6.821  -3.284 -34.880  1.00  0.00     0.020 A 
BRANCH  16  21
HETATM   21  O   UNL     1      -4.090  -1.173 -33.599  1.00  0.00    -0.355 OA
HETATM   22  C   UNL     1      -3.682  -1.382 -32.244  1.00  0.00     0.210 C 
ENDBRANCH  16  21
ENDBRANCH  12  15
ENDBRANCH   9  11
ENDBRANCH   7   9
ENDBRANCH   4   7
BRANCH   1  23
HETATM   23  N   UNL     1      -3.703   4.892 -31.908  1.00  0.00    -0.378 N 
HETATM   24  C   UNL     1      -2.395   4.395 -32.384  1.00  0.00     0.143 C 
HETATM   25  C   UNL     1      -1.318   5.485 -32.222  1.00  0.00     0.146 C 
HETATM   26  N   UNL     1      -1.277   6.062 -30.873  1.00  0.00    -0.345 N 
HETATM   27  C   UNL     1      -0.112   6.756 -30.530  1.00  0.00     0.253 C 
HETATM   28  C   UNL     1      -2.592   6.466 -30.352  1.00  0.00     0.146 C 
HETATM   29  O   UNL     1       0.851   6.876 -31.283  1.00  0.00    -0.267 OA
HETATM   30  C   UNL     1      -3.665   5.375 -30.514  1.00  0.00     0.143 C 
BRANCH  27  31
HETATM   31  C   UNL     1      -0.014   7.354 -29.179  1.00  0.00     0.032 A 
HETATM   32  C   UNL     1       0.814   6.780 -28.210  1.00  0.00     0.017 A 
HETATM   33  C   UNL     1       0.923   7.374 -26.951  1.00  0.00     0.007 A 
HETATM   34  C   UNL     1       0.210   8.544 -26.654  1.00  0.00    -0.062 A 
HETATM   35  C   UNL     1       0.362   9.206 -25.316  1.00  0.00     0.048 C 
HETATM   36  C   UNL     1      -0.589   9.129 -27.645  1.00  0.00     0.007 A 
HETATM   37  C   UNL     1      -0.700   8.539 -28.907  1.00  0.00     0.017 A 
ENDBRANCH  27  31
ENDBRANCH   1  23
TORSDOF 7
ENDMDL
MODEL 2
REMARK VINA RESULT:      -9.4      2.152      2.566
REMARK  7 active torsions:
REMARK  status: ('A' for Active; 'I' for Inactive)
REMARK    1  A    between atoms: C_5  and  C_6 
REMARK       I    between atoms: C_6  and  N_7 
REMARK    2  A    between atoms: N_10  and  C_11 
REMARK    3  A    between atoms: C_14  and  N_15 
REMARK    4  A    between atoms: N_15  and  C_16 
REMARK    5  A    between atoms: C_16  and  N_17 
REMARK       I    between atoms: N_17  and  C_18 
REMARK    6  A    between atoms: C_18  and  C_19 
REMARK    7  A    between atoms: C_20  and  O_21 
ROOT
HETATM    1  C   UNL     1      -5.606   5.021 -32.030  1.00  0.00     0.030 A 
HETATM    2  C   UNL     1      -6.022   5.088 -33.366  1.00  0.00     0.031 A 
HETATM    3  C   UNL     1      -7.334   4.777 -33.753  1.00  0.00     0.032 A 
HETATM    4  C   UNL     1      -8.270   4.366 -32.811  1.00  0.00     0.034 A 
HETATM    5  C   UNL     1      -7.910   4.397 -31.464  1.00  0.00     0.032 A 
HETATM    6  C   UNL     1      -6.594   4.704 -31.086  1.00  0.00     0.031 A 
ENDROOT
BRANCH   4   7
HETATM    7  N   UNL     1      -9.575   3.926 -33.137  1.00  0.00    -0.333 N 
HETATM    8  H   UNL     1     -10.137   3.665 -32.334  1.00  0.00     0.168 HD
BRANCH   7   9
HETATM    9  C   UNL     1     -10.023   3.327 -34.324  1.00  0.00     0.179 C 
HETATM   10  S   UNL     1     -11.159   3.930 -35.396  1.00  0.00    -0.040 SA
BRANCH   9  11
HETATM   11  N   UNL     1      -9.330   2.120 -34.515  1.00  0.00    -0.299 N 
HETATM   12  C   UNL     1      -9.287   1.015 -33.669  1.00  0.00     0.260 C 
HETATM   13  O   UNL     1     -10.206   0.616 -32.965  1.00  0.00    -0.267 OA
HETATM   14  H   UNL     1      -8.593   2.178 -35.203  1.00  0.00     0.171 HD
BRANCH  12  15
HETATM   15  C   UNL     1      -8.041   0.223 -33.759  1.00  0.00     0.065 A 
HETATM   16  C   UNL     1      -7.085   0.262 -32.740  1.00  0.00     0.084 A 
HETATM   17  C   UNL     1      -5.905  -0.475 -32.863  1.00  0.00     0.038 A 
HETATM   18  C   UNL     1      -5.666  -1.219 -34.020  1.00  0.00     0.003 A 
HETATM   19  C   UNL     1      -6.611  -1.244 -35.046  1.00  0.00     0.001 A 
HETATM   20  C   UNL     1      -7.802  -0.525 -34.920  1.00  0.00     0.020 A 
BRANCH  16  21
HETATM   21  O   UNL     1      -7.331   0.923 -31.567  1.00  0.00    -0.355 OA
HETATM   22  C   UNL     1      -6.551   0.363 -30.506  1.00  0.00     0.210 C 
ENDBRANCH  16  21
ENDBRANCH  12  15
ENDBRANCH   9  11
ENDBRANCH   7   9
ENDBRANCH   4   7
BRANCH   1  23
HETATM   23  N   UNL     1      -4.276   5.160 -31.640  1.00  0.00    -0.378 N 
HETATM   24  C   UNL     1      -3.361   4.022 -31.873  1.00  0.00     0.143 C 
HETATM   25  C   UNL     1      -1.901   4.512 -31.913  1.00  0.00     0.146 C 
HETATM   26  N   UNL     1      -1.536   5.339 -30.756  1.00  0.00    -0.345 N 
HETATM   27  C   UNL     1      -0.168   5.497 -30.513  1.00  0.00     0.253 C 
HETATM   28  C   UNL     1      -2.497   6.411 -30.456  1.00  0.00     0.146 C 
HETATM   29  O   UNL     1       0.707   4.970 -31.197  1.00  0.00    -0.267 OA
HETATM   30  C   UNL     1      -3.954   5.919 -30.416  1.00  0.00     0.143 C 
BRANCH  27  31
HETATM   31  C   UNL     1       0.258   6.316 -29.356  1.00  0.00     0.032 A 
HETATM   32  C   UNL     1       0.247   5.777 -28.066  1.00  0.00     0.017 A 
HETATM   33  C   UNL     1       0.683   6.550 -26.987  1.00  0.00     0.007 A 
HETATM   34  C   UNL     1       1.135   7.861 -27.192  1.00  0.00    -0.062 A 
HETATM   35  C   UNL     1       1.645   8.675 -26.039  1.00  0.00     0.048 C 
HETATM   36  C   UNL     1       1.175   8.378 -28.494  1.00  0.00     0.007 A 
HETATM   37  C   UNL     1       0.741   7.608 -29.575  1.00  0.00     0.017 A 
ENDBRANCH  27  31
ENDBRANCH   1  23
TORSDOF 7
ENDMDL
MODEL 3
REMARK VINA RESULT:      -9.2      1.673      2.061
REMARK  7 active torsions:
REMARK  status: ('A' for Active; 'I' for Inactive)
REMARK    1  A    between atoms: C_5  and  C_6 
REMARK       I    between atoms: C_6  and  N_7 
REMARK    2  A    between atoms: N_10  and  C_11 
REMARK    3  A    between atoms: C_14  and  N_15 
REMARK    4  A    between atoms: N_15  and  C_16 
REMARK    5  A    between atoms: C_16  and  N_17 
REMARK       I    between atoms: N_17  and  C_18 
REMARK    6  A    between atoms: C_18  and  C_19 
REMARK    7  A    between atoms: C_20  and  O_21 
ROOT
HETATM    1  C   UNL     1      -6.487   4.576 -31.086  1.00  0.00     0.030 A 
HETATM    2  C   UNL     1      -7.403   4.509 -32.144  1.00  0.00     0.031 A 
HETATM    3  C   UNL     1      -8.367   3.494 -32.230  1.00  0.00     0.032 A 
HETATM    4  C   UNL     1      -8.431   2.496 -31.265  1.00  0.00     0.034 A 
HETATM    5  C   UNL     1      -7.603   2.603 -30.147  1.00  0.00     0.032 A 
HETATM    6  C   UNL     1      -6.637   3.618 -30.072  1.00  0.00     0.031 A 
ENDROOT
BRANCH   4   7
HETATM    7  N   UNL     1      -9.296   1.379 -31.342  1.00  0.00    -0.333 N 
HETATM    8  H   UNL     1      -9.550   0.989 -30.441  1.00  0.00     0.168 HD
BRANCH   7   9
HETATM    9  C   UNL     1      -9.433   0.453 -32.387  1.00  0.00     0.179 C 
HETATM   10  S   UNL     1     -10.850  -0.005 -33.153  1.00  0.00    -0.040 SA
BRANCH   9  11
HETATM   11  N   UNL     1      -8.162  -0.028 -32.740  1.00  0.00    -0.299 N 
HETATM   12  C   UNL     1      -7.644  -0.221 -34.018  1.00  0.00     0.260 C 
HETATM   13  O   UNL     1      -7.881   0.473 -34.999  1.00  0.00    -0.267 OA
HETATM   14  H   UNL     1      -7.691  -0.521 -31.994  1.00  0.00     0.171 HD
BRANCH  12  15
HETATM   15  C   UNL     1      -6.634  -1.296 -34.113  1.00  0.00     0.065 A 
HETATM   16  C   UNL     1      -5.322  -1.096 -33.673  1.00  0.00     0.084 A 
HETATM   17  C   UNL     1      -4.380  -2.120 -33.799  1.00  0.00     0.038 A 
HETATM   18  C   UNL     1      -4.740  -3.328 -34.398  1.00  0.00     0.003 A 
HETATM   19  C   UNL     1      -6.044  -3.522 -34.856  1.00  0.00     0.001 A 
HETATM   20  C   UNL     1      -6.995  -2.510 -34.714  1.00  0.00     0.020 A 
BRANCH  16  21
HETATM   21  O   UNL     1      -4.966   0.051 -33.015  1.00  0.00    -0.355 OA
HETATM   22  C   UNL     1      -3.586   0.005 -32.643  1.00  0.00     0.210 C 
ENDBRANCH  16  21
ENDBRANCH  12  15
ENDBRANCH   9  11
ENDBRANCH   7   9
ENDBRANCH   4   7
BRANCH   1  23
HETATM   23  N   UNL     1      -5.417   5.469 -31.061  1.00  0.00    -0.378 N 
HETATM   24  C   UNL     1      -4.824   5.878 -32.352  1.00  0.00     0.143 C 
HETATM   25  C   UNL     1      -4.082   7.218 -32.197  1.00  0.00     0.146 C 
HETATM   26  N   UNL     1      -3.131   7.227 -31.078  1.00  0.00    -0.345 N 
HETATM   27  C   UNL     1      -2.158   8.231 -31.099  1.00  0.00     0.253 C 
HETATM   28  C   UNL     1      -3.687   6.724 -29.812  1.00  0.00     0.146 C 
HETATM   29  O   UNL     1      -2.061   9.062 -31.999  1.00  0.00    -0.267 OA
HETATM   30  C   UNL     1      -4.428   5.385 -29.971  1.00  0.00     0.143 C 
BRANCH  27  31
HETATM   31  C   UNL     1      -1.168   8.284 -29.998  1.00  0.00     0.032 A 
HETATM   32  C   UNL     1      -1.370   9.133 -28.906  1.00  0.00     0.017 A 
HETATM   33  C   UNL     1      -0.446   9.148 -27.859  1.00  0.00     0.007 A 
HETATM   34  C   UNL     1       0.680   8.315 -27.896  1.00  0.00    -0.062 A 
HETATM   35  C   UNL     1       1.649   8.299 -26.750  1.00  0.00     0.048 C 
HETATM   36  C   UNL     1       0.853   7.442 -28.979  1.00  0.00     0.007 A 
HETATM   37  C   UNL     1      -0.069   7.423 -30.028  1.00  0.00     0.017 A 
ENDBRANCH  27  31
ENDBRANCH   1  23
TORSDOF 7
ENDMDL
MODEL 4
REMARK VINA RESULT:      -8.8      2.992     10.035
REMARK  7 active torsions:
REMARK  status: ('A' for Active; 'I' for Inactive)
REMARK    1  A    between atoms: C_5  and  C_6 
REMARK       I    between atoms: C_6  and  N_7 
REMARK    2  A    between atoms: N_10  and  C_11 
REMARK    3  A    between atoms: C_14  and  N_15 
REMARK    4  A    between atoms: N_15  and  C_16 
REMARK    5  A    between atoms: C_16  and  N_17 
REMARK       I    between atoms: N_17  and  C_18 
REMARK    6  A    between atoms: C_18  and  C_19 
REMARK    7  A    between atoms: C_20  and  O_21 
ROOT
HETATM    1  C   UNL     1      -5.193   4.169 -31.078  1.00  0.00     0.030 A 
HETATM    2  C   UNL     1      -5.372   4.617 -29.763  1.00  0.00     0.031 A 
HETATM    3  C   UNL     1      -5.597   5.968 -29.462  1.00  0.00     0.032 A 
HETATM    4  C   UNL     1      -5.630   6.921 -30.472  1.00  0.00     0.034 A 
HETATM    5  C   UNL     1      -5.565   6.485 -31.795  1.00  0.00     0.032 A 
HETATM    6  C   UNL     1      -5.334   5.133 -32.088  1.00  0.00     0.031 A 
ENDROOT
BRANCH   4   7
HETATM    7  N   UNL     1      -5.738   8.313 -30.239  1.00  0.00    -0.333 N 
HETATM    8  H   UNL     1      -6.674   8.682 -30.360  1.00  0.00     0.168 HD
BRANCH   7   9
HETATM    9  C   UNL     1      -4.750   9.299 -30.377  1.00  0.00     0.179 C 
HETATM   10  S   UNL     1      -4.982  10.926 -30.700  1.00  0.00    -0.040 SA
BRANCH   9  11
HETATM   11  N   UNL     1      -3.491   8.716 -30.162  1.00  0.00    -0.299 N 
HETATM   12  C   UNL     1      -2.454   8.554 -31.078  1.00  0.00     0.260 C 
HETATM   13  O   UNL     1      -2.169   9.330 -31.981  1.00  0.00    -0.267 OA
HETATM   14  H   UNL     1      -3.447   8.131 -29.339  1.00  0.00     0.171 HD
BRANCH  12  15
HETATM   15  C   UNL     1      -1.581   7.390 -30.814  1.00  0.00     0.065 A 
HETATM   16  C   UNL     1      -0.723   7.366 -29.709  1.00  0.00     0.084 A 
HETATM   17  C   UNL     1       0.110   6.266 -29.498  1.00  0.00     0.038 A 
HETATM   18  C   UNL     1       0.114   5.209 -30.411  1.00  0.00     0.003 A 
HETATM   19  C   UNL     1      -0.727   5.241 -31.524  1.00  0.00     0.001 A 
HETATM   20  C   UNL     1      -1.577   6.329 -31.729  1.00  0.00     0.020 A 
BRANCH  16  21
HETATM   21  O   UNL     1      -0.765   8.354 -28.763  1.00  0.00    -0.355 OA
HETATM   22  C   UNL     1      -0.992   7.794 -27.467  1.00  0.00     0.210 C 
ENDBRANCH  16  21
ENDBRANCH  12  15
ENDBRANCH   9  11
ENDBRANCH   7   9
ENDBRANCH   4   7
BRANCH   1  23
HETATM   23  N   UNL     1      -4.803   2.869 -31.393  1.00  0.00    -0.378 N 
HETATM   24  C   UNL     1      -3.356   2.573 -31.450  1.00  0.00     0.143 C 
HETATM   25  C   UNL     1      -3.112   1.064 -31.255  1.00  0.00     0.146 C 
HETATM   26  N   UNL     1      -3.923   0.227 -32.146  1.00  0.00    -0.345 N 
HETATM   27  C   UNL     1      -3.499  -1.095 -32.313  1.00  0.00     0.253 C 
HETATM   28  C   UNL     1      -5.351   0.583 -32.172  1.00  0.00     0.146 C 
HETATM   29  O   UNL     1      -2.495  -1.557 -31.775  1.00  0.00    -0.267 OA
HETATM   30  C   UNL     1      -5.591   2.090 -32.368  1.00  0.00     0.143 C 
BRANCH  27  31
HETATM   31  C   UNL     1      -4.277  -1.984 -33.206  1.00  0.00     0.032 A 
HETATM   32  C   UNL     1      -3.869  -3.304 -33.421  1.00  0.00     0.017 A 
HETATM   33  C   UNL     1      -4.631  -4.140 -34.239  1.00  0.00     0.007 A 
HETATM   34  C   UNL     1      -5.804  -3.666 -34.843  1.00  0.00    -0.062 A 
HETATM   35  C   UNL     1      -6.645  -4.578 -35.686  1.00  0.00     0.048 C 
HETATM   36  C   UNL     1      -6.221  -2.352 -34.591  1.00  0.00     0.007 A 
HETATM   37  C   UNL     1      -5.463  -1.512 -33.772  1.00  0.00     0.017 A 
ENDBRANCH  27  31
ENDBRANCH   1  23
TORSDOF 7
ENDMDL
MODEL 5
REMARK VINA RESULT:      -8.7      2.809     10.270
REMARK  7 active torsions:
REMARK  status: ('A' for Active; 'I' for Inactive)
REMARK    1  A    between atoms: C_5  and  C_6 
REMARK       I    between atoms: C_6  and  N_7 
REMARK    2  A    between atoms: N_10  and  C_11 
REMARK    3  A    between atoms: C_14  and  N_15 
REMARK    4  A    between atoms: N_15  and  C_16 
REMARK    5  A    between atoms: C_16  and  N_17 
REMARK       I    between atoms: N_17  and  C_18 
REMARK    6  A    between atoms: C_18  and  C_19 
REMARK    7  A    between atoms: C_20  and  O_21 
ROOT
HETATM    1  C   UNL     1      -6.077   4.446 -31.115  1.00  0.00     0.030 A 
HETATM    2  C   UNL     1      -6.387   4.461 -29.750  1.00  0.00     0.031 A 
HETATM    3  C   UNL     1      -6.016   5.525 -28.915  1.00  0.00     0.032 A 
HETATM    4  C   UNL     1      -5.301   6.605 -29.420  1.00  0.00     0.034 A 
HETATM    5  C   UNL     1      -5.078   6.664 -30.796  1.00  0.00     0.032 A 
HETATM    6  C   UNL     1      -5.447   5.592 -31.623  1.00  0.00     0.031 A 
ENDROOT
BRANCH   4   7
HETATM    7  N   UNL     1      -4.793   7.658 -28.622  1.00  0.00    -0.333 N 
HETATM    8  H   UNL     1      -4.692   8.538 -29.114  1.00  0.00     0.168 HD
BRANCH   7   9
HETATM    9  C   UNL     1      -3.966   7.574 -27.493  1.00  0.00     0.179 C 
HETATM   10  S   UNL     1      -4.390   7.885 -25.903  1.00  0.00    -0.040 SA
BRANCH   9  11
HETATM   11  N   UNL     1      -2.691   7.141 -27.892  1.00  0.00    -0.299 N 
HETATM   12  C   UNL     1      -1.860   7.703 -28.859  1.00  0.00     0.260 C 
HETATM   13  O   UNL     1      -1.760   8.897 -29.111  1.00  0.00    -0.267 OA
HETATM   14  H   UNL     1      -2.486   6.186 -27.635  1.00  0.00     0.171 HD
BRANCH  12  15
HETATM   15  C   UNL     1      -0.956   6.739 -29.522  1.00  0.00     0.065 A 
HETATM   16  C   UNL     1       0.006   6.032 -28.795  1.00  0.00     0.084 A 
HETATM   17  C   UNL     1       0.865   5.148 -29.451  1.00  0.00     0.038 A 
HETATM   18  C   UNL     1       0.788   5.000 -30.836  1.00  0.00     0.003 A 
HETATM   19  C   UNL     1      -0.158   5.720 -31.567  1.00  0.00     0.001 A 
HETATM   20  C   UNL     1      -1.034   6.590 -30.914  1.00  0.00     0.020 A 
BRANCH  16  21
HETATM   21  O   UNL     1       0.050   6.104 -27.429  1.00  0.00    -0.355 OA
HETATM   22  C   UNL     1       1.086   6.997 -27.009  1.00  0.00     0.210 C 
ENDBRANCH  16  21
ENDBRANCH  12  15
ENDBRANCH   9  11
ENDBRANCH   7   9
ENDBRANCH   4   7
BRANCH   1  23
HETATM   23  N   UNL     1      -6.283   3.335 -31.930  1.00  0.00    -0.378 N 
HETATM   24  C   UNL     1      -7.662   3.049 -32.379  1.00  0.00     0.143 C 
HETATM   25  C   UNL     1      -7.639   2.184 -33.654  1.00  0.00     0.146 C 
HETATM   26  N   UNL     1      -6.798   0.988 -33.527  1.00  0.00    -0.345 N 
HETATM   27  C   UNL     1      -7.018  -0.028 -34.462  1.00  0.00     0.253 C 
HETATM   28  C   UNL     1      -5.456   1.252 -32.984  1.00  0.00     0.146 C 
HETATM   29  O   UNL     1      -7.876   0.034 -35.340  1.00  0.00    -0.267 OA
HETATM   30  C   UNL     1      -5.482   2.115 -31.710  1.00  0.00     0.143 C 
BRANCH  27  31
HETATM   31  C   UNL     1      -6.201  -1.260 -34.378  1.00  0.00     0.032 A 
HETATM   32  C   UNL     1      -4.920  -1.223 -33.821  1.00  0.00     0.017 A 
HETATM   33  C   UNL     1      -4.174  -2.399 -33.717  1.00  0.00     0.007 A 
HETATM   34  C   UNL     1      -4.704  -3.617 -34.164  1.00  0.00    -0.062 A 
HETATM   35  C   UNL     1      -3.920  -4.887 -34.011  1.00  0.00     0.048 C 
HETATM   36  C   UNL     1      -6.004  -3.648 -34.688  1.00  0.00     0.007 A 
HETATM   37  C   UNL     1      -6.754  -2.474 -34.792  1.00  0.00     0.017 A 
ENDBRANCH  27  31
ENDBRANCH   1  23
TORSDOF 7
ENDMDL
MODEL 6
REMARK VINA RESULT:      -8.6      2.828     10.225
REMARK  7 active torsions:
REMARK  status: ('A' for Active; 'I' for Inactive)
REMARK    1  A    between atoms: C_5  and  C_6 
REMARK       I    between atoms: C_6  and  N_7 
REMARK    2  A    between atoms: N_10  and  C_11 
REMARK    3  A    between atoms: C_14  and  N_15 
REMARK    4  A    between atoms: N_15  and  C_16 
REMARK    5  A    between atoms: C_16  and  N_17 
REMARK       I    between atoms: N_17  and  C_18 
REMARK    6  A    between atoms: C_18  and  C_19 
REMARK    7  A    between atoms: C_20  and  O_21 
ROOT
HETATM    1  C   UNL     1      -5.755   4.573 -30.857  1.00  0.00     0.030 A 
HETATM    2  C   UNL     1      -6.011   4.503 -29.482  1.00  0.00     0.031 A 
HETATM    3  C   UNL     1      -5.629   5.525 -28.601  1.00  0.00     0.032 A 
HETATM    4  C   UNL     1      -4.956   6.648 -29.069  1.00  0.00     0.034 A 
HETATM    5  C   UNL     1      -4.787   6.790 -30.447  1.00  0.00     0.032 A 
HETATM    6  C   UNL     1      -5.167   5.760 -31.320  1.00  0.00     0.031 A 
ENDROOT
BRANCH   4   7
HETATM    7  N   UNL     1      -4.438   7.664 -28.231  1.00  0.00    -0.333 N 
HETATM    8  H   UNL     1      -4.398   8.579 -28.666  1.00  0.00     0.168 HD
BRANCH   7   9
HETATM    9  C   UNL     1      -3.541   7.538 -27.160  1.00  0.00     0.179 C 
HETATM   10  S   UNL     1      -3.844   7.853 -25.544  1.00  0.00    -0.040 SA
BRANCH   9  11
HETATM   11  N   UNL     1      -2.315   7.055 -27.647  1.00  0.00    -0.299 N 
HETATM   12  C   UNL     1      -1.400   7.714 -28.465  1.00  0.00     0.260 C 
HETATM   13  O   UNL     1      -1.156   8.913 -28.445  1.00  0.00    -0.267 OA
HETATM   14  H   UNL     1      -2.228   6.049 -27.609  1.00  0.00     0.171 HD
BRANCH  12  15
HETATM   15  C   UNL     1      -0.596   6.820 -29.327  1.00  0.00     0.065 A 
HETATM   16  C   UNL     1      -0.670   6.903 -30.721  1.00  0.00     0.084 A 
HETATM   17  C   UNL     1       0.080   6.029 -31.511  1.00  0.00     0.038 A 
HETATM   18  C   UNL     1       0.872   5.050 -30.909  1.00  0.00     0.003 A 
HETATM   19  C   UNL     1       0.931   4.954 -29.518  1.00  0.00     0.001 A 
HETATM   20  C   UNL     1       0.200   5.838 -28.722  1.00  0.00     0.020 A 
BRANCH  16  21
HETATM   21  O   UNL     1      -1.380   7.901 -31.331  1.00  0.00    -0.355 OA
HETATM   22  C   UNL     1      -1.815   7.482 -32.628  1.00  0.00     0.210 C 
ENDBRANCH  16  21
ENDBRANCH  12  15
ENDBRANCH   9  11
ENDBRANCH   7   9
ENDBRANCH   4   7
BRANCH   1  23
HETATM   23  N   UNL     1      -5.970   3.506 -31.726  1.00  0.00    -0.378 N 
HETATM   24  C   UNL     1      -7.325   3.334 -32.293  1.00  0.00     0.143 C 
HETATM   25  C   UNL     1      -7.258   2.512 -33.593  1.00  0.00     0.146 C 
HETATM   26  N   UNL     1      -6.514   1.255 -33.446  1.00  0.00    -0.345 N 
HETATM   27  C   UNL     1      -6.728   0.288 -34.433  1.00  0.00     0.253 C 
HETATM   28  C   UNL     1      -5.206   1.405 -32.790  1.00  0.00     0.146 C 
HETATM   29  O   UNL     1      -7.505   0.439 -35.373  1.00  0.00    -0.267 OA
HETATM   30  C   UNL     1      -5.275   2.226 -31.491  1.00  0.00     0.143 C 
BRANCH  27  31
HETATM   31  C   UNL     1      -6.007  -1.002 -34.332  1.00  0.00     0.032 A 
HETATM   32  C   UNL     1      -4.748  -1.063 -33.728  1.00  0.00     0.017 A 
HETATM   33  C   UNL     1      -4.095  -2.291 -33.609  1.00  0.00     0.007 A 
HETATM   34  C   UNL     1      -4.696  -3.463 -34.088  1.00  0.00    -0.062 A 
HETATM   35  C   UNL     1      -4.013  -4.789 -33.920  1.00  0.00     0.048 C 
HETATM   36  C   UNL     1      -5.974  -3.395 -34.660  1.00  0.00     0.007 A 
HETATM   37  C   UNL     1      -6.631  -2.168 -34.779  1.00  0.00     0.017 A 
ENDBRANCH  27  31
ENDBRANCH   1  23
TORSDOF 7
ENDMDL
MODEL 7
REMARK VINA RESULT:      -8.6      3.060     10.411
REMARK  7 active torsions:
REMARK  status: ('A' for Active; 'I' for Inactive)
REMARK    1  A    between atoms: C_5  and  C_6 
REMARK       I    between atoms: C_6  and  N_7 
REMARK    2  A    between atoms: N_10  and  C_11 
REMARK    3  A    between atoms: C_14  and  N_15 
REMARK    4  A    between atoms: N_15  and  C_16 
REMARK    5  A    between atoms: C_16  and  N_17 
REMARK       I    between atoms: N_17  and  C_18 
REMARK    6  A    between atoms: C_18  and  C_19 
REMARK    7  A    between atoms: C_20  and  O_21 
ROOT
HETATM    1  C   UNL     1      -5.231   4.138 -30.818  1.00  0.00     0.030 A 
HETATM    2  C   UNL     1      -5.769   4.424 -29.557  1.00  0.00     0.031 A 
HETATM    3  C   UNL     1      -6.012   5.738 -29.132  1.00  0.00     0.032 A 
HETATM    4  C   UNL     1      -5.703   6.815 -29.955  1.00  0.00     0.034 A 
HETATM    5  C   UNL     1      -5.270   6.552 -31.254  1.00  0.00     0.032 A 
HETATM    6  C   UNL     1      -5.024   5.234 -31.668  1.00  0.00     0.031 A 
ENDROOT
BRANCH   4   7
HETATM    7  N   UNL     1      -5.812   8.169 -29.555  1.00  0.00    -0.333 N 
HETATM    8  H   UNL     1      -6.073   8.801 -30.303  1.00  0.00     0.168 HD
BRANCH   7   9
HETATM    9  C   UNL     1      -5.154   8.822 -28.503  1.00  0.00     0.179 C 
HETATM   10  S   UNL     1      -5.858   9.607 -27.202  1.00  0.00    -0.040 SA
BRANCH   9  11
HETATM   11  N   UNL     1      -3.767   8.690 -28.680  1.00  0.00    -0.299 N 
HETATM   12  C   UNL     1      -2.998   9.113 -29.761  1.00  0.00     0.260 C 
HETATM   13  O   UNL     1      -3.196  10.119 -30.431  1.00  0.00    -0.267 OA
HETATM   14  H   UNL     1      -3.345   7.992 -28.084  1.00  0.00     0.171 HD
BRANCH  12  15
HETATM   15  C   UNL     1      -1.782   8.306 -29.999  1.00  0.00     0.065 A 
HETATM   16  C   UNL     1      -0.777   8.211 -29.032  1.00  0.00     0.084 A 
HETATM   17  C   UNL     1       0.374   7.464 -29.293  1.00  0.00     0.038 A 
HETATM   18  C   UNL     1       0.536   6.844 -30.533  1.00  0.00     0.003 A 
HETATM   19  C   UNL     1      -0.458   6.954 -31.507  1.00  0.00     0.001 A 
HETATM   20  C   UNL     1      -1.620   7.683 -31.244  1.00  0.00     0.020 A 
BRANCH  16  21
HETATM   21  O   UNL     1      -0.947   8.747 -27.784  1.00  0.00    -0.355 OA
HETATM   22  C   UNL     1      -0.748   7.747 -26.781  1.00  0.00     0.210 C 
ENDBRANCH  16  21
ENDBRANCH  12  15
ENDBRANCH   9  11
ENDBRANCH   7   9
ENDBRANCH   4   7
BRANCH   1  23
HETATM   23  N   UNL     1      -4.825   2.862 -31.201  1.00  0.00    -0.378 N 
HETATM   24  C   UNL     1      -3.379   2.623 -31.396  1.00  0.00     0.143 C 
HETATM   25  C   UNL     1      -3.064   1.121 -31.263  1.00  0.00     0.146 C 
HETATM   26  N   UNL     1      -3.922   0.273 -32.099  1.00  0.00    -0.345 N 
HETATM   27  C   UNL     1      -3.468  -1.028 -32.338  1.00  0.00     0.253 C 
HETATM   28  C   UNL     1      -5.358   0.575 -31.986  1.00  0.00     0.146 C 
HETATM   29  O   UNL     1      -2.403  -1.463 -31.906  1.00  0.00    -0.267 OA
HETATM   30  C   UNL     1      -5.670   2.076 -32.120  1.00  0.00     0.143 C 
BRANCH  27  31
HETATM   31  C   UNL     1      -4.291  -1.925 -33.180  1.00  0.00     0.032 A 
HETATM   32  C   UNL     1      -5.407  -1.429 -33.861  1.00  0.00     0.017 A 
HETATM   33  C   UNL     1      -6.155  -2.280 -34.678  1.00  0.00     0.007 A 
HETATM   34  C   UNL     1      -5.791  -3.625 -34.822  1.00  0.00    -0.062 A 
HETATM   35  C   UNL     1      -6.569  -4.527 -35.735  1.00  0.00     0.048 C 
HETATM   36  C   UNL     1      -4.650  -4.102 -34.162  1.00  0.00     0.007 A 
HETATM   37  C   UNL     1      -3.899  -3.255 -33.345  1.00  0.00     0.017 A 
ENDBRANCH  27  31
ENDBRANCH   1  23
TORSDOF 7
ENDMDL
MODEL 8
REMARK VINA RESULT:      -8.5      2.823     10.268
REMARK  7 active torsions:
REMARK  status: ('A' for Active; 'I' for Inactive)
REMARK    1  A    between atoms: C_5  and  C_6 
REMARK       I    between atoms: C_6  and  N_7 
REMARK    2  A    between atoms: N_10  and  C_11 
REMARK    3  A    between atoms: C_14  and  N_15 
REMARK    4  A    between atoms: N_15  and  C_16 
REMARK    5  A    between atoms: C_16  and  N_17 
REMARK       I    between atoms: N_17  and  C_18 
REMARK    6  A    between atoms: C_18  and  C_19 
REMARK    7  A    between atoms: C_20  and  O_21 
ROOT
HETATM    1  C   UNL     1      -5.600   4.559 -31.970  1.00  0.00     0.030 A 
HETATM    2  C   UNL     1      -5.597   5.790 -32.640  1.00  0.00     0.031 A 
HETATM    3  C   UNL     1      -5.448   7.006 -31.958  1.00  0.00     0.032 A 
HETATM    4  C   UNL     1      -5.314   7.030 -30.575  1.00  0.00     0.034 A 
HETATM    5  C   UNL     1      -5.204   5.814 -29.900  1.00  0.00     0.032 A 
HETATM    6  C   UNL     1      -5.361   4.602 -30.589  1.00  0.00     0.031 A 
ENDROOT
BRANCH   4   7
HETATM    7  N   UNL     1      -5.274   8.218 -29.807  1.00  0.00    -0.333 N 
HETATM    8  H   UNL     1      -6.181   8.531 -29.480  1.00  0.00     0.168 HD
BRANCH   7   9
HETATM    9  C   UNL     1      -4.333   9.258 -29.858  1.00  0.00     0.179 C 
HETATM   10  S   UNL     1      -4.641  10.903 -29.832  1.00  0.00    -0.040 SA
BRANCH   9  11
HETATM   11  N   UNL     1      -3.043   8.704 -29.899  1.00  0.00    -0.299 N 
HETATM   12  C   UNL     1      -2.210   8.555 -31.006  1.00  0.00     0.260 C 
HETATM   13  O   UNL     1      -2.132   9.328 -31.952  1.00  0.00    -0.267 OA
HETATM   14  H   UNL     1      -2.821   8.128 -29.099  1.00  0.00     0.171 HD
BRANCH  12  15
HETATM   15  C   UNL     1      -1.275   7.413 -30.918  1.00  0.00     0.065 A 
HETATM   16  C   UNL     1      -0.310   7.345 -29.909  1.00  0.00     0.084 A 
HETATM   17  C   UNL     1       0.578   6.268 -29.865  1.00  0.00     0.038 A 
HETATM   18  C   UNL     1       0.526   5.281 -30.851  1.00  0.00     0.003 A 
HETATM   19  C   UNL     1      -0.424   5.358 -31.871  1.00  0.00     0.001 A 
HETATM   20  C   UNL     1      -1.328   6.422 -31.908  1.00  0.00     0.020 A 
BRANCH  16  21
HETATM   21  O   UNL     1      -0.289   8.259 -28.891  1.00  0.00    -0.355 OA
HETATM   22  C   UNL     1      -0.069   7.606 -27.637  1.00  0.00     0.210 C 
ENDBRANCH  16  21
ENDBRANCH  12  15
ENDBRANCH   9  11
ENDBRANCH   7   9
ENDBRANCH   4   7
BRANCH   1  23
HETATM   23  N   UNL     1      -5.913   3.354 -32.595  1.00  0.00    -0.378 N 
HETATM   24  C   UNL     1      -7.340   3.025 -32.795  1.00  0.00     0.143 C 
HETATM   25  C   UNL     1      -7.498   2.003 -33.937  1.00  0.00     0.146 C 
HETATM   26  N   UNL     1      -6.636   0.825 -33.782  1.00  0.00    -0.345 N 
HETATM   27  C   UNL     1      -6.982  -0.301 -34.535  1.00  0.00     0.253 C 
HETATM   28  C   UNL     1      -5.231   1.144 -33.482  1.00  0.00     0.146 C 
HETATM   29  O   UNL     1      -7.960  -0.344 -35.278  1.00  0.00    -0.267 OA
HETATM   30  C   UNL     1      -5.077   2.165 -32.341  1.00  0.00     0.143 C 
BRANCH  27  31
HETATM   31  C   UNL     1      -6.150  -1.520 -34.414  1.00  0.00     0.032 A 
HETATM   32  C   UNL     1      -4.909  -1.468 -33.773  1.00  0.00     0.017 A 
HETATM   33  C   UNL     1      -4.150  -2.632 -33.636  1.00  0.00     0.007 A 
HETATM   34  C   UNL     1      -4.627  -3.852 -34.135  1.00  0.00    -0.062 A 
HETATM   35  C   UNL     1      -3.831  -5.111 -33.948  1.00  0.00     0.048 C 
HETATM   36  C   UNL     1      -5.888  -3.898 -34.744  1.00  0.00     0.007 A 
HETATM   37  C   UNL     1      -6.651  -2.736 -34.882  1.00  0.00     0.017 A 
ENDBRANCH  27  31
ENDBRANCH   1  23
TORSDOF 7
ENDMDL
MODEL 9
REMARK VINA RESULT:      -8.4      3.164     11.264
REMARK  7 active torsions:
REMARK  status: ('A' for Active; 'I' for Inactive)
REMARK    1  A    between atoms: C_5  and  C_6 
REMARK       I    between atoms: C_6  and  N_7 
REMARK    2  A    between atoms: N_10  and  C_11 
REMARK    3  A    between atoms: C_14  and  N_15 
REMARK    4  A    between atoms: N_15  and  C_16 
REMARK    5  A    between atoms: C_16  and  N_17 
REMARK       I    between atoms: N_17  and  C_18 
REMARK    6  A    between atoms: C_18  and  C_19 
REMARK    7  A    between atoms: C_20  and  O_21 
ROOT
HETATM    1  C   UNL     1      -4.700   6.064 -31.762  1.00  0.00     0.030 A 
HETATM    2  C   UNL     1      -5.375   7.228 -31.372  1.00  0.00     0.031 A 
HETATM    3  C   UNL     1      -4.699   8.429 -31.114  1.00  0.00     0.032 A 
HETATM    4  C   UNL     1      -3.315   8.498 -31.219  1.00  0.00     0.034 A 
HETATM    5  C   UNL     1      -2.633   7.385 -31.711  1.00  0.00     0.032 A 
HETATM    6  C   UNL     1      -3.317   6.185 -31.961  1.00  0.00     0.031 A 
ENDROOT
BRANCH   4   7
HETATM    7  N   UNL     1      -2.553   9.637 -30.866  1.00  0.00    -0.333 N 
HETATM    8  H   UNL     1      -1.764   9.813 -31.478  1.00  0.00     0.168 HD
BRANCH   7   9
HETATM    9  C   UNL     1      -2.393  10.221 -29.601  1.00  0.00     0.179 C 
HETATM   10  S   UNL     1      -3.206  11.552 -28.992  1.00  0.00    -0.040 SA
BRANCH   9  11
HETATM   11  N   UNL     1      -1.446   9.482 -28.874  1.00  0.00    -0.299 N 
HETATM   12  C   UNL     1      -1.586   8.923 -27.606  1.00  0.00     0.260 C 
HETATM   13  O   UNL     1      -2.616   8.450 -27.142  1.00  0.00    -0.267 OA
HETATM   14  H   UNL     1      -0.497   9.602 -29.201  1.00  0.00     0.171 HD
BRANCH  12  15
HETATM   15  C   UNL     1      -0.323   8.807 -26.845  1.00  0.00     0.065 A 
HETATM   16  C   UNL     1       0.714   7.981 -27.289  1.00  0.00     0.084 A 
HETATM   17  C   UNL     1       1.886   7.869 -26.538  1.00  0.00     0.038 A 
HETATM   18  C   UNL     1       2.004   8.552 -25.326  1.00  0.00     0.003 A 
HETATM   19  C   UNL     1       0.962   9.361 -24.872  1.00  0.00     0.001 A 
HETATM   20  C   UNL     1      -0.204   9.493 -25.629  1.00  0.00     0.020 A 
BRANCH  16  21
HETATM   21  O   UNL     1       0.651   7.363 -28.509  1.00  0.00    -0.355 OA
HETATM   22  C   UNL     1       0.444   5.957 -28.345  1.00  0.00     0.210 C 
ENDBRANCH  16  21
ENDBRANCH  12  15
ENDBRANCH   9  11
ENDBRANCH   7   9
ENDBRANCH   4   7
BRANCH   1  23
HETATM   23  N   UNL     1      -5.321   4.821 -31.861  1.00  0.00    -0.378 N 
HETATM   24  C   UNL     1      -6.073   4.325 -30.689  1.00  0.00     0.143 C 
HETATM   25  C   UNL     1      -7.111   3.274 -31.126  1.00  0.00     0.146 C 
HETATM   26  N   UNL     1      -6.539   2.207 -31.958  1.00  0.00    -0.345 N 
HETATM   27  C   UNL     1      -7.295   1.037 -32.073  1.00  0.00     0.253 C 
HETATM   28  C   UNL     1      -5.704   2.693 -33.068  1.00  0.00     0.146 C 
HETATM   29  O   UNL     1      -8.372   0.867 -31.505  1.00  0.00    -0.267 OA
HETATM   30  C   UNL     1      -4.669   3.742 -32.628  1.00  0.00     0.143 C 
BRANCH  27  31
HETATM   31  C   UNL     1      -6.764  -0.074 -32.895  1.00  0.00     0.032 A 
HETATM   32  C   UNL     1      -5.517  -0.636 -32.604  1.00  0.00     0.017 A 
HETATM   33  C   UNL     1      -5.044  -1.706 -33.367  1.00  0.00     0.007 A 
HETATM   34  C   UNL     1      -5.812  -2.221 -34.420  1.00  0.00    -0.062 A 
HETATM   35  C   UNL     1      -5.322  -3.399 -35.210  1.00  0.00     0.048 C 
HETATM   36  C   UNL     1      -7.075  -1.672 -34.679  1.00  0.00     0.007 A 
HETATM   37  C   UNL     1      -7.554  -0.603 -33.918  1.00  0.00     0.017 A 
ENDBRANCH  27  31
ENDBRANCH   1  23
TORSDOF 7
ENDMDL
MODEL 10
REMARK VINA RESULT:      -8.3      3.400     11.026
REMARK  7 active torsions:
REMARK  status: ('A' for Active; 'I' for Inactive)
REMARK    1  A    between atoms: C_5  and  C_6 
REMARK       I    between atoms: C_6  and  N_7 
REMARK    2  A    between atoms: N_10  and  C_11 
REMARK    3  A    between atoms: C_14  and  N_15 
REMARK    4  A    between atoms: N_15  and  C_16 
REMARK    5  A    between atoms: C_16  and  N_17 
REMARK       I    between atoms: N_17  and  C_18 
REMARK    6  A    between atoms: C_18  and  C_19 
REMARK    7  A    between atoms: C_20  and  O_21 
ROOT
HETATM    1  C   UNL     1      -6.335   5.871 -30.313  1.00  0.00     0.030 A 
HETATM    2  C   UNL     1      -6.890   6.522 -29.204  1.00  0.00     0.031 A 
HETATM    3  C   UNL     1      -6.366   7.726 -28.711  1.00  0.00     0.032 A 
HETATM    4  C   UNL     1      -5.251   8.308 -29.304  1.00  0.00     0.034 A 
HETATM    5  C   UNL     1      -4.751   7.737 -30.473  1.00  0.00     0.032 A 
HETATM    6  C   UNL     1      -5.277   6.529 -30.957  1.00  0.00     0.031 A 
ENDROOT
BRANCH   4   7
HETATM    7  N   UNL     1      -4.597   9.456 -28.796  1.00  0.00    -0.333 N 
HETATM    8  H   UNL     1      -3.922   9.863 -29.433  1.00  0.00     0.168 HD
BRANCH   7   9
HETATM    9  C   UNL     1      -4.350   9.798 -27.459  1.00  0.00     0.179 C 
HETATM   10  S   UNL     1      -5.472  10.284 -26.315  1.00  0.00    -0.040 SA
BRANCH   9  11
HETATM   11  N   UNL     1      -2.981   9.634 -27.192  1.00  0.00    -0.299 N 
HETATM   12  C   UNL     1      -1.910   9.833 -28.060  1.00  0.00     0.260 C 
HETATM   13  O   UNL     1      -1.848  10.685 -28.937  1.00  0.00    -0.267 OA
HETATM   14  H   UNL     1      -2.789   9.069 -26.377  1.00  0.00     0.171 HD
BRANCH  12  15
HETATM   15  C   UNL     1      -0.725   8.996 -27.772  1.00  0.00     0.065 A 
HETATM   16  C   UNL     1      -0.728   7.624 -28.040  1.00  0.00     0.084 A 
HETATM   17  C   UNL     1       0.395   6.851 -27.734  1.00  0.00     0.038 A 
HETATM   18  C   UNL     1       1.503   7.443 -27.126  1.00  0.00     0.003 A 
HETATM   19  C   UNL     1       1.500   8.809 -26.840  1.00  0.00     0.001 A 
HETATM   20  C   UNL     1       0.388   9.590 -27.162  1.00  0.00     0.020 A 
BRANCH  16  21
HETATM   21  O   UNL     1      -1.772   7.037 -28.703  1.00  0.00    -0.355 OA
HETATM   22  C   UNL     1      -1.326   6.480 -29.943  1.00  0.00     0.210 C 
ENDBRANCH  16  21
ENDBRANCH  12  15
ENDBRANCH   9  11
ENDBRANCH   7   9
ENDBRANCH   4   7
BRANCH   1  23
HETATM   23  N   UNL     1      -6.726   4.597 -30.721  1.00  0.00    -0.378 N 
HETATM   24  C   UNL     1      -7.670   3.852 -29.862  1.00  0.00     0.143 C 
HETATM   25  C   UNL     1      -8.402   2.773 -30.683  1.00  0.00     0.146 C 
HETATM   26  N   UNL     1      -7.492   1.912 -31.448  1.00  0.00    -0.345 N 
HETATM   27  C   UNL     1      -8.018   0.697 -31.899  1.00  0.00     0.253 C 
HETATM   28  C   UNL     1      -6.482   2.647 -32.227  1.00  0.00     0.146 C 
HETATM   29  O   UNL     1      -9.167   0.329 -31.666  1.00  0.00    -0.267 OA
HETATM   30  C   UNL     1      -5.753   3.723 -31.404  1.00  0.00     0.143 C 
BRANCH  27  31
HETATM   31  C   UNL     1      -7.142  -0.213 -32.671  1.00  0.00     0.032 A 
HETATM   32  C   UNL     1      -5.892  -0.587 -32.170  1.00  0.00     0.017 A 
HETATM   33  C   UNL     1      -5.091  -1.473 -32.893  1.00  0.00     0.007 A 
HETATM   34  C   UNL     1      -5.535  -1.992 -34.116  1.00  0.00    -0.062 A 
HETATM   35  C   UNL     1      -4.693  -2.979 -34.871  1.00  0.00     0.048 C 
HETATM   36  C   UNL     1      -6.805  -1.639 -34.591  1.00  0.00     0.007 A 
HETATM   37  C   UNL     1      -7.610  -0.754 -33.871  1.00  0.00     0.017 A 
ENDBRANCH  27  31
ENDBRANCH   1  23
TORSDOF 7
ENDMDL
