MODEL 1
REMARK VINA RESULT:      -8.3      0.000      0.000
REMARK  4 active torsions:
REMARK  status: ('A' for Active; 'I' for Inactive)
REMARK    1  A    between atoms: C_2  and  N_3 
REMARK    2  A    between atoms: C_11  and  N_12 
REMARK    3  A    between atoms: N_12  and  C_15 
REMARK    4  A    between atoms: C_15  and  C_16 
ROOT
HETATM    1  N   UNL     1      -4.868   3.913 -31.559  1.00  0.00    -0.067 N 
HETATM    2  H   UNL     1      -3.889   4.230 -31.472  1.00  0.00     0.280 HD
HETATM    3  C   UNL     1      -5.002   2.783 -30.554  1.00  0.00     0.238 C 
HETATM    4  C   UNL     1      -6.347   2.081 -30.717  1.00  0.00     0.066 C 
HETATM    5  C   UNL     1      -6.571   1.529 -32.148  1.00  0.00     0.073 C 
HETATM    6  O   UNL     1      -5.550   0.547 -32.352  1.00  0.00    -0.339 OA
HETATM    7  C   UNL     1      -5.787  -0.494 -33.200  1.00  0.00     0.078 A 
HETATM    8  C   UNL     1      -7.040  -0.826 -33.725  1.00  0.00     0.006 A 
HETATM    9  C   UNL     1      -8.249   0.004 -33.419  1.00  0.00     0.224 C 
HETATM   10  C   UNL     1      -7.984   0.907 -32.206  1.00  0.00     0.076 C 
HETATM   11  C   UNL     1      -4.666  -1.278 -33.487  1.00  0.00     0.037 A 
HETATM   12  C   UNL     1      -4.783  -2.402 -34.301  1.00  0.00     0.003 A 
HETATM   13  C   UNL     1      -6.025  -2.759 -34.812  1.00  0.00     0.001 A 
HETATM   14  C   UNL     1      -7.148  -1.983 -34.519  1.00  0.00     0.012 A 
HETATM   15  C   UNL     1      -6.332   2.666 -33.163  1.00  0.00     0.066 C 
HETATM   16  C   UNL     1      -4.975   3.344 -32.955  1.00  0.00     0.238 C 
ENDROOT
BRANCH   9  17
HETATM   17  N   UNL     1      -8.706   0.845 -34.576  1.00  0.00    -0.063 N 
HETATM   18  H   UNL     1      -7.897   1.229 -35.080  1.00  0.00     0.278 HD
HETATM   19  H   UNL     1      -9.240   0.281 -35.244  1.00  0.00     0.278 HD
BRANCH  17  20
HETATM   20  C   UNL     1      -9.566   2.036 -34.266  1.00  0.00     0.274 C 
BRANCH  20  21
HETATM   21  C   UNL     1     -10.982   1.631 -34.413  1.00  0.00     0.004 A 
HETATM   22  C   UNL     1     -11.743   0.833 -33.578  1.00  0.00     0.122 A 
HETATM   23  N   UNL     1     -12.993   0.782 -34.131  1.00  0.00    -0.285 N 
HETATM   24  C   UNL     1     -14.138   0.035 -33.659  1.00  0.00     0.179 C 
HETATM   25  N   UNL     1     -13.110   1.561 -35.219  1.00  0.00    -0.185 NA
HETATM   26  C   UNL     1     -11.879   2.013 -35.436  1.00  0.00     0.149 A 
ENDBRANCH  20  21
ENDBRANCH  17  20
ENDBRANCH   9  17
BRANCH   1  27
HETATM   27  C   UNL     1      -5.702   5.173 -31.262  1.00  0.00     0.180 C 
HETATM   28  C   UNL     1      -5.464   6.239 -32.333  1.00  0.00     0.039 C 
HETATM   29  C   UNL     1      -5.320   5.742 -29.894  1.00  0.00     0.039 C 
ENDBRANCH   1  27
TORSDOF 4
ENDMDL
MODEL 2
REMARK VINA RESULT:      -8.2      2.158      5.955
REMARK  4 active torsions:
REMARK  status: ('A' for Active; 'I' for Inactive)
REMARK    1  A    between atoms: C_2  and  N_3 
REMARK    2  A    between atoms: C_11  and  N_12 
REMARK    3  A    between atoms: N_12  and  C_15 
REMARK    4  A    between atoms: C_15  and  C_16 
ROOT
HETATM    1  N   UNL     1      -9.659   1.139 -33.115  1.00  0.00    -0.067 N 
HETATM    2  H   UNL     1     -10.665   0.912 -33.154  1.00  0.00     0.280 HD
HETATM    3  C   UNL     1      -9.191   1.081 -34.558  1.00  0.00     0.238 C 
HETATM    4  C   UNL     1      -7.671   1.198 -34.630  1.00  0.00     0.066 C 
HETATM    5  C   UNL     1      -6.941   0.107 -33.807  1.00  0.00     0.073 C 
HETATM    6  O   UNL     1      -7.302  -1.142 -34.407  1.00  0.00    -0.339 OA
HETATM    7  C   UNL     1      -6.436  -2.192 -34.331  1.00  0.00     0.078 A 
HETATM    8  C   UNL     1      -5.105  -2.100 -33.913  1.00  0.00     0.006 A 
HETATM    9  C   UNL     1      -4.528  -0.795 -33.454  1.00  0.00     0.224 C 
HETATM   10  C   UNL     1      -5.421   0.370 -33.903  1.00  0.00     0.076 C 
HETATM   11  C   UNL     1      -6.962  -3.413 -34.762  1.00  0.00     0.037 A 
HETATM   12  C   UNL     1      -6.165  -4.555 -34.783  1.00  0.00     0.003 A 
HETATM   13  C   UNL     1      -4.834  -4.476 -34.393  1.00  0.00     0.001 A 
HETATM   14  C   UNL     1      -4.303  -3.255 -33.971  1.00  0.00     0.012 A 
HETATM   15  C   UNL     1      -7.500   0.111 -32.369  1.00  0.00     0.066 C 
HETATM   16  C   UNL     1      -9.027  -0.000 -32.348  1.00  0.00     0.238 C 
ENDROOT
BRANCH   9  17
HETATM   17  N   UNL     1      -4.323  -0.722 -31.968  1.00  0.00    -0.063 N 
HETATM   18  H   UNL     1      -5.162  -0.346 -31.509  1.00  0.00     0.278 HD
HETATM   19  H   UNL     1      -4.159  -1.656 -31.580  1.00  0.00     0.278 HD
BRANCH  17  20
HETATM   20  C   UNL     1      -3.195   0.133 -31.469  1.00  0.00     0.274 C 
BRANCH  20  21
HETATM   21  C   UNL     1      -3.730   1.485 -31.193  1.00  0.00     0.004 A 
HETATM   22  C   UNL     1      -3.243   2.709 -31.615  1.00  0.00     0.122 A 
HETATM   23  N   UNL     1      -4.102   3.654 -31.124  1.00  0.00    -0.285 N 
HETATM   24  C   UNL     1      -4.000   5.091 -31.251  1.00  0.00     0.179 C 
HETATM   25  N   UNL     1      -5.154   3.115 -30.486  1.00  0.00    -0.185 NA
HETATM   26  C   UNL     1      -4.892   1.812 -30.458  1.00  0.00     0.149 A 
ENDBRANCH  20  21
ENDBRANCH  17  20
ENDBRANCH   9  17
BRANCH   1  27
HETATM   27  C   UNL     1      -9.609   2.528 -32.452  1.00  0.00     0.180 C 
HETATM   28  C   UNL     1      -9.340   2.397 -30.952  1.00  0.00     0.039 C 
HETATM   29  C   UNL     1     -10.939   3.255 -32.661  1.00  0.00     0.039 C 
ENDBRANCH   1  27
TORSDOF 4
ENDMDL
MODEL 3
REMARK VINA RESULT:      -7.6      1.251      1.699
REMARK  4 active torsions:
REMARK  status: ('A' for Active; 'I' for Inactive)
REMARK    1  A    between atoms: C_2  and  N_3 
REMARK    2  A    between atoms: C_11  and  N_12 
REMARK    3  A    between atoms: N_12  and  C_15 
REMARK    4  A    between atoms: C_15  and  C_16 
ROOT
HETATM    1  N   UNL     1      -4.757   3.974 -31.628  1.00  0.00    -0.067 N 
HETATM    2  H   UNL     1      -3.799   4.352 -31.701  1.00  0.00     0.280 HD
HETATM    3  C   UNL     1      -4.653   2.842 -30.621  1.00  0.00     0.238 C 
HETATM    4  C   UNL     1      -5.960   2.057 -30.566  1.00  0.00     0.066 C 
HETATM    5  C   UNL     1      -6.381   1.485 -31.943  1.00  0.00     0.073 C 
HETATM    6  O   UNL     1      -5.348   0.568 -32.318  1.00  0.00    -0.339 OA
HETATM    7  C   UNL     1      -5.655  -0.490 -33.121  1.00  0.00     0.078 A 
HETATM    8  C   UNL     1      -6.954  -0.902 -33.436  1.00  0.00     0.006 A 
HETATM    9  C   UNL     1      -8.146  -0.149 -32.931  1.00  0.00     0.224 C 
HETATM   10  C   UNL     1      -7.743   0.775 -31.772  1.00  0.00     0.076 C 
HETATM   11  C   UNL     1      -4.550  -1.203 -33.593  1.00  0.00     0.037 A 
HETATM   12  C   UNL     1      -4.727  -2.336 -34.383  1.00  0.00     0.003 A 
HETATM   13  C   UNL     1      -6.011  -2.772 -34.685  1.00  0.00     0.001 A 
HETATM   14  C   UNL     1      -7.117  -2.068 -34.207  1.00  0.00     0.012 A 
HETATM   15  C   UNL     1      -6.384   2.630 -32.977  1.00  0.00     0.066 C 
HETATM   16  C   UNL     1      -5.056   3.393 -32.991  1.00  0.00     0.238 C 
ENDROOT
BRANCH   9  17
HETATM   17  N   UNL     1      -8.838   0.657 -33.993  1.00  0.00    -0.063 N 
HETATM   18  H   UNL     1      -8.463   1.613 -34.018  1.00  0.00     0.278 HD
HETATM   19  H   UNL     1      -8.681   0.245 -34.917  1.00  0.00     0.278 HD
BRANCH  17  20
HETATM   20  C   UNL     1     -10.324   0.830 -33.868  1.00  0.00     0.274 C 
BRANCH  20  21
HETATM   21  C   UNL     1     -10.667   2.197 -34.319  1.00  0.00     0.004 A 
HETATM   22  C   UNL     1     -11.868   2.665 -34.820  1.00  0.00     0.122 A 
HETATM   23  N   UNL     1     -11.689   4.000 -35.063  1.00  0.00    -0.285 N 
HETATM   24  C   UNL     1     -12.638   4.928 -35.636  1.00  0.00     0.179 C 
HETATM   25  N   UNL     1     -10.481   4.438 -34.673  1.00  0.00    -0.185 NA
HETATM   26  C   UNL     1      -9.835   3.339 -34.297  1.00  0.00     0.149 A 
ENDBRANCH  20  21
ENDBRANCH  17  20
ENDBRANCH   9  17
BRANCH   1  27
HETATM   27  C   UNL     1      -5.609   5.181 -31.191  1.00  0.00     0.180 C 
HETATM   28  C   UNL     1      -5.583   6.272 -32.263  1.00  0.00     0.039 C 
HETATM   29  C   UNL     1      -5.070   5.753 -29.879  1.00  0.00     0.039 C 
ENDBRANCH   1  27
TORSDOF 4
ENDMDL
MODEL 4
REMARK VINA RESULT:      -7.5      3.758      9.383
REMARK  4 active torsions:
REMARK  status: ('A' for Active; 'I' for Inactive)
REMARK    1  A    between atoms: C_2  and  N_3 
REMARK    2  A    between atoms: C_11  and  N_12 
REMARK    3  A    between atoms: N_12  and  C_15 
REMARK    4  A    between atoms: C_15  and  C_16 
ROOT
HETATM    1  N   UNL     1      -5.928   1.410 -32.410  1.00  0.00    -0.067 N 
HETATM    2  H   UNL     1      -5.807   0.522 -32.922  1.00  0.00     0.280 HD
HETATM    3  C   UNL     1      -6.416   2.398 -33.454  1.00  0.00     0.238 C 
HETATM    4  C   UNL     1      -6.444   3.811 -32.878  1.00  0.00     0.066 C 
HETATM    5  C   UNL     1      -5.067   4.271 -32.337  1.00  0.00     0.073 C 
HETATM    6  O   UNL     1      -4.189   4.289 -33.467  1.00  0.00    -0.339 OA
HETATM    7  C   UNL     1      -3.136   5.155 -33.480  1.00  0.00     0.078 A 
HETATM    8  C   UNL     1      -2.960   6.209 -32.578  1.00  0.00     0.006 A 
HETATM    9  C   UNL     1      -3.930   6.438 -31.459  1.00  0.00     0.224 C 
HETATM   10  C   UNL     1      -5.238   5.679 -31.723  1.00  0.00     0.076 C 
HETATM   11  C   UNL     1      -2.229   4.954 -34.523  1.00  0.00     0.037 A 
HETATM   12  C   UNL     1      -1.136   5.803 -34.679  1.00  0.00     0.003 A 
HETATM   13  C   UNL     1      -0.959   6.869 -33.806  1.00  0.00     0.001 A 
HETATM   14  C   UNL     1      -1.870   7.078 -32.769  1.00  0.00     0.012 A 
HETATM   15  C   UNL     1      -4.538   3.206 -31.353  1.00  0.00     0.066 C 
HETATM   16  C   UNL     1      -4.536   1.806 -31.973  1.00  0.00     0.238 C 
ENDROOT
BRANCH   9  17
HETATM   17  N   UNL     1      -3.391   6.050 -30.112  1.00  0.00    -0.063 N 
HETATM   18  H   UNL     1      -4.050   5.427 -29.629  1.00  0.00     0.278 HD
HETATM   19  H   UNL     1      -2.508   5.542 -30.210  1.00  0.00     0.278 HD
BRANCH  17  20
HETATM   20  C   UNL     1      -3.121   7.156 -29.133  1.00  0.00     0.274 C 
BRANCH  20  21
HETATM   21  C   UNL     1      -1.657   7.253 -28.941  1.00  0.00     0.004 A 
HETATM   22  C   UNL     1      -0.938   8.219 -28.260  1.00  0.00     0.122 A 
HETATM   23  N   UNL     1       0.377   7.849 -28.346  1.00  0.00    -0.285 N 
HETATM   24  C   UNL     1       1.528   8.557 -27.833  1.00  0.00     0.179 C 
HETATM   25  N   UNL     1       0.543   6.667 -28.963  1.00  0.00    -0.185 NA
HETATM   26  C   UNL     1      -0.673   6.344 -29.392  1.00  0.00     0.149 A 
ENDBRANCH  20  21
ENDBRANCH  17  20
ENDBRANCH   9  17
BRANCH   1  27
HETATM   27  C   UNL     1      -6.931   1.069 -31.292  1.00  0.00     0.180 C 
HETATM   28  C   UNL     1      -6.335   0.037 -30.333  1.00  0.00     0.039 C 
HETATM   29  C   UNL     1      -8.217   0.506 -31.899  1.00  0.00     0.039 C 
ENDBRANCH   1  27
TORSDOF 4
ENDMDL
MODEL 5
REMARK VINA RESULT:      -7.4     15.426     17.291
REMARK  4 active torsions:
REMARK  status: ('A' for Active; 'I' for Inactive)
REMARK    1  A    between atoms: C_2  and  N_3 
REMARK    2  A    between atoms: C_11  and  N_12 
REMARK    3  A    between atoms: N_12  and  C_15 
REMARK    4  A    between atoms: C_15  and  C_16 
ROOT
HETATM    1  N   UNL     1      -7.447 -13.891 -40.520  1.00  0.00    -0.067 N 
HETATM    2  H   UNL     1      -7.878 -14.424 -41.292  1.00  0.00     0.280 HD
HETATM    3  C   UNL     1      -6.650 -12.793 -41.202  1.00  0.00     0.238 C 
HETATM    4  C   UNL     1      -5.793 -12.046 -40.185  1.00  0.00     0.066 C 
HETATM    5  C   UNL     1      -4.828 -12.978 -39.408  1.00  0.00     0.073 C 
HETATM    6  O   UNL     1      -3.942 -13.529 -40.389  1.00  0.00    -0.339 OA
HETATM    7  C   UNL     1      -2.681 -13.891 -40.021  1.00  0.00     0.078 A 
HETATM    8  C   UNL     1      -2.080 -13.557 -38.803  1.00  0.00     0.006 A 
HETATM    9  C   UNL     1      -2.829 -12.790 -37.756  1.00  0.00     0.224 C 
HETATM   10  C   UNL     1      -4.068 -12.123 -38.369  1.00  0.00     0.076 C 
HETATM   11  C   UNL     1      -1.971 -14.602 -40.992  1.00  0.00     0.037 A 
HETATM   12  C   UNL     1      -0.653 -14.987 -40.760  1.00  0.00     0.003 A 
HETATM   13  C   UNL     1      -0.033 -14.643 -39.565  1.00  0.00     0.001 A 
HETATM   14  C   UNL     1      -0.737 -13.925 -38.597  1.00  0.00     0.012 A 
HETATM   15  C   UNL     1      -5.638 -14.143 -38.805  1.00  0.00     0.066 C 
HETATM   16  C   UNL     1      -6.488 -14.856 -39.862  1.00  0.00     0.238 C 
ENDROOT
BRANCH   9  17
HETATM   17  N   UNL     1      -3.243 -13.629 -36.582  1.00  0.00    -0.063 N 
HETATM   18  H   UNL     1      -3.699 -14.492 -36.902  1.00  0.00     0.278 HD
HETATM   19  H   UNL     1      -2.426 -13.905 -36.029  1.00  0.00     0.278 HD
BRANCH  17  20
HETATM   20  C   UNL     1      -4.211 -13.022 -35.608  1.00  0.00     0.274 C 
BRANCH  20  21
HETATM   21  C   UNL     1      -4.919 -14.122 -34.917  1.00  0.00     0.004 A 
HETATM   22  C   UNL     1      -6.109 -14.075 -34.213  1.00  0.00     0.122 A 
HETATM   23  N   UNL     1      -6.356 -15.353 -33.791  1.00  0.00    -0.285 N 
HETATM   24  C   UNL     1      -7.457 -15.816 -32.976  1.00  0.00     0.179 C 
HETATM   25  N   UNL     1      -5.450 -16.233 -34.249  1.00  0.00    -0.185 NA
HETATM   26  C   UNL     1      -4.540 -15.482 -34.862  1.00  0.00     0.149 A 
ENDBRANCH  20  21
ENDBRANCH  17  20
ENDBRANCH   9  17
BRANCH   1  27
HETATM   27  C   UNL     1      -8.642 -13.420 -39.671  1.00  0.00     0.180 C 
HETATM   28  C   UNL     1      -9.658 -14.551 -39.501  1.00  0.00     0.039 C 
HETATM   29  C   UNL     1      -9.325 -12.230 -40.346  1.00  0.00     0.039 C 
ENDBRANCH   1  27
TORSDOF 4
ENDMDL
MODEL 6
REMARK VINA RESULT:      -7.1      2.009      5.206
REMARK  4 active torsions:
REMARK  status: ('A' for Active; 'I' for Inactive)
REMARK    1  A    between atoms: C_2  and  N_3 
REMARK    2  A    between atoms: C_11  and  N_12 
REMARK    3  A    between atoms: N_12  and  C_15 
REMARK    4  A    between atoms: C_15  and  C_16 
ROOT
HETATM    1  N   UNL     1      -5.789  -0.234 -32.598  1.00  0.00    -0.067 N 
HETATM    2  H   UNL     1      -5.333  -0.913 -31.967  1.00  0.00     0.280 HD
HETATM    3  C   UNL     1      -4.845   0.955 -32.636  1.00  0.00     0.238 C 
HETATM    4  C   UNL     1      -5.491   2.124 -33.375  1.00  0.00     0.066 C 
HETATM    5  C   UNL     1      -6.843   2.558 -32.754  1.00  0.00     0.073 C 
HETATM    6  O   UNL     1      -6.540   3.006 -31.429  1.00  0.00    -0.339 OA
HETATM    7  C   UNL     1      -7.330   3.952 -30.847  1.00  0.00     0.078 A 
HETATM    8  C   UNL     1      -8.296   4.708 -31.520  1.00  0.00     0.006 A 
HETATM    9  C   UNL     1      -8.573   4.487 -32.976  1.00  0.00     0.224 C 
HETATM   10  C   UNL     1      -7.428   3.695 -33.623  1.00  0.00     0.076 C 
HETATM   11  C   UNL     1      -7.076   4.170 -29.491  1.00  0.00     0.037 A 
HETATM   12  C   UNL     1      -7.781   5.146 -28.790  1.00  0.00     0.003 A 
HETATM   13  C   UNL     1      -8.726   5.922 -29.449  1.00  0.00     0.001 A 
HETATM   14  C   UNL     1      -8.976   5.713 -30.807  1.00  0.00     0.012 A 
HETATM   15  C   UNL     1      -7.754   1.319 -32.629  1.00  0.00     0.066 C 
HETATM   16  C   UNL     1      -7.060   0.171 -31.888  1.00  0.00     0.238 C 
ENDROOT
BRANCH   9  17
HETATM   17  N   UNL     1      -9.874   3.784 -33.237  1.00  0.00    -0.063 N 
HETATM   18  H   UNL     1      -9.920   2.907 -32.705  1.00  0.00     0.278 HD
HETATM   19  H   UNL     1     -10.663   4.364 -32.936  1.00  0.00     0.278 HD
BRANCH  17  20
HETATM   20  C   UNL     1     -10.173   3.391 -34.654  1.00  0.00     0.274 C 
BRANCH  20  21
HETATM   21  C   UNL     1     -11.331   2.469 -34.641  1.00  0.00     0.004 A 
HETATM   22  C   UNL     1     -11.560   1.382 -33.817  1.00  0.00     0.122 A 
HETATM   23  N   UNL     1     -12.779   0.876 -34.180  1.00  0.00    -0.285 N 
HETATM   24  C   UNL     1     -13.444  -0.292 -33.647  1.00  0.00     0.179 C 
HETATM   25  N   UNL     1     -13.385   1.614 -35.124  1.00  0.00    -0.185 NA
HETATM   26  C   UNL     1     -12.481   2.529 -35.460  1.00  0.00     0.149 A 
ENDBRANCH  20  21
ENDBRANCH  17  20
ENDBRANCH   9  17
BRANCH   1  27
HETATM   27  C   UNL     1      -5.953  -1.000 -33.924  1.00  0.00     0.180 C 
HETATM   28  C   UNL     1      -7.219  -1.857 -33.895  1.00  0.00     0.039 C 
HETATM   29  C   UNL     1      -4.741  -1.903 -34.159  1.00  0.00     0.039 C 
ENDBRANCH   1  27
TORSDOF 4
ENDMDL
MODEL 7
REMARK VINA RESULT:      -7.0     15.382     18.265
REMARK  4 active torsions:
REMARK  status: ('A' for Active; 'I' for Inactive)
REMARK    1  A    between atoms: C_2  and  N_3 
REMARK    2  A    between atoms: C_11  and  N_12 
REMARK    3  A    between atoms: N_12  and  C_15 
REMARK    4  A    between atoms: C_15  and  C_16 
ROOT
HETATM    1  N   UNL     1      -5.225 -16.746 -43.262  1.00  0.00    -0.067 N 
HETATM    2  H   UNL     1      -4.711 -17.564 -43.627  1.00  0.00     0.280 HD
HETATM    3  C   UNL     1      -4.471 -15.542 -43.796  1.00  0.00     0.238 C 
HETATM    4  C   UNL     1      -5.003 -14.258 -43.166  1.00  0.00     0.066 C 
HETATM    5  C   UNL     1      -4.929 -14.268 -41.618  1.00  0.00     0.073 C 
HETATM    6  O   UNL     1      -3.538 -14.358 -41.293  1.00  0.00    -0.339 OA
HETATM    7  C   UNL     1      -3.090 -13.823 -40.122  1.00  0.00     0.078 A 
HETATM    8  C   UNL     1      -3.837 -12.977 -39.296  1.00  0.00     0.006 A 
HETATM    9  C   UNL     1      -5.255 -12.625 -39.629  1.00  0.00     0.224 C 
HETATM   10  C   UNL     1      -5.554 -12.954 -41.099  1.00  0.00     0.076 C 
HETATM   11  C   UNL     1      -1.767 -14.140 -39.804  1.00  0.00     0.037 A 
HETATM   12  C   UNL     1      -1.173 -13.616 -38.659  1.00  0.00     0.003 A 
HETATM   13  C   UNL     1      -1.893 -12.755 -37.840  1.00  0.00     0.001 A 
HETATM   14  C   UNL     1      -3.212 -12.429 -38.160  1.00  0.00     0.012 A 
HETATM   15  C   UNL     1      -5.612 -15.549 -41.096  1.00  0.00     0.066 C 
HETATM   16  C   UNL     1      -5.051 -16.809 -41.762  1.00  0.00     0.238 C 
ENDROOT
BRANCH   9  17
HETATM   17  N   UNL     1      -6.263 -13.309 -38.750  1.00  0.00    -0.063 N 
HETATM   18  H   UNL     1      -6.643 -14.139 -39.220  1.00  0.00     0.278 HD
HETATM   19  H   UNL     1      -5.826 -13.626 -37.880  1.00  0.00     0.278 HD
BRANCH  17  20
HETATM   20  C   UNL     1      -7.468 -12.515 -38.338  1.00  0.00     0.274 C 
BRANCH  20  21
HETATM   21  C   UNL     1      -8.593 -12.894 -39.222  1.00  0.00     0.004 A 
HETATM   22  C   UNL     1      -8.987 -14.157 -39.626  1.00  0.00     0.122 A 
HETATM   23  N   UNL     1     -10.093 -13.981 -40.413  1.00  0.00    -0.285 N 
HETATM   24  C   UNL     1     -10.847 -14.996 -41.114  1.00  0.00     0.179 C 
HETATM   25  N   UNL     1     -10.485 -12.698 -40.473  1.00  0.00    -0.185 NA
HETATM   26  C   UNL     1      -9.538 -12.031 -39.821  1.00  0.00     0.149 A 
ENDBRANCH  20  21
ENDBRANCH  17  20
ENDBRANCH   9  17
BRANCH   1  27
HETATM   27  C   UNL     1      -6.658 -16.928 -43.798  1.00  0.00     0.180 C 
HETATM   28  C   UNL     1      -7.255 -18.243 -43.294  1.00  0.00     0.039 C 
HETATM   29  C   UNL     1      -6.646 -16.936 -45.328  1.00  0.00     0.039 C 
ENDBRANCH   1  27
TORSDOF 4
ENDMDL
MODEL 8
REMARK VINA RESULT:      -6.8      3.440      7.965
REMARK  4 active torsions:
REMARK  status: ('A' for Active; 'I' for Inactive)
REMARK    1  A    between atoms: C_2  and  N_3 
REMARK    2  A    between atoms: C_11  and  N_12 
REMARK    3  A    between atoms: N_12  and  C_15 
REMARK    4  A    between atoms: C_15  and  C_16 
ROOT
HETATM    1  N   UNL     1      -6.115   1.366 -32.956  1.00  0.00    -0.067 N 
HETATM    2  H   UNL     1      -5.939   0.509 -33.504  1.00  0.00     0.280 HD
HETATM    3  C   UNL     1      -6.516   2.408 -33.985  1.00  0.00     0.238 C 
HETATM    4  C   UNL     1      -6.610   3.787 -33.338  1.00  0.00     0.066 C 
HETATM    5  C   UNL     1      -5.292   4.222 -32.649  1.00  0.00     0.073 C 
HETATM    6  O   UNL     1      -4.314   4.307 -33.691  1.00  0.00    -0.339 OA
HETATM    7  C   UNL     1      -3.274   5.178 -33.560  1.00  0.00     0.078 A 
HETATM    8  C   UNL     1      -3.191   6.181 -32.590  1.00  0.00     0.006 A 
HETATM    9  C   UNL     1      -4.261   6.344 -31.553  1.00  0.00     0.224 C 
HETATM   10  C   UNL     1      -5.532   5.594 -31.977  1.00  0.00     0.076 C 
HETATM   11  C   UNL     1      -2.273   5.039 -34.525  1.00  0.00     0.037 A 
HETATM   12  C   UNL     1      -1.178   5.900 -34.534  1.00  0.00     0.003 A 
HETATM   13  C   UNL     1      -1.093   6.917 -33.591  1.00  0.00     0.001 A 
HETATM   14  C   UNL     1      -2.096   7.065 -32.632  1.00  0.00     0.012 A 
HETATM   15  C   UNL     1      -4.845   3.108 -31.680  1.00  0.00     0.066 C 
HETATM   16  C   UNL     1      -4.773   1.744 -32.373  1.00  0.00     0.238 C 
ENDROOT
BRANCH   9  17
HETATM   17  N   UNL     1      -3.844   5.885 -30.186  1.00  0.00    -0.063 N 
HETATM   18  H   UNL     1      -4.559   5.267 -29.782  1.00  0.00     0.278 HD
HETATM   19  H   UNL     1      -2.973   5.348 -30.236  1.00  0.00     0.278 HD
BRANCH  17  20
HETATM   20  C   UNL     1      -3.616   6.941 -29.144  1.00  0.00     0.274 C 
BRANCH  20  21
HETATM   21  C   UNL     1      -4.923   7.284 -28.542  1.00  0.00     0.004 A 
HETATM   22  C   UNL     1      -5.466   8.534 -28.312  1.00  0.00     0.122 A 
HETATM   23  N   UNL     1      -6.703   8.321 -27.765  1.00  0.00    -0.285 N 
HETATM   24  C   UNL     1      -7.648   9.315 -27.305  1.00  0.00     0.179 C 
HETATM   25  N   UNL     1      -7.025   7.019 -27.707  1.00  0.00    -0.185 NA
HETATM   26  C   UNL     1      -5.923   6.388 -28.101  1.00  0.00     0.149 A 
ENDBRANCH  20  21
ENDBRANCH  17  20
ENDBRANCH   9  17
BRANCH   1  27
HETATM   27  C   UNL     1      -7.213   0.959 -31.956  1.00  0.00     0.180 C 
HETATM   28  C   UNL     1      -6.678  -0.078 -30.966  1.00  0.00     0.039 C 
HETATM   29  C   UNL     1      -8.409   0.369 -32.704  1.00  0.00     0.039 C 
ENDBRANCH   1  27
TORSDOF 4
ENDMDL
MODEL 9
REMARK VINA RESULT:      -6.7      2.832      6.981
REMARK  4 active torsions:
REMARK  status: ('A' for Active; 'I' for Inactive)
REMARK    1  A    between atoms: C_2  and  N_3 
REMARK    2  A    between atoms: C_11  and  N_12 
REMARK    3  A    between atoms: N_12  and  C_15 
REMARK    4  A    between atoms: C_15  and  C_16 
ROOT
HETATM    1  N   UNL     1      -6.405  -0.349 -34.594  1.00  0.00    -0.067 N 
HETATM    2  H   UNL     1      -5.905  -0.349 -35.497  1.00  0.00     0.280 HD
HETATM    3  C   UNL     1      -7.875  -0.251 -34.965  1.00  0.00     0.238 C 
HETATM    4  C   UNL     1      -8.726  -0.035 -33.717  1.00  0.00     0.066 C 
HETATM    5  C   UNL     1      -8.312   1.223 -32.913  1.00  0.00     0.073 C 
HETATM    6  O   UNL     1      -8.542   2.336 -33.784  1.00  0.00    -0.339 OA
HETATM    7  C   UNL     1      -8.839   3.553 -33.246  1.00  0.00     0.078 A 
HETATM    8  C   UNL     1      -9.173   3.772 -31.905  1.00  0.00     0.006 A 
HETATM    9  C   UNL     1      -9.178   2.646 -30.917  1.00  0.00     0.224 C 
HETATM   10  C   UNL     1      -9.195   1.296 -31.647  1.00  0.00     0.076 C 
HETATM   11  C   UNL     1      -8.843   4.609 -34.160  1.00  0.00     0.037 A 
HETATM   12  C   UNL     1      -9.180   5.896 -33.749  1.00  0.00     0.003 A 
HETATM   13  C   UNL     1      -9.537   6.127 -32.426  1.00  0.00     0.001 A 
HETATM   14  C   UNL     1      -9.544   5.072 -31.512  1.00  0.00     0.012 A 
HETATM   15  C   UNL     1      -6.797   1.158 -32.631  1.00  0.00     0.066 C 
HETATM   16  C   UNL     1      -5.986   0.933 -33.911  1.00  0.00     0.238 C 
ENDROOT
BRANCH   9  17
HETATM   17  N   UNL     1      -8.019   2.683 -29.962  1.00  0.00    -0.063 N 
HETATM   18  H   UNL     1      -8.333   2.464 -29.009  1.00  0.00     0.278 HD
HETATM   19  H   UNL     1      -7.318   1.983 -30.220  1.00  0.00     0.278 HD
BRANCH  17  20
HETATM   20  C   UNL     1      -7.275   3.980 -29.832  1.00  0.00     0.274 C 
BRANCH  20  21
HETATM   21  C   UNL     1      -6.001   3.856 -30.574  1.00  0.00     0.004 A 
HETATM   22  C   UNL     1      -5.542   4.614 -31.636  1.00  0.00     0.122 A 
HETATM   23  N   UNL     1      -4.303   4.126 -31.950  1.00  0.00    -0.285 N 
HETATM   24  C   UNL     1      -3.431   4.554 -33.021  1.00  0.00     0.179 C 
HETATM   25  N   UNL     1      -3.898   3.162 -31.107  1.00  0.00    -0.185 NA
HETATM   26  C   UNL     1      -4.951   2.943 -30.325  1.00  0.00     0.149 A 
ENDBRANCH  20  21
ENDBRANCH  17  20
ENDBRANCH   9  17
BRANCH   1  27
HETATM   27  C   UNL     1      -5.973  -1.664 -33.919  1.00  0.00     0.180 C 
HETATM   28  C   UNL     1      -4.459  -1.680 -33.698  1.00  0.00     0.039 C 
HETATM   29  C   UNL     1      -6.365  -2.854 -34.795  1.00  0.00     0.039 C 
ENDBRANCH   1  27
TORSDOF 4
ENDMDL
MODEL 10
REMARK VINA RESULT:      -6.7      3.368      8.343
REMARK  4 active torsions:
REMARK  status: ('A' for Active; 'I' for Inactive)
REMARK    1  A    between atoms: C_2  and  N_3 
REMARK    2  A    between atoms: C_11  and  N_12 
REMARK    3  A    between atoms: N_12  and  C_15 
REMARK    4  A    between atoms: C_15  and  C_16 
ROOT
HETATM    1  N   UNL     1      -6.362  -0.701 -33.017  1.00  0.00    -0.067 N 
HETATM    2  H   UNL     1      -7.257  -1.214 -32.990  1.00  0.00     0.280 HD
HETATM    3  C   UNL     1      -5.806  -0.815 -31.609  1.00  0.00     0.238 C 
HETATM    4  C   UNL     1      -4.576   0.075 -31.449  1.00  0.00     0.066 C 
HETATM    5  C   UNL     1      -4.861   1.564 -31.772  1.00  0.00     0.073 C 
HETATM    6  O   UNL     1      -5.828   1.995 -30.809  1.00  0.00    -0.339 OA
HETATM    7  C   UNL     1      -5.860   3.306 -30.437  1.00  0.00     0.078 A 
HETATM    8  C   UNL     1      -4.870   4.246 -30.742  1.00  0.00     0.006 A 
HETATM    9  C   UNL     1      -3.682   3.873 -31.575  1.00  0.00     0.224 C 
HETATM   10  C   UNL     1      -3.535   2.346 -31.641  1.00  0.00     0.076 C 
HETATM   11  C   UNL     1      -6.962   3.664 -29.655  1.00  0.00     0.037 A 
HETATM   12  C   UNL     1      -7.088   4.962 -29.167  1.00  0.00     0.003 A 
HETATM   13  C   UNL     1      -6.102   5.901 -29.441  1.00  0.00     0.001 A 
HETATM   14  C   UNL     1      -4.995   5.545 -30.214  1.00  0.00     0.012 A 
HETATM   15  C   UNL     1      -5.519   1.654 -33.164  1.00  0.00     0.066 C 
HETATM   16  C   UNL     1      -6.742   0.739 -33.279  1.00  0.00     0.238 C 
ENDROOT
BRANCH   9  17
HETATM   17  N   UNL     1      -3.730   4.430 -32.968  1.00  0.00    -0.063 N 
HETATM   18  H   UNL     1      -4.039   3.709 -33.631  1.00  0.00     0.278 HD
HETATM   19  H   UNL     1      -4.400   5.202 -33.025  1.00  0.00     0.278 HD
BRANCH  17  20
HETATM   20  C   UNL     1      -2.448   4.957 -33.545  1.00  0.00     0.274 C 
BRANCH  20  21
HETATM   21  C   UNL     1      -2.034   6.132 -32.747  1.00  0.00     0.004 A 
HETATM   22  C   UNL     1      -2.778   7.246 -32.400  1.00  0.00     0.122 A 
HETATM   23  N   UNL     1      -1.958   8.032 -31.636  1.00  0.00    -0.285 N 
HETATM   24  C   UNL     1      -2.256   9.329 -31.070  1.00  0.00     0.179 C 
HETATM   25  N   UNL     1      -0.767   7.459 -31.399  1.00  0.00    -0.185 NA
HETATM   26  C   UNL     1      -0.781   6.350 -32.132  1.00  0.00     0.149 A 
ENDBRANCH  20  21
ENDBRANCH  17  20
ENDBRANCH   9  17
BRANCH   1  27
HETATM   27  C   UNL     1      -5.550  -1.411 -34.116  1.00  0.00     0.180 C 
HETATM   28  C   UNL     1      -6.461  -2.294 -34.970  1.00  0.00     0.039 C 
HETATM   29  C   UNL     1      -4.461  -2.278 -33.483  1.00  0.00     0.039 C 
ENDBRANCH   1  27
TORSDOF 4
ENDMDL
