MODEL 1
REMARK VINA RESULT:      -9.1      0.000      0.000
REMARK  7 active torsions:
REMARK  status: ('A' for Active; 'I' for Inactive)
REMARK    1  A    between atoms: C_4  and  C_5 
REMARK    2  A    between atoms: C_5  and  N_6 
REMARK       I    between atoms: N_6  and  C_7 
REMARK    3  A    between atoms: N_6  and  C_18 
REMARK       I    between atoms: C_7  and  N_8 
REMARK    4  A    between atoms: N_8  and  C_9 
REMARK    5  A    between atoms: C_10  and  O_11 
REMARK    6  A    between atoms: N_21  and  C_23 
REMARK    7  A    between atoms: C_23  and  C_24 
ROOT
HETATM    1  N   UNL     1      -6.491   1.223 -32.474  1.00  0.00    -0.323 N 
HETATM    2  C   UNL     1      -6.073  -0.130 -32.473  1.00  0.00     0.323 C 
HETATM    3  N   UNL     1      -6.134  -0.775 -33.687  1.00  0.00    -0.306 N 
HETATM    4  O   UNL     1      -5.675  -0.625 -31.423  1.00  0.00    -0.247 OA
HETATM    5  H   UNL     1      -6.328  -0.223 -34.500  1.00  0.00     0.171 HD
ENDROOT
BRANCH   1   6
HETATM    6  C   UNL     1      -6.798   1.976 -33.696  1.00  0.00     0.193 C 
BRANCH   6   7
HETATM    7  C   UNL     1      -8.254   1.959 -33.971  1.00  0.00     0.071 A 
HETATM    8  O   UNL     1      -8.826   3.166 -34.254  1.00  0.00    -0.318 OA
HETATM    9  C   UNL     1     -10.155   2.940 -34.460  1.00  0.00     0.049 A 
HETATM   10  C   UNL     1     -10.996   4.116 -34.765  1.00  0.00     0.076 C 
HETATM   11  C   UNL     1     -10.435   1.599 -34.319  1.00  0.00     0.035 A 
HETATM   12  C   UNL     1      -9.210   0.965 -34.003  1.00  0.00     0.037 A 
ENDBRANCH   6   7
ENDBRANCH   1   6
BRANCH   1  13
HETATM   13  C   UNL     1      -6.620   1.855 -31.127  1.00  0.00     0.092 C 
HETATM   14  C   UNL     1      -7.481   3.117 -30.975  1.00  0.00     0.053 C 
HETATM   15  C   UNL     1      -6.820   4.426 -31.383  1.00  0.00     0.237 C 
HETATM   16  N   UNL     1      -5.425   4.551 -30.814  1.00  0.00    -0.067 N 
HETATM   17  H   UNL     1      -5.532   4.707 -29.804  1.00  0.00     0.280 HD
HETATM   18  C   UNL     1      -4.570   3.321 -31.008  1.00  0.00     0.237 C 
HETATM   19  C   UNL     1      -5.261   2.095 -30.456  1.00  0.00     0.053 C 
BRANCH  16  20
HETATM   20  C   UNL     1      -4.678   5.766 -31.347  1.00  0.00     0.273 C 
BRANCH  20  21
HETATM   21  C   UNL     1      -3.871   5.523 -32.590  1.00  0.00    -0.033 A 
HETATM   22  C   UNL     1      -4.487   5.444 -33.848  1.00  0.00     0.009 A 
HETATM   23  C   UNL     1      -3.721   5.218 -34.992  1.00  0.00     0.001 A 
HETATM   24  C   UNL     1      -2.340   5.064 -34.893  1.00  0.00     0.000 A 
HETATM   25  C   UNL     1      -1.717   5.137 -33.650  1.00  0.00     0.001 A 
HETATM   26  C   UNL     1      -2.477   5.365 -32.504  1.00  0.00     0.009 A 
ENDBRANCH  20  21
ENDBRANCH  16  20
ENDBRANCH   1  13
BRANCH   3  27
HETATM   27  C   UNL     1      -5.814  -2.119 -34.016  1.00  0.00     0.069 A 
HETATM   28  C   UNL     1      -4.592  -2.778 -33.819  1.00  0.00     0.095 A 
HETATM   29  C   UNL     1      -4.417  -4.099 -34.258  1.00  0.00     0.039 A 
HETATM   30  C   UNL     1      -5.468  -4.800 -34.844  1.00  0.00     0.003 A 
HETATM   31  C   UNL     1      -6.701  -4.181 -34.996  1.00  0.00     0.002 A 
HETATM   32  C   UNL     1      -6.872  -2.856 -34.584  1.00  0.00     0.032 A 
BRANCH  28  33
HETATM   33  O   UNL     1      -3.512  -2.218 -33.199  1.00  0.00    -0.354 OA
HETATM   34  C   UNL     1      -3.151  -2.978 -32.047  1.00  0.00     0.210 C 
ENDBRANCH  28  33
ENDBRANCH   3  27
TORSDOF 7
ENDMDL
MODEL 2
REMARK VINA RESULT:      -8.8      1.612      2.306
REMARK  7 active torsions:
REMARK  status: ('A' for Active; 'I' for Inactive)
REMARK    1  A    between atoms: C_4  and  C_5 
REMARK    2  A    between atoms: C_5  and  N_6 
REMARK       I    between atoms: N_6  and  C_7 
REMARK    3  A    between atoms: N_6  and  C_18 
REMARK       I    between atoms: C_7  and  N_8 
REMARK    4  A    between atoms: N_8  and  C_9 
REMARK    5  A    between atoms: C_10  and  O_11 
REMARK    6  A    between atoms: N_21  and  C_23 
REMARK    7  A    between atoms: C_23  and  C_24 
ROOT
HETATM    1  N   UNL     1      -5.700   1.329 -32.580  1.00  0.00    -0.323 N 
HETATM    2  C   UNL     1      -5.432  -0.061 -32.583  1.00  0.00     0.323 C 
HETATM    3  N   UNL     1      -5.788  -0.734 -33.729  1.00  0.00    -0.306 N 
HETATM    4  O   UNL     1      -4.896  -0.562 -31.600  1.00  0.00    -0.247 OA
HETATM    5  H   UNL     1      -6.074  -0.190 -34.521  1.00  0.00     0.171 HD
ENDROOT
BRANCH   1   6
HETATM    6  C   UNL     1      -6.153   2.072 -33.762  1.00  0.00     0.193 C 
BRANCH   6   7
HETATM    7  C   UNL     1      -7.624   2.243 -33.743  1.00  0.00     0.071 A 
HETATM    8  O   UNL     1      -8.356   1.130 -33.443  1.00  0.00    -0.318 OA
HETATM    9  C   UNL     1      -9.670   1.489 -33.491  1.00  0.00     0.049 A 
HETATM   10  C   UNL     1     -10.665   0.432 -33.217  1.00  0.00     0.076 C 
HETATM   11  C   UNL     1      -9.784   2.824 -33.814  1.00  0.00     0.035 A 
HETATM   12  C   UNL     1      -8.466   3.311 -33.977  1.00  0.00     0.037 A 
ENDBRANCH   6   7
ENDBRANCH   1   6
BRANCH   1  13
HETATM   13  C   UNL     1      -5.507   2.016 -31.267  1.00  0.00     0.092 C 
HETATM   14  C   UNL     1      -6.179   3.376 -31.030  1.00  0.00     0.053 C 
HETATM   15  C   UNL     1      -5.463   4.583 -31.621  1.00  0.00     0.237 C 
HETATM   16  N   UNL     1      -3.981   4.559 -31.320  1.00  0.00    -0.067 N 
HETATM   17  H   UNL     1      -3.881   4.759 -30.317  1.00  0.00     0.280 HD
HETATM   18  C   UNL     1      -3.319   3.230 -31.599  1.00  0.00     0.237 C 
HETATM   19  C   UNL     1      -4.028   2.114 -30.866  1.00  0.00     0.053 C 
BRANCH  16  20
HETATM   20  C   UNL     1      -3.216   5.658 -32.044  1.00  0.00     0.273 C 
BRANCH  20  21
HETATM   21  C   UNL     1      -2.007   6.177 -31.319  1.00  0.00    -0.033 A 
HETATM   22  C   UNL     1      -2.140   6.990 -30.184  1.00  0.00     0.009 A 
HETATM   23  C   UNL     1      -1.005   7.463 -29.523  1.00  0.00     0.001 A 
HETATM   24  C   UNL     1       0.266   7.134 -29.989  1.00  0.00     0.000 A 
HETATM   25  C   UNL     1       0.410   6.331 -31.116  1.00  0.00     0.001 A 
HETATM   26  C   UNL     1      -0.719   5.853 -31.778  1.00  0.00     0.009 A 
ENDBRANCH  20  21
ENDBRANCH  16  20
ENDBRANCH   1  13
BRANCH   3  27
HETATM   27  C   UNL     1      -5.677  -2.115 -34.040  1.00  0.00     0.069 A 
HETATM   28  C   UNL     1      -4.571  -2.951 -33.830  1.00  0.00     0.095 A 
HETATM   29  C   UNL     1      -4.600  -4.290 -34.251  1.00  0.00     0.039 A 
HETATM   30  C   UNL     1      -5.744  -4.828 -34.832  1.00  0.00     0.003 A 
HETATM   31  C   UNL     1      -6.868  -4.030 -34.998  1.00  0.00     0.002 A 
HETATM   32  C   UNL     1      -6.834  -2.689 -34.604  1.00  0.00     0.032 A 
BRANCH  28  33
HETATM   33  O   UNL     1      -3.420  -2.556 -33.212  1.00  0.00    -0.354 OA
HETATM   34  C   UNL     1      -3.096  -3.447 -32.145  1.00  0.00     0.210 C 
ENDBRANCH  28  33
ENDBRANCH   3  27
TORSDOF 7
ENDMDL
MODEL 3
REMARK VINA RESULT:      -8.7      2.697      8.102
REMARK  7 active torsions:
REMARK  status: ('A' for Active; 'I' for Inactive)
REMARK    1  A    between atoms: C_4  and  C_5 
REMARK    2  A    between atoms: C_5  and  N_6 
REMARK       I    between atoms: N_6  and  C_7 
REMARK    3  A    between atoms: N_6  and  C_18 
REMARK       I    between atoms: C_7  and  N_8 
REMARK    4  A    between atoms: N_8  and  C_9 
REMARK    5  A    between atoms: C_10  and  O_11 
REMARK    6  A    between atoms: N_21  and  C_23 
REMARK    7  A    between atoms: C_23  and  C_24 
ROOT
HETATM    1  N   UNL     1      -6.894   1.988 -32.839  1.00  0.00    -0.323 N 
HETATM    2  C   UNL     1      -6.092   3.056 -32.369  1.00  0.00     0.323 C 
HETATM    3  N   UNL     1      -4.988   3.354 -33.134  1.00  0.00    -0.306 N 
HETATM    4  O   UNL     1      -6.431   3.646 -31.348  1.00  0.00    -0.247 OA
HETATM    5  H   UNL     1      -4.902   2.905 -34.026  1.00  0.00     0.171 HD
ENDROOT
BRANCH   1   6
HETATM    6  C   UNL     1      -6.702   1.341 -34.142  1.00  0.00     0.193 C 
BRANCH   6   7
HETATM    7  C   UNL     1      -5.991   0.051 -33.988  1.00  0.00     0.071 A 
HETATM    8  O   UNL     1      -6.535  -1.017 -34.642  1.00  0.00    -0.318 OA
HETATM    9  C   UNL     1      -5.752  -2.098 -34.364  1.00  0.00     0.049 A 
HETATM   10  C   UNL     1      -6.159  -3.391 -34.953  1.00  0.00     0.076 C 
HETATM   11  C   UNL     1      -4.707  -1.728 -33.546  1.00  0.00     0.035 A 
HETATM   12  C   UNL     1      -4.861  -0.343 -33.302  1.00  0.00     0.037 A 
ENDBRANCH   6   7
ENDBRANCH   1   6
BRANCH   1  13
HETATM   13  C   UNL     1      -7.967   1.534 -31.904  1.00  0.00     0.092 C 
HETATM   14  C   UNL     1      -8.770   0.271 -32.248  1.00  0.00     0.053 C 
HETATM   15  C   UNL     1      -9.901   0.454 -33.251  1.00  0.00     0.237 C 
HETATM   16  N   UNL     1     -10.749   1.663 -32.925  1.00  0.00    -0.067 N 
HETATM   17  H   UNL     1     -11.288   1.426 -32.083  1.00  0.00     0.280 HD
HETATM   18  C   UNL     1      -9.951   2.912 -32.632  1.00  0.00     0.237 C 
HETATM   19  C   UNL     1      -8.943   2.659 -31.535  1.00  0.00     0.053 C 
BRANCH  16  20
HETATM   20  C   UNL     1     -11.776   1.970 -34.006  1.00  0.00     0.273 C 
BRANCH  20  21
HETATM   21  C   UNL     1     -13.206   1.968 -33.546  1.00  0.00    -0.033 A 
HETATM   22  C   UNL     1     -13.627   2.793 -32.493  1.00  0.00     0.009 A 
HETATM   23  C   UNL     1     -14.959   2.779 -32.079  1.00  0.00     0.001 A 
HETATM   24  C   UNL     1     -15.879   1.940 -32.705  1.00  0.00     0.000 A 
HETATM   25  C   UNL     1     -15.473   1.114 -33.749  1.00  0.00     0.001 A 
HETATM   26  C   UNL     1     -14.144   1.127 -34.169  1.00  0.00     0.009 A 
ENDBRANCH  20  21
ENDBRANCH  16  20
ENDBRANCH   1  13
BRANCH   3  27
HETATM   27  C   UNL     1      -3.983   4.337 -32.930  1.00  0.00     0.069 A 
HETATM   28  C   UNL     1      -4.121   5.729 -33.015  1.00  0.00     0.095 A 
HETATM   29  C   UNL     1      -3.009   6.568 -32.844  1.00  0.00     0.039 A 
HETATM   30  C   UNL     1      -1.761   6.038 -32.530  1.00  0.00     0.003 A 
HETATM   31  C   UNL     1      -1.617   4.664 -32.388  1.00  0.00     0.002 A 
HETATM   32  C   UNL     1      -2.717   3.824 -32.584  1.00  0.00     0.032 A 
BRANCH  28  33
HETATM   33  O   UNL     1      -5.305   6.368 -33.251  1.00  0.00    -0.354 OA
HETATM   34  C   UNL     1      -5.792   6.973 -32.054  1.00  0.00     0.210 C 
ENDBRANCH  28  33
ENDBRANCH   3  27
TORSDOF 7
ENDMDL
MODEL 4
REMARK VINA RESULT:      -8.7      2.238      6.427
REMARK  7 active torsions:
REMARK  status: ('A' for Active; 'I' for Inactive)
REMARK    1  A    between atoms: C_4  and  C_5 
REMARK    2  A    between atoms: C_5  and  N_6 
REMARK       I    between atoms: N_6  and  C_7 
REMARK    3  A    between atoms: N_6  and  C_18 
REMARK       I    between atoms: C_7  and  N_8 
REMARK    4  A    between atoms: N_8  and  C_9 
REMARK    5  A    between atoms: C_10  and  O_11 
REMARK    6  A    between atoms: N_21  and  C_23 
REMARK    7  A    between atoms: C_23  and  C_24 
ROOT
HETATM    1  N   UNL     1      -6.336   1.470 -32.405  1.00  0.00    -0.323 N 
HETATM    2  C   UNL     1      -5.967   0.124 -32.169  1.00  0.00     0.323 C 
HETATM    3  N   UNL     1      -5.033  -0.399 -33.035  1.00  0.00    -0.306 N 
HETATM    4  O   UNL     1      -6.472  -0.472 -31.223  1.00  0.00    -0.247 OA
HETATM    5  H   UNL     1      -4.581   0.231 -33.670  1.00  0.00     0.171 HD
ENDROOT
BRANCH   1   6
HETATM    6  C   UNL     1      -5.660   2.339 -33.375  1.00  0.00     0.193 C 
BRANCH   6   7
HETATM    7  C   UNL     1      -4.575   3.109 -32.725  1.00  0.00     0.071 A 
HETATM    8  O   UNL     1      -4.756   4.460 -32.653  1.00  0.00    -0.318 OA
HETATM    9  C   UNL     1      -3.654   4.979 -32.041  1.00  0.00     0.049 A 
HETATM   10  C   UNL     1      -3.611   6.446 -31.866  1.00  0.00     0.076 C 
HETATM   11  C   UNL     1      -2.774   3.971 -31.714  1.00  0.00     0.035 A 
HETATM   12  C   UNL     1      -3.366   2.764 -32.156  1.00  0.00     0.037 A 
ENDBRANCH   6   7
ENDBRANCH   1   6
BRANCH   1  13
HETATM   13  C   UNL     1      -7.493   1.967 -31.600  1.00  0.00     0.092 C 
HETATM   14  C   UNL     1      -8.638   1.000 -31.266  1.00  0.00     0.053 C 
HETATM   15  C   UNL     1      -9.665   0.780 -32.369  1.00  0.00     0.237 C 
HETATM   16  N   UNL     1     -10.112   2.084 -32.988  1.00  0.00    -0.067 N 
HETATM   17  H   UNL     1     -10.694   2.559 -32.287  1.00  0.00     0.280 HD
HETATM   18  C   UNL     1      -8.976   3.010 -33.355  1.00  0.00     0.237 C 
HETATM   19  C   UNL     1      -8.086   3.267 -32.161  1.00  0.00     0.053 C 
BRANCH  16  20
HETATM   20  C   UNL     1     -11.004   1.883 -34.206  1.00  0.00     0.273 C 
BRANCH  20  21
HETATM   21  C   UNL     1     -12.466   1.724 -33.905  1.00  0.00    -0.033 A 
HETATM   22  C   UNL     1     -13.223   0.711 -34.513  1.00  0.00     0.009 A 
HETATM   23  C   UNL     1     -14.581   0.578 -34.221  1.00  0.00     0.001 A 
HETATM   24  C   UNL     1     -15.196   1.455 -33.328  1.00  0.00     0.000 A 
HETATM   25  C   UNL     1     -14.456   2.466 -32.722  1.00  0.00     0.001 A 
HETATM   26  C   UNL     1     -13.099   2.601 -33.007  1.00  0.00     0.009 A 
ENDBRANCH  20  21
ENDBRANCH  16  20
ENDBRANCH   1  13
BRANCH   3  27
HETATM   27  C   UNL     1      -4.476  -1.704 -33.085  1.00  0.00     0.069 A 
HETATM   28  C   UNL     1      -4.731  -2.705 -34.032  1.00  0.00     0.095 A 
HETATM   29  C   UNL     1      -4.140  -3.972 -33.907  1.00  0.00     0.039 A 
HETATM   30  C   UNL     1      -3.246  -4.241 -32.874  1.00  0.00     0.003 A 
HETATM   31  C   UNL     1      -2.939  -3.243 -31.958  1.00  0.00     0.002 A 
HETATM   32  C   UNL     1      -3.546  -1.988 -32.065  1.00  0.00     0.032 A 
BRANCH  28  33
HETATM   33  O   UNL     1      -5.535  -2.540 -35.123  1.00  0.00    -0.354 OA
HETATM   34  C   UNL     1      -6.741  -3.288 -34.971  1.00  0.00     0.210 C 
ENDBRANCH  28  33
ENDBRANCH   3  27
TORSDOF 7
ENDMDL
MODEL 5
REMARK VINA RESULT:      -8.7      1.981      5.670
REMARK  7 active torsions:
REMARK  status: ('A' for Active; 'I' for Inactive)
REMARK    1  A    between atoms: C_4  and  C_5 
REMARK    2  A    between atoms: C_5  and  N_6 
REMARK       I    between atoms: N_6  and  C_7 
REMARK    3  A    between atoms: N_6  and  C_18 
REMARK       I    between atoms: C_7  and  N_8 
REMARK    4  A    between atoms: N_8  and  C_9 
REMARK    5  A    between atoms: C_10  and  O_11 
REMARK    6  A    between atoms: N_21  and  C_23 
REMARK    7  A    between atoms: C_23  and  C_24 
ROOT
HETATM    1  N   UNL     1      -6.909   1.862 -32.596  1.00  0.00    -0.323 N 
HETATM    2  C   UNL     1      -8.306   1.946 -32.381  1.00  0.00     0.323 C 
HETATM    3  N   UNL     1      -9.088   1.885 -33.511  1.00  0.00    -0.306 N 
HETATM    4  O   UNL     1      -8.722   2.045 -31.231  1.00  0.00    -0.247 OA
HETATM    5  H   UNL     1      -8.642   1.647 -34.376  1.00  0.00     0.171 HD
ENDROOT
BRANCH   1   6
HETATM    6  C   UNL     1      -6.306   1.545 -33.896  1.00  0.00     0.193 C 
BRANCH   6   7
HETATM    7  C   UNL     1      -6.352   0.088 -34.155  1.00  0.00     0.071 A 
HETATM    8  O   UNL     1      -5.202  -0.604 -33.903  1.00  0.00    -0.318 OA
HETATM    9  C   UNL     1      -5.444  -1.909 -34.215  1.00  0.00     0.049 A 
HETATM   10  C   UNL     1      -4.326  -2.859 -34.041  1.00  0.00     0.076 C 
HETATM   11  C   UNL     1      -6.740  -2.058 -34.658  1.00  0.00     0.035 A 
HETATM   12  C   UNL     1      -7.326  -0.771 -34.621  1.00  0.00     0.037 A 
ENDBRANCH   6   7
ENDBRANCH   1   6
BRANCH   1  13
HETATM   13  C   UNL     1      -6.059   2.136 -31.398  1.00  0.00     0.092 C 
HETATM   14  C   UNL     1      -5.849   3.589 -30.950  1.00  0.00     0.053 C 
HETATM   15  C   UNL     1      -4.795   4.376 -31.717  1.00  0.00     0.237 C 
HETATM   16  N   UNL     1      -3.518   3.585 -31.887  1.00  0.00    -0.067 N 
HETATM   17  H   UNL     1      -3.074   3.540 -30.961  1.00  0.00     0.280 HD
HETATM   18  C   UNL     1      -3.731   2.171 -32.373  1.00  0.00     0.237 C 
HETATM   19  C   UNL     1      -4.695   1.435 -31.471  1.00  0.00     0.053 C 
BRANCH  16  20
HETATM   20  C   UNL     1      -2.514   4.278 -32.798  1.00  0.00     0.273 C 
BRANCH  20  21
HETATM   21  C   UNL     1      -1.495   5.127 -32.094  1.00  0.00    -0.033 A 
HETATM   22  C   UNL     1      -1.024   6.316 -32.670  1.00  0.00     0.009 A 
HETATM   23  C   UNL     1      -0.077   7.093 -32.001  1.00  0.00     0.001 A 
HETATM   24  C   UNL     1       0.411   6.690 -30.759  1.00  0.00     0.000 A 
HETATM   25  C   UNL     1      -0.047   5.510 -30.180  1.00  0.00     0.001 A 
HETATM   26  C   UNL     1      -0.994   4.732 -30.842  1.00  0.00     0.009 A 
ENDBRANCH  20  21
ENDBRANCH  16  20
ENDBRANCH   1  13
BRANCH   3  27
HETATM   27  C   UNL     1     -10.501   1.962 -33.640  1.00  0.00     0.069 A 
HETATM   28  C   UNL     1     -11.278   3.110 -33.846  1.00  0.00     0.095 A 
HETATM   29  C   UNL     1     -12.678   3.025 -33.892  1.00  0.00     0.039 A 
HETATM   30  C   UNL     1     -13.319   1.794 -33.792  1.00  0.00     0.003 A 
HETATM   31  C   UNL     1     -12.562   0.639 -33.643  1.00  0.00     0.002 A 
HETATM   32  C   UNL     1     -11.169   0.723 -33.570  1.00  0.00     0.032 A 
BRANCH  28  33
HETATM   33  O   UNL     1     -10.761   4.362 -34.024  1.00  0.00    -0.354 OA
HETATM   34  C   UNL     1     -10.598   4.640 -35.414  1.00  0.00     0.210 C 
ENDBRANCH  28  33
ENDBRANCH   3  27
TORSDOF 7
ENDMDL
MODEL 6
REMARK VINA RESULT:      -8.5      2.652      7.444
REMARK  7 active torsions:
REMARK  status: ('A' for Active; 'I' for Inactive)
REMARK    1  A    between atoms: C_4  and  C_5 
REMARK    2  A    between atoms: C_5  and  N_6 
REMARK       I    between atoms: N_6  and  C_7 
REMARK    3  A    between atoms: N_6  and  C_18 
REMARK       I    between atoms: C_7  and  N_8 
REMARK    4  A    between atoms: N_8  and  C_9 
REMARK    5  A    between atoms: C_10  and  O_11 
REMARK    6  A    between atoms: N_21  and  C_23 
REMARK    7  A    between atoms: C_23  and  C_24 
ROOT
HETATM    1  N   UNL     1      -5.831   4.736 -30.738  1.00  0.00    -0.323 N 
HETATM    2  C   UNL     1      -4.694   5.376 -31.287  1.00  0.00     0.323 C 
HETATM    3  N   UNL     1      -3.524   5.222 -30.579  1.00  0.00    -0.306 N 
HETATM    4  O   UNL     1      -4.813   5.994 -32.340  1.00  0.00    -0.247 OA
HETATM    5  H   UNL     1      -3.519   4.569 -29.820  1.00  0.00     0.171 HD
ENDROOT
BRANCH   1   6
HETATM    6  C   UNL     1      -5.772   3.812 -29.599  1.00  0.00     0.193 C 
BRANCH   6   7
HETATM    7  C   UNL     1      -5.415   2.447 -30.048  1.00  0.00     0.071 A 
HETATM    8  O   UNL     1      -4.455   2.363 -31.015  1.00  0.00    -0.318 OA
HETATM    9  C   UNL     1      -4.284   1.041 -31.296  1.00  0.00     0.049 A 
HETATM   10  C   UNL     1      -3.296   0.699 -32.340  1.00  0.00     0.076 C 
HETATM   11  C   UNL     1      -5.122   0.278 -30.513  1.00  0.00     0.035 A 
HETATM   12  C   UNL     1      -5.853   1.183 -29.708  1.00  0.00     0.037 A 
ENDBRANCH   6   7
ENDBRANCH   1   6
BRANCH   1  13
HETATM   13  C   UNL     1      -7.133   5.074 -31.389  1.00  0.00     0.092 C 
HETATM   14  C   UNL     1      -8.440   4.780 -30.639  1.00  0.00     0.053 C 
HETATM   15  C   UNL     1      -8.931   3.340 -30.698  1.00  0.00     0.237 C 
HETATM   16  N   UNL     1      -8.882   2.788 -32.105  1.00  0.00    -0.067 N 
HETATM   17  H   UNL     1      -9.628   3.258 -32.632  1.00  0.00     0.280 HD
HETATM   18  C   UNL     1      -7.575   3.042 -32.819  1.00  0.00     0.237 C 
HETATM   19  C   UNL     1      -7.240   4.515 -32.815  1.00  0.00     0.053 C 
BRANCH  16  20
HETATM   20  C   UNL     1      -9.201   1.300 -32.165  1.00  0.00     0.273 C 
BRANCH  20  21
HETATM   21  C   UNL     1      -8.389   0.513 -33.153  1.00  0.00    -0.033 A 
HETATM   22  C   UNL     1      -8.527   0.724 -34.533  1.00  0.00     0.009 A 
HETATM   23  C   UNL     1      -7.764  -0.016 -35.436  1.00  0.00     0.001 A 
HETATM   24  C   UNL     1      -6.863  -0.974 -34.974  1.00  0.00     0.000 A 
HETATM   25  C   UNL     1      -6.719  -1.194 -33.607  1.00  0.00     0.001 A 
HETATM   26  C   UNL     1      -7.476  -0.456 -32.700  1.00  0.00     0.009 A 
ENDBRANCH  20  21
ENDBRANCH  16  20
ENDBRANCH   1  13
BRANCH   3  27
HETATM   27  C   UNL     1      -2.231   5.747 -30.843  1.00  0.00     0.069 A 
HETATM   28  C   UNL     1      -1.387   5.439 -31.919  1.00  0.00     0.095 A 
HETATM   29  C   UNL     1      -0.104   6.002 -32.003  1.00  0.00     0.039 A 
HETATM   30  C   UNL     1       0.332   6.922 -31.054  1.00  0.00     0.003 A 
HETATM   31  C   UNL     1      -0.511   7.282 -30.011  1.00  0.00     0.002 A 
HETATM   32  C   UNL     1      -1.779   6.702 -29.909  1.00  0.00     0.032 A 
BRANCH  28  33
HETATM   33  O   UNL     1      -1.729   4.604 -32.944  1.00  0.00    -0.354 OA
HETATM   34  C   UNL     1      -1.538   5.254 -34.200  1.00  0.00     0.210 C 
ENDBRANCH  28  33
ENDBRANCH   3  27
TORSDOF 7
ENDMDL
MODEL 7
REMARK VINA RESULT:      -8.5      1.746      2.398
REMARK  7 active torsions:
REMARK  status: ('A' for Active; 'I' for Inactive)
REMARK    1  A    between atoms: C_4  and  C_5 
REMARK    2  A    between atoms: C_5  and  N_6 
REMARK       I    between atoms: N_6  and  C_7 
REMARK    3  A    between atoms: N_6  and  C_18 
REMARK       I    between atoms: C_7  and  N_8 
REMARK    4  A    between atoms: N_8  and  C_9 
REMARK    5  A    between atoms: C_10  and  O_11 
REMARK    6  A    between atoms: N_21  and  C_23 
REMARK    7  A    between atoms: C_23  and  C_24 
ROOT
HETATM    1  N   UNL     1      -7.521   2.003 -33.211  1.00  0.00    -0.323 N 
HETATM    2  C   UNL     1      -6.804   1.010 -33.920  1.00  0.00     0.323 C 
HETATM    3  N   UNL     1      -6.899  -0.267 -33.417  1.00  0.00    -0.306 N 
HETATM    4  O   UNL     1      -6.176   1.335 -34.922  1.00  0.00    -0.247 OA
HETATM    5  H   UNL     1      -7.565  -0.434 -32.687  1.00  0.00     0.171 HD
ENDROOT
BRANCH   1   6
HETATM    6  C   UNL     1      -8.460   1.706 -32.123  1.00  0.00     0.193 C 
BRANCH   6   7
HETATM    7  C   UNL     1      -9.819   1.454 -32.656  1.00  0.00     0.071 A 
HETATM    8  O   UNL     1     -10.641   2.540 -32.743  1.00  0.00    -0.318 OA
HETATM    9  C   UNL     1     -11.834   2.100 -33.236  1.00  0.00     0.049 A 
HETATM   10  C   UNL     1     -12.903   3.106 -33.402  1.00  0.00     0.076 C 
HETATM   11  C   UNL     1     -11.778   0.744 -33.471  1.00  0.00     0.035 A 
HETATM   12  C   UNL     1     -10.479   0.326 -33.096  1.00  0.00     0.037 A 
ENDBRANCH   6   7
ENDBRANCH   1   6
BRANCH   1  13
HETATM   13  C   UNL     1      -7.251   3.411 -33.632  1.00  0.00     0.092 C 
HETATM   14  C   UNL     1      -5.877   3.763 -34.221  1.00  0.00     0.053 C 
HETATM   15  C   UNL     1      -4.760   3.987 -33.212  1.00  0.00     0.237 C 
HETATM   16  N   UNL     1      -5.200   4.884 -32.077  1.00  0.00    -0.067 N 
HETATM   17  H   UNL     1      -5.287   5.831 -32.467  1.00  0.00     0.280 HD
HETATM   18  C   UNL     1      -6.532   4.503 -31.474  1.00  0.00     0.237 C 
HETATM   19  C   UNL     1      -7.601   4.431 -32.539  1.00  0.00     0.053 C 
BRANCH  16  20
HETATM   20  C   UNL     1      -4.161   4.983 -30.968  1.00  0.00     0.273 C 
BRANCH  20  21
HETATM   21  C   UNL     1      -2.868   5.637 -31.362  1.00  0.00    -0.033 A 
HETATM   22  C   UNL     1      -1.648   4.957 -31.238  1.00  0.00     0.009 A 
HETATM   23  C   UNL     1      -0.456   5.580 -31.610  1.00  0.00     0.001 A 
HETATM   24  C   UNL     1      -0.469   6.884 -32.102  1.00  0.00     0.000 A 
HETATM   25  C   UNL     1      -1.674   7.570 -32.227  1.00  0.00     0.001 A 
HETATM   26  C   UNL     1      -2.868   6.951 -31.861  1.00  0.00     0.009 A 
ENDBRANCH  20  21
ENDBRANCH  16  20
ENDBRANCH   1  13
BRANCH   3  27
HETATM   27  C   UNL     1      -6.292  -1.468 -33.873  1.00  0.00     0.069 A 
HETATM   28  C   UNL     1      -4.931  -1.802 -33.842  1.00  0.00     0.095 A 
HETATM   29  C   UNL     1      -4.481  -3.013 -34.392  1.00  0.00     0.039 A 
HETATM   30  C   UNL     1      -5.383  -3.930 -34.924  1.00  0.00     0.003 A 
HETATM   31  C   UNL     1      -6.741  -3.640 -34.913  1.00  0.00     0.002 A 
HETATM   32  C   UNL     1      -7.189  -2.423 -34.390  1.00  0.00     0.032 A 
BRANCH  28  33
HETATM   33  O   UNL     1      -3.962  -1.015 -33.288  1.00  0.00    -0.354 OA
HETATM   34  C   UNL     1      -3.415  -1.641 -32.128  1.00  0.00     0.210 C 
ENDBRANCH  28  33
ENDBRANCH   3  27
TORSDOF 7
ENDMDL
MODEL 8
REMARK VINA RESULT:      -8.5      2.303      4.543
REMARK  7 active torsions:
REMARK  status: ('A' for Active; 'I' for Inactive)
REMARK    1  A    between atoms: C_4  and  C_5 
REMARK    2  A    between atoms: C_5  and  N_6 
REMARK       I    between atoms: N_6  and  C_7 
REMARK    3  A    between atoms: N_6  and  C_18 
REMARK       I    between atoms: C_7  and  N_8 
REMARK    4  A    between atoms: N_8  and  C_9 
REMARK    5  A    between atoms: C_10  and  O_11 
REMARK    6  A    between atoms: N_21  and  C_23 
REMARK    7  A    between atoms: C_23  and  C_24 
ROOT
HETATM    1  N   UNL     1      -5.716   4.037 -31.314  1.00  0.00    -0.323 N 
HETATM    2  C   UNL     1      -6.422   2.919 -31.819  1.00  0.00     0.323 C 
HETATM    3  N   UNL     1      -5.701   2.077 -32.634  1.00  0.00    -0.306 N 
HETATM    4  O   UNL     1      -7.594   2.762 -31.493  1.00  0.00    -0.247 OA
HETATM    5  H   UNL     1      -4.712   2.225 -32.701  1.00  0.00     0.171 HD
ENDROOT
BRANCH   1   6
HETATM    6  C   UNL     1      -4.269   4.223 -31.473  1.00  0.00     0.193 C 
BRANCH   6   7
HETATM    7  C   UNL     1      -3.944   4.661 -32.850  1.00  0.00     0.071 A 
HETATM    8  O   UNL     1      -2.619   4.663 -33.183  1.00  0.00    -0.318 OA
HETATM    9  C   UNL     1      -2.531   5.106 -34.469  1.00  0.00     0.049 A 
HETATM   10  C   UNL     1      -1.177   5.214 -35.050  1.00  0.00     0.076 C 
HETATM   11  C   UNL     1      -3.788   5.381 -34.963  1.00  0.00     0.035 A 
HETATM   12  C   UNL     1      -4.699   5.095 -33.919  1.00  0.00     0.037 A 
ENDBRANCH   6   7
ENDBRANCH   1   6
BRANCH   1  13
HETATM   13  C   UNL     1      -6.551   5.054 -30.604  1.00  0.00     0.092 C 
HETATM   14  C   UNL     1      -6.806   6.410 -31.278  1.00  0.00     0.053 C 
HETATM   15  C   UNL     1      -5.686   7.434 -31.158  1.00  0.00     0.237 C 
HETATM   16  N   UNL     1      -5.164   7.530 -29.742  1.00  0.00    -0.067 N 
HETATM   17  H   UNL     1      -5.896   7.993 -29.189  1.00  0.00     0.280 HD
HETATM   18  C   UNL     1      -4.872   6.192 -29.103  1.00  0.00     0.237 C 
HETATM   19  C   UNL     1      -6.085   5.294 -29.161  1.00  0.00     0.053 C 
BRANCH  16  20
HETATM   20  C   UNL     1      -3.931   8.416 -29.628  1.00  0.00     0.273 C 
BRANCH  20  21
HETATM   21  C   UNL     1      -2.722   7.925 -30.372  1.00  0.00    -0.033 A 
HETATM   22  C   UNL     1      -1.772   7.105 -29.746  1.00  0.00     0.009 A 
HETATM   23  C   UNL     1      -0.655   6.658 -30.453  1.00  0.00     0.001 A 
HETATM   24  C   UNL     1      -0.474   7.028 -31.785  1.00  0.00     0.000 A 
HETATM   25  C   UNL     1      -1.409   7.843 -32.416  1.00  0.00     0.001 A 
HETATM   26  C   UNL     1      -2.527   8.290 -31.716  1.00  0.00     0.009 A 
ENDBRANCH  20  21
ENDBRANCH  16  20
ENDBRANCH   1  13
BRANCH   3  27
HETATM   27  C   UNL     1      -6.113   0.898 -33.310  1.00  0.00     0.069 A 
HETATM   28  C   UNL     1      -5.947  -0.429 -32.890  1.00  0.00     0.095 A 
HETATM   29  C   UNL     1      -6.359  -1.493 -33.708  1.00  0.00     0.039 A 
HETATM   30  C   UNL     1      -6.993  -1.251 -34.923  1.00  0.00     0.003 A 
HETATM   31  C   UNL     1      -7.215   0.058 -35.330  1.00  0.00     0.002 A 
HETATM   32  C   UNL     1      -6.782   1.120 -34.530  1.00  0.00     0.032 A 
BRANCH  28  33
HETATM   33  O   UNL     1      -5.401  -0.790 -31.691  1.00  0.00    -0.354 OA
HETATM   34  C   UNL     1      -4.006  -1.050 -31.838  1.00  0.00     0.210 C 
ENDBRANCH  28  33
ENDBRANCH   3  27
TORSDOF 7
ENDMDL
MODEL 9
REMARK VINA RESULT:      -8.4      2.872      8.770
REMARK  7 active torsions:
REMARK  status: ('A' for Active; 'I' for Inactive)
REMARK    1  A    between atoms: C_4  and  C_5 
REMARK    2  A    between atoms: C_5  and  N_6 
REMARK       I    between atoms: N_6  and  C_7 
REMARK    3  A    between atoms: N_6  and  C_18 
REMARK       I    between atoms: C_7  and  N_8 
REMARK    4  A    between atoms: N_8  and  C_9 
REMARK    5  A    between atoms: C_10  and  O_11 
REMARK    6  A    between atoms: N_21  and  C_23 
REMARK    7  A    between atoms: C_23  and  C_24 
ROOT
HETATM    1  N   UNL     1      -5.182   3.669 -31.207  1.00  0.00    -0.323 N 
HETATM    2  C   UNL     1      -5.465   4.651 -30.227  1.00  0.00     0.323 C 
HETATM    3  N   UNL     1      -5.368   5.957 -30.646  1.00  0.00    -0.306 N 
HETATM    4  O   UNL     1      -5.790   4.286 -29.101  1.00  0.00    -0.247 OA
HETATM    5  H   UNL     1      -5.247   6.126 -31.626  1.00  0.00     0.171 HD
ENDROOT
BRANCH   1   6
HETATM    6  C   UNL     1      -4.978   3.975 -32.627  1.00  0.00     0.193 C 
BRANCH   6   7
HETATM    7  C   UNL     1      -3.631   4.550 -32.852  1.00  0.00     0.071 A 
HETATM    8  O   UNL     1      -3.545   5.912 -32.819  1.00  0.00    -0.318 OA
HETATM    9  C   UNL     1      -2.243   6.236 -33.059  1.00  0.00     0.049 A 
HETATM   10  C   UNL     1      -1.905   7.675 -33.092  1.00  0.00     0.076 C 
HETATM   11  C   UNL     1      -1.495   5.094 -33.239  1.00  0.00     0.035 A 
HETATM   12  C   UNL     1      -2.389   4.005 -33.106  1.00  0.00     0.037 A 
ENDBRANCH   6   7
ENDBRANCH   1   6
BRANCH   1  13
HETATM   13  C   UNL     1      -5.086   2.267 -30.700  1.00  0.00     0.092 C 
HETATM   14  C   UNL     1      -3.947   1.368 -31.203  1.00  0.00     0.053 C 
HETATM   15  C   UNL     1      -4.160   0.724 -32.565  1.00  0.00     0.237 C 
HETATM   16  N   UNL     1      -5.537   0.111 -32.687  1.00  0.00    -0.067 N 
HETATM   17  H   UNL     1      -5.541  -0.723 -32.087  1.00  0.00     0.280 HD
HETATM   18  C   UNL     1      -6.656   1.019 -32.233  1.00  0.00     0.237 C 
HETATM   19  C   UNL     1      -6.413   1.504 -30.822  1.00  0.00     0.053 C 
BRANCH  16  20
HETATM   20  C   UNL     1      -5.838  -0.385 -34.095  1.00  0.00     0.273 C 
BRANCH  20  21
HETATM   21  C   UNL     1      -5.706  -1.868 -34.290  1.00  0.00    -0.033 A 
HETATM   22  C   UNL     1      -4.474  -2.513 -34.113  1.00  0.00     0.009 A 
HETATM   23  C   UNL     1      -4.370  -3.892 -34.298  1.00  0.00     0.001 A 
HETATM   24  C   UNL     1      -5.489  -4.637 -34.667  1.00  0.00     0.000 A 
HETATM   25  C   UNL     1      -6.717  -4.007 -34.849  1.00  0.00     0.001 A 
HETATM   26  C   UNL     1      -6.827  -2.631 -34.662  1.00  0.00     0.009 A 
ENDBRANCH  20  21
ENDBRANCH  16  20
ENDBRANCH   1  13
BRANCH   3  27
HETATM   27  C   UNL     1      -5.561   7.160 -29.916  1.00  0.00     0.069 A 
HETATM   28  C   UNL     1      -6.766   7.667 -29.410  1.00  0.00     0.095 A 
HETATM   29  C   UNL     1      -6.799   8.909 -28.757  1.00  0.00     0.039 A 
HETATM   30  C   UNL     1      -5.629   9.634 -28.549  1.00  0.00     0.003 A 
HETATM   31  C   UNL     1      -4.418   9.120 -28.994  1.00  0.00     0.002 A 
HETATM   32  C   UNL     1      -4.385   7.896 -29.668  1.00  0.00     0.032 A 
BRANCH  28  33
HETATM   33  O   UNL     1      -7.965   7.018 -29.494  1.00  0.00    -0.354 OA
HETATM   34  C   UNL     1      -8.412   6.628 -28.197  1.00  0.00     0.210 C 
ENDBRANCH  28  33
ENDBRANCH   3  27
TORSDOF 7
ENDMDL
MODEL 10
REMARK VINA RESULT:      -8.3      2.338      7.612
REMARK  7 active torsions:
REMARK  status: ('A' for Active; 'I' for Inactive)
REMARK    1  A    between atoms: C_4  and  C_5 
REMARK    2  A    between atoms: C_5  and  N_6 
REMARK       I    between atoms: N_6  and  C_7 
REMARK    3  A    between atoms: N_6  and  C_18 
REMARK       I    between atoms: C_7  and  N_8 
REMARK    4  A    between atoms: N_8  and  C_9 
REMARK    5  A    between atoms: C_10  and  O_11 
REMARK    6  A    between atoms: N_21  and  C_23 
REMARK    7  A    between atoms: C_23  and  C_24 
ROOT
HETATM    1  N   UNL     1      -6.212   3.406 -31.589  1.00  0.00    -0.323 N 
HETATM    2  C   UNL     1      -4.963   4.059 -31.458  1.00  0.00     0.323 C 
HETATM    3  N   UNL     1      -4.829   5.236 -32.157  1.00  0.00    -0.306 N 
HETATM    4  O   UNL     1      -4.107   3.559 -30.734  1.00  0.00    -0.247 OA
HETATM    5  H   UNL     1      -5.648   5.620 -32.587  1.00  0.00     0.171 HD
ENDROOT
BRANCH   1   6
HETATM    6  C   UNL     1      -7.372   4.001 -32.263  1.00  0.00     0.193 C 
BRANCH   6   7
HETATM    7  C   UNL     1      -8.090   4.924 -31.354  1.00  0.00     0.071 A 
HETATM    8  O   UNL     1      -7.830   6.254 -31.520  1.00  0.00    -0.318 OA
HETATM    9  C   UNL     1      -8.568   6.925 -30.591  1.00  0.00     0.049 A 
HETATM   10  C   UNL     1      -8.435   8.397 -30.562  1.00  0.00     0.076 C 
HETATM   11  C   UNL     1      -9.304   6.036 -29.838  1.00  0.00     0.035 A 
HETATM   12  C   UNL     1      -8.996   4.745 -30.329  1.00  0.00     0.037 A 
ENDBRANCH   6   7
ENDBRANCH   1   6
BRANCH   1  13
HETATM   13  C   UNL     1      -6.283   2.034 -31.002  1.00  0.00     0.092 C 
HETATM   14  C   UNL     1      -5.071   1.101 -31.139  1.00  0.00     0.053 C 
HETATM   15  C   UNL     1      -4.932   0.382 -32.474  1.00  0.00     0.237 C 
HETATM   16  N   UNL     1      -6.242  -0.227 -32.921  1.00  0.00    -0.067 N 
HETATM   17  H   UNL     1      -6.422  -1.027 -32.300  1.00  0.00     0.280 HD
HETATM   18  C   UNL     1      -7.421   0.712 -32.825  1.00  0.00     0.237 C 
HETATM   19  C   UNL     1      -7.546   1.274 -31.428  1.00  0.00     0.053 C 
BRANCH  16  20
HETATM   20  C   UNL     1      -6.174  -0.800 -34.330  1.00  0.00     0.273 C 
BRANCH  20  21
HETATM   21  C   UNL     1      -5.806  -2.254 -34.411  1.00  0.00    -0.033 A 
HETATM   22  C   UNL     1      -4.506  -2.687 -34.113  1.00  0.00     0.009 A 
HETATM   23  C   UNL     1      -4.183  -4.042 -34.193  1.00  0.00     0.001 A 
HETATM   24  C   UNL     1      -5.148  -4.973 -34.574  1.00  0.00     0.000 A 
HETATM   25  C   UNL     1      -6.441  -4.554 -34.875  1.00  0.00     0.001 A 
HETATM   26  C   UNL     1      -6.770  -3.202 -34.794  1.00  0.00     0.009 A 
ENDBRANCH  20  21
ENDBRANCH  16  20
ENDBRANCH   1  13
BRANCH   3  27
HETATM   27  C   UNL     1      -3.713   6.109 -32.255  1.00  0.00     0.069 A 
HETATM   28  C   UNL     1      -2.494   5.868 -32.905  1.00  0.00     0.095 A 
HETATM   29  C   UNL     1      -1.461   6.817 -32.858  1.00  0.00     0.039 A 
HETATM   30  C   UNL     1      -1.646   8.038 -32.218  1.00  0.00     0.003 A 
HETATM   31  C   UNL     1      -2.867   8.318 -31.616  1.00  0.00     0.002 A 
HETATM   32  C   UNL     1      -3.889   7.363 -31.638  1.00  0.00     0.032 A 
BRANCH  28  33
HETATM   33  O   UNL     1      -2.219   4.737 -33.620  1.00  0.00    -0.354 OA
HETATM   34  C   UNL     1      -1.804   5.074 -34.943  1.00  0.00     0.210 C 
ENDBRANCH  28  33
ENDBRANCH   3  27
TORSDOF 7
ENDMDL
