MODEL 1
REMARK VINA RESULT:     -10.5      0.000      0.000
REMARK  8 active torsions:
REMARK  status: ('A' for Active; 'I' for Inactive)
REMARK    1  A    between atoms: C_6  and  S_7 
REMARK    2  A    between atoms: S_7  and  C_8 
REMARK    3  A    between atoms: C_8  and  C_9 
REMARK       I    between atoms: C_9  and  N_10 
REMARK    4  A    between atoms: N_10  and  C_11 
REMARK    5  A    between atoms: C_24  and  C_25 
REMARK    6  A    between atoms: C_25  and  C_26 
REMARK       I    between atoms: C_26  and  N_27 
REMARK    7  A    between atoms: N_27  and  C_28 
REMARK    8  A    between atoms: C_28  and  C_29 
ROOT
HETATM    1  C   UNL     1     -10.096   1.760 -34.141  1.00  0.00     0.001 A 
HETATM    2  C   UNL     1      -9.033   2.657 -34.228  1.00  0.00     0.018 A 
HETATM    3  C   UNL     1      -7.970   2.540 -33.331  1.00  0.00     0.039 A 
HETATM    4  C   UNL     1      -7.948   1.546 -32.343  1.00  0.00     0.073 A 
HETATM    5  N   UNL     1      -6.867   1.385 -31.455  1.00  0.00    -0.223 NA
HETATM    6  C   UNL     1      -5.886   2.227 -31.543  1.00  0.00     0.178 C 
HETATM    7  N   UNL     1      -5.886   3.306 -32.409  1.00  0.00    -0.241 N 
HETATM    8  C   UNL     1      -6.838   3.468 -33.359  1.00  0.00     0.147 C 
HETATM    9  N   UNL     1      -6.672   4.430 -34.213  1.00  0.00    -0.256 NA
HETATM   10  C   UNL     1      -5.033   4.377 -32.493  1.00  0.00     0.257 C 
HETATM   11  O   UNL     1      -4.236   4.772 -31.657  1.00  0.00    -0.270 OA
HETATM   12  C   UNL     1      -5.397   5.090 -33.785  1.00  0.00     0.211 C 
HETATM   13  C   UNL     1      -9.018   0.654 -32.272  1.00  0.00     0.032 A 
HETATM   14  C   UNL     1     -10.088   0.761 -33.165  1.00  0.00     0.002 A 
ENDROOT
BRANCH  12  15
HETATM   15  C   UNL     1      -4.316   4.891 -34.841  1.00  0.00     0.140 C 
BRANCH  15  16
HETATM   16  C   UNL     1      -2.997   5.335 -34.251  1.00  0.00     0.220 C 
HETATM   17  N   UNL     1      -2.987   6.639 -33.814  1.00  0.00    -0.357 N 
HETATM   18  H   UNL     1      -3.851   7.145 -33.677  1.00  0.00     0.162 HD
HETATM   19  O   UNL     1      -2.010   4.605 -34.270  1.00  0.00    -0.274 OA
BRANCH  17  20
HETATM   20  C   UNL     1      -1.752   7.357 -33.593  1.00  0.00     0.161 C 
BRANCH  20  21
HETATM   21  C   UNL     1      -1.342   7.398 -32.144  1.00  0.00    -0.038 A 
HETATM   22  C   UNL     1      -2.092   8.134 -31.211  1.00  0.00     0.048 A 
HETATM   23  C   UNL     1      -1.625   8.205 -29.914  1.00  0.00     0.105 A 
HETATM   24  C   UNL     1      -0.470   7.570 -29.521  1.00  0.00     0.105 A 
HETATM   25  O   UNL     1      -2.207   8.898 -28.898  1.00  0.00    -0.323 OA
HETATM   26  O   UNL     1      -0.179   7.785 -28.210  1.00  0.00    -0.323 OA
HETATM   27  C   UNL     1       0.282   6.826 -30.399  1.00  0.00     0.040 A 
HETATM   28  C   UNL     1      -1.260   8.662 -27.834  1.00  0.00     0.352 A 
HETATM   29  C   UNL     1      -0.159   6.745 -31.724  1.00  0.00     0.012 A 
ENDBRANCH  20  21
ENDBRANCH  17  20
ENDBRANCH  15  16
ENDBRANCH  12  15
BRANCH   6  30
HETATM   30  S   UNL     1      -4.451   1.923 -30.606  1.00  0.00    -0.082 SA
BRANCH  30  31
HETATM   31  C   UNL     1      -3.382   1.274 -31.911  1.00  0.00     0.185 C 
BRANCH  31  32
HETATM   32  C   UNL     1      -3.774  -0.161 -32.210  1.00  0.00     0.231 C 
HETATM   33  N   UNL     1      -4.606  -0.278 -33.314  1.00  0.00    -0.327 N 
HETATM   34  H   UNL     1      -4.832   0.575 -33.812  1.00  0.00     0.169 HD
HETATM   35  O   UNL     1      -3.374  -1.080 -31.502  1.00  0.00    -0.272 OA
BRANCH  33  36
HETATM   36  C   UNL     1      -5.149  -1.463 -33.849  1.00  0.00     0.034 A 
HETATM   37  C   UNL     1      -4.388  -2.586 -34.189  1.00  0.00     0.032 A 
HETATM   38  C   UNL     1      -5.002  -3.725 -34.718  1.00  0.00     0.044 A 
HETATM   39  C   UNL     1      -6.378  -3.742 -34.897  1.00  0.00     0.116 A 
HETATM   40  F   UNL     1      -6.968  -4.836 -35.397  1.00  0.00    -0.206 F 
HETATM   41  C   UNL     1      -7.152  -2.639 -34.565  1.00  0.00     0.044 A 
HETATM   42  C   UNL     1      -6.536  -1.496 -34.049  1.00  0.00     0.032 A 
ENDBRANCH  33  36
ENDBRANCH  31  32
ENDBRANCH  30  31
ENDBRANCH   6  30
TORSDOF 8
ENDMDL
MODEL 2
REMARK VINA RESULT:     -10.4      3.467      9.074
REMARK  8 active torsions:
REMARK  status: ('A' for Active; 'I' for Inactive)
REMARK    1  A    between atoms: C_6  and  S_7 
REMARK    2  A    between atoms: S_7  and  C_8 
REMARK    3  A    between atoms: C_8  and  C_9 
REMARK       I    between atoms: C_9  and  N_10 
REMARK    4  A    between atoms: N_10  and  C_11 
REMARK    5  A    between atoms: C_24  and  C_25 
REMARK    6  A    between atoms: C_25  and  C_26 
REMARK       I    between atoms: C_26  and  N_27 
REMARK    7  A    between atoms: N_27  and  C_28 
REMARK    8  A    between atoms: C_28  and  C_29 
ROOT
HETATM    1  C   UNL     1      -3.804  -0.798 -31.197  1.00  0.00     0.001 A 
HETATM    2  C   UNL     1      -5.163  -0.525 -31.338  1.00  0.00     0.018 A 
HETATM    3  C   UNL     1      -5.584   0.803 -31.419  1.00  0.00     0.039 A 
HETATM    4  C   UNL     1      -4.674   1.868 -31.357  1.00  0.00     0.073 A 
HETATM    5  N   UNL     1      -5.073   3.214 -31.478  1.00  0.00    -0.223 NA
HETATM    6  C   UNL     1      -6.339   3.456 -31.604  1.00  0.00     0.178 C 
HETATM    7  N   UNL     1      -7.310   2.472 -31.554  1.00  0.00    -0.241 N 
HETATM    8  C   UNL     1      -7.001   1.153 -31.542  1.00  0.00     0.147 C 
HETATM    9  N   UNL     1      -7.980   0.308 -31.640  1.00  0.00    -0.256 NA
HETATM   10  C   UNL     1      -8.676   2.575 -31.481  1.00  0.00     0.257 C 
HETATM   11  O   UNL     1      -9.342   3.550 -31.174  1.00  0.00    -0.270 OA
HETATM   12  C   UNL     1      -9.206   1.168 -31.703  1.00  0.00     0.211 C 
HETATM   13  C   UNL     1      -3.317   1.577 -31.220  1.00  0.00     0.032 A 
HETATM   14  C   UNL     1      -2.883   0.250 -31.139  1.00  0.00     0.002 A 
ENDROOT
BRANCH  12  15
HETATM   15  C   UNL     1      -9.871   1.043 -33.069  1.00  0.00     0.140 C 
BRANCH  15  16
HETATM   16  C   UNL     1      -8.783   0.994 -34.117  1.00  0.00     0.220 C 
HETATM   17  N   UNL     1      -8.296  -0.268 -34.364  1.00  0.00    -0.357 N 
HETATM   18  H   UNL     1      -8.801  -1.087 -34.055  1.00  0.00     0.162 HD
HETATM   19  O   UNL     1      -8.324   2.021 -34.610  1.00  0.00    -0.274 OA
BRANCH  17  20
HETATM   20  C   UNL     1      -7.022  -0.477 -35.015  1.00  0.00     0.161 C 
BRANCH  20  21
HETATM   21  C   UNL     1      -6.452  -1.851 -34.774  1.00  0.00    -0.038 A 
HETATM   22  C   UNL     1      -5.151  -2.006 -34.268  1.00  0.00     0.048 A 
HETATM   23  C   UNL     1      -4.650  -3.285 -34.145  1.00  0.00     0.105 A 
HETATM   24  C   UNL     1      -5.390  -4.393 -34.489  1.00  0.00     0.105 A 
HETATM   25  O   UNL     1      -3.404  -3.611 -33.706  1.00  0.00    -0.323 OA
HETATM   26  O   UNL     1      -4.704  -5.553 -34.311  1.00  0.00    -0.323 OA
HETATM   27  C   UNL     1      -6.674  -4.284 -34.971  1.00  0.00     0.040 A 
HETATM   28  C   UNL     1      -3.432  -5.047 -33.856  1.00  0.00     0.352 A 
HETATM   29  C   UNL     1      -7.204  -2.999 -35.118  1.00  0.00     0.012 A 
ENDBRANCH  20  21
ENDBRANCH  17  20
ENDBRANCH  15  16
ENDBRANCH  12  15
BRANCH   6  30
HETATM   30  S   UNL     1      -6.835   5.084 -31.967  1.00  0.00    -0.082 SA
BRANCH  30  31
HETATM   31  C   UNL     1      -6.350   5.157 -33.707  1.00  0.00     0.185 C 
BRANCH  31  32
HETATM   32  C   UNL     1      -4.869   5.480 -33.798  1.00  0.00     0.231 C 
HETATM   33  N   UNL     1      -4.321   5.864 -32.584  1.00  0.00    -0.327 N 
HETATM   34  H   UNL     1      -4.937   5.858 -31.778  1.00  0.00     0.169 HD
HETATM   35  O   UNL     1      -4.277   5.403 -34.871  1.00  0.00    -0.272 OA
BRANCH  33  36
HETATM   36  C   UNL     1      -2.984   6.231 -32.332  1.00  0.00     0.034 A 
HETATM   37  C   UNL     1      -2.532   7.553 -32.288  1.00  0.00     0.032 A 
HETATM   38  C   UNL     1      -1.186   7.835 -32.034  1.00  0.00     0.044 A 
HETATM   39  C   UNL     1      -0.297   6.793 -31.813  1.00  0.00     0.116 A 
HETATM   40  F   UNL     1       0.990   7.062 -31.563  1.00  0.00    -0.206 F 
HETATM   41  C   UNL     1      -0.725   5.473 -31.851  1.00  0.00     0.044 A 
HETATM   42  C   UNL     1      -2.067   5.191 -32.119  1.00  0.00     0.032 A 
ENDBRANCH  33  36
ENDBRANCH  31  32
ENDBRANCH  30  31
ENDBRANCH   6  30
TORSDOF 8
ENDMDL
MODEL 3
REMARK VINA RESULT:     -10.3      2.656      3.872
REMARK  8 active torsions:
REMARK  status: ('A' for Active; 'I' for Inactive)
REMARK    1  A    between atoms: C_6  and  S_7 
REMARK    2  A    between atoms: S_7  and  C_8 
REMARK    3  A    between atoms: C_8  and  C_9 
REMARK       I    between atoms: C_9  and  N_10 
REMARK    4  A    between atoms: N_10  and  C_11 
REMARK    5  A    between atoms: C_24  and  C_25 
REMARK    6  A    between atoms: C_25  and  C_26 
REMARK       I    between atoms: C_26  and  N_27 
REMARK    7  A    between atoms: N_27  and  C_28 
REMARK    8  A    between atoms: C_28  and  C_29 
ROOT
HETATM    1  C   UNL     1      -8.275   6.507 -30.093  1.00  0.00     0.001 A 
HETATM    2  C   UNL     1      -7.391   5.437 -30.226  1.00  0.00     0.018 A 
HETATM    3  C   UNL     1      -7.873   4.211 -30.689  1.00  0.00     0.039 A 
HETATM    4  C   UNL     1      -9.224   4.029 -31.018  1.00  0.00     0.073 A 
HETATM    5  N   UNL     1      -9.723   2.814 -31.524  1.00  0.00    -0.223 NA
HETATM    6  C   UNL     1      -8.894   1.825 -31.640  1.00  0.00     0.178 C 
HETATM    7  N   UNL     1      -7.575   1.887 -31.226  1.00  0.00    -0.241 N 
HETATM    8  C   UNL     1      -6.998   3.045 -30.825  1.00  0.00     0.147 C 
HETATM    9  N   UNL     1      -5.722   3.029 -30.594  1.00  0.00    -0.256 NA
HETATM   10  C   UNL     1      -6.636   0.895 -31.103  1.00  0.00     0.257 C 
HETATM   11  O   UNL     1      -6.815  -0.312 -31.072  1.00  0.00    -0.270 OA
HETATM   12  C   UNL     1      -5.319   1.608 -30.844  1.00  0.00     0.211 C 
HETATM   13  C   UNL     1     -10.094   5.111 -30.882  1.00  0.00     0.032 A 
HETATM   14  C   UNL     1      -9.622   6.345 -30.421  1.00  0.00     0.002 A 
ENDROOT
BRANCH  12  15
HETATM   15  C   UNL     1      -4.403   1.522 -32.059  1.00  0.00     0.140 C 
BRANCH  15  16
HETATM   16  C   UNL     1      -3.355   2.605 -31.933  1.00  0.00     0.220 C 
HETATM   17  N   UNL     1      -3.397   3.547 -32.935  1.00  0.00    -0.357 N 
HETATM   18  H   UNL     1      -4.208   3.630 -33.533  1.00  0.00     0.162 HD
HETATM   19  O   UNL     1      -2.492   2.561 -31.061  1.00  0.00    -0.274 OA
BRANCH  17  20
HETATM   20  C   UNL     1      -2.271   4.410 -33.213  1.00  0.00     0.161 C 
BRANCH  20  21
HETATM   21  C   UNL     1      -2.428   5.792 -32.636  1.00  0.00    -0.038 A 
HETATM   22  C   UNL     1      -3.638   6.184 -32.039  1.00  0.00     0.048 A 
HETATM   23  C   UNL     1      -3.754   7.487 -31.601  1.00  0.00     0.105 A 
HETATM   24  C   UNL     1      -2.724   8.390 -31.722  1.00  0.00     0.105 A 
HETATM   25  O   UNL     1      -4.861   8.038 -31.034  1.00  0.00    -0.323 OA
HETATM   26  O   UNL     1      -3.052   9.621 -31.248  1.00  0.00    -0.323 OA
HETATM   27  C   UNL     1      -1.517   8.041 -32.284  1.00  0.00     0.040 A 
HETATM   28  C   UNL     1      -4.422   9.401 -30.853  1.00  0.00     0.352 A 
HETATM   29  C   UNL     1      -1.374   6.729 -32.748  1.00  0.00     0.012 A 
ENDBRANCH  20  21
ENDBRANCH  17  20
ENDBRANCH  15  16
ENDBRANCH  12  15
BRANCH   6  30
HETATM   30  S   UNL     1      -9.433   0.387 -32.458  1.00  0.00    -0.082 SA
BRANCH  30  31
HETATM   31  C   UNL     1      -9.052   0.858 -34.160  1.00  0.00     0.185 C 
BRANCH  31  32
HETATM   32  C   UNL     1      -7.853   0.061 -34.642  1.00  0.00     0.231 C 
HETATM   33  N   UNL     1      -7.635  -1.092 -33.903  1.00  0.00    -0.327 N 
HETATM   34  H   UNL     1      -8.297  -1.296 -33.163  1.00  0.00     0.169 HD
HETATM   35  O   UNL     1      -7.176   0.457 -35.586  1.00  0.00    -0.272 OA
BRANCH  33  36
HETATM   36  C   UNL     1      -6.610  -2.041 -34.089  1.00  0.00     0.034 A 
HETATM   37  C   UNL     1      -6.799  -3.285 -34.699  1.00  0.00     0.032 A 
HETATM   38  C   UNL     1      -5.729  -4.174 -34.844  1.00  0.00     0.044 A 
HETATM   39  C   UNL     1      -4.470  -3.812 -34.387  1.00  0.00     0.116 A 
HETATM   40  F   UNL     1      -3.444  -4.660 -34.532  1.00  0.00    -0.206 F 
HETATM   41  C   UNL     1      -4.261  -2.581 -33.779  1.00  0.00     0.044 A 
HETATM   42  C   UNL     1      -5.333  -1.700 -33.622  1.00  0.00     0.032 A 
ENDBRANCH  33  36
ENDBRANCH  31  32
ENDBRANCH  30  31
ENDBRANCH   6  30
TORSDOF 8
ENDMDL
MODEL 4
REMARK VINA RESULT:     -10.2      3.872      8.600
REMARK  8 active torsions:
REMARK  status: ('A' for Active; 'I' for Inactive)
REMARK    1  A    between atoms: C_6  and  S_7 
REMARK    2  A    between atoms: S_7  and  C_8 
REMARK    3  A    between atoms: C_8  and  C_9 
REMARK       I    between atoms: C_9  and  N_10 
REMARK    4  A    between atoms: N_10  and  C_11 
REMARK    5  A    between atoms: C_24  and  C_25 
REMARK    6  A    between atoms: C_25  and  C_26 
REMARK       I    between atoms: C_26  and  N_27 
REMARK    7  A    between atoms: N_27  and  C_28 
REMARK    8  A    between atoms: C_28  and  C_29 
ROOT
HETATM    1  C   UNL     1      -1.845   4.754 -33.808  1.00  0.00     0.001 A 
HETATM    2  C   UNL     1      -2.638   4.279 -32.764  1.00  0.00     0.018 A 
HETATM    3  C   UNL     1      -4.026   4.268 -32.916  1.00  0.00     0.039 A 
HETATM    4  C   UNL     1      -4.641   4.726 -34.090  1.00  0.00     0.073 A 
HETATM    5  N   UNL     1      -6.036   4.685 -34.280  1.00  0.00    -0.223 NA
HETATM    6  C   UNL     1      -6.762   4.246 -33.302  1.00  0.00     0.178 C 
HETATM    7  N   UNL     1      -6.244   3.887 -32.070  1.00  0.00    -0.241 N 
HETATM    8  C   UNL     1      -4.910   3.803 -31.846  1.00  0.00     0.147 C 
HETATM    9  N   UNL     1      -4.525   3.321 -30.705  1.00  0.00    -0.256 NA
HETATM   10  C   UNL     1      -6.879   3.590 -30.892  1.00  0.00     0.257 C 
HETATM   11  O   UNL     1      -8.033   3.831 -30.577  1.00  0.00    -0.270 OA
HETATM   12  C   UNL     1      -5.801   3.038 -29.973  1.00  0.00     0.211 C 
HETATM   13  C   UNL     1      -3.832   5.195 -35.126  1.00  0.00     0.032 A 
HETATM   14  C   UNL     1      -2.441   5.211 -34.986  1.00  0.00     0.002 A 
ENDROOT
BRANCH  12  15
HETATM   15  C   UNL     1      -5.974   1.537 -29.769  1.00  0.00     0.140 C 
BRANCH  15  16
HETATM   16  C   UNL     1      -6.275   0.913 -31.113  1.00  0.00     0.220 C 
HETATM   17  N   UNL     1      -5.162   0.680 -31.887  1.00  0.00    -0.357 N 
HETATM   18  H   UNL     1      -4.237   0.694 -31.480  1.00  0.00     0.162 HD
HETATM   19  O   UNL     1      -7.429   0.739 -31.492  1.00  0.00    -0.274 OA
BRANCH  17  20
HETATM   20  C   UNL     1      -5.260   0.468 -33.314  1.00  0.00     0.161 C 
BRANCH  20  21
HETATM   21  C   UNL     1      -5.445  -0.980 -33.686  1.00  0.00    -0.038 A 
HETATM   22  C   UNL     1      -4.404  -1.904 -33.496  1.00  0.00     0.048 A 
HETATM   23  C   UNL     1      -4.598  -3.199 -33.931  1.00  0.00     0.105 A 
HETATM   24  C   UNL     1      -5.773  -3.600 -34.523  1.00  0.00     0.105 A 
HETATM   25  O   UNL     1      -3.687  -4.207 -33.856  1.00  0.00    -0.323 OA
HETATM   26  O   UNL     1      -5.749  -4.907 -34.895  1.00  0.00    -0.323 OA
HETATM   27  C   UNL     1      -6.823  -2.730 -34.710  1.00  0.00     0.040 A 
HETATM   28  C   UNL     1      -4.409  -5.273 -34.508  1.00  0.00     0.352 A 
HETATM   29  C   UNL     1      -6.651  -1.407 -34.290  1.00  0.00     0.012 A 
ENDBRANCH  20  21
ENDBRANCH  17  20
ENDBRANCH  15  16
ENDBRANCH  12  15
BRANCH   6  30
HETATM   30  S   UNL     1      -8.460   3.986 -33.587  1.00  0.00    -0.082 SA
BRANCH  30  31
HETATM   31  C   UNL     1      -8.397   2.290 -34.207  1.00  0.00     0.185 C 
BRANCH  31  32
HETATM   32  C   UNL     1      -9.739   1.621 -33.969  1.00  0.00     0.231 C 
HETATM   33  N   UNL     1     -10.805   2.505 -34.039  1.00  0.00    -0.327 N 
HETATM   34  H   UNL     1     -10.590   3.469 -34.267  1.00  0.00     0.169 HD
HETATM   35  O   UNL     1      -9.806   0.419 -33.731  1.00  0.00    -0.272 OA
BRANCH  33  36
HETATM   36  C   UNL     1     -12.171   2.206 -33.863  1.00  0.00     0.034 A 
HETATM   37  C   UNL     1     -12.860   1.239 -34.601  1.00  0.00     0.032 A 
HETATM   38  C   UNL     1     -14.218   1.003 -34.368  1.00  0.00     0.044 A 
HETATM   39  C   UNL     1     -14.882   1.729 -33.389  1.00  0.00     0.116 A 
HETATM   40  F   UNL     1     -16.181   1.498 -33.160  1.00  0.00    -0.206 F 
HETATM   41  C   UNL     1     -14.217   2.693 -32.644  1.00  0.00     0.044 A 
HETATM   42  C   UNL     1     -12.863   2.938 -32.888  1.00  0.00     0.032 A 
ENDBRANCH  33  36
ENDBRANCH  31  32
ENDBRANCH  30  31
ENDBRANCH   6  30
TORSDOF 8
ENDMDL
MODEL 5
REMARK VINA RESULT:     -10.2      2.278      3.436
REMARK  8 active torsions:
REMARK  status: ('A' for Active; 'I' for Inactive)
REMARK    1  A    between atoms: C_6  and  S_7 
REMARK    2  A    between atoms: S_7  and  C_8 
REMARK    3  A    between atoms: C_8  and  C_9 
REMARK       I    between atoms: C_9  and  N_10 
REMARK    4  A    between atoms: N_10  and  C_11 
REMARK    5  A    between atoms: C_24  and  C_25 
REMARK    6  A    between atoms: C_25  and  C_26 
REMARK       I    between atoms: C_26  and  N_27 
REMARK    7  A    between atoms: N_27  and  C_28 
REMARK    8  A    between atoms: C_28  and  C_29 
ROOT
HETATM    1  C   UNL     1      -5.578   7.376 -28.570  1.00  0.00     0.001 A 
HETATM    2  C   UNL     1      -4.816   6.630 -29.468  1.00  0.00     0.018 A 
HETATM    3  C   UNL     1      -5.262   5.363 -29.848  1.00  0.00     0.039 A 
HETATM    4  C   UNL     1      -6.455   4.822 -29.347  1.00  0.00     0.073 A 
HETATM    5  N   UNL     1      -6.944   3.564 -29.748  1.00  0.00    -0.223 NA
HETATM    6  C   UNL     1      -6.225   2.877 -30.579  1.00  0.00     0.178 C 
HETATM    7  N   UNL     1      -4.982   3.287 -31.028  1.00  0.00    -0.241 N 
HETATM    8  C   UNL     1      -4.493   4.523 -30.768  1.00  0.00     0.147 C 
HETATM    9  N   UNL     1      -3.385   4.862 -31.350  1.00  0.00    -0.256 NA
HETATM   10  C   UNL     1      -4.028   2.608 -31.743  1.00  0.00     0.257 C 
HETATM   11  O   UNL     1      -3.935   1.404 -31.920  1.00  0.00    -0.270 OA
HETATM   12  C   UNL     1      -2.997   3.650 -32.142  1.00  0.00     0.211 C 
HETATM   13  C   UNL     1      -7.207   5.584 -28.452  1.00  0.00     0.032 A 
HETATM   14  C   UNL     1      -6.771   6.855 -28.064  1.00  0.00     0.002 A 
ENDROOT
BRANCH  12  15
HETATM   15  C   UNL     1      -3.070   3.947 -33.636  1.00  0.00     0.140 C 
BRANCH  15  16
HETATM   16  C   UNL     1      -2.527   5.339 -33.864  1.00  0.00     0.220 C 
HETATM   17  N   UNL     1      -1.307   5.571 -33.272  1.00  0.00    -0.357 N 
HETATM   18  H   UNL     1      -0.738   4.803 -32.943  1.00  0.00     0.162 HD
HETATM   19  O   UNL     1      -3.188   6.196 -34.443  1.00  0.00    -0.274 OA
BRANCH  17  20
HETATM   20  C   UNL     1      -0.818   6.911 -33.039  1.00  0.00     0.161 C 
BRANCH  20  21
HETATM   21  C   UNL     1      -0.767   7.277 -31.579  1.00  0.00    -0.038 A 
HETATM   22  C   UNL     1      -1.766   8.085 -31.010  1.00  0.00     0.048 A 
HETATM   23  C   UNL     1      -1.626   8.458 -29.689  1.00  0.00     0.105 A 
HETATM   24  C   UNL     1      -0.555   8.051 -28.928  1.00  0.00     0.105 A 
HETATM   25  O   UNL     1      -2.479   9.260 -28.996  1.00  0.00    -0.323 OA
HETATM   26  O   UNL     1      -0.599   8.545 -27.662  1.00  0.00    -0.323 OA
HETATM   27  C   UNL     1       0.434   7.245 -29.442  1.00  0.00     0.040 A 
HETATM   28  C   UNL     1      -1.797   9.345 -27.726  1.00  0.00     0.352 A 
HETATM   29  C   UNL     1       0.325   6.861 -30.782  1.00  0.00     0.012 A 
ENDBRANCH  20  21
ENDBRANCH  17  20
ENDBRANCH  15  16
ENDBRANCH  12  15
BRANCH   6  30
HETATM   30  S   UNL     1      -6.905   1.423 -31.252  1.00  0.00    -0.082 SA
BRANCH  30  31
HETATM   31  C   UNL     1      -7.103   1.958 -32.967  1.00  0.00     0.185 C 
BRANCH  31  32
HETATM   32  C   UNL     1      -6.833   0.785 -33.890  1.00  0.00     0.231 C 
HETATM   33  N   UNL     1      -6.370  -0.338 -33.221  1.00  0.00    -0.327 N 
HETATM   34  H   UNL     1      -6.293  -0.273 -32.212  1.00  0.00     0.169 HD
HETATM   35  O   UNL     1      -7.013   0.885 -35.101  1.00  0.00    -0.272 OA
BRANCH  33  36
HETATM   36  C   UNL     1      -6.025  -1.583 -33.784  1.00  0.00     0.034 A 
HETATM   37  C   UNL     1      -4.710  -2.036 -33.930  1.00  0.00     0.032 A 
HETATM   38  C   UNL     1      -4.449  -3.285 -34.502  1.00  0.00     0.044 A 
HETATM   39  C   UNL     1      -5.506  -4.083 -34.918  1.00  0.00     0.116 A 
HETATM   40  F   UNL     1      -5.258  -5.282 -35.459  1.00  0.00    -0.206 F 
HETATM   41  C   UNL     1      -6.819  -3.652 -34.781  1.00  0.00     0.044 A 
HETATM   42  C   UNL     1      -7.078  -2.398 -34.222  1.00  0.00     0.032 A 
ENDBRANCH  33  36
ENDBRANCH  31  32
ENDBRANCH  30  31
ENDBRANCH   6  30
TORSDOF 8
ENDMDL
MODEL 6
REMARK VINA RESULT:     -10.0      3.824      9.986
REMARK  8 active torsions:
REMARK  status: ('A' for Active; 'I' for Inactive)
REMARK    1  A    between atoms: C_6  and  S_7 
REMARK    2  A    between atoms: S_7  and  C_8 
REMARK    3  A    between atoms: C_8  and  C_9 
REMARK       I    between atoms: C_9  and  N_10 
REMARK    4  A    between atoms: N_10  and  C_11 
REMARK    5  A    between atoms: C_24  and  C_25 
REMARK    6  A    between atoms: C_25  and  C_26 
REMARK       I    between atoms: C_26  and  N_27 
REMARK    7  A    between atoms: N_27  and  C_28 
REMARK    8  A    between atoms: C_28  and  C_29 
ROOT
HETATM    1  C   UNL     1      -1.357   5.414 -34.418  1.00  0.00     0.001 A 
HETATM    2  C   UNL     1      -2.540   4.723 -34.158  1.00  0.00     0.018 A 
HETATM    3  C   UNL     1      -3.346   5.134 -33.095  1.00  0.00     0.039 A 
HETATM    4  C   UNL     1      -2.993   6.220 -32.281  1.00  0.00     0.073 A 
HETATM    5  N   UNL     1      -3.812   6.677 -31.230  1.00  0.00    -0.223 NA
HETATM    6  C   UNL     1      -4.906   6.025 -30.994  1.00  0.00     0.178 C 
HETATM    7  N   UNL     1      -5.267   4.874 -31.673  1.00  0.00    -0.241 N 
HETATM    8  C   UNL     1      -4.586   4.433 -32.758  1.00  0.00     0.147 C 
HETATM    9  N   UNL     1      -5.085   3.428 -33.408  1.00  0.00    -0.256 NA
HETATM   10  C   UNL     1      -6.273   3.975 -31.424  1.00  0.00     0.257 C 
HETATM   11  O   UNL     1      -6.917   3.831 -30.397  1.00  0.00    -0.270 OA
HETATM   12  C   UNL     1      -6.321   3.067 -32.642  1.00  0.00     0.211 C 
HETATM   13  C   UNL     1      -1.809   6.903 -32.558  1.00  0.00     0.032 A 
HETATM   14  C   UNL     1      -0.993   6.501 -33.621  1.00  0.00     0.002 A 
ENDROOT
BRANCH  12  15
HETATM   15  C   UNL     1      -7.564   3.342 -33.479  1.00  0.00     0.140 C 
BRANCH  15  16
HETATM   16  C   UNL     1      -8.127   2.013 -33.932  1.00  0.00     0.220 C 
HETATM   17  N   UNL     1      -7.185   1.018 -34.060  1.00  0.00    -0.357 N 
HETATM   18  H   UNL     1      -6.268   1.118 -33.647  1.00  0.00     0.162 HD
HETATM   19  O   UNL     1      -9.306   1.894 -34.248  1.00  0.00    -0.274 OA
BRANCH  17  20
HETATM   20  C   UNL     1      -7.441  -0.173 -34.838  1.00  0.00     0.161 C 
BRANCH  20  21
HETATM   21  C   UNL     1      -6.412  -1.252 -34.623  1.00  0.00    -0.038 A 
HETATM   22  C   UNL     1      -6.716  -2.595 -34.904  1.00  0.00     0.048 A 
HETATM   23  C   UNL     1      -5.766  -3.551 -34.611  1.00  0.00     0.105 A 
HETATM   24  C   UNL     1      -4.544  -3.222 -34.071  1.00  0.00     0.105 A 
HETATM   25  O   UNL     1      -5.909  -4.893 -34.787  1.00  0.00    -0.323 OA
HETATM   26  O   UNL     1      -3.766  -4.312 -33.841  1.00  0.00    -0.323 OA
HETATM   27  C   UNL     1      -4.201  -1.917 -33.799  1.00  0.00     0.040 A 
HETATM   28  C   UNL     1      -4.654  -5.370 -34.256  1.00  0.00     0.352 A 
HETATM   29  C   UNL     1      -5.149  -0.927 -34.075  1.00  0.00     0.012 A 
ENDBRANCH  20  21
ENDBRANCH  17  20
ENDBRANCH  15  16
ENDBRANCH  12  15
BRANCH   6  30
HETATM   30  S   UNL     1      -6.033   6.691 -29.847  1.00  0.00    -0.082 SA
BRANCH  30  31
HETATM   31  C   UNL     1      -5.157   6.302 -28.316  1.00  0.00     0.185 C 
BRANCH  31  32
HETATM   32  C   UNL     1      -3.986   7.254 -28.154  1.00  0.00     0.231 C 
HETATM   33  N   UNL     1      -2.760   6.607 -28.124  1.00  0.00    -0.327 N 
HETATM   34  H   UNL     1      -2.768   5.600 -28.243  1.00  0.00     0.169 HD
HETATM   35  O   UNL     1      -4.172   8.463 -28.052  1.00  0.00    -0.272 OA
BRANCH  33  36
HETATM   36  C   UNL     1      -1.489   7.198 -27.982  1.00  0.00     0.034 A 
HETATM   37  C   UNL     1      -1.017   7.757 -26.791  1.00  0.00     0.032 A 
HETATM   38  C   UNL     1       0.258   8.329 -26.732  1.00  0.00     0.044 A 
HETATM   39  C   UNL     1       1.062   8.330 -27.863  1.00  0.00     0.116 A 
HETATM   40  F   UNL     1       2.286   8.870 -27.805  1.00  0.00    -0.206 F 
HETATM   41  C   UNL     1       0.613   7.779 -29.055  1.00  0.00     0.044 A 
HETATM   42  C   UNL     1      -0.666   7.221 -29.117  1.00  0.00     0.032 A 
ENDBRANCH  33  36
ENDBRANCH  31  32
ENDBRANCH  30  31
ENDBRANCH   6  30
TORSDOF 8
ENDMDL
MODEL 7
REMARK VINA RESULT:     -10.0      2.979      7.822
REMARK  8 active torsions:
REMARK  status: ('A' for Active; 'I' for Inactive)
REMARK    1  A    between atoms: C_6  and  S_7 
REMARK    2  A    between atoms: S_7  and  C_8 
REMARK    3  A    between atoms: C_8  and  C_9 
REMARK       I    between atoms: C_9  and  N_10 
REMARK    4  A    between atoms: N_10  and  C_11 
REMARK    5  A    between atoms: C_24  and  C_25 
REMARK    6  A    between atoms: C_25  and  C_26 
REMARK       I    between atoms: C_26  and  N_27 
REMARK    7  A    between atoms: N_27  and  C_28 
REMARK    8  A    between atoms: C_28  and  C_29 
ROOT
HETATM    1  C   UNL     1      -0.802   7.473 -32.681  1.00  0.00     0.001 A 
HETATM    2  C   UNL     1      -2.149   7.182 -32.896  1.00  0.00     0.018 A 
HETATM    3  C   UNL     1      -2.653   5.951 -32.473  1.00  0.00     0.039 A 
HETATM    4  C   UNL     1      -1.838   4.999 -31.843  1.00  0.00     0.073 A 
HETATM    5  N   UNL     1      -2.336   3.769 -31.373  1.00  0.00    -0.223 NA
HETATM    6  C   UNL     1      -3.587   3.507 -31.582  1.00  0.00     0.178 C 
HETATM    7  N   UNL     1      -4.428   4.339 -32.299  1.00  0.00    -0.241 N 
HETATM    8  C   UNL     1      -4.052   5.579 -32.693  1.00  0.00     0.147 C 
HETATM    9  N   UNL     1      -4.957   6.335 -33.233  1.00  0.00    -0.256 NA
HETATM   10  C   UNL     1      -5.701   4.127 -32.764  1.00  0.00     0.257 C 
HETATM   11  O   UNL     1      -6.290   3.066 -32.890  1.00  0.00    -0.270 OA
HETATM   12  C   UNL     1      -6.187   5.480 -33.257  1.00  0.00     0.211 C 
HETATM   13  C   UNL     1      -0.494   5.309 -31.633  1.00  0.00     0.032 A 
HETATM   14  C   UNL     1       0.022   6.539 -32.051  1.00  0.00     0.002 A 
ENDROOT
BRANCH  12  15
HETATM   15  C   UNL     1      -7.249   6.052 -32.325  1.00  0.00     0.140 C 
BRANCH  15  16
HETATM   16  C   UNL     1      -8.602   5.590 -32.816  1.00  0.00     0.220 C 
HETATM   17  N   UNL     1      -8.562   4.896 -34.003  1.00  0.00    -0.357 N 
HETATM   18  H   UNL     1      -7.690   4.526 -34.357  1.00  0.00     0.162 HD
HETATM   19  O   UNL     1      -9.635   5.911 -32.238  1.00  0.00    -0.274 OA
BRANCH  17  20
HETATM   20  C   UNL     1      -9.742   4.720 -34.820  1.00  0.00     0.161 C 
BRANCH  20  21
HETATM   21  C   UNL     1     -10.479   3.440 -34.527  1.00  0.00    -0.038 A 
HETATM   22  C   UNL     1     -11.753   3.208 -35.074  1.00  0.00     0.048 A 
HETATM   23  C   UNL     1     -12.418   2.057 -34.706  1.00  0.00     0.105 A 
HETATM   24  C   UNL     1     -11.863   1.141 -33.842  1.00  0.00     0.105 A 
HETATM   25  O   UNL     1     -13.665   1.695 -35.113  1.00  0.00    -0.323 OA
HETATM   26  O   UNL     1     -12.691   0.090 -33.597  1.00  0.00    -0.323 OA
HETATM   27  C   UNL     1     -10.612   1.322 -33.300  1.00  0.00     0.040 A 
HETATM   28  C   UNL     1     -13.846   0.470 -34.371  1.00  0.00     0.352 A 
HETATM   29  C   UNL     1      -9.919   2.486 -33.645  1.00  0.00     0.012 A 
ENDBRANCH  20  21
ENDBRANCH  17  20
ENDBRANCH  15  16
ENDBRANCH  12  15
BRANCH   6  30
HETATM   30  S   UNL     1      -4.272   2.096 -30.827  1.00  0.00    -0.082 SA
BRANCH  30  31
HETATM   31  C   UNL     1      -3.491   0.816 -31.836  1.00  0.00     0.185 C 
BRANCH  31  32
HETATM   32  C   UNL     1      -4.546  -0.180 -32.283  1.00  0.00     0.231 C 
HETATM   33  N   UNL     1      -4.075  -1.085 -33.222  1.00  0.00    -0.327 N 
HETATM   34  H   UNL     1      -3.098  -1.013 -33.481  1.00  0.00     0.169 HD
HETATM   35  O   UNL     1      -5.687  -0.129 -31.832  1.00  0.00    -0.272 OA
BRANCH  33  36
HETATM   36  C   UNL     1      -4.798  -2.127 -33.837  1.00  0.00     0.034 A 
HETATM   37  C   UNL     1      -6.079  -1.976 -34.376  1.00  0.00     0.032 A 
HETATM   38  C   UNL     1      -6.732  -3.062 -34.968  1.00  0.00     0.044 A 
HETATM   39  C   UNL     1      -6.096  -4.295 -35.028  1.00  0.00     0.116 A 
HETATM   40  F   UNL     1      -6.718  -5.333 -35.601  1.00  0.00    -0.206 F 
HETATM   41  C   UNL     1      -4.824  -4.465 -34.500  1.00  0.00     0.044 A 
HETATM   42  C   UNL     1      -4.178  -3.384 -33.896  1.00  0.00     0.032 A 
ENDBRANCH  33  36
ENDBRANCH  31  32
ENDBRANCH  30  31
ENDBRANCH   6  30
TORSDOF 8
ENDMDL
MODEL 8
REMARK VINA RESULT:      -9.6      3.314      6.481
REMARK  8 active torsions:
REMARK  status: ('A' for Active; 'I' for Inactive)
REMARK    1  A    between atoms: C_6  and  S_7 
REMARK    2  A    between atoms: S_7  and  C_8 
REMARK    3  A    between atoms: C_8  and  C_9 
REMARK       I    between atoms: C_9  and  N_10 
REMARK    4  A    between atoms: N_10  and  C_11 
REMARK    5  A    between atoms: C_24  and  C_25 
REMARK    6  A    between atoms: C_25  and  C_26 
REMARK       I    between atoms: C_26  and  N_27 
REMARK    7  A    between atoms: N_27  and  C_28 
REMARK    8  A    between atoms: C_28  and  C_29 
ROOT
HETATM    1  C   UNL     1      -3.105  -4.380 -32.722  1.00  0.00     0.001 A 
HETATM    2  C   UNL     1      -3.358  -3.118 -32.187  1.00  0.00     0.018 A 
HETATM    3  C   UNL     1      -4.220  -2.253 -32.864  1.00  0.00     0.039 A 
HETATM    4  C   UNL     1      -4.833  -2.621 -34.070  1.00  0.00     0.073 A 
HETATM    5  N   UNL     1      -5.737  -1.781 -34.748  1.00  0.00    -0.223 NA
HETATM    6  C   UNL     1      -5.961  -0.609 -34.243  1.00  0.00     0.178 C 
HETATM    7  N   UNL     1      -5.307  -0.125 -33.124  1.00  0.00    -0.241 N 
HETATM    8  C   UNL     1      -4.504  -0.907 -32.363  1.00  0.00     0.147 C 
HETATM    9  N   UNL     1      -4.052  -0.403 -31.257  1.00  0.00    -0.256 NA
HETATM   10  C   UNL     1      -5.287   1.135 -32.583  1.00  0.00     0.257 C 
HETATM   11  O   UNL     1      -5.621   2.185 -33.108  1.00  0.00    -0.270 OA
HETATM   12  C   UNL     1      -4.601   0.991 -31.235  1.00  0.00     0.211 C 
HETATM   13  C   UNL     1      -4.571  -3.889 -34.589  1.00  0.00     0.032 A 
HETATM   14  C   UNL     1      -3.711  -4.765 -33.920  1.00  0.00     0.002 A 
ENDROOT
BRANCH  12  15
HETATM   15  C   UNL     1      -5.600   1.149 -30.094  1.00  0.00     0.140 C 
BRANCH  15  16
HETATM   16  C   UNL     1      -6.045   2.594 -30.058  1.00  0.00     0.220 C 
HETATM   17  N   UNL     1      -5.041   3.498 -30.320  1.00  0.00    -0.357 N 
HETATM   18  H   UNL     1      -4.172   3.199 -30.739  1.00  0.00     0.162 HD
HETATM   19  O   UNL     1      -7.183   2.903 -29.720  1.00  0.00    -0.274 OA
BRANCH  17  20
HETATM   20  C   UNL     1      -5.160   4.892 -29.953  1.00  0.00     0.161 C 
BRANCH  20  21
HETATM   21  C   UNL     1      -4.322   5.802 -30.811  1.00  0.00    -0.038 A 
HETATM   22  C   UNL     1      -3.478   5.273 -31.802  1.00  0.00     0.048 A 
HETATM   23  C   UNL     1      -2.670   6.147 -32.501  1.00  0.00     0.105 A 
HETATM   24  C   UNL     1      -2.685   7.501 -32.263  1.00  0.00     0.105 A 
HETATM   25  O   UNL     1      -1.774   5.801 -33.465  1.00  0.00    -0.323 OA
HETATM   26  O   UNL     1      -1.802   8.177 -33.045  1.00  0.00    -0.323 OA
HETATM   27  C   UNL     1      -3.511   8.060 -31.315  1.00  0.00     0.040 A 
HETATM   28  C   UNL     1      -1.198   7.088 -33.773  1.00  0.00     0.352 A 
HETATM   29  C   UNL     1      -4.332   7.198 -30.581  1.00  0.00     0.012 A 
ENDBRANCH  20  21
ENDBRANCH  17  20
ENDBRANCH  15  16
ENDBRANCH  12  15
BRANCH   6  30
HETATM   30  S   UNL     1      -7.227   0.361 -34.940  1.00  0.00    -0.082 SA
BRANCH  30  31
HETATM   31  C   UNL     1      -8.517   0.091 -33.703  1.00  0.00     0.185 C 
BRANCH  31  32
HETATM   32  C   UNL     1      -9.135   1.426 -33.327  1.00  0.00     0.231 C 
HETATM   33  N   UNL     1      -8.448   2.509 -33.853  1.00  0.00    -0.327 N 
HETATM   34  H   UNL     1      -7.650   2.306 -34.444  1.00  0.00     0.169 HD
HETATM   35  O   UNL     1     -10.133   1.475 -32.615  1.00  0.00    -0.272 OA
BRANCH  33  36
HETATM   36  C   UNL     1      -8.758   3.874 -33.689  1.00  0.00     0.034 A 
HETATM   37  C   UNL     1      -9.623   4.584 -34.527  1.00  0.00     0.032 A 
HETATM   38  C   UNL     1      -9.878   5.940 -34.298  1.00  0.00     0.044 A 
HETATM   39  C   UNL     1      -9.273   6.581 -33.226  1.00  0.00     0.116 A 
HETATM   40  F   UNL     1      -9.522   7.877 -33.002  1.00  0.00    -0.206 F 
HETATM   41  C   UNL     1      -8.411   5.894 -32.382  1.00  0.00     0.044 A 
HETATM   42  C   UNL     1      -8.146   4.543 -32.619  1.00  0.00     0.032 A 
ENDBRANCH  33  36
ENDBRANCH  31  32
ENDBRANCH  30  31
ENDBRANCH   6  30
TORSDOF 8
ENDMDL
MODEL 9
REMARK VINA RESULT:      -9.5      4.445      9.814
REMARK  8 active torsions:
REMARK  status: ('A' for Active; 'I' for Inactive)
REMARK    1  A    between atoms: C_6  and  S_7 
REMARK    2  A    between atoms: S_7  and  C_8 
REMARK    3  A    between atoms: C_8  and  C_9 
REMARK       I    between atoms: C_9  and  N_10 
REMARK    4  A    between atoms: N_10  and  C_11 
REMARK    5  A    between atoms: C_24  and  C_25 
REMARK    6  A    between atoms: C_25  and  C_26 
REMARK       I    between atoms: C_26  and  N_27 
REMARK    7  A    between atoms: N_27  and  C_28 
REMARK    8  A    between atoms: C_28  and  C_29 
ROOT
HETATM    1  C   UNL     1      -5.604  -0.446 -32.300  1.00  0.00     0.001 A 
HETATM    2  C   UNL     1      -6.240   0.760 -32.012  1.00  0.00     0.018 A 
HETATM    3  C   UNL     1      -5.465   1.899 -31.785  1.00  0.00     0.039 A 
HETATM    4  C   UNL     1      -4.064   1.857 -31.835  1.00  0.00     0.073 A 
HETATM    5  N   UNL     1      -3.265   3.002 -31.650  1.00  0.00    -0.223 NA
HETATM    6  C   UNL     1      -3.867   4.117 -31.379  1.00  0.00     0.178 C 
HETATM    7  N   UNL     1      -5.234   4.218 -31.195  1.00  0.00    -0.241 N 
HETATM    8  C   UNL     1      -6.075   3.188 -31.455  1.00  0.00     0.147 C 
HETATM    9  N   UNL     1      -7.348   3.425 -31.389  1.00  0.00    -0.256 NA
HETATM   10  C   UNL     1      -5.992   5.261 -30.727  1.00  0.00     0.257 C 
HETATM   11  O   UNL     1      -5.619   6.246 -30.111  1.00  0.00    -0.270 OA
HETATM   12  C   UNL     1      -7.437   4.865 -30.984  1.00  0.00     0.211 C 
HETATM   13  C   UNL     1      -3.445   0.642 -32.128  1.00  0.00     0.032 A 
HETATM   14  C   UNL     1      -4.210  -0.505 -32.358  1.00  0.00     0.002 A 
ENDROOT
BRANCH  12  15
HETATM   15  C   UNL     1      -8.039   5.697 -32.111  1.00  0.00     0.140 C 
BRANCH  15  16
HETATM   16  C   UNL     1      -8.035   4.856 -33.367  1.00  0.00     0.220 C 
HETATM   17  N   UNL     1      -9.134   4.040 -33.501  1.00  0.00    -0.357 N 
HETATM   18  H   UNL     1      -9.961   4.191 -32.940  1.00  0.00     0.162 HD
HETATM   19  O   UNL     1      -7.072   4.849 -34.128  1.00  0.00    -0.274 OA
BRANCH  17  20
HETATM   20  C   UNL     1      -9.132   2.904 -34.395  1.00  0.00     0.161 C 
BRANCH  20  21
HETATM   21  C   UNL     1     -10.314   1.992 -34.195  1.00  0.00    -0.038 A 
HETATM   22  C   UNL     1     -11.560   2.302 -34.765  1.00  0.00     0.048 A 
HETATM   23  C   UNL     1     -12.628   1.475 -34.481  1.00  0.00     0.105 A 
HETATM   24  C   UNL     1     -12.496   0.366 -33.678  1.00  0.00     0.105 A 
HETATM   25  O   UNL     1     -13.904   1.647 -34.920  1.00  0.00    -0.323 OA
HETATM   26  O   UNL     1     -13.671  -0.297 -33.510  1.00  0.00    -0.323 OA
HETATM   27  C   UNL     1     -11.289   0.018 -33.116  1.00  0.00     0.040 A 
HETATM   28  C   UNL     1     -14.566   0.544 -34.265  1.00  0.00     0.352 A 
HETATM   29  C   UNL     1     -10.191   0.844 -33.377  1.00  0.00     0.012 A 
ENDBRANCH  20  21
ENDBRANCH  17  20
ENDBRANCH  15  16
ENDBRANCH  12  15
BRANCH   6  30
HETATM   30  S   UNL     1      -2.923   5.579 -31.357  1.00  0.00    -0.082 SA
BRANCH  30  31
HETATM   31  C   UNL     1      -1.293   4.882 -31.708  1.00  0.00     0.185 C 
BRANCH  31  32
HETATM   32  C   UNL     1      -0.369   5.158 -30.537  1.00  0.00     0.231 C 
HETATM   33  N   UNL     1      -0.767   6.247 -29.776  1.00  0.00    -0.327 N 
HETATM   34  H   UNL     1      -1.625   6.711 -30.051  1.00  0.00     0.169 HD
HETATM   35  O   UNL     1       0.624   4.461 -30.344  1.00  0.00    -0.272 OA
BRANCH  33  36
HETATM   36  C   UNL     1      -0.128   6.765 -28.632  1.00  0.00     0.034 A 
HETATM   37  C   UNL     1      -0.339   6.285 -27.336  1.00  0.00     0.032 A 
HETATM   38  C   UNL     1       0.333   6.855 -26.250  1.00  0.00     0.044 A 
HETATM   39  C   UNL     1       1.222   7.899 -26.465  1.00  0.00     0.116 A 
HETATM   40  F   UNL     1       1.871   8.441 -25.426  1.00  0.00    -0.206 F 
HETATM   41  C   UNL     1       1.446   8.390 -27.744  1.00  0.00     0.044 A 
HETATM   42  C   UNL     1       0.764   7.829 -28.826  1.00  0.00     0.032 A 
ENDBRANCH  33  36
ENDBRANCH  31  32
ENDBRANCH  30  31
ENDBRANCH   6  30
TORSDOF 8
ENDMDL
MODEL 10
REMARK VINA RESULT:      -9.5      2.791      5.418
REMARK  8 active torsions:
REMARK  status: ('A' for Active; 'I' for Inactive)
REMARK    1  A    between atoms: C_6  and  S_7 
REMARK    2  A    between atoms: S_7  and  C_8 
REMARK    3  A    between atoms: C_8  and  C_9 
REMARK       I    between atoms: C_9  and  N_10 
REMARK    4  A    between atoms: N_10  and  C_11 
REMARK    5  A    between atoms: C_24  and  C_25 
REMARK    6  A    between atoms: C_25  and  C_26 
REMARK       I    between atoms: C_26  and  N_27 
REMARK    7  A    between atoms: N_27  and  C_28 
REMARK    8  A    between atoms: C_28  and  C_29 
ROOT
HETATM    1  C   UNL     1      -1.061   6.763 -33.948  1.00  0.00     0.001 A 
HETATM    2  C   UNL     1      -1.742   7.061 -32.769  1.00  0.00     0.018 A 
HETATM    3  C   UNL     1      -2.630   6.123 -32.242  1.00  0.00     0.039 A 
HETATM    4  C   UNL     1      -2.857   4.890 -32.871  1.00  0.00     0.073 A 
HETATM    5  N   UNL     1      -3.717   3.913 -32.334  1.00  0.00    -0.223 NA
HETATM    6  C   UNL     1      -4.348   4.203 -31.241  1.00  0.00     0.178 C 
HETATM    7  N   UNL     1      -4.271   5.439 -30.623  1.00  0.00    -0.241 N 
HETATM    8  C   UNL     1      -3.392   6.389 -31.020  1.00  0.00     0.147 C 
HETATM    9  N   UNL     1      -3.297   7.458 -30.291  1.00  0.00    -0.256 NA
HETATM   10  C   UNL     1      -5.006   5.962 -29.590  1.00  0.00     0.257 C 
HETATM   11  O   UNL     1      -6.073   5.568 -29.149  1.00  0.00    -0.270 OA
HETATM   12  C   UNL     1      -4.301   7.250 -29.198  1.00  0.00     0.211 C 
HETATM   13  C   UNL     1      -2.164   4.606 -34.048  1.00  0.00     0.032 A 
HETATM   14  C   UNL     1      -1.271   5.538 -34.586  1.00  0.00     0.002 A 
ENDROOT
BRANCH  12  15
HETATM   15  C   UNL     1      -3.599   7.102 -27.853  1.00  0.00     0.140 C 
BRANCH  15  16
HETATM   16  C   UNL     1      -3.157   8.475 -27.402  1.00  0.00     0.220 C 
HETATM   17  N   UNL     1      -2.141   9.015 -28.156  1.00  0.00    -0.357 N 
HETATM   18  H   UNL     1      -1.909   8.631 -29.061  1.00  0.00     0.162 HD
HETATM   19  O   UNL     1      -3.612   8.990 -26.385  1.00  0.00    -0.274 OA
BRANCH  17  20
HETATM   20  C   UNL     1      -1.329  10.106 -27.666  1.00  0.00     0.161 C 
BRANCH  20  21
HETATM   21  C   UNL     1      -0.173   9.648 -26.816  1.00  0.00    -0.038 A 
HETATM   22  C   UNL     1      -0.083  10.031 -25.467  1.00  0.00     0.048 A 
HETATM   23  C   UNL     1       1.038   9.653 -24.758  1.00  0.00     0.105 A 
HETATM   24  C   UNL     1       2.044   8.909 -25.330  1.00  0.00     0.105 A 
HETATM   25  O   UNL     1       1.300   9.966 -23.460  1.00  0.00    -0.323 OA
HETATM   26  O   UNL     1       3.064   8.662 -24.465  1.00  0.00    -0.323 OA
HETATM   27  C   UNL     1       1.985   8.498 -26.641  1.00  0.00     0.040 A 
HETATM   28  C   UNL     1       2.605   9.371 -23.297  1.00  0.00     0.352 A 
HETATM   29  C   UNL     1       0.866   8.878 -27.389  1.00  0.00     0.012 A 
ENDBRANCH  20  21
ENDBRANCH  17  20
ENDBRANCH  15  16
ENDBRANCH  12  15
BRANCH   6  30
HETATM   30  S   UNL     1      -5.247   2.941 -30.447  1.00  0.00    -0.082 SA
BRANCH  30  31
HETATM   31  C   UNL     1      -6.303   2.425 -31.820  1.00  0.00     0.185 C 
BRANCH  31  32
HETATM   32  C   UNL     1      -6.216   0.918 -31.978  1.00  0.00     0.231 C 
HETATM   33  N   UNL     1      -5.874   0.525 -33.263  1.00  0.00    -0.327 N 
HETATM   34  H   UNL     1      -5.688   1.261 -33.935  1.00  0.00     0.169 HD
HETATM   35  O   UNL     1      -6.452   0.175 -31.029  1.00  0.00    -0.272 OA
BRANCH  33  36
HETATM   36  C   UNL     1      -5.716  -0.793 -33.736  1.00  0.00     0.034 A 
HETATM   37  C   UNL     1      -4.493  -1.470 -33.768  1.00  0.00     0.032 A 
HETATM   38  C   UNL     1      -4.419  -2.778 -34.256  1.00  0.00     0.044 A 
HETATM   39  C   UNL     1      -5.571  -3.410 -34.701  1.00  0.00     0.116 A 
HETATM   40  F   UNL     1      -5.502  -4.666 -35.162  1.00  0.00    -0.206 F 
HETATM   41  C   UNL     1      -6.795  -2.757 -34.677  1.00  0.00     0.044 A 
HETATM   42  C   UNL     1      -6.866  -1.444 -34.203  1.00  0.00     0.032 A 
ENDBRANCH  33  36
ENDBRANCH  31  32
ENDBRANCH  30  31
ENDBRANCH   6  30
TORSDOF 8
ENDMDL
