MODEL 1
REMARK VINA RESULT:      -9.2      0.000      0.000
REMARK  5 active torsions:
REMARK  status: ('A' for Active; 'I' for Inactive)
REMARK    1  A    between atoms: C_3  and  N_4 
REMARK       I    between atoms: N_4  and  C_5 
REMARK    2  A    between atoms: C_5  and  C_6 
REMARK    3  A    between atoms: C_14  and  C_15 
REMARK    4  A    between atoms: C_24  and  O_25 
REMARK    5  A    between atoms: C_27  and  O_28 
ROOT
HETATM    1  C   UNL     1      -6.899   0.673 -32.835  1.00  0.00     0.047 A 
HETATM    2  C   UNL     1      -5.761   1.384 -32.378  1.00  0.00     0.008 A 
HETATM    3  C   UNL     1      -4.524   0.743 -32.569  1.00  0.00     0.068 A 
HETATM    4  C   UNL     1      -3.359   1.388 -32.181  1.00  0.00     0.032 A 
HETATM    5  C   UNL     1      -3.372   2.646 -31.577  1.00  0.00     0.002 A 
HETATM    6  C   UNL     1      -4.583   3.274 -31.337  1.00  0.00     0.001 A 
HETATM    7  C   UNL     1      -5.766   2.648 -31.725  1.00  0.00     0.015 A 
HETATM    8  N   UNL     1      -4.413  -0.487 -33.095  1.00  0.00    -0.248 NA
HETATM    9  C   UNL     1      -5.516  -1.190 -33.449  1.00  0.00     0.068 A 
HETATM   10  C   UNL     1      -6.776  -0.625 -33.343  1.00  0.00     0.050 A 
ENDROOT
BRANCH   1  11
HETATM   11  C   UNL     1      -8.281   1.227 -32.759  1.00  0.00     0.257 C 
HETATM   12  N   UNL     1      -8.777   1.702 -33.953  1.00  0.00    -0.322 N 
HETATM   13  H   UNL     1      -8.320   1.335 -34.781  1.00  0.00     0.169 HD
HETATM   14  O   UNL     1      -8.879   1.140 -31.695  1.00  0.00    -0.267 OA
BRANCH  12  15
HETATM   15  C   UNL     1      -9.830   2.617 -34.203  1.00  0.00     0.043 A 
HETATM   16  C   UNL     1      -9.729   4.018 -34.253  1.00  0.00    -0.032 A 
HETATM   17  C   UNL     1      -8.478   4.811 -33.993  1.00  0.00     0.050 C 
HETATM   18  C   UNL     1     -10.871   4.770 -34.612  1.00  0.00     0.048 A 
HETATM   19  C   UNL     1     -12.076   4.159 -34.968  1.00  0.00     0.102 A 
HETATM   20  C   UNL     1     -12.180   2.765 -34.911  1.00  0.00     0.103 A 
HETATM   21  C   UNL     1     -11.060   2.012 -34.541  1.00  0.00     0.069 A 
BRANCH  19  22
HETATM   22  O   UNL     1     -13.196   4.851 -35.356  1.00  0.00    -0.353 OA
HETATM   23  C   UNL     1     -12.996   6.204 -35.749  1.00  0.00     0.210 C 
ENDBRANCH  19  22
BRANCH  20  24
HETATM   24  O   UNL     1     -13.393   2.234 -35.274  1.00  0.00    -0.353 OA
HETATM   25  C   UNL     1     -13.936   1.208 -34.456  1.00  0.00     0.210 C 
ENDBRANCH  20  24
ENDBRANCH  12  15
ENDBRANCH   1  11
BRANCH   9  26
HETATM   26  C   UNL     1      -5.264  -2.580 -33.906  1.00  0.00    -0.007 A 
HETATM   27  C   UNL     1      -4.071  -3.242 -33.549  1.00  0.00     0.014 A 
HETATM   28  C   UNL     1      -3.809  -4.560 -33.938  1.00  0.00     0.001 A 
HETATM   29  C   UNL     1      -4.739  -5.254 -34.702  1.00  0.00     0.000 A 
HETATM   30  C   UNL     1      -5.923  -4.628 -35.079  1.00  0.00     0.001 A 
HETATM   31  C   UNL     1      -6.181  -3.308 -34.688  1.00  0.00     0.014 A 
ENDBRANCH   9  26
TORSDOF 5
ENDMDL
MODEL 2
REMARK VINA RESULT:      -9.1      1.261      2.340
REMARK  5 active torsions:
REMARK  status: ('A' for Active; 'I' for Inactive)
REMARK    1  A    between atoms: C_3  and  N_4 
REMARK       I    between atoms: N_4  and  C_5 
REMARK    2  A    between atoms: C_5  and  C_6 
REMARK    3  A    between atoms: C_14  and  C_15 
REMARK    4  A    between atoms: C_24  and  O_25 
REMARK    5  A    between atoms: C_27  and  O_28 
ROOT
HETATM    1  C   UNL     1      -7.770   0.967 -33.424  1.00  0.00     0.047 A 
HETATM    2  C   UNL     1      -6.710   1.748 -32.898  1.00  0.00     0.008 A 
HETATM    3  C   UNL     1      -5.437   1.153 -32.937  1.00  0.00     0.068 A 
HETATM    4  C   UNL     1      -4.341   1.866 -32.474  1.00  0.00     0.032 A 
HETATM    5  C   UNL     1      -4.462   3.150 -31.939  1.00  0.00     0.002 A 
HETATM    6  C   UNL     1      -5.713   3.735 -31.848  1.00  0.00     0.001 A 
HETATM    7  C   UNL     1      -6.828   3.041 -32.314  1.00  0.00     0.015 A 
HETATM    8  N   UNL     1      -5.227  -0.094 -33.386  1.00  0.00    -0.248 NA
HETATM    9  C   UNL     1      -6.263  -0.861 -33.807  1.00  0.00     0.068 A 
HETATM   10  C   UNL     1      -7.549  -0.347 -33.850  1.00  0.00     0.050 A 
ENDROOT
BRANCH   1  11
HETATM   11  C   UNL     1      -9.174   1.463 -33.508  1.00  0.00     0.257 C 
HETATM   12  N   UNL     1      -9.446   2.236 -34.615  1.00  0.00    -0.322 N 
HETATM   13  H   UNL     1      -8.804   2.110 -35.390  1.00  0.00     0.169 HD
HETATM   14  O   UNL     1      -9.970   1.086 -32.659  1.00  0.00    -0.267 OA
BRANCH  12  15
HETATM   15  C   UNL     1     -10.486   3.171 -34.841  1.00  0.00     0.043 A 
HETATM   16  C   UNL     1     -11.836   2.878 -35.103  1.00  0.00    -0.032 A 
HETATM   17  C   UNL     1     -12.414   1.497 -35.246  1.00  0.00     0.050 C 
HETATM   18  C   UNL     1     -12.756   3.945 -35.208  1.00  0.00     0.048 A 
HETATM   19  C   UNL     1     -12.373   5.273 -35.007  1.00  0.00     0.102 A 
HETATM   20  C   UNL     1     -11.029   5.568 -34.753  1.00  0.00     0.103 A 
HETATM   21  C   UNL     1     -10.106   4.519 -34.664  1.00  0.00     0.069 A 
BRANCH  19  22
HETATM   22  O   UNL     1     -13.241   6.335 -35.065  1.00  0.00    -0.353 OA
HETATM   23  C   UNL     1     -13.824   6.603 -36.335  1.00  0.00     0.210 C 
ENDBRANCH  19  22
BRANCH  20  24
HETATM   24  O   UNL     1     -10.725   6.893 -34.566  1.00  0.00    -0.353 OA
HETATM   25  C   UNL     1      -9.964   7.241 -33.419  1.00  0.00     0.210 C 
ENDBRANCH  20  24
ENDBRANCH  12  15
ENDBRANCH   1  11
BRANCH   9  26
HETATM   26  C   UNL     1      -5.914  -2.258 -34.165  1.00  0.00    -0.007 A 
HETATM   27  C   UNL     1      -4.603  -2.739 -33.966  1.00  0.00     0.014 A 
HETATM   28  C   UNL     1      -4.243  -4.056 -34.268  1.00  0.00     0.001 A 
HETATM   29  C   UNL     1      -5.190  -4.934 -34.782  1.00  0.00     0.000 A 
HETATM   30  C   UNL     1      -6.491  -4.490 -34.998  1.00  0.00     0.001 A 
HETATM   31  C   UNL     1      -6.847  -3.169 -34.697  1.00  0.00     0.014 A 
ENDBRANCH   9  26
TORSDOF 5
ENDMDL
MODEL 3
REMARK VINA RESULT:      -9.0      1.748      1.918
REMARK  5 active torsions:
REMARK  status: ('A' for Active; 'I' for Inactive)
REMARK    1  A    between atoms: C_3  and  N_4 
REMARK       I    between atoms: N_4  and  C_5 
REMARK    2  A    between atoms: C_5  and  C_6 
REMARK    3  A    between atoms: C_14  and  C_15 
REMARK    4  A    between atoms: C_24  and  O_25 
REMARK    5  A    between atoms: C_27  and  O_28 
ROOT
HETATM    1  C   UNL     1      -6.737   1.404 -33.334  1.00  0.00     0.047 A 
HETATM    2  C   UNL     1      -5.593   1.868 -32.639  1.00  0.00     0.008 A 
HETATM    3  C   UNL     1      -4.509   0.974 -32.583  1.00  0.00     0.068 A 
HETATM    4  C   UNL     1      -3.338   1.367 -31.950  1.00  0.00     0.032 A 
HETATM    5  C   UNL     1      -3.207   2.614 -31.338  1.00  0.00     0.002 A 
HETATM    6  C   UNL     1      -4.279   3.491 -31.340  1.00  0.00     0.001 A 
HETATM    7  C   UNL     1      -5.463   3.121 -31.976  1.00  0.00     0.015 A 
HETATM    8  N   UNL     1      -4.557  -0.264 -33.098  1.00  0.00    -0.248 NA
HETATM    9  C   UNL     1      -5.688  -0.725 -33.686  1.00  0.00     0.068 A 
HETATM   10  C   UNL     1      -6.793   0.097 -33.831  1.00  0.00     0.050 A 
ENDROOT
BRANCH   1  11
HETATM   11  C   UNL     1      -7.955   2.241 -33.534  1.00  0.00     0.257 C 
HETATM   12  N   UNL     1      -8.867   2.186 -32.503  1.00  0.00    -0.322 N 
HETATM   13  H   UNL     1      -8.487   1.877 -31.614  1.00  0.00     0.169 HD
HETATM   14  O   UNL     1      -8.008   2.955 -34.526  1.00  0.00    -0.267 OA
BRANCH  12  15
HETATM   15  C   UNL     1     -10.249   2.501 -32.489  1.00  0.00     0.043 A 
HETATM   16  C   UNL     1     -10.850   3.613 -31.875  1.00  0.00    -0.032 A 
HETATM   17  C   UNL     1     -10.129   4.654 -31.064  1.00  0.00     0.050 C 
HETATM   18  C   UNL     1     -12.237   3.817 -32.046  1.00  0.00     0.048 A 
HETATM   19  C   UNL     1     -13.014   2.979 -32.850  1.00  0.00     0.102 A 
HETATM   20  C   UNL     1     -12.419   1.867 -33.456  1.00  0.00     0.103 A 
HETATM   21  C   UNL     1     -11.048   1.646 -33.279  1.00  0.00     0.069 A 
BRANCH  19  22
HETATM   22  O   UNL     1     -14.356   3.163 -33.071  1.00  0.00    -0.353 OA
HETATM   23  C   UNL     1     -15.228   2.762 -32.020  1.00  0.00     0.210 C 
ENDBRANCH  19  22
BRANCH  20  24
HETATM   24  O   UNL     1     -13.242   1.088 -34.230  1.00  0.00    -0.353 OA
HETATM   25  C   UNL     1     -13.562  -0.211 -33.753  1.00  0.00     0.210 C 
ENDBRANCH  20  24
ENDBRANCH  12  15
ENDBRANCH   1  11
BRANCH   9  26
HETATM   26  C   UNL     1      -5.650  -2.148 -34.108  1.00  0.00    -0.007 A 
HETATM   27  C   UNL     1      -4.464  -2.899 -33.976  1.00  0.00     0.014 A 
HETATM   28  C   UNL     1      -4.396  -4.248 -34.338  1.00  0.00     0.001 A 
HETATM   29  C   UNL     1      -5.520  -4.886 -34.848  1.00  0.00     0.000 A 
HETATM   30  C   UNL     1      -6.705  -4.172 -34.999  1.00  0.00     0.001 A 
HETATM   31  C   UNL     1      -6.768  -2.821 -34.637  1.00  0.00     0.014 A 
ENDBRANCH   9  26
TORSDOF 5
ENDMDL
MODEL 4
REMARK VINA RESULT:      -8.9      3.343      6.848
REMARK  5 active torsions:
REMARK  status: ('A' for Active; 'I' for Inactive)
REMARK    1  A    between atoms: C_3  and  N_4 
REMARK       I    between atoms: N_4  and  C_5 
REMARK    2  A    between atoms: C_5  and  C_6 
REMARK    3  A    between atoms: C_14  and  C_15 
REMARK    4  A    between atoms: C_24  and  O_25 
REMARK    5  A    between atoms: C_27  and  O_28 
ROOT
HETATM    1  C   UNL     1      -6.674   1.606 -33.632  1.00  0.00     0.047 A 
HETATM    2  C   UNL     1      -8.083   1.641 -33.482  1.00  0.00     0.008 A 
HETATM    3  C   UNL     1      -8.724   0.390 -33.452  1.00  0.00     0.068 A 
HETATM    4  C   UNL     1     -10.099   0.337 -33.273  1.00  0.00     0.032 A 
HETATM    5  C   UNL     1     -10.877   1.489 -33.149  1.00  0.00     0.002 A 
HETATM    6  C   UNL     1     -10.271   2.732 -33.223  1.00  0.00     0.001 A 
HETATM    7  C   UNL     1      -8.890   2.810 -33.395  1.00  0.00     0.015 A 
HETATM    8  N   UNL     1      -8.069  -0.770 -33.613  1.00  0.00    -0.248 NA
HETATM    9  C   UNL     1      -6.733  -0.784 -33.840  1.00  0.00     0.068 A 
HETATM   10  C   UNL     1      -6.005   0.395 -33.841  1.00  0.00     0.050 A 
ENDROOT
BRANCH   1  11
HETATM   11  C   UNL     1      -5.831   2.836 -33.631  1.00  0.00     0.257 C 
HETATM   12  N   UNL     1      -4.931   2.917 -32.592  1.00  0.00    -0.322 N 
HETATM   13  H   UNL     1      -4.702   2.029 -32.157  1.00  0.00     0.169 HD
HETATM   14  O   UNL     1      -5.942   3.612 -34.571  1.00  0.00    -0.267 OA
BRANCH  12  15
HETATM   15  C   UNL     1      -4.271   4.043 -32.042  1.00  0.00     0.043 A 
HETATM   16  C   UNL     1      -4.637   4.746 -30.880  1.00  0.00    -0.032 A 
HETATM   17  C   UNL     1      -5.845   4.456 -30.033  1.00  0.00     0.050 C 
HETATM   18  C   UNL     1      -3.802   5.791 -30.426  1.00  0.00     0.048 A 
HETATM   19  C   UNL     1      -2.601   6.109 -31.066  1.00  0.00     0.102 A 
HETATM   20  C   UNL     1      -2.239   5.416 -32.226  1.00  0.00     0.103 A 
HETATM   21  C   UNL     1      -3.068   4.389 -32.694  1.00  0.00     0.069 A 
BRANCH  19  22
HETATM   22  O   UNL     1      -1.745   7.093 -30.637  1.00  0.00    -0.353 OA
HETATM   23  C   UNL     1      -2.218   8.430 -30.745  1.00  0.00     0.210 C 
ENDBRANCH  19  22
BRANCH  20  24
HETATM   24  O   UNL     1      -1.047   5.781 -32.801  1.00  0.00    -0.353 OA
HETATM   25  C   UNL     1      -1.089   6.354 -34.099  1.00  0.00     0.210 C 
ENDBRANCH  20  24
ENDBRANCH  12  15
ENDBRANCH   1  11
BRANCH   9  26
HETATM   26  C   UNL     1      -6.150  -2.120 -34.119  1.00  0.00    -0.007 A 
HETATM   27  C   UNL     1      -6.960  -3.161 -34.619  1.00  0.00     0.014 A 
HETATM   28  C   UNL     1      -6.442  -4.425 -34.917  1.00  0.00     0.001 A 
HETATM   29  C   UNL     1      -5.092  -4.685 -34.720  1.00  0.00     0.000 A 
HETATM   30  C   UNL     1      -4.265  -3.683 -34.220  1.00  0.00     0.001 A 
HETATM   31  C   UNL     1      -4.789  -2.419 -33.921  1.00  0.00     0.014 A 
ENDBRANCH   9  26
TORSDOF 5
ENDMDL
MODEL 5
REMARK VINA RESULT:      -8.8      3.108      6.523
REMARK  5 active torsions:
REMARK  status: ('A' for Active; 'I' for Inactive)
REMARK    1  A    between atoms: C_3  and  N_4 
REMARK       I    between atoms: N_4  and  C_5 
REMARK    2  A    between atoms: C_5  and  C_6 
REMARK    3  A    between atoms: C_14  and  C_15 
REMARK    4  A    between atoms: C_24  and  O_25 
REMARK    5  A    between atoms: C_27  and  O_28 
ROOT
HETATM    1  C   UNL     1      -6.646   1.829 -33.586  1.00  0.00     0.047 A 
HETATM    2  C   UNL     1      -8.061   1.902 -33.538  1.00  0.00     0.008 A 
HETATM    3  C   UNL     1      -8.737   0.671 -33.602  1.00  0.00     0.068 A 
HETATM    4  C   UNL     1     -10.122   0.654 -33.526  1.00  0.00     0.032 A 
HETATM    5  C   UNL     1     -10.875   1.824 -33.417  1.00  0.00     0.002 A 
HETATM    6  C   UNL     1     -10.231   3.050 -33.400  1.00  0.00     0.001 A 
HETATM    7  C   UNL     1      -8.839   3.091 -33.468  1.00  0.00     0.015 A 
HETATM    8  N   UNL     1      -8.105  -0.502 -33.757  1.00  0.00    -0.248 NA
HETATM    9  C   UNL     1      -6.756  -0.549 -33.886  1.00  0.00     0.068 A 
HETATM   10  C   UNL     1      -5.998   0.606 -33.790  1.00  0.00     0.050 A 
ENDROOT
BRANCH   1  11
HETATM   11  C   UNL     1      -5.772   3.033 -33.478  1.00  0.00     0.257 C 
HETATM   12  N   UNL     1      -4.972   3.064 -32.358  1.00  0.00    -0.322 N 
HETATM   13  H   UNL     1      -4.811   2.161 -31.923  1.00  0.00     0.169 HD
HETATM   14  O   UNL     1      -5.771   3.830 -34.406  1.00  0.00    -0.267 OA
BRANCH  12  15
HETATM   15  C   UNL     1      -4.334   4.159 -31.723  1.00  0.00     0.043 A 
HETATM   16  C   UNL     1      -3.132   4.773 -32.117  1.00  0.00    -0.032 A 
HETATM   17  C   UNL     1      -2.268   4.336 -33.268  1.00  0.00     0.050 C 
HETATM   18  C   UNL     1      -2.693   5.919 -31.417  1.00  0.00     0.048 A 
HETATM   19  C   UNL     1      -3.444   6.488 -30.385  1.00  0.00     0.102 A 
HETATM   20  C   UNL     1      -4.636   5.874 -29.986  1.00  0.00     0.103 A 
HETATM   21  C   UNL     1      -5.072   4.727 -30.662  1.00  0.00     0.069 A 
BRANCH  19  22
HETATM   22  O   UNL     1      -3.071   7.620 -29.704  1.00  0.00    -0.353 OA
HETATM   23  C   UNL     1      -1.925   7.504 -28.869  1.00  0.00     0.210 C 
ENDBRANCH  19  22
BRANCH  20  24
HETATM   24  O   UNL     1      -5.321   6.486 -28.967  1.00  0.00    -0.353 OA
HETATM   25  C   UNL     1      -6.122   5.670 -28.125  1.00  0.00     0.210 C 
ENDBRANCH  20  24
ENDBRANCH  12  15
ENDBRANCH   1  11
BRANCH   9  26
HETATM   26  C   UNL     1      -6.191  -1.892 -34.170  1.00  0.00    -0.007 A 
HETATM   27  C   UNL     1      -4.819  -2.146 -33.967  1.00  0.00     0.014 A 
HETATM   28  C   UNL     1      -4.255  -3.404 -34.199  1.00  0.00     0.001 A 
HETATM   29  C   UNL     1      -5.054  -4.450 -34.646  1.00  0.00     0.000 A 
HETATM   30  C   UNL     1      -6.411  -4.232 -34.864  1.00  0.00     0.001 A 
HETATM   31  C   UNL     1      -6.971  -2.969 -34.632  1.00  0.00     0.014 A 
ENDBRANCH   9  26
TORSDOF 5
ENDMDL
MODEL 6
REMARK VINA RESULT:      -8.6      3.582      8.102
REMARK  5 active torsions:
REMARK  status: ('A' for Active; 'I' for Inactive)
REMARK    1  A    between atoms: C_3  and  N_4 
REMARK       I    between atoms: N_4  and  C_5 
REMARK    2  A    between atoms: C_5  and  C_6 
REMARK    3  A    between atoms: C_14  and  C_15 
REMARK    4  A    between atoms: C_24  and  O_25 
REMARK    5  A    between atoms: C_27  and  O_28 
ROOT
HETATM    1  C   UNL     1      -5.580   3.788 -32.197  1.00  0.00     0.047 A 
HETATM    2  C   UNL     1      -6.513   4.311 -31.268  1.00  0.00     0.008 A 
HETATM    3  C   UNL     1      -6.030   5.327 -30.424  1.00  0.00     0.068 A 
HETATM    4  C   UNL     1      -6.892   5.916 -29.510  1.00  0.00     0.032 A 
HETATM    5  C   UNL     1      -8.221   5.513 -29.376  1.00  0.00     0.002 A 
HETATM    6  C   UNL     1      -8.704   4.482 -30.165  1.00  0.00     0.001 A 
HETATM    7  C   UNL     1      -7.859   3.880 -31.095  1.00  0.00     0.015 A 
HETATM    8  N   UNL     1      -4.756   5.747 -30.443  1.00  0.00    -0.248 NA
HETATM    9  C   UNL     1      -3.853   5.179 -31.279  1.00  0.00     0.068 A 
HETATM   10  C   UNL     1      -4.244   4.203 -32.181  1.00  0.00     0.050 A 
ENDROOT
BRANCH   1  11
HETATM   11  C   UNL     1      -5.937   2.744 -33.200  1.00  0.00     0.257 C 
HETATM   12  N   UNL     1      -6.207   1.503 -32.668  1.00  0.00    -0.322 N 
HETATM   13  H   UNL     1      -6.461   1.507 -31.685  1.00  0.00     0.169 HD
HETATM   14  O   UNL     1      -6.044   3.082 -34.371  1.00  0.00    -0.267 OA
BRANCH  12  15
HETATM   15  C   UNL     1      -6.193   0.225 -33.280  1.00  0.00     0.043 A 
HETATM   16  C   UNL     1      -7.094  -0.251 -34.249  1.00  0.00    -0.032 A 
HETATM   17  C   UNL     1      -8.283   0.503 -34.776  1.00  0.00     0.050 C 
HETATM   18  C   UNL     1      -6.868  -1.523 -34.820  1.00  0.00     0.048 A 
HETATM   19  C   UNL     1      -5.750  -2.294 -34.490  1.00  0.00     0.102 A 
HETATM   20  C   UNL     1      -4.857  -1.826 -33.521  1.00  0.00     0.103 A 
HETATM   21  C   UNL     1      -5.081  -0.573 -32.936  1.00  0.00     0.069 A 
BRANCH  19  22
HETATM   22  O   UNL     1      -5.476  -3.518 -35.047  1.00  0.00    -0.353 OA
HETATM   23  C   UNL     1      -6.558  -4.441 -35.105  1.00  0.00     0.210 C 
ENDBRANCH  19  22
BRANCH  20  24
HETATM   24  O   UNL     1      -3.783  -2.635 -33.246  1.00  0.00    -0.353 OA
HETATM   25  C   UNL     1      -3.144  -2.479 -31.988  1.00  0.00     0.210 C 
ENDBRANCH  20  24
ENDBRANCH  12  15
ENDBRANCH   1  11
BRANCH   9  26
HETATM   26  C   UNL     1      -2.455   5.651 -31.119  1.00  0.00    -0.007 A 
HETATM   27  C   UNL     1      -2.180   6.837 -30.407  1.00  0.00     0.014 A 
HETATM   28  C   UNL     1      -0.874   7.300 -30.214  1.00  0.00     0.001 A 
HETATM   29  C   UNL     1       0.199   6.585 -30.732  1.00  0.00     0.000 A 
HETATM   30  C   UNL     1      -0.038   5.414 -31.447  1.00  0.00     0.001 A 
HETATM   31  C   UNL     1      -1.347   4.956 -31.640  1.00  0.00     0.014 A 
ENDBRANCH   9  26
TORSDOF 5
ENDMDL
MODEL 7
REMARK VINA RESULT:      -8.6      2.970      7.906
REMARK  5 active torsions:
REMARK  status: ('A' for Active; 'I' for Inactive)
REMARK    1  A    between atoms: C_3  and  N_4 
REMARK       I    between atoms: N_4  and  C_5 
REMARK    2  A    between atoms: C_5  and  C_6 
REMARK    3  A    between atoms: C_14  and  C_15 
REMARK    4  A    between atoms: C_24  and  O_25 
REMARK    5  A    between atoms: C_27  and  O_28 
ROOT
HETATM    1  C   UNL     1      -8.065   1.650 -31.422  1.00  0.00     0.047 A 
HETATM    2  C   UNL     1      -8.039   2.878 -30.715  1.00  0.00     0.008 A 
HETATM    3  C   UNL     1      -9.161   3.706 -30.890  1.00  0.00     0.068 A 
HETATM    4  C   UNL     1      -9.228   4.911 -30.204  1.00  0.00     0.032 A 
HETATM    5  C   UNL     1      -8.202   5.345 -29.364  1.00  0.00     0.002 A 
HETATM    6  C   UNL     1      -7.067   4.566 -29.214  1.00  0.00     0.001 A 
HETATM    7  C   UNL     1      -6.980   3.349 -29.887  1.00  0.00     0.015 A 
HETATM    8  N   UNL     1     -10.174   3.398 -31.714  1.00  0.00    -0.248 NA
HETATM    9  C   UNL     1     -10.145   2.260 -32.449  1.00  0.00     0.068 A 
HETATM   10  C   UNL     1      -9.104   1.357 -32.311  1.00  0.00     0.050 A 
ENDROOT
BRANCH   1  11
HETATM   11  C   UNL     1      -6.982   0.630 -31.310  1.00  0.00     0.257 C 
HETATM   12  N   UNL     1      -6.198   0.498 -32.434  1.00  0.00    -0.322 N 
HETATM   13  H   UNL     1      -6.211   1.296 -33.060  1.00  0.00     0.169 HD
HETATM   14  O   UNL     1      -6.826   0.071 -30.233  1.00  0.00    -0.267 OA
BRANCH  12  15
HETATM   15  C   UNL     1      -5.371  -0.577 -32.848  1.00  0.00     0.043 A 
HETATM   16  C   UNL     1      -4.144  -0.959 -32.278  1.00  0.00    -0.032 A 
HETATM   17  C   UNL     1      -3.453  -0.252 -31.145  1.00  0.00     0.050 C 
HETATM   18  C   UNL     1      -3.502  -2.120 -32.763  1.00  0.00     0.048 A 
HETATM   19  C   UNL     1      -4.076  -2.924 -33.751  1.00  0.00     0.102 A 
HETATM   20  C   UNL     1      -5.293  -2.542 -34.324  1.00  0.00     0.103 A 
HETATM   21  C   UNL     1      -5.929  -1.383 -33.863  1.00  0.00     0.069 A 
BRANCH  19  22
HETATM   22  O   UNL     1      -3.502  -4.079 -34.224  1.00  0.00    -0.353 OA
HETATM   23  C   UNL     1      -3.606  -5.223 -33.385  1.00  0.00     0.210 C 
ENDBRANCH  19  22
BRANCH  20  24
HETATM   24  O   UNL     1      -5.797  -3.378 -35.288  1.00  0.00    -0.353 OA
HETATM   25  C   UNL     1      -6.859  -4.246 -34.921  1.00  0.00     0.210 C 
ENDBRANCH  20  24
ENDBRANCH  12  15
ENDBRANCH   1  11
BRANCH   9  26
HETATM   26  C   UNL     1     -11.267   2.095 -33.408  1.00  0.00    -0.007 A 
HETATM   27  C   UNL     1     -11.583   3.124 -34.319  1.00  0.00     0.014 A 
HETATM   28  C   UNL     1     -12.615   2.996 -35.254  1.00  0.00     0.001 A 
HETATM   29  C   UNL     1     -13.365   1.827 -35.302  1.00  0.00     0.000 A 
HETATM   30  C   UNL     1     -13.085   0.794 -34.412  1.00  0.00     0.001 A 
HETATM   31  C   UNL     1     -12.052   0.928 -33.476  1.00  0.00     0.014 A 
ENDBRANCH   9  26
TORSDOF 5
ENDMDL
MODEL 8
REMARK VINA RESULT:      -8.5      3.181      7.805
REMARK  5 active torsions:
REMARK  status: ('A' for Active; 'I' for Inactive)
REMARK    1  A    between atoms: C_3  and  N_4 
REMARK       I    between atoms: N_4  and  C_5 
REMARK    2  A    between atoms: C_5  and  C_6 
REMARK    3  A    between atoms: C_14  and  C_15 
REMARK    4  A    between atoms: C_24  and  O_25 
REMARK    5  A    between atoms: C_27  and  O_28 
ROOT
HETATM    1  C   UNL     1      -6.944   1.473 -32.681  1.00  0.00     0.047 A 
HETATM    2  C   UNL     1      -6.435   0.269 -33.229  1.00  0.00     0.008 A 
HETATM    3  C   UNL     1      -7.306  -0.426 -34.087  1.00  0.00     0.068 A 
HETATM    4  C   UNL     1      -6.870  -1.596 -34.693  1.00  0.00     0.032 A 
HETATM    5  C   UNL     1      -5.601  -2.126 -34.456  1.00  0.00     0.002 A 
HETATM    6  C   UNL     1      -4.745  -1.483 -33.578  1.00  0.00     0.001 A 
HETATM    7  C   UNL     1      -5.159  -0.302 -32.964  1.00  0.00     0.015 A 
HETATM    8  N   UNL     1      -8.561  -0.022 -34.337  1.00  0.00    -0.248 NA
HETATM    9  C   UNL     1      -9.063   1.086 -33.739  1.00  0.00     0.068 A 
HETATM   10  C   UNL     1      -8.267   1.863 -32.914  1.00  0.00     0.050 A 
ENDROOT
BRANCH   1  11
HETATM   11  C   UNL     1      -6.138   2.360 -31.794  1.00  0.00     0.257 C 
HETATM   12  N   UNL     1      -5.761   3.556 -32.365  1.00  0.00    -0.322 N 
HETATM   13  H   UNL     1      -6.325   3.847 -33.156  1.00  0.00     0.169 HD
HETATM   14  O   UNL     1      -5.953   2.006 -30.638  1.00  0.00    -0.267 OA
BRANCH  12  15
HETATM   15  C   UNL     1      -4.714   4.444 -32.014  1.00  0.00     0.043 A 
HETATM   16  C   UNL     1      -4.674   5.293 -30.894  1.00  0.00    -0.032 A 
HETATM   17  C   UNL     1      -5.776   5.452 -29.883  1.00  0.00     0.050 C 
HETATM   18  C   UNL     1      -3.502   6.043 -30.651  1.00  0.00     0.048 A 
HETATM   19  C   UNL     1      -2.367   5.923 -31.458  1.00  0.00     0.102 A 
HETATM   20  C   UNL     1      -2.407   5.085 -32.576  1.00  0.00     0.103 A 
HETATM   21  C   UNL     1      -3.571   4.350 -32.836  1.00  0.00     0.069 A 
BRANCH  19  22
HETATM   22  O   UNL     1      -1.197   6.607 -31.235  1.00  0.00    -0.353 OA
HETATM   23  C   UNL     1      -0.464   6.237 -30.073  1.00  0.00     0.210 C 
ENDBRANCH  19  22
BRANCH  20  24
HETATM   24  O   UNL     1      -1.258   5.017 -33.324  1.00  0.00    -0.353 OA
HETATM   25  C   UNL     1      -1.333   5.403 -34.688  1.00  0.00     0.210 C 
ENDBRANCH  20  24
ENDBRANCH  12  15
ENDBRANCH   1  11
BRANCH   9  26
HETATM   26  C   UNL     1     -10.498   1.357 -34.006  1.00  0.00    -0.007 A 
HETATM   27  C   UNL     1     -11.490   0.471 -33.536  1.00  0.00     0.014 A 
HETATM   28  C   UNL     1     -12.852   0.706 -33.746  1.00  0.00     0.001 A 
HETATM   29  C   UNL     1     -13.262   1.839 -34.438  1.00  0.00     0.000 A 
HETATM   30  C   UNL     1     -12.309   2.730 -34.922  1.00  0.00     0.001 A 
HETATM   31  C   UNL     1     -10.945   2.490 -34.711  1.00  0.00     0.014 A 
ENDBRANCH   9  26
TORSDOF 5
ENDMDL
MODEL 9
REMARK VINA RESULT:      -8.5      0.949      1.288
REMARK  5 active torsions:
REMARK  status: ('A' for Active; 'I' for Inactive)
REMARK    1  A    between atoms: C_3  and  N_4 
REMARK       I    between atoms: N_4  and  C_5 
REMARK    2  A    between atoms: C_5  and  C_6 
REMARK    3  A    between atoms: C_14  and  C_15 
REMARK    4  A    between atoms: C_24  and  O_25 
REMARK    5  A    between atoms: C_27  and  O_28 
ROOT
HETATM    1  C   UNL     1      -7.234   0.875 -32.632  1.00  0.00     0.047 A 
HETATM    2  C   UNL     1      -6.067   1.610 -32.307  1.00  0.00     0.008 A 
HETATM    3  C   UNL     1      -4.848   1.005 -32.657  1.00  0.00     0.068 A 
HETATM    4  C   UNL     1      -3.660   1.677 -32.405  1.00  0.00     0.032 A 
HETATM    5  C   UNL     1      -3.631   2.927 -31.786  1.00  0.00     0.002 A 
HETATM    6  C   UNL     1      -4.818   3.520 -31.391  1.00  0.00     0.001 A 
HETATM    7  C   UNL     1      -6.024   2.867 -31.641  1.00  0.00     0.015 A 
HETATM    8  N   UNL     1      -4.771  -0.216 -33.209  1.00  0.00    -0.248 NA
HETATM    9  C   UNL     1      -5.891  -0.944 -33.436  1.00  0.00     0.068 A 
HETATM   10  C   UNL     1      -7.143  -0.414 -33.168  1.00  0.00     0.050 A 
ENDROOT
BRANCH   1  11
HETATM   11  C   UNL     1      -8.610   1.391 -32.379  1.00  0.00     0.257 C 
HETATM   12  N   UNL     1      -9.158   2.104 -33.422  1.00  0.00    -0.322 N 
HETATM   13  H   UNL     1      -8.739   1.924 -34.328  1.00  0.00     0.169 HD
HETATM   14  O   UNL     1      -9.161   1.077 -31.332  1.00  0.00    -0.267 OA
BRANCH  12  15
HETATM   15  C   UNL     1     -10.218   3.045 -33.427  1.00  0.00     0.043 A 
HETATM   16  C   UNL     1     -10.098   4.444 -33.479  1.00  0.00    -0.032 A 
HETATM   17  C   UNL     1      -8.802   5.207 -33.484  1.00  0.00     0.050 C 
HETATM   18  C   UNL     1     -11.272   5.225 -33.572  1.00  0.00     0.048 A 
HETATM   19  C   UNL     1     -12.539   4.645 -33.668  1.00  0.00     0.102 A 
HETATM   20  C   UNL     1     -12.662   3.253 -33.609  1.00  0.00     0.103 A 
HETATM   21  C   UNL     1     -11.506   2.470 -33.499  1.00  0.00     0.069 A 
BRANCH  19  22
HETATM   22  O   UNL     1     -13.701   5.366 -33.796  1.00  0.00    -0.353 OA
HETATM   23  C   UNL     1     -13.637   6.521 -34.624  1.00  0.00     0.210 C 
ENDBRANCH  19  22
BRANCH  20  24
HETATM   24  O   UNL     1     -13.936   2.752 -33.708  1.00  0.00    -0.353 OA
HETATM   25  C   UNL     1     -14.475   2.086 -32.576  1.00  0.00     0.210 C 
ENDBRANCH  20  24
ENDBRANCH  12  15
ENDBRANCH   1  11
BRANCH   9  26
HETATM   26  C   UNL     1      -5.663  -2.322 -33.939  1.00  0.00    -0.007 A 
HETATM   27  C   UNL     1      -6.697  -3.023 -34.593  1.00  0.00     0.014 A 
HETATM   28  C   UNL     1      -6.513  -4.312 -35.102  1.00  0.00     0.001 A 
HETATM   29  C   UNL     1      -5.280  -4.940 -34.970  1.00  0.00     0.000 A 
HETATM   30  C   UNL     1      -4.239  -4.279 -34.324  1.00  0.00     0.001 A 
HETATM   31  C   UNL     1      -4.430  -2.989 -33.813  1.00  0.00     0.014 A 
ENDBRANCH   9  26
TORSDOF 5
ENDMDL
MODEL 10
REMARK VINA RESULT:      -8.3      2.692      5.870
REMARK  5 active torsions:
REMARK  status: ('A' for Active; 'I' for Inactive)
REMARK    1  A    between atoms: C_3  and  N_4 
REMARK       I    between atoms: N_4  and  C_5 
REMARK    2  A    between atoms: C_5  and  C_6 
REMARK    3  A    between atoms: C_14  and  C_15 
REMARK    4  A    between atoms: C_24  and  O_25 
REMARK    5  A    between atoms: C_27  and  O_28 
ROOT
HETATM    1  C   UNL     1      -5.138   3.010 -32.701  1.00  0.00     0.047 A 
HETATM    2  C   UNL     1      -4.743   1.707 -32.307  1.00  0.00     0.008 A 
HETATM    3  C   UNL     1      -3.479   1.610 -31.700  1.00  0.00     0.068 A 
HETATM    4  C   UNL     1      -3.034   0.374 -31.253  1.00  0.00     0.032 A 
HETATM    5  C   UNL     1      -3.789  -0.789 -31.412  1.00  0.00     0.002 A 
HETATM    6  C   UNL     1      -5.017  -0.723 -32.049  1.00  0.00     0.001 A 
HETATM    7  C   UNL     1      -5.488   0.509 -32.500  1.00  0.00     0.015 A 
HETATM    8  N   UNL     1      -2.660   2.662 -31.548  1.00  0.00    -0.248 NA
HETATM    9  C   UNL     1      -3.015   3.887 -32.007  1.00  0.00     0.068 A 
HETATM   10  C   UNL     1      -4.260   4.092 -32.578  1.00  0.00     0.050 A 
ENDROOT
BRANCH   1  11
HETATM   11  C   UNL     1      -6.467   3.301 -33.312  1.00  0.00     0.257 C 
HETATM   12  N   UNL     1      -7.546   2.856 -32.581  1.00  0.00    -0.322 N 
HETATM   13  H   UNL     1      -7.357   2.694 -31.598  1.00  0.00     0.169 HD
HETATM   14  O   UNL     1      -6.496   3.967 -34.338  1.00  0.00    -0.267 OA
BRANCH  12  15
HETATM   15  C   UNL     1      -8.878   2.596 -32.988  1.00  0.00     0.043 A 
HETATM   16  C   UNL     1      -9.307   1.572 -33.852  1.00  0.00    -0.032 A 
HETATM   17  C   UNL     1      -8.407   0.591 -34.551  1.00  0.00     0.050 C 
HETATM   18  C   UNL     1     -10.692   1.404 -34.071  1.00  0.00     0.048 A 
HETATM   19  C   UNL     1     -11.645   2.187 -33.415  1.00  0.00     0.102 A 
HETATM   20  C   UNL     1     -11.221   3.210 -32.561  1.00  0.00     0.103 A 
HETATM   21  C   UNL     1      -9.849   3.397 -32.350  1.00  0.00     0.069 A 
BRANCH  19  22
HETATM   22  O   UNL     1     -13.000   2.032 -33.573  1.00  0.00    -0.353 OA
HETATM   23  C   UNL     1     -13.455   1.780 -34.898  1.00  0.00     0.210 C 
ENDBRANCH  19  22
BRANCH  20  24
HETATM   24  O   UNL     1     -12.211   3.939 -31.952  1.00  0.00    -0.353 OA
HETATM   25  C   UNL     1     -12.280   5.328 -32.238  1.00  0.00     0.210 C 
ENDBRANCH  20  24
ENDBRANCH  12  15
ENDBRANCH   1  11
BRANCH   9  26
HETATM   26  C   UNL     1      -1.973   4.938 -31.884  1.00  0.00    -0.007 A 
HETATM   27  C   UNL     1      -0.947   4.815 -30.925  1.00  0.00     0.014 A 
HETATM   28  C   UNL     1       0.066   5.771 -30.796  1.00  0.00     0.001 A 
HETATM   29  C   UNL     1       0.078   6.884 -31.628  1.00  0.00     0.000 A 
HETATM   30  C   UNL     1      -0.924   7.040 -32.581  1.00  0.00     0.001 A 
HETATM   31  C   UNL     1      -1.938   6.081 -32.705  1.00  0.00     0.014 A 
ENDBRANCH   9  26
TORSDOF 5
ENDMDL
