MODEL 1
REMARK VINA RESULT:     -10.1      0.000      0.000
REMARK  6 active torsions:
REMARK  status: ('A' for Active; 'I' for Inactive)
REMARK    1  A    between atoms: C_5  and  N_6 
REMARK    2  A    between atoms: C_8  and  C_9 
REMARK    3  A    between atoms: C_16  and  C_17 
REMARK    4  A    between atoms: C_17  and  N_18 
REMARK    5  A    between atoms: C_22  and  N_23 
REMARK    6  A    between atoms: C_26  and  O_27 
ROOT
HETATM    1  N   UNL     1      -9.641   1.085 -34.073  1.00  0.00    -0.244 N 
HETATM    2  N   UNL     1      -8.889  -0.036 -34.118  1.00  0.00    -0.167 NA
HETATM    3  C   UNL     1      -7.618   0.352 -34.002  1.00  0.00     0.097 A 
HETATM    4  C   UNL     1      -7.516   1.770 -34.023  1.00  0.00     0.016 A 
HETATM    5  C   UNL     1      -8.830   2.202 -34.016  1.00  0.00     0.130 A 
ENDROOT
BRANCH   4   6
HETATM    6  C   UNL     1      -6.297   2.610 -34.036  1.00  0.00     0.277 C 
BRANCH   6   7
HETATM    7  N   UNL     1      -5.964   3.284 -32.686  1.00  0.00    -0.067 N 
HETATM    8  H   UNL     1      -6.731   2.973 -32.065  1.00  0.00     0.280 HD
HETATM    9  C   UNL     1      -4.674   2.775 -32.100  1.00  0.00     0.237 C 
HETATM   10  C   UNL     1      -4.348   3.501 -30.813  1.00  0.00     0.061 C 
HETATM   11  C   UNL     1      -4.275   5.020 -30.961  1.00  0.00     0.191 C 
HETATM   12  C   UNL     1      -5.567   5.538 -31.600  1.00  0.00     0.061 C 
HETATM   13  C   UNL     1      -6.048   4.780 -32.837  1.00  0.00     0.237 C 
BRANCH  11  14
HETATM   14  N   UNL     1      -2.977   5.566 -31.599  1.00  0.00    -0.064 N 
HETATM   15  H   UNL     1      -3.049   5.272 -32.588  1.00  0.00     0.280 HD
HETATM   16  C   UNL     1      -2.955   7.097 -31.690  1.00  0.00     0.266 C 
HETATM   17  C   UNL     1      -1.790   7.632 -32.536  1.00  0.00     0.144 C 
HETATM   18  C   UNL     1      -0.462   7.051 -32.071  1.00  0.00     0.035 C 
HETATM   19  C   UNL     1      -0.516   5.534 -32.046  1.00  0.00     0.030 C 
HETATM   20  C   UNL     1      -1.638   5.020 -31.153  1.00  0.00     0.235 C 
BRANCH  17  21
HETATM   21  O   UNL     1      -1.757   9.042 -32.380  1.00  0.00    -0.394 OA
HETATM   22  H   UNL     1      -1.392   9.449 -33.190  1.00  0.00     0.210 HD
ENDBRANCH  17  21
ENDBRANCH  11  14
ENDBRANCH   6   7
ENDBRANCH   4   6
BRANCH   3  23
HETATM   23  C   UNL     1      -6.545  -0.632 -33.921  1.00  0.00    -0.005 A 
HETATM   24  C   UNL     1      -6.535  -1.735 -34.787  1.00  0.00     0.017 A 
HETATM   25  C   UNL     1      -5.503  -2.673 -34.717  1.00  0.00     0.043 A 
HETATM   26  C   UNL     1      -4.490  -2.510 -33.779  1.00  0.00     0.116 A 
HETATM   27  F   UNL     1      -3.497  -3.404 -33.717  1.00  0.00    -0.206 F 
HETATM   28  C   UNL     1      -4.497  -1.436 -32.897  1.00  0.00     0.043 A 
HETATM   29  C   UNL     1      -5.529  -0.497 -32.961  1.00  0.00     0.017 A 
ENDBRANCH   3  23
BRANCH   1  30
HETATM   30  C   UNL     1     -11.059   1.035 -34.142  1.00  0.00     0.058 A 
HETATM   31  C   UNL     1     -11.746   0.020 -33.465  1.00  0.00     0.032 A 
HETATM   32  C   UNL     1     -13.141  -0.054 -33.528  1.00  0.00     0.009 A 
HETATM   33  C   UNL     1     -13.868   0.877 -34.275  1.00  0.00    -0.062 A 
HETATM   34  C   UNL     1     -15.368   0.818 -34.335  1.00  0.00     0.048 C 
HETATM   35  C   UNL     1     -13.182   1.897 -34.944  1.00  0.00     0.009 A 
HETATM   36  C   UNL     1     -11.786   1.980 -34.882  1.00  0.00     0.032 A 
ENDBRANCH   1  30
TORSDOF 6
ENDMDL
MODEL 2
REMARK VINA RESULT:     -10.0      3.351      9.080
REMARK  6 active torsions:
REMARK  status: ('A' for Active; 'I' for Inactive)
REMARK    1  A    between atoms: C_5  and  N_6 
REMARK    2  A    between atoms: C_8  and  C_9 
REMARK    3  A    between atoms: C_16  and  C_17 
REMARK    4  A    between atoms: C_17  and  N_18 
REMARK    5  A    between atoms: C_22  and  N_23 
REMARK    6  A    between atoms: C_26  and  O_27 
ROOT
HETATM    1  N   UNL     1      -4.368   3.325 -32.118  1.00  0.00    -0.244 N 
HETATM    2  N   UNL     1      -4.209   2.137 -32.741  1.00  0.00    -0.167 NA
HETATM    3  C   UNL     1      -5.397   1.531 -32.714  1.00  0.00     0.097 A 
HETATM    4  C   UNL     1      -6.328   2.270 -31.933  1.00  0.00     0.016 A 
HETATM    5  C   UNL     1      -5.650   3.434 -31.615  1.00  0.00     0.130 A 
ENDROOT
BRANCH   4   6
HETATM    6  C   UNL     1      -7.711   1.904 -31.550  1.00  0.00     0.277 C 
BRANCH   6   7
HETATM    7  N   UNL     1      -8.801   2.867 -32.074  1.00  0.00    -0.067 N 
HETATM    8  H   UNL     1      -8.304   3.771 -32.157  1.00  0.00     0.280 HD
HETATM    9  C   UNL     1      -9.281   2.487 -33.449  1.00  0.00     0.237 C 
HETATM   10  C   UNL     1     -10.390   3.411 -33.902  1.00  0.00     0.061 C 
HETATM   11  C   UNL     1     -11.579   3.465 -32.945  1.00  0.00     0.191 C 
HETATM   12  C   UNL     1     -11.090   3.806 -31.534  1.00  0.00     0.061 C 
HETATM   13  C   UNL     1      -9.884   3.009 -31.037  1.00  0.00     0.237 C 
BRANCH  11  14
HETATM   14  N   UNL     1     -12.550   2.264 -33.017  1.00  0.00    -0.064 N 
HETATM   15  H   UNL     1     -12.473   1.832 -32.080  1.00  0.00     0.280 HD
HETATM   16  C   UNL     1     -14.022   2.689 -33.087  1.00  0.00     0.266 C 
HETATM   17  C   UNL     1     -14.996   1.514 -32.913  1.00  0.00     0.144 C 
HETATM   18  C   UNL     1     -14.664   0.380 -33.874  1.00  0.00     0.035 C 
HETATM   19  C   UNL     1     -13.212  -0.040 -33.731  1.00  0.00     0.030 C 
HETATM   20  C   UNL     1     -12.258   1.124 -33.969  1.00  0.00     0.235 C 
BRANCH  17  21
HETATM   21  O   UNL     1     -16.302   1.991 -33.196  1.00  0.00    -0.394 OA
HETATM   22  H   UNL     1     -16.384   2.158 -34.156  1.00  0.00     0.210 HD
ENDBRANCH  17  21
ENDBRANCH  11  14
ENDBRANCH   6   7
ENDBRANCH   4   6
BRANCH   3  23
HETATM   23  C   UNL     1      -5.594   0.254 -33.390  1.00  0.00    -0.005 A 
HETATM   24  C   UNL     1      -4.735  -0.823 -33.125  1.00  0.00     0.017 A 
HETATM   25  C   UNL     1      -4.929  -2.049 -33.764  1.00  0.00     0.043 A 
HETATM   26  C   UNL     1      -5.973  -2.193 -34.670  1.00  0.00     0.116 A 
HETATM   27  F   UNL     1      -6.164  -3.370 -35.277  1.00  0.00    -0.206 F 
HETATM   28  C   UNL     1      -6.819  -1.130 -34.963  1.00  0.00     0.043 A 
HETATM   29  C   UNL     1      -6.627   0.100 -34.328  1.00  0.00     0.017 A 
ENDBRANCH   3  23
BRANCH   1  30
HETATM   30  C   UNL     1      -3.297   4.250 -31.990  1.00  0.00     0.058 A 
HETATM   31  C   UNL     1      -2.262   4.239 -32.933  1.00  0.00     0.032 A 
HETATM   32  C   UNL     1      -1.192   5.133 -32.819  1.00  0.00     0.009 A 
HETATM   33  C   UNL     1      -1.137   6.042 -31.759  1.00  0.00    -0.062 A 
HETATM   34  C   UNL     1      -0.002   7.019 -31.638  1.00  0.00     0.048 C 
HETATM   35  C   UNL     1      -2.176   6.059 -30.822  1.00  0.00     0.009 A 
HETATM   36  C   UNL     1      -3.252   5.170 -30.932  1.00  0.00     0.032 A 
ENDBRANCH   1  30
TORSDOF 6
ENDMDL
MODEL 3
REMARK VINA RESULT:     -10.0      1.832      2.383
REMARK  6 active torsions:
REMARK  status: ('A' for Active; 'I' for Inactive)
REMARK    1  A    between atoms: C_5  and  N_6 
REMARK    2  A    between atoms: C_8  and  C_9 
REMARK    3  A    between atoms: C_16  and  C_17 
REMARK    4  A    between atoms: C_17  and  N_18 
REMARK    5  A    between atoms: C_22  and  N_23 
REMARK    6  A    between atoms: C_26  and  O_27 
ROOT
HETATM    1  N   UNL     1     -11.453   2.582 -33.140  1.00  0.00    -0.244 N 
HETATM    2  N   UNL     1     -10.758   1.445 -33.359  1.00  0.00    -0.167 NA
HETATM    3  C   UNL     1      -9.484   1.804 -33.529  1.00  0.00     0.097 A 
HETATM    4  C   UNL     1      -9.355   3.219 -33.564  1.00  0.00     0.016 A 
HETATM    5  C   UNL     1     -10.623   3.680 -33.259  1.00  0.00     0.130 A 
ENDROOT
BRANCH   4   6
HETATM    6  C   UNL     1      -8.149   4.031 -33.845  1.00  0.00     0.277 C 
BRANCH   6   7
HETATM    7  N   UNL     1      -6.996   3.846 -32.832  1.00  0.00    -0.067 N 
HETATM    8  H   UNL     1      -7.413   3.244 -32.100  1.00  0.00     0.280 HD
HETATM    9  C   UNL     1      -5.833   3.097 -33.426  1.00  0.00     0.237 C 
HETATM   10  C   UNL     1      -4.701   2.990 -32.428  1.00  0.00     0.061 C 
HETATM   11  C   UNL     1      -4.218   4.337 -31.893  1.00  0.00     0.191 C 
HETATM   12  C   UNL     1      -5.407   5.123 -31.329  1.00  0.00     0.061 C 
HETATM   13  C   UNL     1      -6.650   5.176 -32.217  1.00  0.00     0.237 C 
BRANCH  11  14
HETATM   14  N   UNL     1      -3.305   5.145 -32.844  1.00  0.00    -0.064 N 
HETATM   15  H   UNL     1      -3.933   5.399 -33.627  1.00  0.00     0.280 HD
HETATM   16  C   UNL     1      -2.897   6.507 -32.267  1.00  0.00     0.266 C 
HETATM   17  C   UNL     1      -2.200   7.410 -33.295  1.00  0.00     0.144 C 
HETATM   18  C   UNL     1      -1.041   6.684 -33.966  1.00  0.00     0.035 C 
HETATM   19  C   UNL     1      -1.505   5.368 -34.566  1.00  0.00     0.030 C 
HETATM   20  C   UNL     1      -2.138   4.459 -33.520  1.00  0.00     0.235 C 
BRANCH  17  21
HETATM   21  O   UNL     1      -1.695   8.541 -32.601  1.00  0.00    -0.394 OA
HETATM   22  H   UNL     1      -1.715   9.319 -33.192  1.00  0.00     0.210 HD
ENDBRANCH  17  21
ENDBRANCH  11  14
ENDBRANCH   6   7
ENDBRANCH   4   6
BRANCH   3  23
HETATM   23  C   UNL     1      -8.445   0.794 -33.698  1.00  0.00    -0.005 A 
HETATM   24  C   UNL     1      -8.084   0.363 -34.982  1.00  0.00     0.017 A 
HETATM   25  C   UNL     1      -7.083  -0.596 -35.145  1.00  0.00     0.043 A 
HETATM   26  C   UNL     1      -6.452  -1.126 -34.025  1.00  0.00     0.116 A 
HETATM   27  F   UNL     1      -5.486  -2.039 -34.181  1.00  0.00    -0.206 F 
HETATM   28  C   UNL     1      -6.813  -0.728 -32.744  1.00  0.00     0.043 A 
HETATM   29  C   UNL     1      -7.817   0.229 -32.577  1.00  0.00     0.017 A 
ENDBRANCH   3  23
BRANCH   1  30
HETATM   30  C   UNL     1     -12.851   2.566 -32.889  1.00  0.00     0.058 A 
HETATM   31  C   UNL     1     -13.429   3.606 -32.150  1.00  0.00     0.032 A 
HETATM   32  C   UNL     1     -14.802   3.604 -31.881  1.00  0.00     0.009 A 
HETATM   33  C   UNL     1     -15.613   2.561 -32.337  1.00  0.00    -0.062 A 
HETATM   34  C   UNL     1     -17.091   2.558 -32.071  1.00  0.00     0.048 C 
HETATM   35  C   UNL     1     -15.036   1.528 -33.084  1.00  0.00     0.009 A 
HETATM   36  C   UNL     1     -13.664   1.524 -33.360  1.00  0.00     0.032 A 
ENDBRANCH   1  30
TORSDOF 6
ENDMDL
MODEL 4
REMARK VINA RESULT:      -9.8      3.946      8.521
REMARK  6 active torsions:
REMARK  status: ('A' for Active; 'I' for Inactive)
REMARK    1  A    between atoms: C_5  and  N_6 
REMARK    2  A    between atoms: C_8  and  C_9 
REMARK    3  A    between atoms: C_16  and  C_17 
REMARK    4  A    between atoms: C_17  and  N_18 
REMARK    5  A    between atoms: C_22  and  N_23 
REMARK    6  A    between atoms: C_26  and  O_27 
ROOT
HETATM    1  N   UNL     1      -6.233   0.153 -32.825  1.00  0.00    -0.244 N 
HETATM    2  N   UNL     1      -5.499   1.242 -33.143  1.00  0.00    -0.167 NA
HETATM    3  C   UNL     1      -5.916   2.229 -32.348  1.00  0.00     0.097 A 
HETATM    4  C   UNL     1      -7.045   1.824 -31.585  1.00  0.00     0.016 A 
HETATM    5  C   UNL     1      -7.185   0.479 -31.877  1.00  0.00     0.130 A 
ENDROOT
BRANCH   4   6
HETATM    6  C   UNL     1      -7.884   2.635 -30.673  1.00  0.00     0.277 C 
BRANCH   6   7
HETATM    7  N   UNL     1      -8.962   3.490 -31.378  1.00  0.00    -0.067 N 
HETATM    8  H   UNL     1      -8.533   4.431 -31.422  1.00  0.00     0.280 HD
HETATM    9  C   UNL     1      -9.208   3.039 -32.793  1.00  0.00     0.237 C 
HETATM   10  C   UNL     1     -10.311   3.855 -33.430  1.00  0.00     0.061 C 
HETATM   11  C   UNL     1     -11.626   3.831 -32.653  1.00  0.00     0.191 C 
HETATM   12  C   UNL     1     -11.373   4.245 -31.199  1.00  0.00     0.061 C 
HETATM   13  C   UNL     1     -10.190   3.565 -30.510  1.00  0.00     0.237 C 
BRANCH  11  14
HETATM   14  N   UNL     1     -12.477   2.551 -32.819  1.00  0.00    -0.064 N 
HETATM   15  H   UNL     1     -12.404   2.089 -31.896  1.00  0.00     0.280 HD
HETATM   16  C   UNL     1     -13.977   2.843 -32.946  1.00  0.00     0.266 C 
HETATM   17  C   UNL     1     -14.845   1.578 -32.866  1.00  0.00     0.144 C 
HETATM   18  C   UNL     1     -14.365   0.521 -33.851  1.00  0.00     0.035 C 
HETATM   19  C   UNL     1     -12.888   0.229 -33.651  1.00  0.00     0.030 C 
HETATM   20  C   UNL     1     -12.037   1.484 -33.796  1.00  0.00     0.235 C 
BRANCH  17  21
HETATM   21  O   UNL     1     -16.175   1.947 -33.196  1.00  0.00    -0.394 OA
HETATM   22  H   UNL     1     -16.334   2.870 -32.916  1.00  0.00     0.210 HD
ENDBRANCH  17  21
ENDBRANCH  11  14
ENDBRANCH   6   7
ENDBRANCH   4   6
BRANCH   3  23
HETATM   23  C   UNL     1      -5.258   3.530 -32.372  1.00  0.00    -0.005 A 
HETATM   24  C   UNL     1      -5.584   4.465 -33.365  1.00  0.00     0.017 A 
HETATM   25  C   UNL     1      -4.961   5.715 -33.383  1.00  0.00     0.043 A 
HETATM   26  C   UNL     1      -4.011   6.022 -32.417  1.00  0.00     0.116 A 
HETATM   27  F   UNL     1      -3.420   7.223 -32.430  1.00  0.00    -0.206 F 
HETATM   28  C   UNL     1      -3.657   5.099 -31.440  1.00  0.00     0.043 A 
HETATM   29  C   UNL     1      -4.276   3.846 -31.420  1.00  0.00     0.017 A 
ENDBRANCH   3  23
BRANCH   1  30
HETATM   30  C   UNL     1      -6.030  -1.098 -33.466  1.00  0.00     0.058 A 
HETATM   31  C   UNL     1      -7.126  -1.774 -34.017  1.00  0.00     0.032 A 
HETATM   32  C   UNL     1      -6.951  -3.012 -34.643  1.00  0.00     0.009 A 
HETATM   33  C   UNL     1      -5.683  -3.596 -34.719  1.00  0.00    -0.062 A 
HETATM   34  C   UNL     1      -5.481  -4.917 -35.405  1.00  0.00     0.048 C 
HETATM   35  C   UNL     1      -4.588  -2.916 -34.177  1.00  0.00     0.009 A 
HETATM   36  C   UNL     1      -4.754  -1.674 -33.552  1.00  0.00     0.032 A 
ENDBRANCH   1  30
TORSDOF 6
ENDMDL
MODEL 5
REMARK VINA RESULT:      -9.7      3.501      7.495
REMARK  6 active torsions:
REMARK  status: ('A' for Active; 'I' for Inactive)
REMARK    1  A    between atoms: C_5  and  N_6 
REMARK    2  A    between atoms: C_8  and  C_9 
REMARK    3  A    between atoms: C_16  and  C_17 
REMARK    4  A    between atoms: C_17  and  N_18 
REMARK    5  A    between atoms: C_22  and  N_23 
REMARK    6  A    between atoms: C_26  and  O_27 
ROOT
HETATM    1  N   UNL     1      -5.283   0.543 -32.609  1.00  0.00    -0.244 N 
HETATM    2  N   UNL     1      -4.385   1.427 -33.095  1.00  0.00    -0.167 NA
HETATM    3  C   UNL     1      -4.343   2.442 -32.230  1.00  0.00     0.097 A 
HETATM    4  C   UNL     1      -5.337   2.294 -31.224  1.00  0.00     0.016 A 
HETATM    5  C   UNL     1      -5.879   1.045 -31.468  1.00  0.00     0.130 A 
ENDROOT
BRANCH   4   6
HETATM    6  C   UNL     1      -5.711   3.239 -30.146  1.00  0.00     0.277 C 
BRANCH   6   7
HETATM    7  N   UNL     1      -6.928   4.134 -30.469  1.00  0.00    -0.067 N 
HETATM    8  H   UNL     1      -6.768   4.977 -29.890  1.00  0.00     0.280 HD
HETATM    9  C   UNL     1      -6.946   4.572 -31.909  1.00  0.00     0.237 C 
HETATM   10  C   UNL     1      -8.182   5.393 -32.204  1.00  0.00     0.061 C 
HETATM   11  C   UNL     1      -9.492   4.678 -31.873  1.00  0.00     0.191 C 
HETATM   12  C   UNL     1      -9.460   4.189 -30.422  1.00  0.00     0.061 C 
HETATM   13  C   UNL     1      -8.188   3.459 -29.993  1.00  0.00     0.237 C 
BRANCH  11  14
HETATM   14  N   UNL     1      -9.950   3.616 -32.900  1.00  0.00    -0.064 N 
HETATM   15  H   UNL     1      -9.159   3.563 -33.565  1.00  0.00     0.280 HD
HETATM   16  C   UNL     1     -10.007   2.201 -32.311  1.00  0.00     0.266 C 
HETATM   17  C   UNL     1     -10.222   1.115 -33.375  1.00  0.00     0.144 C 
HETATM   18  C   UNL     1     -11.425   1.437 -34.252  1.00  0.00     0.035 C 
HETATM   19  C   UNL     1     -11.298   2.826 -34.853  1.00  0.00     0.030 C 
HETATM   20  C   UNL     1     -11.148   3.897 -33.780  1.00  0.00     0.235 C 
BRANCH  17  21
HETATM   21  O   UNL     1     -10.459  -0.110 -32.698  1.00  0.00    -0.394 OA
HETATM   22  H   UNL     1     -10.477   0.051 -31.735  1.00  0.00     0.210 HD
ENDBRANCH  17  21
ENDBRANCH  11  14
ENDBRANCH   6   7
ENDBRANCH   4   6
BRANCH   3  23
HETATM   23  C   UNL     1      -3.396   3.536 -32.414  1.00  0.00    -0.005 A 
HETATM   24  C   UNL     1      -3.449   4.326 -33.572  1.00  0.00     0.017 A 
HETATM   25  C   UNL     1      -2.549   5.379 -33.744  1.00  0.00     0.043 A 
HETATM   26  C   UNL     1      -1.595   5.634 -32.765  1.00  0.00     0.116 A 
HETATM   27  F   UNL     1      -0.737   6.648 -32.927  1.00  0.00    -0.206 F 
HETATM   28  C   UNL     1      -1.513   4.846 -31.623  1.00  0.00     0.043 A 
HETATM   29  C   UNL     1      -2.409   3.790 -31.448  1.00  0.00     0.017 A 
ENDBRANCH   3  23
BRANCH   1  30
HETATM   30  C   UNL     1      -5.559  -0.682 -33.273  1.00  0.00     0.058 A 
HETATM   31  C   UNL     1      -4.501  -1.537 -33.607  1.00  0.00     0.032 A 
HETATM   32  C   UNL     1      -4.749  -2.743 -34.271  1.00  0.00     0.009 A 
HETATM   33  C   UNL     1      -6.053  -3.107 -34.619  1.00  0.00    -0.062 A 
HETATM   34  C   UNL     1      -6.332  -4.408 -35.315  1.00  0.00     0.048 C 
HETATM   35  C   UNL     1      -7.110  -2.257 -34.276  1.00  0.00     0.009 A 
HETATM   36  C   UNL     1      -6.870  -1.050 -33.608  1.00  0.00     0.032 A 
ENDBRANCH   1  30
TORSDOF 6
ENDMDL
MODEL 6
REMARK VINA RESULT:      -9.6      2.850      8.473
REMARK  6 active torsions:
REMARK  status: ('A' for Active; 'I' for Inactive)
REMARK    1  A    between atoms: C_5  and  N_6 
REMARK    2  A    between atoms: C_8  and  C_9 
REMARK    3  A    between atoms: C_16  and  C_17 
REMARK    4  A    between atoms: C_17  and  N_18 
REMARK    5  A    between atoms: C_22  and  N_23 
REMARK    6  A    between atoms: C_26  and  O_27 
ROOT
HETATM    1  N   UNL     1      -4.312   2.942 -32.322  1.00  0.00    -0.244 N 
HETATM    2  N   UNL     1      -4.076   1.751 -32.912  1.00  0.00    -0.167 NA
HETATM    3  C   UNL     1      -5.211   1.053 -32.830  1.00  0.00     0.097 A 
HETATM    4  C   UNL     1      -6.175   1.742 -32.044  1.00  0.00     0.016 A 
HETATM    5  C   UNL     1      -5.584   2.965 -31.782  1.00  0.00     0.130 A 
ENDROOT
BRANCH   4   6
HETATM    6  C   UNL     1      -7.512   1.280 -31.606  1.00  0.00     0.277 C 
BRANCH   6   7
HETATM    7  N   UNL     1      -8.597   1.313 -32.707  1.00  0.00    -0.067 N 
HETATM    8  H   UNL     1      -8.121   0.899 -33.527  1.00  0.00     0.280 HD
HETATM    9  C   UNL     1      -9.771   0.432 -32.374  1.00  0.00     0.237 C 
HETATM   10  C   UNL     1     -10.839   0.537 -33.441  1.00  0.00     0.061 C 
HETATM   11  C   UNL     1     -11.327   1.964 -33.687  1.00  0.00     0.191 C 
HETATM   12  C   UNL     1     -10.131   2.875 -33.982  1.00  0.00     0.061 C 
HETATM   13  C   UNL     1      -8.944   2.743 -33.027  1.00  0.00     0.237 C 
BRANCH  11  14
HETATM   14  N   UNL     1     -12.318   2.520 -32.639  1.00  0.00    -0.064 N 
HETATM   15  H   UNL     1     -12.322   1.797 -31.899  1.00  0.00     0.280 HD
HETATM   16  C   UNL     1     -11.784   3.761 -31.912  1.00  0.00     0.266 C 
HETATM   17  C   UNL     1     -12.647   4.171 -30.710  1.00  0.00     0.144 C 
HETATM   18  C   UNL     1     -14.111   4.306 -31.106  1.00  0.00     0.035 C 
HETATM   19  C   UNL     1     -14.608   3.037 -31.775  1.00  0.00     0.030 C 
HETATM   20  C   UNL     1     -13.778   2.679 -33.002  1.00  0.00     0.235 C 
BRANCH  17  21
HETATM   21  O   UNL     1     -12.175   5.428 -30.250  1.00  0.00    -0.394 OA
HETATM   22  H   UNL     1     -11.867   5.341 -29.327  1.00  0.00     0.210 HD
ENDBRANCH  17  21
ENDBRANCH  11  14
ENDBRANCH   6   7
ENDBRANCH   4   6
BRANCH   3  23
HETATM   23  C   UNL     1      -5.324  -0.257 -33.460  1.00  0.00    -0.005 A 
HETATM   24  C   UNL     1      -6.361  -0.514 -34.368  1.00  0.00     0.017 A 
HETATM   25  C   UNL     1      -6.465  -1.765 -34.980  1.00  0.00     0.043 A 
HETATM   26  C   UNL     1      -5.538  -2.756 -34.675  1.00  0.00     0.116 A 
HETATM   27  F   UNL     1      -5.633  -3.953 -35.267  1.00  0.00    -0.206 F 
HETATM   28  C   UNL     1      -4.519  -2.527 -33.759  1.00  0.00     0.043 A 
HETATM   29  C   UNL     1      -4.414  -1.278 -33.143  1.00  0.00     0.017 A 
ENDBRANCH   3  23
BRANCH   1  30
HETATM   30  C   UNL     1      -3.316   3.952 -32.255  1.00  0.00     0.058 A 
HETATM   31  C   UNL     1      -3.236   4.766 -31.118  1.00  0.00     0.032 A 
HETATM   32  C   UNL     1      -2.270   5.774 -31.036  1.00  0.00     0.009 A 
HETATM   33  C   UNL     1      -1.378   5.990 -32.090  1.00  0.00    -0.062 A 
HETATM   34  C   UNL     1      -0.325   7.058 -32.005  1.00  0.00     0.048 C 
HETATM   35  C   UNL     1      -1.452   5.171 -33.222  1.00  0.00     0.009 A 
HETATM   36  C   UNL     1      -2.414   4.157 -33.310  1.00  0.00     0.032 A 
ENDBRANCH   1  30
TORSDOF 6
ENDMDL
MODEL 7
REMARK VINA RESULT:      -9.0      3.560      6.693
REMARK  6 active torsions:
REMARK  status: ('A' for Active; 'I' for Inactive)
REMARK    1  A    between atoms: C_5  and  N_6 
REMARK    2  A    between atoms: C_8  and  C_9 
REMARK    3  A    between atoms: C_16  and  C_17 
REMARK    4  A    between atoms: C_17  and  N_18 
REMARK    5  A    between atoms: C_22  and  N_23 
REMARK    6  A    between atoms: C_26  and  O_27 
ROOT
HETATM    1  N   UNL     1      -8.706   1.053 -33.886  1.00  0.00    -0.244 N 
HETATM    2  N   UNL     1      -9.983   0.682 -33.650  1.00  0.00    -0.167 NA
HETATM    3  C   UNL     1     -10.728   1.783 -33.767  1.00  0.00     0.097 A 
HETATM    4  C   UNL     1      -9.911   2.933 -33.945  1.00  0.00     0.016 A 
HETATM    5  C   UNL     1      -8.632   2.421 -34.069  1.00  0.00     0.130 A 
ENDROOT
BRANCH   4   6
HETATM    6  C   UNL     1     -10.316   4.356 -34.002  1.00  0.00     0.277 C 
BRANCH   6   7
HETATM    7  N   UNL     1      -9.767   5.229 -32.851  1.00  0.00    -0.067 N 
HETATM    8  H   UNL     1     -10.481   5.970 -32.748  1.00  0.00     0.280 HD
HETATM    9  C   UNL     1      -9.705   4.476 -31.548  1.00  0.00     0.237 C 
HETATM   10  C   UNL     1      -9.105   5.339 -30.460  1.00  0.00     0.061 C 
HETATM   11  C   UNL     1      -7.718   5.885 -30.798  1.00  0.00     0.191 C 
HETATM   12  C   UNL     1      -7.765   6.612 -32.146  1.00  0.00     0.061 C 
HETATM   13  C   UNL     1      -8.472   5.868 -33.279  1.00  0.00     0.237 C 
BRANCH  11  14
HETATM   14  N   UNL     1      -6.551   4.882 -30.647  1.00  0.00    -0.064 N 
HETATM   15  H   UNL     1      -5.974   5.291 -29.892  1.00  0.00     0.280 HD
HETATM   16  C   UNL     1      -6.994   3.536 -30.059  1.00  0.00     0.266 C 
HETATM   17  C   UNL     1      -5.813   2.629 -29.680  1.00  0.00     0.144 C 
HETATM   18  C   UNL     1      -4.846   2.473 -30.846  1.00  0.00     0.035 C 
HETATM   19  C   UNL     1      -4.397   3.830 -31.360  1.00  0.00     0.030 C 
HETATM   20  C   UNL     1      -5.577   4.692 -31.789  1.00  0.00     0.235 C 
BRANCH  17  21
HETATM   21  O   UNL     1      -6.341   1.355 -29.345  1.00  0.00    -0.394 OA
HETATM   22  H   UNL     1      -5.660   0.671 -29.502  1.00  0.00     0.210 HD
ENDBRANCH  17  21
ENDBRANCH  11  14
ENDBRANCH   6   7
ENDBRANCH   4   6
BRANCH   3  23
HETATM   23  C   UNL     1     -12.181   1.712 -33.662  1.00  0.00    -0.005 A 
HETATM   24  C   UNL     1     -12.870   2.596 -32.820  1.00  0.00     0.017 A 
HETATM   25  C   UNL     1     -14.262   2.535 -32.726  1.00  0.00     0.043 A 
HETATM   26  C   UNL     1     -14.958   1.587 -33.466  1.00  0.00     0.116 A 
HETATM   27  F   UNL     1     -16.293   1.533 -33.382  1.00  0.00    -0.206 F 
HETATM   28  C   UNL     1     -14.290   0.686 -34.287  1.00  0.00     0.043 A 
HETATM   29  C   UNL     1     -12.897   0.742 -34.382  1.00  0.00     0.017 A 
ENDBRANCH   3  23
BRANCH   1  30
HETATM   30  C   UNL     1      -7.641   0.113 -33.869  1.00  0.00     0.058 A 
HETATM   31  C   UNL     1      -7.417  -0.693 -34.992  1.00  0.00     0.032 A 
HETATM   32  C   UNL     1      -6.382  -1.633 -34.993  1.00  0.00     0.009 A 
HETATM   33  C   UNL     1      -5.562  -1.787 -33.871  1.00  0.00    -0.062 A 
HETATM   34  C   UNL     1      -4.435  -2.780 -33.868  1.00  0.00     0.048 C 
HETATM   35  C   UNL     1      -5.780  -0.974 -32.753  1.00  0.00     0.009 A 
HETATM   36  C   UNL     1      -6.812  -0.029 -32.746  1.00  0.00     0.032 A 
ENDBRANCH   1  30
TORSDOF 6
ENDMDL
MODEL 8
REMARK VINA RESULT:      -8.8      3.099      6.791
REMARK  6 active torsions:
REMARK  status: ('A' for Active; 'I' for Inactive)
REMARK    1  A    between atoms: C_5  and  N_6 
REMARK    2  A    between atoms: C_8  and  C_9 
REMARK    3  A    between atoms: C_16  and  C_17 
REMARK    4  A    between atoms: C_17  and  N_18 
REMARK    5  A    between atoms: C_22  and  N_23 
REMARK    6  A    between atoms: C_26  and  O_27 
ROOT
HETATM    1  N   UNL     1      -3.701   2.386 -32.691  1.00  0.00    -0.244 N 
HETATM    2  N   UNL     1      -3.221   1.125 -32.613  1.00  0.00    -0.167 NA
HETATM    3  C   UNL     1      -4.248   0.311 -32.866  1.00  0.00     0.097 A 
HETATM    4  C   UNL     1      -5.462   1.042 -32.974  1.00  0.00     0.016 A 
HETATM    5  C   UNL     1      -5.065   2.365 -32.909  1.00  0.00     0.130 A 
ENDROOT
BRANCH   4   6
HETATM    6  C   UNL     1      -6.842   0.526 -33.132  1.00  0.00     0.277 C 
BRANCH   6   7
HETATM    7  N   UNL     1      -7.946   1.469 -32.604  1.00  0.00    -0.067 N 
HETATM    8  H   UNL     1      -8.819   0.943 -32.785  1.00  0.00     0.280 HD
HETATM    9  C   UNL     1      -7.848   1.683 -31.117  1.00  0.00     0.237 C 
HETATM   10  C   UNL     1      -8.903   2.659 -30.646  1.00  0.00     0.061 C 
HETATM   11  C   UNL     1      -8.858   4.010 -31.358  1.00  0.00     0.191 C 
HETATM   12  C   UNL     1      -8.911   3.796 -32.874  1.00  0.00     0.061 C 
HETATM   13  C   UNL     1      -7.967   2.729 -33.429  1.00  0.00     0.237 C 
BRANCH  11  14
HETATM   14  N   UNL     1      -7.750   4.978 -30.883  1.00  0.00    -0.064 N 
HETATM   15  H   UNL     1      -8.275   5.807 -30.554  1.00  0.00     0.280 HD
HETATM   16  C   UNL     1      -7.035   4.491 -29.616  1.00  0.00     0.266 C 
HETATM   17  C   UNL     1      -6.110   5.553 -29.003  1.00  0.00     0.144 C 
HETATM   18  C   UNL     1      -5.148   6.110 -30.044  1.00  0.00     0.035 C 
HETATM   19  C   UNL     1      -5.905   6.625 -31.256  1.00  0.00     0.030 C 
HETATM   20  C   UNL     1      -6.770   5.542 -31.888  1.00  0.00     0.235 C 
BRANCH  17  21
HETATM   21  O   UNL     1      -5.361   4.928 -27.972  1.00  0.00    -0.394 OA
HETATM   22  H   UNL     1      -5.931   4.288 -27.501  1.00  0.00     0.210 HD
ENDBRANCH  17  21
ENDBRANCH  11  14
ENDBRANCH   6   7
ENDBRANCH   4   6
BRANCH   3  23
HETATM   23  C   UNL     1      -4.047  -1.131 -32.952  1.00  0.00    -0.005 A 
HETATM   24  C   UNL     1      -4.570  -1.852 -34.035  1.00  0.00     0.017 A 
HETATM   25  C   UNL     1      -4.370  -3.231 -34.123  1.00  0.00     0.043 A 
HETATM   26  C   UNL     1      -3.657  -3.886 -33.125  1.00  0.00     0.116 A 
HETATM   27  F   UNL     1      -3.459  -5.206 -33.213  1.00  0.00    -0.206 F 
HETATM   28  C   UNL     1      -3.153  -3.192 -32.032  1.00  0.00     0.043 A 
HETATM   29  C   UNL     1      -3.353  -1.812 -31.939  1.00  0.00     0.017 A 
ENDBRANCH   3  23
BRANCH   1  30
HETATM   30  C   UNL     1      -2.862   3.516 -32.501  1.00  0.00     0.058 A 
HETATM   31  C   UNL     1      -2.433   4.249 -33.615  1.00  0.00     0.032 A 
HETATM   32  C   UNL     1      -1.597   5.358 -33.453  1.00  0.00     0.009 A 
HETATM   33  C   UNL     1      -1.172   5.746 -32.179  1.00  0.00    -0.062 A 
HETATM   34  C   UNL     1      -0.290   6.947 -31.991  1.00  0.00     0.048 C 
HETATM   35  C   UNL     1      -1.609   5.019 -31.066  1.00  0.00     0.009 A 
HETATM   36  C   UNL     1      -2.448   3.910 -31.220  1.00  0.00     0.032 A 
ENDBRANCH   1  30
TORSDOF 6
ENDMDL
MODEL 9
REMARK VINA RESULT:      -8.8      3.344      8.876
REMARK  6 active torsions:
REMARK  status: ('A' for Active; 'I' for Inactive)
REMARK    1  A    between atoms: C_5  and  N_6 
REMARK    2  A    between atoms: C_8  and  C_9 
REMARK    3  A    between atoms: C_16  and  C_17 
REMARK    4  A    between atoms: C_17  and  N_18 
REMARK    5  A    between atoms: C_22  and  N_23 
REMARK    6  A    between atoms: C_26  and  O_27 
ROOT
HETATM    1  N   UNL     1      -5.504   4.126 -32.622  1.00  0.00    -0.244 N 
HETATM    2  N   UNL     1      -5.124   2.898 -33.038  1.00  0.00    -0.167 NA
HETATM    3  C   UNL     1      -6.231   2.155 -33.094  1.00  0.00     0.097 A 
HETATM    4  C   UNL     1      -7.346   2.864 -32.570  1.00  0.00     0.016 A 
HETATM    5  C   UNL     1      -6.855   4.134 -32.329  1.00  0.00     0.130 A 
ENDROOT
BRANCH   4   6
HETATM    6  C   UNL     1      -8.726   2.378 -32.340  1.00  0.00     0.277 C 
BRANCH   6   7
HETATM    7  N   UNL     1      -9.628   2.381 -33.595  1.00  0.00    -0.067 N 
HETATM    8  H   UNL     1      -9.013   2.002 -34.335  1.00  0.00     0.280 HD
HETATM    9  C   UNL     1     -10.798   1.444 -33.456  1.00  0.00     0.237 C 
HETATM   10  C   UNL     1     -11.692   1.521 -34.674  1.00  0.00     0.061 C 
HETATM   11  C   UNL     1     -12.201   2.929 -34.980  1.00  0.00     0.191 C 
HETATM   12  C   UNL     1     -11.017   3.895 -35.077  1.00  0.00     0.061 C 
HETATM   13  C   UNL     1      -9.986   3.800 -33.951  1.00  0.00     0.237 C 
BRANCH  11  14
HETATM   14  N   UNL     1     -13.366   3.425 -34.093  1.00  0.00    -0.064 N 
HETATM   15  H   UNL     1     -14.140   3.569 -34.765  1.00  0.00     0.280 HD
HETATM   16  C   UNL     1     -13.912   2.335 -33.161  1.00  0.00     0.266 C 
HETATM   17  C   UNL     1     -15.216   2.743 -32.459  1.00  0.00     0.144 C 
HETATM   18  C   UNL     1     -15.068   4.091 -31.766  1.00  0.00     0.035 C 
HETATM   19  C   UNL     1     -14.575   5.146 -32.740  1.00  0.00     0.030 C 
HETATM   20  C   UNL     1     -13.250   4.754 -33.380  1.00  0.00     0.235 C 
BRANCH  17  21
HETATM   21  O   UNL     1     -15.508   1.753 -31.485  1.00  0.00    -0.394 OA
HETATM   22  H   UNL     1     -14.829   1.051 -31.523  1.00  0.00     0.210 HD
ENDBRANCH  17  21
ENDBRANCH  11  14
ENDBRANCH   6   7
ENDBRANCH   4   6
BRANCH   3  23
HETATM   23  C   UNL     1      -6.182   0.788 -33.600  1.00  0.00    -0.005 A 
HETATM   24  C   UNL     1      -5.347  -0.159 -32.990  1.00  0.00     0.017 A 
HETATM   25  C   UNL     1      -5.307  -1.470 -33.467  1.00  0.00     0.043 A 
HETATM   26  C   UNL     1      -6.094  -1.829 -34.556  1.00  0.00     0.116 A 
HETATM   27  F   UNL     1      -6.062  -3.088 -35.008  1.00  0.00    -0.206 F 
HETATM   28  C   UNL     1      -6.909  -0.897 -35.188  1.00  0.00     0.043 A 
HETATM   29  C   UNL     1      -6.950   0.417 -34.715  1.00  0.00     0.017 A 
ENDBRANCH   3  23
BRANCH   1  30
HETATM   30  C   UNL     1      -4.571   5.187 -32.476  1.00  0.00     0.058 A 
HETATM   31  C   UNL     1      -4.693   6.066 -31.393  1.00  0.00     0.032 A 
HETATM   32  C   UNL     1      -3.793   7.125 -31.237  1.00  0.00     0.009 A 
HETATM   33  C   UNL     1      -2.765   7.325 -32.163  1.00  0.00    -0.062 A 
HETATM   34  C   UNL     1      -1.781   8.447 -31.994  1.00  0.00     0.048 C 
HETATM   35  C   UNL     1      -2.637   6.440 -33.239  1.00  0.00     0.009 A 
HETATM   36  C   UNL     1      -3.533   5.376 -33.400  1.00  0.00     0.032 A 
ENDBRANCH   1  30
TORSDOF 6
ENDMDL
MODEL 10
REMARK VINA RESULT:      -8.7      3.006      8.935
REMARK  6 active torsions:
REMARK  status: ('A' for Active; 'I' for Inactive)
REMARK    1  A    between atoms: C_5  and  N_6 
REMARK    2  A    between atoms: C_8  and  C_9 
REMARK    3  A    between atoms: C_16  and  C_17 
REMARK    4  A    between atoms: C_17  and  N_18 
REMARK    5  A    between atoms: C_22  and  N_23 
REMARK    6  A    between atoms: C_26  and  O_27 
ROOT
HETATM    1  N   UNL     1      -2.911   4.028 -31.631  1.00  0.00    -0.244 N 
HETATM    2  N   UNL     1      -2.722   2.699 -31.484  1.00  0.00    -0.167 NA
HETATM    3  C   UNL     1      -3.661   2.097 -32.216  1.00  0.00     0.097 A 
HETATM    4  C   UNL     1      -4.578   3.046 -32.746  1.00  0.00     0.016 A 
HETATM    5  C   UNL     1      -4.036   4.269 -32.396  1.00  0.00     0.130 A 
ENDROOT
BRANCH   4   6
HETATM    6  C   UNL     1      -5.823   2.802 -33.510  1.00  0.00     0.277 C 
BRANCH   6   7
HETATM    7  N   UNL     1      -7.037   2.388 -32.648  1.00  0.00    -0.067 N 
HETATM    8  H   UNL     1      -6.608   1.881 -31.854  1.00  0.00     0.280 HD
HETATM    9  C   UNL     1      -7.765   3.578 -32.084  1.00  0.00     0.237 C 
HETATM   10  C   UNL     1      -8.982   3.138 -31.300  1.00  0.00     0.061 C 
HETATM   11  C   UNL     1      -9.958   2.279 -32.103  1.00  0.00     0.191 C 
HETATM   12  C   UNL     1      -9.212   1.091 -32.718  1.00  0.00     0.061 C 
HETATM   13  C   UNL     1      -7.897   1.423 -33.422  1.00  0.00     0.237 C 
BRANCH  11  14
HETATM   14  N   UNL     1     -10.869   3.047 -33.088  1.00  0.00    -0.064 N 
HETATM   15  H   UNL     1     -10.265   3.815 -33.430  1.00  0.00     0.280 HD
HETATM   16  C   UNL     1     -11.176   2.251 -34.363  1.00  0.00     0.266 C 
HETATM   17  C   UNL     1     -11.870   3.091 -35.444  1.00  0.00     0.144 C 
HETATM   18  C   UNL     1     -13.096   3.802 -34.884  1.00  0.00     0.035 C 
HETATM   19  C   UNL     1     -12.732   4.617 -33.656  1.00  0.00     0.030 C 
HETATM   20  C   UNL     1     -12.101   3.755 -32.569  1.00  0.00     0.235 C 
BRANCH  17  21
HETATM   21  O   UNL     1     -12.280   2.209 -36.477  1.00  0.00    -0.394 OA
HETATM   22  H   UNL     1     -13.251   2.099 -36.443  1.00  0.00     0.210 HD
ENDBRANCH  17  21
ENDBRANCH  11  14
ENDBRANCH   6   7
ENDBRANCH   4   6
BRANCH   3  23
HETATM   23  C   UNL     1      -3.681   0.645 -32.349  1.00  0.00    -0.005 A 
HETATM   24  C   UNL     1      -2.818  -0.145 -31.576  1.00  0.00     0.017 A 
HETATM   25  C   UNL     1      -2.844  -1.536 -31.696  1.00  0.00     0.043 A 
HETATM   26  C   UNL     1      -3.724  -2.131 -32.592  1.00  0.00     0.116 A 
HETATM   27  F   UNL     1      -3.754  -3.465 -32.702  1.00  0.00    -0.206 F 
HETATM   28  C   UNL     1      -4.569  -1.363 -33.384  1.00  0.00     0.043 A 
HETATM   29  C   UNL     1      -4.544   0.029 -33.270  1.00  0.00     0.017 A 
ENDBRANCH   3  23
BRANCH   1  30
HETATM   30  C   UNL     1      -2.060   4.977 -31.003  1.00  0.00     0.058 A 
HETATM   31  C   UNL     1      -0.675   4.772 -31.014  1.00  0.00     0.032 A 
HETATM   32  C   UNL     1       0.181   5.687 -30.392  1.00  0.00     0.009 A 
HETATM   33  C   UNL     1      -0.335   6.813 -29.744  1.00  0.00    -0.062 A 
HETATM   34  C   UNL     1       0.575   7.813 -29.089  1.00  0.00     0.048 C 
HETATM   35  C   UNL     1      -1.719   7.023 -29.742  1.00  0.00     0.009 A 
HETATM   36  C   UNL     1      -2.581   6.113 -30.366  1.00  0.00     0.032 A 
ENDBRANCH   1  30
TORSDOF 6
ENDMDL
