MODEL 1
REMARK VINA RESULT:     -10.6      0.000      0.000
REMARK  8 active torsions:
REMARK  status: ('A' for Active; 'I' for Inactive)
REMARK    1  A    between atoms: C_4  and  C_5 
REMARK    2  A    between atoms: C_5  and  N_6 
REMARK    3  A    between atoms: C_5  and  C_33 
REMARK    4  A    between atoms: N_10  and  C_11 
REMARK    5  A    between atoms: C_13  and  N_14 
REMARK    6  A    between atoms: N_14  and  C_15 
REMARK    7  A    between atoms: C_22  and  N_23 
REMARK    8  A    between atoms: N_23  and  C_24 
ROOT
HETATM    1  C   UNL     1      -7.068   0.857 -31.766  1.00  0.00     0.756 A 
HETATM    2  N   UNL     1      -6.385   0.319 -32.730  1.00  0.00     0.131 NA
HETATM    3  C   UNL     1      -7.053  -0.376 -33.698  1.00  0.00     0.757 A 
HETATM    4  N   UNL     1      -8.403  -0.470 -33.589  1.00  0.00    -0.016 N 
HETATM    5  C   UNL     1      -9.082   0.169 -32.612  1.00  0.00     0.735 A 
HETATM    6  N   UNL     1      -8.441   0.853 -31.715  1.00  0.00     0.129 NA
HETATM    7  H   UNL     1      -8.899  -0.858 -34.375  1.00  0.00     0.203 HD
ENDROOT
BRANCH   1   8
HETATM    8  N   UNL     1      -6.401   1.516 -30.740  1.00  0.00    -0.210 N 
HETATM    9  C   UNL     1      -7.035   2.681 -30.109  1.00  0.00     0.169 C 
HETATM   10  C   UNL     1      -6.736   3.935 -30.953  1.00  0.00     0.256 C 
HETATM   11  N   UNL     1      -5.214   4.106 -31.094  1.00  0.00    -0.056 N 
HETATM   12  H   UNL     1      -4.847   4.172 -30.140  1.00  0.00     0.281 HD
HETATM   13  C   UNL     1      -4.561   2.845 -31.676  1.00  0.00     0.256 C 
HETATM   14  C   UNL     1      -4.934   1.621 -30.809  1.00  0.00     0.169 C 
BRANCH  11  15
HETATM   15  C   UNL     1      -4.826   5.436 -31.737  1.00  0.00     0.254 C 
BRANCH  15  16
HETATM   16  C   UNL     1      -3.726   5.360 -32.792  1.00  0.00    -0.023 A 
HETATM   17  C   UNL     1      -2.378   5.363 -32.373  1.00  0.00     0.009 A 
HETATM   18  C   UNL     1      -1.333   5.334 -33.298  1.00  0.00     0.001 A 
HETATM   19  C   UNL     1      -1.607   5.295 -34.660  1.00  0.00     0.000 A 
HETATM   20  C   UNL     1      -2.928   5.282 -35.098  1.00  0.00     0.001 A 
HETATM   21  C   UNL     1      -3.976   5.314 -34.174  1.00  0.00     0.009 A 
ENDBRANCH  15  16
BRANCH  15  22
HETATM   22  C   UNL     1      -4.773   6.567 -30.712  1.00  0.00    -0.023 A 
HETATM   23  C   UNL     1      -5.170   7.861 -31.120  1.00  0.00     0.009 A 
HETATM   24  C   UNL     1      -5.178   8.934 -30.227  1.00  0.00     0.001 A 
HETATM   25  C   UNL     1      -4.795   8.737 -28.906  1.00  0.00     0.000 A 
HETATM   26  C   UNL     1      -4.398   7.473 -28.481  1.00  0.00     0.001 A 
HETATM   27  C   UNL     1      -4.388   6.397 -29.374  1.00  0.00     0.009 A 
ENDBRANCH  15  22
ENDBRANCH  11  15
ENDBRANCH   1   8
BRANCH   3  28
HETATM   28  N   UNL     1      -6.295  -0.866 -34.625  1.00  0.00    -0.062 NA
BRANCH  28  29
HETATM   29  C   UNL     1      -5.867  -2.197 -34.541  1.00  0.00     0.076 A 
HETATM   30  C   UNL     1      -6.749  -3.227 -34.875  1.00  0.00     0.032 A 
HETATM   31  C   UNL     1      -6.340  -4.561 -34.805  1.00  0.00     0.002 A 
HETATM   32  C   UNL     1      -5.041  -4.871 -34.403  1.00  0.00     0.000 A 
HETATM   33  C   UNL     1      -4.147  -3.850 -34.088  1.00  0.00     0.002 A 
HETATM   34  C   UNL     1      -4.556  -2.517 -34.170  1.00  0.00     0.032 A 
ENDBRANCH  28  29
ENDBRANCH   3  28
BRANCH   5  35
HETATM   35  N   UNL     1     -10.442   0.011 -32.684  1.00  0.00    -0.189 N 
HETATM   36  H   UNL     1     -10.891  -0.311 -31.834  1.00  0.00     0.184 HD
BRANCH  35  37
HETATM   37  C   UNL     1     -11.302   0.770 -33.506  1.00  0.00     0.049 A 
HETATM   38  C   UNL     1     -10.876   1.945 -34.140  1.00  0.00     0.030 A 
HETATM   39  C   UNL     1     -11.748   2.685 -34.942  1.00  0.00     0.002 A 
HETATM   40  C   UNL     1     -13.065   2.265 -35.111  1.00  0.00     0.000 A 
HETATM   41  C   UNL     1     -13.506   1.103 -34.485  1.00  0.00     0.002 A 
HETATM   42  C   UNL     1     -12.629   0.357 -33.691  1.00  0.00     0.030 A 
ENDBRANCH  35  37
ENDBRANCH   5  35
TORSDOF 8
ENDMDL
MODEL 2
REMARK VINA RESULT:     -10.3      0.297      5.082
REMARK  8 active torsions:
REMARK  status: ('A' for Active; 'I' for Inactive)
REMARK    1  A    between atoms: C_4  and  C_5 
REMARK    2  A    between atoms: C_5  and  N_6 
REMARK    3  A    between atoms: C_5  and  C_33 
REMARK    4  A    between atoms: N_10  and  C_11 
REMARK    5  A    between atoms: C_13  and  N_14 
REMARK    6  A    between atoms: N_14  and  C_15 
REMARK    7  A    between atoms: C_22  and  N_23 
REMARK    8  A    between atoms: N_23  and  C_24 
ROOT
HETATM    1  C   UNL     1      -7.205   0.957 -31.633  1.00  0.00     0.756 A 
HETATM    2  N   UNL     1      -8.501   0.879 -31.692  1.00  0.00     0.131 NA
HETATM    3  C   UNL     1      -9.069   0.221 -32.744  1.00  0.00     0.757 A 
HETATM    4  N   UNL     1      -8.241  -0.311 -33.680  1.00  0.00    -0.016 N 
HETATM    5  C   UNL     1      -6.898  -0.273 -33.540  1.00  0.00     0.735 A 
HETATM    6  N   UNL     1      -6.367   0.327 -32.520  1.00  0.00     0.129 NA
HETATM    7  H   UNL     1      -8.658  -0.913 -34.370  1.00  0.00     0.203 HD
ENDROOT
BRANCH   1   8
HETATM    8  N   UNL     1      -6.609   1.674 -30.603  1.00  0.00    -0.210 N 
HETATM    9  C   UNL     1      -7.286   2.868 -30.080  1.00  0.00     0.169 C 
HETATM   10  C   UNL     1      -6.934   4.077 -30.969  1.00  0.00     0.256 C 
HETATM   11  N   UNL     1      -5.407   4.248 -31.019  1.00  0.00    -0.056 N 
HETATM   12  H   UNL     1      -5.103   4.368 -30.048  1.00  0.00     0.281 HD
HETATM   13  C   UNL     1      -4.714   2.961 -31.487  1.00  0.00     0.256 C 
HETATM   14  C   UNL     1      -5.140   1.784 -30.580  1.00  0.00     0.169 C 
BRANCH  11  15
HETATM   15  C   UNL     1      -4.980   5.543 -31.707  1.00  0.00     0.254 C 
BRANCH  15  16
HETATM   16  C   UNL     1      -3.950   5.388 -32.822  1.00  0.00    -0.023 A 
HETATM   17  C   UNL     1      -2.582   5.329 -32.482  1.00  0.00     0.009 A 
HETATM   18  C   UNL     1      -1.595   5.225 -33.466  1.00  0.00     0.001 A 
HETATM   19  C   UNL     1      -1.952   5.171 -34.808  1.00  0.00     0.000 A 
HETATM   20  C   UNL     1      -3.296   5.217 -35.168  1.00  0.00     0.001 A 
HETATM   21  C   UNL     1      -4.284   5.324 -34.185  1.00  0.00     0.009 A 
ENDBRANCH  15  16
BRANCH  15  22
HETATM   22  C   UNL     1      -4.801   6.684 -30.706  1.00  0.00    -0.023 A 
HETATM   23  C   UNL     1      -4.439   6.361 -29.379  1.00  0.00     0.009 A 
HETATM   24  C   UNL     1      -4.226   7.355 -28.422  1.00  0.00     0.001 A 
HETATM   25  C   UNL     1      -4.368   8.693 -28.770  1.00  0.00     0.000 A 
HETATM   26  C   UNL     1      -4.728   9.035 -30.070  1.00  0.00     0.001 A 
HETATM   27  C   UNL     1      -4.941   8.041 -31.030  1.00  0.00     0.009 A 
ENDBRANCH  15  22
ENDBRANCH  11  15
ENDBRANCH   1   8
BRANCH   3  28
HETATM   28  N   UNL     1     -10.363   0.181 -32.716  1.00  0.00    -0.062 NA
BRANCH  28  29
HETATM   29  C   UNL     1     -11.103   0.999 -33.579  1.00  0.00     0.076 A 
HETATM   30  C   UNL     1     -12.420   0.656 -33.891  1.00  0.00     0.032 A 
HETATM   31  C   UNL     1     -13.178   1.460 -34.745  1.00  0.00     0.002 A 
HETATM   32  C   UNL     1     -12.622   2.618 -35.289  1.00  0.00     0.000 A 
HETATM   33  C   UNL     1     -11.315   2.979 -34.966  1.00  0.00     0.002 A 
HETATM   34  C   UNL     1     -10.564   2.178 -34.104  1.00  0.00     0.032 A 
ENDBRANCH  28  29
ENDBRANCH   3  28
BRANCH   5  35
HETATM   35  N   UNL     1      -6.215  -0.906 -34.547  1.00  0.00    -0.189 N 
HETATM   36  H   UNL     1      -5.594  -0.319 -35.091  1.00  0.00     0.184 HD
BRANCH  35  37
HETATM   37  C   UNL     1      -5.815  -2.259 -34.528  1.00  0.00     0.049 A 
HETATM   38  C   UNL     1      -6.690  -3.296 -34.879  1.00  0.00     0.030 A 
HETATM   39  C   UNL     1      -6.275  -4.629 -34.844  1.00  0.00     0.002 A 
HETATM   40  C   UNL     1      -4.979  -4.945 -34.444  1.00  0.00     0.000 A 
HETATM   41  C   UNL     1      -4.098  -3.927 -34.087  1.00  0.00     0.002 A 
HETATM   42  C   UNL     1      -4.512  -2.592 -34.133  1.00  0.00     0.030 A 
ENDBRANCH  35  37
ENDBRANCH   5  35
TORSDOF 8
ENDMDL
MODEL 3
REMARK VINA RESULT:     -10.2      2.532      9.726
REMARK  8 active torsions:
REMARK  status: ('A' for Active; 'I' for Inactive)
REMARK    1  A    between atoms: C_4  and  C_5 
REMARK    2  A    between atoms: C_5  and  N_6 
REMARK    3  A    between atoms: C_5  and  C_33 
REMARK    4  A    between atoms: N_10  and  C_11 
REMARK    5  A    between atoms: C_13  and  N_14 
REMARK    6  A    between atoms: N_14  and  C_15 
REMARK    7  A    between atoms: C_22  and  N_23 
REMARK    8  A    between atoms: N_23  and  C_24 
ROOT
HETATM    1  C   UNL     1      -3.327   3.228 -31.701  1.00  0.00     0.756 A 
HETATM    2  N   UNL     1      -4.135   3.883 -32.480  1.00  0.00     0.131 NA
HETATM    3  C   UNL     1      -3.758   5.118 -32.923  1.00  0.00     0.757 A 
HETATM    4  N   UNL     1      -2.554   5.597 -32.514  1.00  0.00    -0.016 N 
HETATM    5  C   UNL     1      -1.713   4.851 -31.766  1.00  0.00     0.735 A 
HETATM    6  N   UNL     1      -2.066   3.665 -31.376  1.00  0.00     0.129 NA
HETATM    7  H   UNL     1      -2.223   6.438 -32.956  1.00  0.00     0.203 HD
ENDROOT
BRANCH   1   8
HETATM    8  N   UNL     1      -3.718   1.996 -31.191  1.00  0.00    -0.210 N 
HETATM    9  C   UNL     1      -3.175   0.770 -31.789  1.00  0.00     0.169 C 
HETATM   10  C   UNL     1      -4.017   0.396 -33.024  1.00  0.00     0.256 C 
HETATM   11  N   UNL     1      -5.489   0.237 -32.611  1.00  0.00    -0.056 N 
HETATM   12  H   UNL     1      -5.503  -0.486 -31.886  1.00  0.00     0.281 HD
HETATM   13  C   UNL     1      -6.012   1.499 -31.912  1.00  0.00     0.256 C 
HETATM   14  C   UNL     1      -5.102   1.842 -30.710  1.00  0.00     0.169 C 
BRANCH  11  15
HETATM   15  C   UNL     1      -6.358  -0.336 -33.728  1.00  0.00     0.254 C 
BRANCH  15  16
HETATM   16  C   UNL     1      -7.833   0.052 -33.680  1.00  0.00    -0.023 A 
HETATM   17  C   UNL     1      -8.319   1.000 -34.605  1.00  0.00     0.009 A 
HETATM   18  C   UNL     1      -9.652   1.418 -34.580  1.00  0.00     0.001 A 
HETATM   19  C   UNL     1     -10.529   0.895 -33.637  1.00  0.00     0.000 A 
HETATM   20  C   UNL     1     -10.076  -0.049 -32.721  1.00  0.00     0.001 A 
HETATM   21  C   UNL     1      -8.742  -0.467 -32.742  1.00  0.00     0.009 A 
ENDBRANCH  15  16
BRANCH  15  22
HETATM   22  C   UNL     1      -5.997  -1.787 -34.039  1.00  0.00    -0.023 A 
HETATM   23  C   UNL     1      -7.008  -2.636 -34.544  1.00  0.00     0.009 A 
HETATM   24  C   UNL     1      -6.741  -3.964 -34.880  1.00  0.00     0.001 A 
HETATM   25  C   UNL     1      -5.457  -4.473 -34.723  1.00  0.00     0.000 A 
HETATM   26  C   UNL     1      -4.446  -3.657 -34.226  1.00  0.00     0.001 A 
HETATM   27  C   UNL     1      -4.711  -2.327 -33.888  1.00  0.00     0.009 A 
ENDBRANCH  15  22
ENDBRANCH  11  15
ENDBRANCH   1   8
BRANCH   3  28
HETATM   28  N   UNL     1      -4.616   5.692 -33.704  1.00  0.00    -0.062 NA
BRANCH  28  29
HETATM   29  C   UNL     1      -5.976   5.681 -33.369  1.00  0.00     0.076 A 
HETATM   30  C   UNL     1      -6.819   4.726 -33.941  1.00  0.00     0.032 A 
HETATM   31  C   UNL     1      -8.176   4.693 -33.617  1.00  0.00     0.002 A 
HETATM   32  C   UNL     1      -8.699   5.616 -32.711  1.00  0.00     0.000 A 
HETATM   33  C   UNL     1      -7.862   6.560 -32.118  1.00  0.00     0.002 A 
HETATM   34  C   UNL     1      -6.503   6.583 -32.437  1.00  0.00     0.032 A 
ENDBRANCH  28  29
ENDBRANCH   3  28
BRANCH   5  35
HETATM   35  N   UNL     1      -0.519   5.467 -31.490  1.00  0.00    -0.189 N 
HETATM   36  H   UNL     1      -0.041   5.871 -32.287  1.00  0.00     0.184 HD
BRANCH  35  37
HETATM   37  C   UNL     1      -0.202   6.110 -30.275  1.00  0.00     0.049 A 
HETATM   38  C   UNL     1       0.483   5.452 -29.244  1.00  0.00     0.030 A 
HETATM   39  C   UNL     1       0.779   6.107 -28.046  1.00  0.00     0.002 A 
HETATM   40  C   UNL     1       0.381   7.428 -27.857  1.00  0.00     0.000 A 
HETATM   41  C   UNL     1      -0.305   8.095 -28.869  1.00  0.00     0.002 A 
HETATM   42  C   UNL     1      -0.590   7.441 -30.072  1.00  0.00     0.030 A 
ENDBRANCH  35  37
ENDBRANCH   5  35
TORSDOF 8
ENDMDL
MODEL 4
REMARK VINA RESULT:     -10.0      2.189      8.022
REMARK  8 active torsions:
REMARK  status: ('A' for Active; 'I' for Inactive)
REMARK    1  A    between atoms: C_4  and  C_5 
REMARK    2  A    between atoms: C_5  and  N_6 
REMARK    3  A    between atoms: C_5  and  C_33 
REMARK    4  A    between atoms: N_10  and  C_11 
REMARK    5  A    between atoms: C_13  and  N_14 
REMARK    6  A    between atoms: N_14  and  C_15 
REMARK    7  A    between atoms: C_22  and  N_23 
REMARK    8  A    between atoms: N_23  and  C_24 
ROOT
HETATM    1  C   UNL     1      -6.993   1.756 -31.580  1.00  0.00     0.756 A 
HETATM    2  N   UNL     1      -6.384   2.901 -31.504  1.00  0.00     0.131 NA
HETATM    3  C   UNL     1      -5.103   2.992 -31.967  1.00  0.00     0.757 A 
HETATM    4  N   UNL     1      -4.533   1.870 -32.477  1.00  0.00    -0.016 N 
HETATM    5  C   UNL     1      -5.228   0.719 -32.606  1.00  0.00     0.735 A 
HETATM    6  N   UNL     1      -6.456   0.650 -32.193  1.00  0.00     0.129 NA
HETATM    7  H   UNL     1      -3.648   1.978 -32.944  1.00  0.00     0.203 HD
ENDROOT
BRANCH   1   8
HETATM    8  N   UNL     1      -8.275   1.628 -31.059  1.00  0.00    -0.210 N 
HETATM    9  C   UNL     1      -9.159   0.581 -31.588  1.00  0.00     0.169 C 
HETATM   10  C   UNL     1      -9.853   1.104 -32.860  1.00  0.00     0.256 C 
HETATM   11  N   UNL     1     -10.616   2.397 -32.533  1.00  0.00    -0.056 N 
HETATM   12  H   UNL     1     -11.278   2.156 -31.789  1.00  0.00     0.281 HD
HETATM   13  C   UNL     1      -9.691   3.448 -31.903  1.00  0.00     0.256 C 
HETATM   14  C   UNL     1      -8.997   2.848 -30.658  1.00  0.00     0.169 C 
BRANCH  11  15
HETATM   15  C   UNL     1     -11.502   2.869 -33.684  1.00  0.00     0.254 C 
BRANCH  15  16
HETATM   16  C   UNL     1     -11.275   4.307 -34.143  1.00  0.00    -0.023 A 
HETATM   17  C   UNL     1     -12.054   5.335 -33.571  1.00  0.00     0.009 A 
HETATM   18  C   UNL     1     -11.915   6.663 -33.983  1.00  0.00     0.001 A 
HETATM   19  C   UNL     1     -10.990   6.994 -34.966  1.00  0.00     0.000 A 
HETATM   20  C   UNL     1     -10.203   6.000 -35.537  1.00  0.00     0.001 A 
HETATM   21  C   UNL     1     -10.343   4.670 -35.130  1.00  0.00     0.009 A 
ENDBRANCH  15  16
BRANCH  15  22
HETATM   22  C   UNL     1     -12.939   2.372 -33.533  1.00  0.00    -0.023 A 
HETATM   23  C   UNL     1     -13.443   1.475 -34.502  1.00  0.00     0.009 A 
HETATM   24  C   UNL     1     -14.735   0.956 -34.409  1.00  0.00     0.001 A 
HETATM   25  C   UNL     1     -15.551   1.318 -33.344  1.00  0.00     0.000 A 
HETATM   26  C   UNL     1     -15.078   2.201 -32.379  1.00  0.00     0.001 A 
HETATM   27  C   UNL     1     -13.784   2.723 -32.471  1.00  0.00     0.009 A 
ENDBRANCH  15  22
ENDBRANCH  11  15
ENDBRANCH   1   8
BRANCH   3  28
HETATM   28  N   UNL     1      -4.579   4.171 -31.865  1.00  0.00    -0.062 NA
BRANCH  28  29
HETATM   29  C   UNL     1      -3.665   4.613 -32.831  1.00  0.00     0.076 A 
HETATM   30  C   UNL     1      -2.305   4.664 -32.520  1.00  0.00     0.032 A 
HETATM   31  C   UNL     1      -1.376   5.095 -33.469  1.00  0.00     0.002 A 
HETATM   32  C   UNL     1      -1.805   5.474 -34.742  1.00  0.00     0.000 A 
HETATM   33  C   UNL     1      -3.159   5.406 -35.068  1.00  0.00     0.002 A 
HETATM   34  C   UNL     1      -4.083   4.965 -34.119  1.00  0.00     0.032 A 
ENDBRANCH  28  29
ENDBRANCH   3  28
BRANCH   5  35
HETATM   35  N   UNL     1      -4.518  -0.298 -33.191  1.00  0.00    -0.189 N 
HETATM   36  H   UNL     1      -3.585  -0.447 -32.824  1.00  0.00     0.184 HD
BRANCH  35  37
HETATM   37  C   UNL     1      -5.083  -1.466 -33.744  1.00  0.00     0.049 A 
HETATM   38  C   UNL     1      -4.334  -2.637 -33.930  1.00  0.00     0.030 A 
HETATM   39  C   UNL     1      -4.912  -3.779 -34.488  1.00  0.00     0.002 A 
HETATM   40  C   UNL     1      -6.248  -3.762 -34.881  1.00  0.00     0.000 A 
HETATM   41  C   UNL     1      -7.005  -2.607 -34.708  1.00  0.00     0.002 A 
HETATM   42  C   UNL     1      -6.428  -1.467 -34.139  1.00  0.00     0.030 A 
ENDBRANCH  35  37
ENDBRANCH   5  35
TORSDOF 8
ENDMDL
MODEL 5
REMARK VINA RESULT:      -9.8      2.313      9.509
REMARK  8 active torsions:
REMARK  status: ('A' for Active; 'I' for Inactive)
REMARK    1  A    between atoms: C_4  and  C_5 
REMARK    2  A    between atoms: C_5  and  N_6 
REMARK    3  A    between atoms: C_5  and  C_33 
REMARK    4  A    between atoms: N_10  and  C_11 
REMARK    5  A    between atoms: C_13  and  N_14 
REMARK    6  A    between atoms: N_14  and  C_15 
REMARK    7  A    between atoms: C_22  and  N_23 
REMARK    8  A    between atoms: N_23  and  C_24 
ROOT
HETATM    1  C   UNL     1      -4.571   2.924 -30.567  1.00  0.00     0.756 A 
HETATM    2  N   UNL     1      -5.691   3.150 -29.949  1.00  0.00     0.131 NA
HETATM    3  C   UNL     1      -6.052   4.444 -29.704  1.00  0.00     0.757 A 
HETATM    4  N   UNL     1      -5.209   5.425 -30.116  1.00  0.00    -0.016 N 
HETATM    5  C   UNL     1      -4.091   5.149 -30.823  1.00  0.00     0.735 A 
HETATM    6  N   UNL     1      -3.772   3.918 -31.079  1.00  0.00     0.129 NA
HETATM    7  H   UNL     1      -5.547   6.372 -30.061  1.00  0.00     0.203 HD
ENDROOT
BRANCH   1   8
HETATM    8  N   UNL     1      -4.156   1.613 -30.773  1.00  0.00    -0.210 N 
HETATM    9  C   UNL     1      -3.435   1.278 -32.007  1.00  0.00     0.169 C 
HETATM   10  C   UNL     1      -4.455   1.009 -33.130  1.00  0.00     0.256 C 
HETATM   11  N   UNL     1      -5.412  -0.112 -32.693  1.00  0.00    -0.056 N 
HETATM   12  H   UNL     1      -4.823  -0.925 -32.488  1.00  0.00     0.281 HD
HETATM   13  C   UNL     1      -6.091   0.221 -31.357  1.00  0.00     0.256 C 
HETATM   14  C   UNL     1      -5.016   0.520 -30.288  1.00  0.00     0.169 C 
BRANCH  11  15
HETATM   15  C   UNL     1      -6.323  -0.586 -33.823  1.00  0.00     0.254 C 
BRANCH  15  16
HETATM   16  C   UNL     1      -7.770  -0.106 -33.749  1.00  0.00    -0.023 A 
HETATM   17  C   UNL     1      -8.160   1.004 -34.529  1.00  0.00     0.009 A 
HETATM   18  C   UNL     1      -9.461   1.508 -34.470  1.00  0.00     0.001 A 
HETATM   19  C   UNL     1     -10.402   0.913 -33.639  1.00  0.00     0.000 A 
HETATM   20  C   UNL     1     -10.045  -0.188 -32.868  1.00  0.00     0.001 A 
HETATM   21  C   UNL     1      -8.742  -0.693 -32.922  1.00  0.00     0.009 A 
ENDBRANCH  15  16
BRANCH  15  22
HETATM   22  C   UNL     1      -6.060  -2.046 -34.189  1.00  0.00    -0.023 A 
HETATM   23  C   UNL     1      -4.756  -2.559 -34.005  1.00  0.00     0.009 A 
HETATM   24  C   UNL     1      -4.453  -3.892 -34.287  1.00  0.00     0.001 A 
HETATM   25  C   UNL     1      -5.447  -4.743 -34.755  1.00  0.00     0.000 A 
HETATM   26  C   UNL     1      -6.738  -4.261 -34.946  1.00  0.00     0.001 A 
HETATM   27  C   UNL     1      -7.043  -2.926 -34.665  1.00  0.00     0.009 A 
ENDBRANCH  15  22
ENDBRANCH  11  15
ENDBRANCH   1   8
BRANCH   3  28
HETATM   28  N   UNL     1      -7.187   4.577 -29.096  1.00  0.00    -0.062 NA
BRANCH  28  29
HETATM   29  C   UNL     1      -8.370   4.661 -29.843  1.00  0.00     0.076 A 
HETATM   30  C   UNL     1      -8.774   3.573 -30.618  1.00  0.00     0.032 A 
HETATM   31  C   UNL     1      -9.952   3.633 -31.365  1.00  0.00     0.002 A 
HETATM   32  C   UNL     1     -10.738   4.785 -31.335  1.00  0.00     0.000 A 
HETATM   33  C   UNL     1     -10.354   5.869 -30.548  1.00  0.00     0.002 A 
HETATM   34  C   UNL     1      -9.181   5.801 -29.794  1.00  0.00     0.032 A 
ENDBRANCH  28  29
ENDBRANCH   3  28
BRANCH   5  35
HETATM   35  N   UNL     1      -3.386   6.260 -31.206  1.00  0.00    -0.189 N 
HETATM   36  H   UNL     1      -3.942   7.083 -31.407  1.00  0.00     0.184 HD
BRANCH  35  37
HETATM   37  C   UNL     1      -2.075   6.571 -30.787  1.00  0.00     0.049 A 
HETATM   38  C   UNL     1      -1.811   7.117 -29.522  1.00  0.00     0.030 A 
HETATM   39  C   UNL     1      -0.506   7.425 -29.132  1.00  0.00     0.002 A 
HETATM   40  C   UNL     1       0.554   7.204 -30.007  1.00  0.00     0.000 A 
HETATM   41  C   UNL     1       0.309   6.667 -31.268  1.00  0.00     0.002 A 
HETATM   42  C   UNL     1      -0.997   6.348 -31.654  1.00  0.00     0.030 A 
ENDBRANCH  35  37
ENDBRANCH   5  35
TORSDOF 8
ENDMDL
MODEL 6
REMARK VINA RESULT:      -9.8      0.887      5.813
REMARK  8 active torsions:
REMARK  status: ('A' for Active; 'I' for Inactive)
REMARK    1  A    between atoms: C_4  and  C_5 
REMARK    2  A    between atoms: C_5  and  N_6 
REMARK    3  A    between atoms: C_5  and  C_33 
REMARK    4  A    between atoms: N_10  and  C_11 
REMARK    5  A    between atoms: C_13  and  N_14 
REMARK    6  A    between atoms: N_14  and  C_15 
REMARK    7  A    between atoms: C_22  and  N_23 
REMARK    8  A    between atoms: N_23  and  C_24 
ROOT
HETATM    1  C   UNL     1      -6.886   1.188 -32.295  1.00  0.00     0.756 A 
HETATM    2  N   UNL     1      -7.958   1.833 -32.642  1.00  0.00     0.131 NA
HETATM    3  C   UNL     1      -8.491   1.599 -33.877  1.00  0.00     0.757 A 
HETATM    4  N   UNL     1      -7.860   0.703 -34.679  1.00  0.00    -0.016 N 
HETATM    5  C   UNL     1      -6.791  -0.003 -34.249  1.00  0.00     0.735 A 
HETATM    6  N   UNL     1      -6.310   0.204 -33.061  1.00  0.00     0.129 NA
HETATM    7  H   UNL     1      -8.335   0.430 -35.524  1.00  0.00     0.203 HD
ENDROOT
BRANCH   1   8
HETATM    8  N   UNL     1      -6.293   1.457 -31.067  1.00  0.00    -0.210 N 
HETATM    9  C   UNL     1      -6.781   2.591 -30.272  1.00  0.00     0.169 C 
HETATM   10  C   UNL     1      -6.091   3.881 -30.757  1.00  0.00     0.256 C 
HETATM   11  N   UNL     1      -4.566   3.714 -30.657  1.00  0.00    -0.056 N 
HETATM   12  H   UNL     1      -4.368   3.503 -29.674  1.00  0.00     0.281 HD
HETATM   13  C   UNL     1      -4.087   2.474 -31.424  1.00  0.00     0.256 C 
HETATM   14  C   UNL     1      -4.846   1.226 -30.919  1.00  0.00     0.169 C 
BRANCH  11  15
HETATM   15  C   UNL     1      -3.811   5.015 -30.920  1.00  0.00     0.254 C 
BRANCH  15  16
HETATM   16  C   UNL     1      -4.454   6.277 -30.351  1.00  0.00    -0.023 A 
HETATM   17  C   UNL     1      -4.928   7.261 -31.244  1.00  0.00     0.009 A 
HETATM   18  C   UNL     1      -5.490   8.452 -30.777  1.00  0.00     0.001 A 
HETATM   19  C   UNL     1      -5.598   8.682 -29.411  1.00  0.00     0.000 A 
HETATM   20  C   UNL     1      -5.147   7.722 -28.510  1.00  0.00     0.001 A 
HETATM   21  C   UNL     1      -4.582   6.532 -28.975  1.00  0.00     0.009 A 
ENDBRANCH  15  16
BRANCH  15  22
HETATM   22  C   UNL     1      -3.244   5.064 -32.338  1.00  0.00    -0.023 A 
HETATM   23  C   UNL     1      -4.148   5.170 -33.418  1.00  0.00     0.009 A 
HETATM   24  C   UNL     1      -3.698   5.253 -34.737  1.00  0.00     0.001 A 
HETATM   25  C   UNL     1      -2.334   5.235 -35.005  1.00  0.00     0.000 A 
HETATM   26  C   UNL     1      -1.425   5.129 -33.958  1.00  0.00     0.001 A 
HETATM   27  C   UNL     1      -1.873   5.045 -32.637  1.00  0.00     0.009 A 
ENDBRANCH  15  22
ENDBRANCH  11  15
ENDBRANCH   1   8
BRANCH   3  28
HETATM   28  N   UNL     1      -9.564   2.275 -34.135  1.00  0.00    -0.062 NA
BRANCH  28  29
HETATM   29  C   UNL     1     -10.806   1.627 -34.155  1.00  0.00     0.076 A 
HETATM   30  C   UNL     1     -11.006   0.496 -33.361  1.00  0.00     0.032 A 
HETATM   31  C   UNL     1     -12.238  -0.162 -33.362  1.00  0.00     0.002 A 
HETATM   32  C   UNL     1     -13.281   0.313 -34.157  1.00  0.00     0.000 A 
HETATM   33  C   UNL     1     -13.098   1.454 -34.937  1.00  0.00     0.002 A 
HETATM   34  C   UNL     1     -11.868   2.115 -34.925  1.00  0.00     0.032 A 
ENDBRANCH  28  29
ENDBRANCH   3  28
BRANCH   5  35
HETATM   35  N   UNL     1      -6.312  -0.903 -35.166  1.00  0.00    -0.189 N 
HETATM   36  H   UNL     1      -5.809  -0.503 -35.949  1.00  0.00     0.184 HD
BRANCH  35  37
HETATM   37  C   UNL     1      -5.911  -2.223 -34.871  1.00  0.00     0.049 A 
HETATM   38  C   UNL     1      -6.788  -3.309 -34.990  1.00  0.00     0.030 A 
HETATM   39  C   UNL     1      -6.371  -4.607 -34.685  1.00  0.00     0.002 A 
HETATM   40  C   UNL     1      -5.070  -4.834 -34.241  1.00  0.00     0.000 A 
HETATM   41  C   UNL     1      -4.187  -3.766 -34.112  1.00  0.00     0.002 A 
HETATM   42  C   UNL     1      -4.603  -2.469 -34.429  1.00  0.00     0.030 A 
ENDBRANCH  35  37
ENDBRANCH   5  35
TORSDOF 8
ENDMDL
MODEL 7
REMARK VINA RESULT:      -9.6      1.425      5.755
REMARK  8 active torsions:
REMARK  status: ('A' for Active; 'I' for Inactive)
REMARK    1  A    between atoms: C_4  and  C_5 
REMARK    2  A    between atoms: C_5  and  N_6 
REMARK    3  A    between atoms: C_5  and  C_33 
REMARK    4  A    between atoms: N_10  and  C_11 
REMARK    5  A    between atoms: C_13  and  N_14 
REMARK    6  A    between atoms: N_14  and  C_15 
REMARK    7  A    between atoms: C_22  and  N_23 
REMARK    8  A    between atoms: N_23  and  C_24 
ROOT
HETATM    1  C   UNL     1      -5.980   1.039 -31.681  1.00  0.00     0.756 A 
HETATM    2  N   UNL     1      -7.242   1.290 -31.505  1.00  0.00     0.131 NA
HETATM    3  C   UNL     1      -8.140   0.791 -32.405  1.00  0.00     0.757 A 
HETATM    4  N   UNL     1      -7.656   0.063 -33.443  1.00  0.00    -0.016 N 
HETATM    5  C   UNL     1      -6.343  -0.238 -33.547  1.00  0.00     0.735 A 
HETATM    6  N   UNL     1      -5.502   0.213 -32.669  1.00  0.00     0.129 NA
HETATM    7  H   UNL     1      -8.329  -0.418 -34.017  1.00  0.00     0.203 HD
ENDROOT
BRANCH   1   8
HETATM    8  N   UNL     1      -5.046   1.588 -30.811  1.00  0.00    -0.210 N 
HETATM    9  C   UNL     1      -5.512   2.424 -29.697  1.00  0.00     0.169 C 
HETATM   10  C   UNL     1      -5.719   3.866 -30.201  1.00  0.00     0.256 C 
HETATM   11  N   UNL     1      -4.407   4.387 -30.810  1.00  0.00    -0.056 N 
HETATM   12  H   UNL     1      -3.704   4.323 -30.068  1.00  0.00     0.281 HD
HETATM   13  C   UNL     1      -3.893   3.454 -31.914  1.00  0.00     0.256 C 
HETATM   14  C   UNL     1      -3.747   2.020 -31.355  1.00  0.00     0.169 C 
BRANCH  11  15
HETATM   15  C   UNL     1      -4.463   5.876 -31.145  1.00  0.00     0.254 C 
BRANCH  15  16
HETATM   16  C   UNL     1      -5.832   6.409 -31.557  1.00  0.00    -0.023 A 
HETATM   17  C   UNL     1      -6.391   7.483 -30.833  1.00  0.00     0.009 A 
HETATM   18  C   UNL     1      -7.658   7.984 -31.143  1.00  0.00     0.001 A 
HETATM   19  C   UNL     1      -8.390   7.429 -32.186  1.00  0.00     0.000 A 
HETATM   20  C   UNL     1      -7.856   6.376 -32.921  1.00  0.00     0.001 A 
HETATM   21  C   UNL     1      -6.591   5.871 -32.610  1.00  0.00     0.009 A 
ENDBRANCH  15  16
BRANCH  15  22
HETATM   22  C   UNL     1      -3.239   6.323 -31.943  1.00  0.00    -0.023 A 
HETATM   23  C   UNL     1      -2.054   6.631 -31.238  1.00  0.00     0.009 A 
HETATM   24  C   UNL     1      -0.889   7.013 -31.906  1.00  0.00     0.001 A 
HETATM   25  C   UNL     1      -0.882   7.094 -33.293  1.00  0.00     0.000 A 
HETATM   26  C   UNL     1      -2.037   6.799 -34.009  1.00  0.00     0.001 A 
HETATM   27  C   UNL     1      -3.205   6.416 -33.343  1.00  0.00     0.009 A 
ENDBRANCH  15  22
ENDBRANCH  11  15
ENDBRANCH   1   8
BRANCH   3  28
HETATM   28  N   UNL     1      -9.375   1.079 -32.145  1.00  0.00    -0.062 NA
BRANCH  28  29
HETATM   29  C   UNL     1     -10.167   1.693 -33.124  1.00  0.00     0.076 A 
HETATM   30  C   UNL     1      -9.815   2.957 -33.601  1.00  0.00     0.032 A 
HETATM   31  C   UNL     1     -10.586   3.585 -34.581  1.00  0.00     0.002 A 
HETATM   32  C   UNL     1     -11.715   2.947 -35.094  1.00  0.00     0.000 A 
HETATM   33  C   UNL     1     -12.063   1.676 -34.639  1.00  0.00     0.002 A 
HETATM   34  C   UNL     1     -11.283   1.047 -33.667  1.00  0.00     0.032 A 
ENDBRANCH  28  29
ENDBRANCH   3  28
BRANCH   5  35
HETATM   35  N   UNL     1      -6.037  -1.028 -34.625  1.00  0.00    -0.189 N 
HETATM   36  H   UNL     1      -5.622  -0.548 -35.415  1.00  0.00     0.184 HD
BRANCH  35  37
HETATM   37  C   UNL     1      -5.666  -2.387 -34.553  1.00  0.00     0.049 A 
HETATM   38  C   UNL     1      -4.388  -2.787 -34.138  1.00  0.00     0.030 A 
HETATM   39  C   UNL     1      -4.040  -4.139 -34.083  1.00  0.00     0.002 A 
HETATM   40  C   UNL     1      -4.965  -5.111 -34.455  1.00  0.00     0.000 A 
HETATM   41  C   UNL     1      -6.237  -4.732 -34.873  1.00  0.00     0.002 A 
HETATM   42  C   UNL     1      -6.587  -3.379 -34.918  1.00  0.00     0.030 A 
ENDBRANCH  35  37
ENDBRANCH   5  35
TORSDOF 8
ENDMDL
MODEL 8
REMARK VINA RESULT:      -9.6      3.691      7.274
REMARK  8 active torsions:
REMARK  status: ('A' for Active; 'I' for Inactive)
REMARK    1  A    between atoms: C_4  and  C_5 
REMARK    2  A    between atoms: C_5  and  N_6 
REMARK    3  A    between atoms: C_5  and  C_33 
REMARK    4  A    between atoms: N_10  and  C_11 
REMARK    5  A    between atoms: C_13  and  N_14 
REMARK    6  A    between atoms: N_14  and  C_15 
REMARK    7  A    between atoms: C_22  and  N_23 
REMARK    8  A    between atoms: N_23  and  C_24 
ROOT
HETATM    1  C   UNL     1      -5.063   6.806 -29.515  1.00  0.00     0.756 A 
HETATM    2  N   UNL     1      -4.881   6.960 -30.792  1.00  0.00     0.131 NA
HETATM    3  C   UNL     1      -5.269   5.957 -31.634  1.00  0.00     0.757 A 
HETATM    4  N   UNL     1      -5.820   4.845 -31.081  1.00  0.00    -0.016 N 
HETATM    5  C   UNL     1      -6.060   4.759 -29.754  1.00  0.00     0.735 A 
HETATM    6  N   UNL     1      -5.717   5.730 -28.966  1.00  0.00     0.129 NA
HETATM    7  H   UNL     1      -6.231   4.177 -31.711  1.00  0.00     0.203 HD
ENDROOT
BRANCH   1   8
HETATM    8  N   UNL     1      -4.619   7.789 -28.638  1.00  0.00    -0.210 N 
HETATM    9  C   UNL     1      -4.023   9.016 -29.183  1.00  0.00     0.169 C 
HETATM   10  C   UNL     1      -2.531   8.765 -29.474  1.00  0.00     0.256 C 
HETATM   11  N   UNL     1      -1.830   8.300 -28.187  1.00  0.00    -0.056 N 
HETATM   12  H   UNL     1      -1.981   9.042 -27.498  1.00  0.00     0.281 HD
HETATM   13  C   UNL     1      -2.520   7.067 -27.589  1.00  0.00     0.256 C 
HETATM   14  C   UNL     1      -4.018   7.371 -27.360  1.00  0.00     0.169 C 
BRANCH  11  15
HETATM   15  C   UNL     1      -0.311   8.228 -28.334  1.00  0.00     0.254 C 
BRANCH  15  16
HETATM   16  C   UNL     1       0.220   7.027 -29.110  1.00  0.00    -0.023 A 
HETATM   17  C   UNL     1       0.351   7.125 -30.512  1.00  0.00     0.009 A 
HETATM   18  C   UNL     1       0.796   6.043 -31.275  1.00  0.00     0.001 A 
HETATM   19  C   UNL     1       1.126   4.843 -30.657  1.00  0.00     0.000 A 
HETATM   20  C   UNL     1       1.015   4.725 -29.275  1.00  0.00     0.001 A 
HETATM   21  C   UNL     1       0.567   5.805 -28.510  1.00  0.00     0.009 A 
ENDBRANCH  15  16
BRANCH  15  22
HETATM   22  C   UNL     1       0.402   8.634 -27.046  1.00  0.00    -0.023 A 
HETATM   23  C   UNL     1      -0.362   9.226 -26.014  1.00  0.00     0.009 A 
HETATM   24  C   UNL     1       0.219   9.591 -24.798  1.00  0.00     0.001 A 
HETATM   25  C   UNL     1       1.574   9.369 -24.584  1.00  0.00     0.000 A 
HETATM   26  C   UNL     1       2.347   8.791 -25.586  1.00  0.00     0.001 A 
HETATM   27  C   UNL     1       1.768   8.425 -26.805  1.00  0.00     0.009 A 
ENDBRANCH  15  22
ENDBRANCH  11  15
ENDBRANCH   1   8
BRANCH   3  28
HETATM   28  N   UNL     1      -5.063   6.200 -32.888  1.00  0.00    -0.062 NA
BRANCH  28  29
HETATM   29  C   UNL     1      -3.767   6.103 -33.411  1.00  0.00     0.076 A 
HETATM   30  C   UNL     1      -3.437   5.028 -34.239  1.00  0.00     0.032 A 
HETATM   31  C   UNL     1      -2.154   4.915 -34.776  1.00  0.00     0.002 A 
HETATM   32  C   UNL     1      -1.191   5.883 -34.491  1.00  0.00     0.000 A 
HETATM   33  C   UNL     1      -1.516   6.971 -33.683  1.00  0.00     0.002 A 
HETATM   34  C   UNL     1      -2.804   7.086 -33.156  1.00  0.00     0.032 A 
ENDBRANCH  28  29
ENDBRANCH   3  28
BRANCH   5  35
HETATM   35  N   UNL     1      -6.670   3.591 -29.374  1.00  0.00    -0.189 N 
HETATM   36  H   UNL     1      -7.524   3.698 -28.839  1.00  0.00     0.184 HD
BRANCH  35  37
HETATM   37  C   UNL     1      -6.623   2.381 -30.098  1.00  0.00     0.049 A 
HETATM   38  C   UNL     1      -7.674   1.975 -30.933  1.00  0.00     0.030 A 
HETATM   39  C   UNL     1      -7.610   0.768 -31.633  1.00  0.00     0.002 A 
HETATM   40  C   UNL     1      -6.496  -0.057 -31.498  1.00  0.00     0.000 A 
HETATM   41  C   UNL     1      -5.446   0.329 -30.670  1.00  0.00     0.002 A 
HETATM   42  C   UNL     1      -5.507   1.542 -29.978  1.00  0.00     0.030 A 
ENDBRANCH  35  37
ENDBRANCH   5  35
TORSDOF 8
ENDMDL
MODEL 9
REMARK VINA RESULT:      -9.5      2.415      9.231
REMARK  8 active torsions:
REMARK  status: ('A' for Active; 'I' for Inactive)
REMARK    1  A    between atoms: C_4  and  C_5 
REMARK    2  A    between atoms: C_5  and  N_6 
REMARK    3  A    between atoms: C_5  and  C_33 
REMARK    4  A    between atoms: N_10  and  C_11 
REMARK    5  A    between atoms: C_13  and  N_14 
REMARK    6  A    between atoms: N_14  and  C_15 
REMARK    7  A    between atoms: C_22  and  N_23 
REMARK    8  A    between atoms: N_23  and  C_24 
ROOT
HETATM    1  C   UNL     1      -6.427   5.254 -31.326  1.00  0.00     0.756 A 
HETATM    2  N   UNL     1      -5.324   5.025 -31.972  1.00  0.00     0.131 NA
HETATM    3  C   UNL     1      -4.147   5.029 -31.280  1.00  0.00     0.757 A 
HETATM    4  N   UNL     1      -4.198   5.282 -29.947  1.00  0.00    -0.016 N 
HETATM    5  C   UNL     1      -5.374   5.440 -29.300  1.00  0.00     0.735 A 
HETATM    6  N   UNL     1      -6.490   5.402 -29.961  1.00  0.00     0.129 NA
HETATM    7  H   UNL     1      -3.350   5.143 -29.422  1.00  0.00     0.203 HD
ENDROOT
BRANCH   1   8
HETATM    8  N   UNL     1      -7.628   5.314 -32.022  1.00  0.00    -0.210 N 
HETATM    9  C   UNL     1      -8.873   4.959 -31.329  1.00  0.00     0.169 C 
HETATM   10  C   UNL     1      -9.057   3.429 -31.375  1.00  0.00     0.256 C 
HETATM   11  N   UNL     1      -9.051   2.957 -32.838  1.00  0.00    -0.056 N 
HETATM   12  H   UNL     1      -9.811   3.462 -33.302  1.00  0.00     0.281 HD
HETATM   13  C   UNL     1      -7.779   3.411 -33.567  1.00  0.00     0.256 C 
HETATM   14  C   UNL     1      -7.633   4.946 -33.448  1.00  0.00     0.169 C 
BRANCH  11  15
HETATM   15  C   UNL     1      -9.434   1.486 -32.985  1.00  0.00     0.254 C 
BRANCH  15  16
HETATM   16  C   UNL     1      -8.311   0.554 -33.430  1.00  0.00    -0.023 A 
HETATM   17  C   UNL     1      -8.190   0.239 -34.800  1.00  0.00     0.009 A 
HETATM   18  C   UNL     1      -7.204  -0.639 -35.257  1.00  0.00     0.001 A 
HETATM   19  C   UNL     1      -6.314  -1.216 -34.358  1.00  0.00     0.000 A 
HETATM   20  C   UNL     1      -6.406  -0.912 -33.004  1.00  0.00     0.001 A 
HETATM   21  C   UNL     1      -7.394  -0.037 -32.544  1.00  0.00     0.009 A 
ENDBRANCH  15  16
BRANCH  15  22
HETATM   22  C   UNL     1     -10.812   1.321 -33.625  1.00  0.00    -0.023 A 
HETATM   23  C   UNL     1     -11.598   0.209 -33.247  1.00  0.00     0.009 A 
HETATM   24  C   UNL     1     -12.879   0.015 -33.767  1.00  0.00     0.001 A 
HETATM   25  C   UNL     1     -13.404   0.929 -34.672  1.00  0.00     0.000 A 
HETATM   26  C   UNL     1     -12.648   2.030 -35.062  1.00  0.00     0.001 A 
HETATM   27  C   UNL     1     -11.365   2.226 -34.543  1.00  0.00     0.009 A 
ENDBRANCH  15  22
ENDBRANCH  11  15
ENDBRANCH   1   8
BRANCH   3  28
HETATM   28  N   UNL     1      -3.101   4.779 -32.001  1.00  0.00    -0.062 NA
BRANCH  28  29
HETATM   29  C   UNL     1      -1.891   5.427 -31.718  1.00  0.00     0.076 A 
HETATM   30  C   UNL     1      -1.710   6.753 -32.119  1.00  0.00     0.032 A 
HETATM   31  C   UNL     1      -0.515   7.419 -31.842  1.00  0.00     0.002 A 
HETATM   32  C   UNL     1       0.507   6.763 -31.157  1.00  0.00     0.000 A 
HETATM   33  C   UNL     1       0.328   5.446 -30.734  1.00  0.00     0.002 A 
HETATM   34  C   UNL     1      -0.873   4.787 -31.004  1.00  0.00     0.032 A 
ENDBRANCH  28  29
ENDBRANCH   3  28
BRANCH   5  35
HETATM   35  N   UNL     1      -5.245   5.631 -27.949  1.00  0.00    -0.189 N 
HETATM   36  H   UNL     1      -4.997   4.809 -27.412  1.00  0.00     0.184 HD
BRANCH  35  37
HETATM   37  C   UNL     1      -4.825   6.833 -27.339  1.00  0.00     0.049 A 
HETATM   38  C   UNL     1      -3.649   6.907 -26.579  1.00  0.00     0.030 A 
HETATM   39  C   UNL     1      -3.258   8.106 -25.977  1.00  0.00     0.002 A 
HETATM   40  C   UNL     1      -4.046   9.245 -26.116  1.00  0.00     0.000 A 
HETATM   41  C   UNL     1      -5.219   9.187 -26.863  1.00  0.00     0.002 A 
HETATM   42  C   UNL     1      -5.604   7.990 -27.475  1.00  0.00     0.030 A 
ENDBRANCH  35  37
ENDBRANCH   5  35
TORSDOF 8
ENDMDL
MODEL 10
REMARK VINA RESULT:      -9.5      2.562      8.762
REMARK  8 active torsions:
REMARK  status: ('A' for Active; 'I' for Inactive)
REMARK    1  A    between atoms: C_4  and  C_5 
REMARK    2  A    between atoms: C_5  and  N_6 
REMARK    3  A    between atoms: C_5  and  C_33 
REMARK    4  A    between atoms: N_10  and  C_11 
REMARK    5  A    between atoms: C_13  and  N_14 
REMARK    6  A    between atoms: N_14  and  C_15 
REMARK    7  A    between atoms: C_22  and  N_23 
REMARK    8  A    between atoms: N_23  and  C_24 
ROOT
HETATM    1  C   UNL     1      -7.290   5.107 -31.222  1.00  0.00     0.756 A 
HETATM    2  N   UNL     1      -6.506   6.033 -31.684  1.00  0.00     0.131 NA
HETATM    3  C   UNL     1      -5.155   5.866 -31.565  1.00  0.00     0.757 A 
HETATM    4  N   UNL     1      -4.709   4.737 -30.957  1.00  0.00    -0.016 N 
HETATM    5  C   UNL     1      -5.557   3.764 -30.559  1.00  0.00     0.735 A 
HETATM    6  N   UNL     1      -6.837   3.917 -30.706  1.00  0.00     0.129 NA
HETATM    7  H   UNL     1      -3.720   4.555 -31.001  1.00  0.00     0.203 HD
ENDROOT
BRANCH   1   8
HETATM    8  N   UNL     1      -8.667   5.285 -31.279  1.00  0.00    -0.210 N 
HETATM    9  C   UNL     1      -9.541   4.326 -30.591  1.00  0.00     0.169 C 
HETATM   10  C   UNL     1      -9.776   3.111 -31.510  1.00  0.00     0.256 C 
HETATM   11  N   UNL     1     -10.372   3.587 -32.844  1.00  0.00    -0.056 N 
HETATM   12  H   UNL     1     -11.238   4.081 -32.608  1.00  0.00     0.281 HD
HETATM   13  C   UNL     1      -9.486   4.652 -33.505  1.00  0.00     0.256 C 
HETATM   14  C   UNL     1      -9.256   5.820 -32.519  1.00  0.00     0.169 C 
BRANCH  11  15
HETATM   15  C   UNL     1     -10.830   2.432 -33.733  1.00  0.00     0.254 C 
BRANCH  15  16
HETATM   16  C   UNL     1     -12.302   2.048 -33.607  1.00  0.00    -0.023 A 
HETATM   17  C   UNL     1     -13.157   2.869 -32.842  1.00  0.00     0.009 A 
HETATM   18  C   UNL     1     -14.504   2.543 -32.663  1.00  0.00     0.001 A 
HETATM   19  C   UNL     1     -15.027   1.396 -33.248  1.00  0.00     0.000 A 
HETATM   20  C   UNL     1     -14.206   0.576 -34.016  1.00  0.00     0.001 A 
HETATM   21  C   UNL     1     -12.858   0.898 -34.194  1.00  0.00     0.009 A 
ENDBRANCH  15  16
BRANCH  15  22
HETATM   22  C   UNL     1      -9.790   1.315 -33.790  1.00  0.00    -0.023 A 
HETATM   23  C   UNL     1      -8.799   1.372 -34.797  1.00  0.00     0.009 A 
HETATM   24  C   UNL     1      -7.799   0.403 -34.888  1.00  0.00     0.001 A 
HETATM   25  C   UNL     1      -7.763  -0.642 -33.973  1.00  0.00     0.000 A 
HETATM   26  C   UNL     1      -8.729  -0.722 -32.975  1.00  0.00     0.001 A 
HETATM   27  C   UNL     1      -9.732   0.247 -32.882  1.00  0.00     0.009 A 
ENDBRANCH  15  22
ENDBRANCH  11  15
ENDBRANCH   1   8
BRANCH   3  28
HETATM   28  N   UNL     1      -4.451   6.830 -32.064  1.00  0.00    -0.062 NA
BRANCH  28  29
HETATM   29  C   UNL     1      -3.374   6.538 -32.912  1.00  0.00     0.076 A 
HETATM   30  C   UNL     1      -2.137   7.146 -32.689  1.00  0.00     0.032 A 
HETATM   31  C   UNL     1      -1.050   6.865 -33.518  1.00  0.00     0.002 A 
HETATM   32  C   UNL     1      -1.193   5.967 -34.575  1.00  0.00     0.000 A 
HETATM   33  C   UNL     1      -2.418   5.339 -34.793  1.00  0.00     0.002 A 
HETATM   34  C   UNL     1      -3.501   5.615 -33.956  1.00  0.00     0.032 A 
ENDBRANCH  28  29
ENDBRANCH   3  28
BRANCH   5  35
HETATM   35  N   UNL     1      -4.934   2.670 -30.017  1.00  0.00    -0.189 N 
HETATM   36  H   UNL     1      -5.055   2.548 -29.018  1.00  0.00     0.184 HD
BRANCH  35  37
HETATM   37  C   UNL     1      -4.698   1.455 -30.694  1.00  0.00     0.049 A 
HETATM   38  C   UNL     1      -5.660   0.436 -30.747  1.00  0.00     0.030 A 
HETATM   39  C   UNL     1      -5.400  -0.762 -31.417  1.00  0.00     0.002 A 
HETATM   40  C   UNL     1      -4.167  -0.964 -32.032  1.00  0.00     0.000 A 
HETATM   41  C   UNL     1      -3.199   0.035 -31.984  1.00  0.00     0.002 A 
HETATM   42  C   UNL     1      -3.464   1.239 -31.323  1.00  0.00     0.030 A 
ENDBRANCH  35  37
ENDBRANCH   5  35
TORSDOF 8
ENDMDL
