MODEL 1
REMARK VINA RESULT:      -9.6      0.000      0.000
REMARK  6 active torsions:
REMARK  status: ('A' for Active; 'I' for Inactive)
REMARK    1  A    between atoms: O_2  and  C_3 
REMARK    2  A    between atoms: C_6  and  N_7 
REMARK       I    between atoms: N_7  and  C_8 
REMARK       I    between atoms: C_8  and  N_9 
REMARK    3  A    between atoms: N_9  and  C_10 
REMARK    4  A    between atoms: C_10  and  C_11 
REMARK       I    between atoms: C_11  and  N_12 
REMARK    5  A    between atoms: N_12  and  N_13 
REMARK       I    between atoms: N_13  and  C_14 
REMARK       I    between atoms: C_14  and  N_15 
REMARK    6  A    between atoms: N_15  and  C_16 
ROOT
HETATM    1  C   UNL     1      -4.200   3.205 -32.210  1.00  0.00     0.253 C 
HETATM    2  N   UNL     1      -5.083   2.476 -32.984  1.00  0.00    -0.265 N 
HETATM    3  O   UNL     1      -4.344   3.353 -30.996  1.00  0.00    -0.270 OA
HETATM    4  H   UNL     1      -4.824   2.248 -33.946  1.00  0.00     0.190 HD
ENDROOT
BRANCH   2   5
HETATM    5  N   UNL     1      -6.037   1.681 -32.315  1.00  0.00    -0.249 N 
HETATM    6  C   UNL     1      -5.759   0.357 -32.017  1.00  0.00     0.339 C 
HETATM    7  N   UNL     1      -4.993  -0.281 -32.967  1.00  0.00    -0.307 N 
HETATM    8  O   UNL     1      -6.223  -0.135 -30.993  1.00  0.00    -0.245 OA
HETATM    9  H   UNL     1      -5.011   0.167 -33.866  1.00  0.00     0.170 HD
HETATM   10  H   UNL     1      -6.486   2.156 -31.530  1.00  0.00     0.192 HD
BRANCH   7  11
HETATM   11  C   UNL     1      -4.455  -1.594 -32.901  1.00  0.00     0.047 A 
HETATM   12  C   UNL     1      -4.988  -2.628 -33.736  1.00  0.00     0.001 A 
HETATM   13  C   UNL     1      -4.429  -3.931 -33.638  1.00  0.00    -0.024 A 
HETATM   14  C   UNL     1      -6.056  -2.460 -34.657  1.00  0.00     0.014 A 
HETATM   15  C   UNL     1      -4.935  -4.985 -34.417  1.00  0.00     0.012 A 
HETATM   16  C   UNL     1      -3.369  -4.180 -32.759  1.00  0.00     0.012 A 
HETATM   17  C   UNL     1      -5.989  -4.784 -35.304  1.00  0.00     0.001 A 
HETATM   18  C   UNL     1      -6.548  -3.520 -35.425  1.00  0.00     0.001 A 
HETATM   19  C   UNL     1      -2.846  -3.164 -31.970  1.00  0.00     0.003 A 
HETATM   20  C   UNL     1      -3.384  -1.882 -32.043  1.00  0.00     0.030 A 
ENDBRANCH   7  11
ENDBRANCH   2   5
BRANCH   1  21
HETATM   21  C   UNL     1      -2.934   3.653 -32.946  1.00  0.00     0.228 C 
BRANCH  21  22
HETATM   22  N   UNL     1      -2.484   5.011 -32.696  1.00  0.00    -0.334 N 
HETATM   23  C   UNL     1      -1.647   5.692 -33.521  1.00  0.00     0.321 C 
HETATM   24  N   UNL     1      -1.153   6.872 -33.054  1.00  0.00    -0.309 N 
HETATM   25  O   UNL     1      -1.410   5.316 -34.669  1.00  0.00    -0.247 OA
HETATM   26  H   UNL     1      -0.786   7.462 -33.790  1.00  0.00     0.170 HD
HETATM   27  H   UNL     1      -2.997   5.570 -32.025  1.00  0.00     0.164 HD
BRANCH  24  28
HETATM   28  C   UNL     1      -0.832   7.267 -31.738  1.00  0.00     0.036 A 
HETATM   29  C   UNL     1      -1.665   8.050 -30.934  1.00  0.00     0.032 A 
HETATM   30  C   UNL     1      -1.332   8.311 -29.598  1.00  0.00     0.039 A 
HETATM   31  C   UNL     1      -0.168   7.784 -29.047  1.00  0.00     0.068 A 
HETATM   32  C   UNL     1       0.681   7.025 -29.852  1.00  0.00     0.039 A 
HETATM   33  C   UNL     1       0.346   6.755 -31.184  1.00  0.00     0.032 A 
BRANCH  31  34
HETATM   34  O   UNL     1       0.245   7.943 -27.754  1.00  0.00    -0.356 OA
HETATM   35  C   UNL     1       1.469   8.646 -27.567  1.00  0.00     0.210 C 
ENDBRANCH  31  34
ENDBRANCH  24  28
ENDBRANCH  21  22
ENDBRANCH   1  21
TORSDOF 6
ENDMDL
MODEL 2
REMARK VINA RESULT:      -9.5      3.859      7.830
REMARK  6 active torsions:
REMARK  status: ('A' for Active; 'I' for Inactive)
REMARK    1  A    between atoms: O_2  and  C_3 
REMARK    2  A    between atoms: C_6  and  N_7 
REMARK       I    between atoms: N_7  and  C_8 
REMARK       I    between atoms: C_8  and  N_9 
REMARK    3  A    between atoms: N_9  and  C_10 
REMARK    4  A    between atoms: C_10  and  C_11 
REMARK       I    between atoms: C_11  and  N_12 
REMARK    5  A    between atoms: N_12  and  N_13 
REMARK       I    between atoms: N_13  and  C_14 
REMARK       I    between atoms: C_14  and  N_15 
REMARK    6  A    between atoms: N_15  and  C_16 
ROOT
HETATM    1  C   UNL     1      -5.638   4.845 -30.516  1.00  0.00     0.253 C 
HETATM    2  N   UNL     1      -4.455   4.265 -30.099  1.00  0.00    -0.265 N 
HETATM    3  O   UNL     1      -5.751   5.430 -31.593  1.00  0.00    -0.270 OA
HETATM    4  H   UNL     1      -4.466   3.653 -29.280  1.00  0.00     0.190 HD
ENDROOT
BRANCH   2   5
HETATM    5  N   UNL     1      -3.420   4.135 -31.049  1.00  0.00    -0.249 N 
HETATM    6  C   UNL     1      -3.385   3.041 -31.898  1.00  0.00     0.339 C 
HETATM    7  N   UNL     1      -3.837   1.873 -31.325  1.00  0.00    -0.307 N 
HETATM    8  O   UNL     1      -2.943   3.180 -33.035  1.00  0.00    -0.245 OA
HETATM    9  H   UNL     1      -3.821   1.885 -30.320  1.00  0.00     0.170 HD
HETATM   10  H   UNL     1      -3.210   5.002 -31.546  1.00  0.00     0.192 HD
BRANCH   7  11
HETATM   11  C   UNL     1      -4.025   0.616 -31.960  1.00  0.00     0.047 A 
HETATM   12  C   UNL     1      -5.002   0.478 -32.997  1.00  0.00     0.001 A 
HETATM   13  C   UNL     1      -5.168  -0.796 -33.605  1.00  0.00    -0.024 A 
HETATM   14  C   UNL     1      -5.844   1.521 -33.466  1.00  0.00     0.014 A 
HETATM   15  C   UNL     1      -6.131  -0.988 -34.610  1.00  0.00     0.012 A 
HETATM   16  C   UNL     1      -4.373  -1.877 -33.206  1.00  0.00     0.012 A 
HETATM   17  C   UNL     1      -6.944   0.058 -35.037  1.00  0.00     0.001 A 
HETATM   18  C   UNL     1      -6.799   1.314 -34.466  1.00  0.00     0.001 A 
HETATM   19  C   UNL     1      -3.413  -1.725 -32.213  1.00  0.00     0.003 A 
HETATM   20  C   UNL     1      -3.241  -0.488 -31.598  1.00  0.00     0.030 A 
ENDBRANCH   7  11
ENDBRANCH   2   5
BRANCH   1  21
HETATM   21  C   UNL     1      -6.842   4.539 -29.619  1.00  0.00     0.228 C 
BRANCH  21  22
HETATM   22  N   UNL     1      -7.677   3.417 -30.013  1.00  0.00    -0.334 N 
HETATM   23  C   UNL     1      -7.221   2.144 -30.134  1.00  0.00     0.321 C 
HETATM   24  N   UNL     1      -8.066   1.242 -30.706  1.00  0.00    -0.309 N 
HETATM   25  O   UNL     1      -6.136   1.791 -29.672  1.00  0.00    -0.247 OA
HETATM   26  H   UNL     1      -7.806   0.283 -30.511  1.00  0.00     0.170 HD
HETATM   27  H   UNL     1      -8.682   3.524 -29.954  1.00  0.00     0.164 HD
BRANCH  24  28
HETATM   28  C   UNL     1      -9.040   1.419 -31.711  1.00  0.00     0.036 A 
HETATM   29  C   UNL     1      -9.409   2.665 -32.227  1.00  0.00     0.032 A 
HETATM   30  C   UNL     1     -10.304   2.758 -33.303  1.00  0.00     0.039 A 
HETATM   31  C   UNL     1     -10.830   1.606 -33.881  1.00  0.00     0.068 A 
HETATM   32  C   UNL     1     -10.486   0.363 -33.352  1.00  0.00     0.039 A 
HETATM   33  C   UNL     1      -9.587   0.268 -32.285  1.00  0.00     0.032 A 
BRANCH  31  34
HETATM   34  O   UNL     1     -11.682   1.570 -34.949  1.00  0.00    -0.356 OA
HETATM   35  C   UNL     1     -13.025   1.187 -34.668  1.00  0.00     0.210 C 
ENDBRANCH  31  34
ENDBRANCH  24  28
ENDBRANCH  21  22
ENDBRANCH   1  21
TORSDOF 6
ENDMDL
MODEL 3
REMARK VINA RESULT:      -9.4      2.047      2.657
REMARK  6 active torsions:
REMARK  status: ('A' for Active; 'I' for Inactive)
REMARK    1  A    between atoms: O_2  and  C_3 
REMARK    2  A    between atoms: C_6  and  N_7 
REMARK       I    between atoms: N_7  and  C_8 
REMARK       I    between atoms: C_8  and  N_9 
REMARK    3  A    between atoms: N_9  and  C_10 
REMARK    4  A    between atoms: C_10  and  C_11 
REMARK       I    between atoms: C_11  and  N_12 
REMARK    5  A    between atoms: N_12  and  N_13 
REMARK       I    between atoms: N_13  and  C_14 
REMARK       I    between atoms: C_14  and  N_15 
REMARK    6  A    between atoms: N_15  and  C_16 
ROOT
HETATM    1  C   UNL     1      -6.621   4.370 -32.351  1.00  0.00     0.253 C 
HETATM    2  N   UNL     1      -5.985   4.042 -31.168  1.00  0.00    -0.265 N 
HETATM    3  O   UNL     1      -7.501   3.670 -32.850  1.00  0.00    -0.270 OA
HETATM    4  H   UNL     1      -5.388   4.739 -30.718  1.00  0.00     0.190 HD
ENDROOT
BRANCH   2   5
HETATM    5  N   UNL     1      -6.539   3.001 -30.394  1.00  0.00    -0.249 N 
HETATM    6  C   UNL     1      -5.988   1.730 -30.438  1.00  0.00     0.339 C 
HETATM    7  N   UNL     1      -5.495   1.376 -31.673  1.00  0.00    -0.307 N 
HETATM    8  O   UNL     1      -6.010   1.034 -29.426  1.00  0.00    -0.245 OA
HETATM    9  H   UNL     1      -5.874   1.919 -32.429  1.00  0.00     0.170 HD
HETATM   10  H   UNL     1      -6.767   3.279 -29.438  1.00  0.00     0.192 HD
BRANCH   7  11
HETATM   11  C   UNL     1      -4.780   0.195 -32.011  1.00  0.00     0.047 A 
HETATM   12  C   UNL     1      -5.307  -0.703 -32.994  1.00  0.00     0.001 A 
HETATM   13  C   UNL     1      -4.568  -1.878 -33.301  1.00  0.00    -0.024 A 
HETATM   14  C   UNL     1      -6.532  -0.521 -33.688  1.00  0.00     0.014 A 
HETATM   15  C   UNL     1      -5.055  -2.802 -34.241  1.00  0.00     0.012 A 
HETATM   16  C   UNL     1      -3.346  -2.129 -32.666  1.00  0.00     0.012 A 
HETATM   17  C   UNL     1      -6.266  -2.594 -34.895  1.00  0.00     0.001 A 
HETATM   18  C   UNL     1      -7.004  -1.452 -34.620  1.00  0.00     0.001 A 
HETATM   19  C   UNL     1      -2.835  -1.239 -31.730  1.00  0.00     0.003 A 
HETATM   20  C   UNL     1      -3.547  -0.087 -31.407  1.00  0.00     0.030 A 
ENDBRANCH   7  11
ENDBRANCH   2   5
BRANCH   1  21
HETATM   21  C   UNL     1      -6.276   5.761 -32.889  1.00  0.00     0.228 C 
BRANCH  21  22
HETATM   22  N   UNL     1      -4.881   6.004 -33.216  1.00  0.00    -0.334 N 
HETATM   23  C   UNL     1      -4.227   5.390 -34.235  1.00  0.00     0.321 C 
HETATM   24  N   UNL     1      -2.878   5.564 -34.290  1.00  0.00    -0.309 N 
HETATM   25  O   UNL     1      -4.824   4.779 -35.121  1.00  0.00    -0.247 OA
HETATM   26  H   UNL     1      -2.491   5.341 -35.199  1.00  0.00     0.170 HD
HETATM   27  H   UNL     1      -4.440   6.837 -32.844  1.00  0.00     0.164 HD
BRANCH  24  28
HETATM   28  C   UNL     1      -1.938   5.729 -33.250  1.00  0.00     0.036 A 
HETATM   29  C   UNL     1      -1.156   6.875 -33.083  1.00  0.00     0.032 A 
HETATM   30  C   UNL     1      -0.323   7.017 -31.964  1.00  0.00     0.039 A 
HETATM   31  C   UNL     1      -0.273   6.019 -30.994  1.00  0.00     0.068 A 
HETATM   32  C   UNL     1      -1.031   4.862 -31.171  1.00  0.00     0.039 A 
HETATM   33  C   UNL     1      -1.869   4.723 -32.282  1.00  0.00     0.032 A 
BRANCH  31  34
HETATM   34  O   UNL     1       0.473   6.058 -29.850  1.00  0.00    -0.356 OA
HETATM   35  C   UNL     1       0.950   4.806 -29.368  1.00  0.00     0.210 C 
ENDBRANCH  31  34
ENDBRANCH  24  28
ENDBRANCH  21  22
ENDBRANCH   1  21
TORSDOF 6
ENDMDL
MODEL 4
REMARK VINA RESULT:      -9.3      2.522      3.670
REMARK  6 active torsions:
REMARK  status: ('A' for Active; 'I' for Inactive)
REMARK    1  A    between atoms: O_2  and  C_3 
REMARK    2  A    between atoms: C_6  and  N_7 
REMARK       I    between atoms: N_7  and  C_8 
REMARK       I    between atoms: C_8  and  N_9 
REMARK    3  A    between atoms: N_9  and  C_10 
REMARK    4  A    between atoms: C_10  and  C_11 
REMARK       I    between atoms: C_11  and  N_12 
REMARK    5  A    between atoms: N_12  and  N_13 
REMARK       I    between atoms: N_13  and  C_14 
REMARK       I    between atoms: C_14  and  N_15 
REMARK    6  A    between atoms: N_15  and  C_16 
ROOT
HETATM    1  C   UNL     1      -2.379   5.601 -31.603  1.00  0.00     0.253 C 
HETATM    2  N   UNL     1      -2.610   4.262 -31.347  1.00  0.00    -0.265 N 
HETATM    3  O   UNL     1      -3.274   6.446 -31.589  1.00  0.00    -0.270 OA
HETATM    4  H   UNL     1      -1.810   3.641 -31.209  1.00  0.00     0.190 HD
ENDROOT
BRANCH   2   5
HETATM    5  N   UNL     1      -3.867   3.905 -30.815  1.00  0.00    -0.249 N 
HETATM    6  C   UNL     1      -4.351   2.617 -30.974  1.00  0.00     0.339 C 
HETATM    7  N   UNL     1      -4.009   2.034 -32.173  1.00  0.00    -0.307 N 
HETATM    8  O   UNL     1      -5.046   2.126 -30.089  1.00  0.00    -0.245 OA
HETATM    9  H   UNL     1      -3.750   2.696 -32.884  1.00  0.00     0.170 HD
HETATM   10  H   UNL     1      -4.021   4.250 -29.867  1.00  0.00     0.192 HD
BRANCH   7  11
HETATM   11  C   UNL     1      -4.260   0.698 -32.586  1.00  0.00     0.047 A 
HETATM   12  C   UNL     1      -5.363   0.413 -33.454  1.00  0.00     0.001 A 
HETATM   13  C   UNL     1      -5.587  -0.937 -33.841  1.00  0.00    -0.024 A 
HETATM   14  C   UNL     1      -6.274   1.379 -33.956  1.00  0.00     0.014 A 
HETATM   15  C   UNL     1      -6.670  -1.271 -34.670  1.00  0.00     0.012 A 
HETATM   16  C   UNL     1      -4.730  -1.950 -33.395  1.00  0.00     0.012 A 
HETATM   17  C   UNL     1      -7.549  -0.296 -35.135  1.00  0.00     0.001 A 
HETATM   18  C   UNL     1      -7.349   1.029 -34.780  1.00  0.00     0.001 A 
HETATM   19  C   UNL     1      -3.651  -1.658 -32.570  1.00  0.00     0.003 A 
HETATM   20  C   UNL     1      -3.419  -0.344 -32.172  1.00  0.00     0.030 A 
ENDBRANCH   7  11
ENDBRANCH   2   5
BRANCH   1  21
HETATM   21  C   UNL     1      -0.900   5.976 -31.722  1.00  0.00     0.228 C 
BRANCH  21  22
HETATM   22  N   UNL     1      -0.193   6.233 -30.478  1.00  0.00    -0.334 N 
HETATM   23  C   UNL     1       0.302   5.254 -29.677  1.00  0.00     0.321 C 
HETATM   24  N   UNL     1       0.755   5.638 -28.451  1.00  0.00    -0.309 N 
HETATM   25  O   UNL     1       0.422   4.091 -30.061  1.00  0.00    -0.247 OA
HETATM   26  H   UNL     1       1.362   4.949 -28.025  1.00  0.00     0.170 HD
HETATM   27  H   UNL     1       0.171   7.164 -30.317  1.00  0.00     0.164 HD
BRANCH  24  28
HETATM   28  C   UNL     1       0.311   6.672 -27.599  1.00  0.00     0.036 A 
HETATM   29  C   UNL     1      -0.928   6.669 -26.952  1.00  0.00     0.032 A 
HETATM   30  C   UNL     1      -1.258   7.675 -26.034  1.00  0.00     0.039 A 
HETATM   31  C   UNL     1      -0.348   8.688 -25.744  1.00  0.00     0.068 A 
HETATM   32  C   UNL     1       0.878   8.710 -26.407  1.00  0.00     0.039 A 
HETATM   33  C   UNL     1       1.213   7.702 -27.317  1.00  0.00     0.032 A 
BRANCH  31  34
HETATM   34  O   UNL     1      -0.544   9.701 -24.847  1.00  0.00    -0.356 OA
HETATM   35  C   UNL     1      -1.794   9.703 -24.165  1.00  0.00     0.210 C 
ENDBRANCH  31  34
ENDBRANCH  24  28
ENDBRANCH  21  22
ENDBRANCH   1  21
TORSDOF 6
ENDMDL
MODEL 5
REMARK VINA RESULT:      -9.3      1.312      2.513
REMARK  6 active torsions:
REMARK  status: ('A' for Active; 'I' for Inactive)
REMARK    1  A    between atoms: O_2  and  C_3 
REMARK    2  A    between atoms: C_6  and  N_7 
REMARK       I    between atoms: N_7  and  C_8 
REMARK       I    between atoms: C_8  and  N_9 
REMARK    3  A    between atoms: N_9  and  C_10 
REMARK    4  A    between atoms: C_10  and  C_11 
REMARK       I    between atoms: C_11  and  N_12 
REMARK    5  A    between atoms: N_12  and  N_13 
REMARK       I    between atoms: N_13  and  C_14 
REMARK       I    between atoms: C_14  and  N_15 
REMARK    6  A    between atoms: N_15  and  C_16 
ROOT
HETATM    1  C   UNL     1      -4.855   2.402 -31.371  1.00  0.00     0.253 C 
HETATM    2  N   UNL     1      -5.364   2.358 -32.655  1.00  0.00    -0.265 N 
HETATM    3  O   UNL     1      -5.553   2.233 -30.372  1.00  0.00    -0.270 OA
HETATM    4  H   UNL     1      -4.714   2.338 -33.444  1.00  0.00     0.190 HD
ENDROOT
BRANCH   2   5
HETATM    5  N   UNL     1      -6.674   1.862 -32.824  1.00  0.00    -0.249 N 
HETATM    6  C   UNL     1      -6.886   0.512 -33.054  1.00  0.00     0.339 C 
HETATM    7  N   UNL     1      -5.906  -0.086 -33.813  1.00  0.00    -0.307 N 
HETATM    8  O   UNL     1      -7.901  -0.017 -32.613  1.00  0.00    -0.245 OA
HETATM    9  H   UNL     1      -5.364   0.563 -34.356  1.00  0.00     0.170 HD
HETATM   10  H   UNL     1      -7.342   2.237 -32.148  1.00  0.00     0.192 HD
BRANCH   7  11
HETATM   11  C   UNL     1      -5.781  -1.466 -34.128  1.00  0.00     0.047 A 
HETATM   12  C   UNL     1      -4.797  -2.265 -33.462  1.00  0.00     0.001 A 
HETATM   13  C   UNL     1      -4.696  -3.641 -33.808  1.00  0.00    -0.024 A 
HETATM   14  C   UNL     1      -3.890  -1.788 -32.479  1.00  0.00     0.014 A 
HETATM   15  C   UNL     1      -3.730  -4.460 -33.201  1.00  0.00     0.012 A 
HETATM   16  C   UNL     1      -5.557  -4.193 -34.763  1.00  0.00     0.012 A 
HETATM   17  C   UNL     1      -2.851  -3.953 -32.247  1.00  0.00     0.001 A 
HETATM   18  C   UNL     1      -2.933  -2.617 -31.885  1.00  0.00     0.001 A 
HETATM   19  C   UNL     1      -6.522  -3.412 -35.387  1.00  0.00     0.003 A 
HETATM   20  C   UNL     1      -6.632  -2.061 -35.069  1.00  0.00     0.030 A 
ENDBRANCH   7  11
ENDBRANCH   2   5
BRANCH   1  21
HETATM   21  C   UNL     1      -3.328   2.492 -31.299  1.00  0.00     0.228 C 
BRANCH  21  22
HETATM   22  N   UNL     1      -2.760   3.824 -31.185  1.00  0.00    -0.334 N 
HETATM   23  C   UNL     1      -2.129   4.465 -32.203  1.00  0.00     0.321 C 
HETATM   24  N   UNL     1      -1.473   5.616 -31.889  1.00  0.00    -0.309 N 
HETATM   25  O   UNL     1      -2.215   4.082 -33.369  1.00  0.00    -0.247 OA
HETATM   26  H   UNL     1      -1.278   6.189 -32.701  1.00  0.00     0.170 HD
HETATM   27  H   UNL     1      -3.055   4.406 -30.410  1.00  0.00     0.164 HD
BRANCH  24  28
HETATM   28  C   UNL     1      -0.806   5.988 -30.703  1.00  0.00     0.036 A 
HETATM   29  C   UNL     1       0.049   5.142 -29.992  1.00  0.00     0.032 A 
HETATM   30  C   UNL     1       0.765   5.614 -28.883  1.00  0.00     0.039 A 
HETATM   31  C   UNL     1       0.642   6.941 -28.480  1.00  0.00     0.068 A 
HETATM   32  C   UNL     1      -0.230   7.782 -29.169  1.00  0.00     0.039 A 
HETATM   33  C   UNL     1      -0.939   7.315 -30.282  1.00  0.00     0.032 A 
BRANCH  31  34
HETATM   34  O   UNL     1       1.310   7.521 -27.439  1.00  0.00    -0.356 OA
HETATM   35  C   UNL     1       0.698   7.406 -26.158  1.00  0.00     0.210 C 
ENDBRANCH  31  34
ENDBRANCH  24  28
ENDBRANCH  21  22
ENDBRANCH   1  21
TORSDOF 6
ENDMDL
MODEL 6
REMARK VINA RESULT:      -9.1      2.544      3.734
REMARK  6 active torsions:
REMARK  status: ('A' for Active; 'I' for Inactive)
REMARK    1  A    between atoms: O_2  and  C_3 
REMARK    2  A    between atoms: C_6  and  N_7 
REMARK       I    between atoms: N_7  and  C_8 
REMARK       I    between atoms: C_8  and  N_9 
REMARK    3  A    between atoms: N_9  and  C_10 
REMARK    4  A    between atoms: C_10  and  C_11 
REMARK       I    between atoms: C_11  and  N_12 
REMARK    5  A    between atoms: N_12  and  N_13 
REMARK       I    between atoms: N_13  and  C_14 
REMARK       I    between atoms: C_14  and  N_15 
REMARK    6  A    between atoms: N_15  and  C_16 
ROOT
HETATM    1  C   UNL     1      -2.898   4.533 -31.645  1.00  0.00     0.253 C 
HETATM    2  N   UNL     1      -3.181   3.274 -31.150  1.00  0.00    -0.265 N 
HETATM    3  O   UNL     1      -3.757   5.404 -31.780  1.00  0.00    -0.270 OA
HETATM    4  H   UNL     1      -2.407   2.654 -30.904  1.00  0.00     0.190 HD
ENDROOT
BRANCH   2   5
HETATM    5  N   UNL     1      -4.446   3.072 -30.559  1.00  0.00    -0.249 N 
HETATM    6  C   UNL     1      -5.352   2.192 -31.130  1.00  0.00     0.339 C 
HETATM    7  N   UNL     1      -5.310   2.161 -32.505  1.00  0.00    -0.307 N 
HETATM    8  O   UNL     1      -6.111   1.561 -30.402  1.00  0.00    -0.245 OA
HETATM    9  H   UNL     1      -4.888   2.976 -32.915  1.00  0.00     0.170 HD
HETATM   10  H   UNL     1      -4.410   2.968 -29.544  1.00  0.00     0.192 HD
BRANCH   7  11
HETATM   11  C   UNL     1      -6.029   1.293 -33.371  1.00  0.00     0.047 A 
HETATM   12  C   UNL     1      -5.569  -0.046 -33.584  1.00  0.00     0.001 A 
HETATM   13  C   UNL     1      -6.310  -0.884 -34.462  1.00  0.00    -0.024 A 
HETATM   14  C   UNL     1      -4.409  -0.612 -32.993  1.00  0.00     0.014 A 
HETATM   15  C   UNL     1      -5.886  -2.198 -34.723  1.00  0.00     0.012 A 
HETATM   16  C   UNL     1      -7.471  -0.406 -35.081  1.00  0.00     0.012 A 
HETATM   17  C   UNL     1      -4.736  -2.714 -34.131  1.00  0.00     0.001 A 
HETATM   18  C   UNL     1      -3.999  -1.921 -33.264  1.00  0.00     0.001 A 
HETATM   19  C   UNL     1      -7.919   0.889 -34.849  1.00  0.00     0.003 A 
HETATM   20  C   UNL     1      -7.203   1.729 -34.000  1.00  0.00     0.030 A 
ENDBRANCH   7  11
ENDBRANCH   2   5
BRANCH   1  21
HETATM   21  C   UNL     1      -1.405   4.817 -31.833  1.00  0.00     0.228 C 
BRANCH  21  22
HETATM   22  N   UNL     1      -0.766   5.633 -30.815  1.00  0.00    -0.334 N 
HETATM   23  C   UNL     1       0.368   5.271 -30.161  1.00  0.00     0.321 C 
HETATM   24  N   UNL     1       0.732   6.038 -29.096  1.00  0.00    -0.309 N 
HETATM   25  O   UNL     1       1.087   4.353 -30.556  1.00  0.00    -0.247 OA
HETATM   26  H   UNL     1       1.702   5.911 -28.835  1.00  0.00     0.170 HD
HETATM   27  H   UNL     1      -1.017   6.613 -30.759  1.00  0.00     0.164 HD
BRANCH  24  28
HETATM   28  C   UNL     1      -0.064   6.739 -28.165  1.00  0.00     0.036 A 
HETATM   29  C   UNL     1      -0.571   6.173 -26.992  1.00  0.00     0.032 A 
HETATM   30  C   UNL     1      -1.263   6.958 -26.059  1.00  0.00     0.039 A 
HETATM   31  C   UNL     1      -1.444   8.320 -26.283  1.00  0.00     0.068 A 
HETATM   32  C   UNL     1      -0.963   8.884 -27.464  1.00  0.00     0.039 A 
HETATM   33  C   UNL     1      -0.266   8.103 -28.393  1.00  0.00     0.032 A 
BRANCH  31  34
HETATM   34  O   UNL     1      -2.069   9.190 -25.435  1.00  0.00    -0.356 OA
HETATM   35  C   UNL     1      -2.784   8.606 -24.351  1.00  0.00     0.210 C 
ENDBRANCH  31  34
ENDBRANCH  24  28
ENDBRANCH  21  22
ENDBRANCH   1  21
TORSDOF 6
ENDMDL
MODEL 7
REMARK VINA RESULT:      -9.1      1.700      2.852
REMARK  6 active torsions:
REMARK  status: ('A' for Active; 'I' for Inactive)
REMARK    1  A    between atoms: O_2  and  C_3 
REMARK    2  A    between atoms: C_6  and  N_7 
REMARK       I    between atoms: N_7  and  C_8 
REMARK       I    between atoms: C_8  and  N_9 
REMARK    3  A    between atoms: N_9  and  C_10 
REMARK    4  A    between atoms: C_10  and  C_11 
REMARK       I    between atoms: C_11  and  N_12 
REMARK    5  A    between atoms: N_12  and  N_13 
REMARK       I    between atoms: N_13  and  C_14 
REMARK       I    between atoms: C_14  and  N_15 
REMARK    6  A    between atoms: N_15  and  C_16 
ROOT
HETATM    1  C   UNL     1      -5.131   4.742 -33.346  1.00  0.00     0.253 C 
HETATM    2  N   UNL     1      -6.234   4.330 -34.070  1.00  0.00    -0.265 N 
HETATM    3  O   UNL     1      -5.106   4.747 -32.115  1.00  0.00    -0.270 OA
HETATM    4  H   UNL     1      -6.139   4.189 -35.078  1.00  0.00     0.190 HD
ENDROOT
BRANCH   2   5
HETATM    5  N   UNL     1      -7.266   3.669 -33.371  1.00  0.00    -0.249 N 
HETATM    6  C   UNL     1      -7.183   2.308 -33.128  1.00  0.00     0.339 C 
HETATM    7  N   UNL     1      -6.576   1.595 -34.137  1.00  0.00    -0.307 N 
HETATM    8  O   UNL     1      -7.665   1.855 -32.093  1.00  0.00    -0.245 OA
HETATM    9  H   UNL     1      -6.570   2.073 -35.021  1.00  0.00     0.170 HD
HETATM   10  H   UNL     1      -7.594   4.178 -32.549  1.00  0.00     0.192 HD
BRANCH   7  11
HETATM   11  C   UNL     1      -6.247   0.212 -34.139  1.00  0.00     0.047 A 
HETATM   12  C   UNL     1      -5.136  -0.260 -33.369  1.00  0.00     0.001 A 
HETATM   13  C   UNL     1      -4.833  -1.648 -33.401  1.00  0.00    -0.024 A 
HETATM   14  C   UNL     1      -4.291   0.558 -32.574  1.00  0.00     0.014 A 
HETATM   15  C   UNL     1      -3.738  -2.157 -32.682  1.00  0.00     0.012 A 
HETATM   16  C   UNL     1      -5.621  -2.526 -34.155  1.00  0.00     0.012 A 
HETATM   17  C   UNL     1      -2.926  -1.321 -31.921  1.00  0.00     0.001 A 
HETATM   18  C   UNL     1      -3.204   0.037 -31.865  1.00  0.00     0.001 A 
HETATM   19  C   UNL     1      -6.709  -2.058 -34.881  1.00  0.00     0.003 A 
HETATM   20  C   UNL     1      -7.019  -0.701 -34.871  1.00  0.00     0.030 A 
ENDBRANCH   7  11
ENDBRANCH   2   5
BRANCH   1  21
HETATM   21  C   UNL     1      -3.884   5.012 -34.192  1.00  0.00     0.228 C 
BRANCH  21  22
HETATM   22  N   UNL     1      -2.847   5.826 -33.579  1.00  0.00    -0.334 N 
HETATM   23  C   UNL     1      -1.588   5.940 -34.074  1.00  0.00     0.321 C 
HETATM   24  N   UNL     1      -0.674   6.569 -33.285  1.00  0.00    -0.309 N 
HETATM   25  O   UNL     1      -1.297   5.577 -35.214  1.00  0.00    -0.247 OA
HETATM   26  H   UNL     1       0.141   6.880 -33.799  1.00  0.00     0.170 HD
HETATM   27  H   UNL     1      -3.125   6.532 -32.908  1.00  0.00     0.164 HD
BRANCH  24  28
HETATM   28  C   UNL     1      -0.560   6.607 -31.879  1.00  0.00     0.036 A 
HETATM   29  C   UNL     1      -1.131   7.600 -31.078  1.00  0.00     0.032 A 
HETATM   30  C   UNL     1      -1.072   7.516 -29.680  1.00  0.00     0.039 A 
HETATM   31  C   UNL     1      -0.450   6.431 -29.067  1.00  0.00     0.068 A 
HETATM   32  C   UNL     1       0.145   5.452 -29.862  1.00  0.00     0.039 A 
HETATM   33  C   UNL     1       0.079   5.531 -31.257  1.00  0.00     0.032 A 
BRANCH  31  34
HETATM   34  O   UNL     1      -0.357   6.224 -27.720  1.00  0.00    -0.356 OA
HETATM   35  C   UNL     1      -0.985   7.197 -26.890  1.00  0.00     0.210 C 
ENDBRANCH  31  34
ENDBRANCH  24  28
ENDBRANCH  21  22
ENDBRANCH   1  21
TORSDOF 6
ENDMDL
MODEL 8
REMARK VINA RESULT:      -9.1      1.821      3.127
REMARK  6 active torsions:
REMARK  status: ('A' for Active; 'I' for Inactive)
REMARK    1  A    between atoms: O_2  and  C_3 
REMARK    2  A    between atoms: C_6  and  N_7 
REMARK       I    between atoms: N_7  and  C_8 
REMARK       I    between atoms: C_8  and  N_9 
REMARK    3  A    between atoms: N_9  and  C_10 
REMARK    4  A    between atoms: C_10  and  C_11 
REMARK       I    between atoms: C_11  and  N_12 
REMARK    5  A    between atoms: N_12  and  N_13 
REMARK       I    between atoms: N_13  and  C_14 
REMARK       I    between atoms: C_14  and  N_15 
REMARK    6  A    between atoms: N_15  and  C_16 
ROOT
HETATM    1  C   UNL     1      -3.330   2.903 -31.368  1.00  0.00     0.253 C 
HETATM    2  N   UNL     1      -4.284   3.536 -30.593  1.00  0.00    -0.265 N 
HETATM    3  O   UNL     1      -2.927   1.765 -31.130  1.00  0.00    -0.270 OA
HETATM    4  H   UNL     1      -4.699   4.406 -30.933  1.00  0.00     0.190 HD
ENDROOT
BRANCH   2   5
HETATM    5  N   UNL     1      -4.985   2.755 -29.651  1.00  0.00    -0.249 N 
HETATM    6  C   UNL     1      -5.844   1.753 -30.074  1.00  0.00     0.339 C 
HETATM    7  N   UNL     1      -6.513   2.047 -31.241  1.00  0.00    -0.307 N 
HETATM    8  O   UNL     1      -5.964   0.740 -29.392  1.00  0.00    -0.245 OA
HETATM    9  H   UNL     1      -6.548   3.029 -31.450  1.00  0.00     0.170 HD
HETATM   10  H   UNL     1      -4.409   2.448 -28.865  1.00  0.00     0.192 HD
BRANCH   7  11
HETATM   11  C   UNL     1      -7.372   1.191 -31.982  1.00  0.00     0.047 A 
HETATM   12  C   UNL     1      -6.818   0.151 -32.795  1.00  0.00     0.001 A 
HETATM   13  C   UNL     1      -7.707  -0.681 -33.528  1.00  0.00    -0.024 A 
HETATM   14  C   UNL     1      -5.431  -0.112 -32.945  1.00  0.00     0.014 A 
HETATM   15  C   UNL     1      -7.211  -1.699 -34.360  1.00  0.00     0.012 A 
HETATM   16  C   UNL     1      -9.091  -0.492 -33.431  1.00  0.00     0.012 A 
HETATM   17  C   UNL     1      -5.843  -1.921 -34.488  1.00  0.00     0.001 A 
HETATM   18  C   UNL     1      -4.953  -1.129 -33.778  1.00  0.00     0.001 A 
HETATM   19  C   UNL     1      -9.618   0.506 -32.622  1.00  0.00     0.003 A 
HETATM   20  C   UNL     1      -8.764   1.339 -31.903  1.00  0.00     0.030 A 
ENDBRANCH   7  11
ENDBRANCH   2   5
BRANCH   1  21
HETATM   21  C   UNL     1      -2.955   3.655 -32.648  1.00  0.00     0.228 C 
BRANCH  21  22
HETATM   22  N   UNL     1      -2.500   5.026 -32.486  1.00  0.00    -0.334 N 
HETATM   23  C   UNL     1      -1.577   5.613 -33.291  1.00  0.00     0.321 C 
HETATM   24  N   UNL     1      -1.103   6.827 -32.894  1.00  0.00    -0.309 N 
HETATM   25  O   UNL     1      -1.246   5.126 -34.372  1.00  0.00    -0.247 OA
HETATM   26  H   UNL     1      -0.658   7.338 -33.647  1.00  0.00     0.170 HD
HETATM   27  H   UNL     1      -3.060   5.653 -31.922  1.00  0.00     0.164 HD
BRANCH  24  28
HETATM   28  C   UNL     1      -0.894   7.342 -31.597  1.00  0.00     0.036 A 
HETATM   29  C   UNL     1      -1.782   8.206 -30.951  1.00  0.00     0.032 A 
HETATM   30  C   UNL     1      -1.565   8.591 -29.620  1.00  0.00     0.039 A 
HETATM   31  C   UNL     1      -0.464   8.107 -28.918  1.00  0.00     0.068 A 
HETATM   32  C   UNL     1       0.439   7.267 -29.568  1.00  0.00     0.039 A 
HETATM   33  C   UNL     1       0.220   6.874 -30.893  1.00  0.00     0.032 A 
BRANCH  31  34
HETATM   34  O   UNL     1      -0.167   8.384 -27.614  1.00  0.00    -0.356 OA
HETATM   35  C   UNL     1      -1.267   8.732 -26.779  1.00  0.00     0.210 C 
ENDBRANCH  31  34
ENDBRANCH  24  28
ENDBRANCH  21  22
ENDBRANCH   1  21
TORSDOF 6
ENDMDL
MODEL 9
REMARK VINA RESULT:      -8.9      3.340      5.176
REMARK  6 active torsions:
REMARK  status: ('A' for Active; 'I' for Inactive)
REMARK    1  A    between atoms: O_2  and  C_3 
REMARK    2  A    between atoms: C_6  and  N_7 
REMARK       I    between atoms: N_7  and  C_8 
REMARK       I    between atoms: C_8  and  N_9 
REMARK    3  A    between atoms: N_9  and  C_10 
REMARK    4  A    between atoms: C_10  and  C_11 
REMARK       I    between atoms: C_11  and  N_12 
REMARK    5  A    between atoms: N_12  and  N_13 
REMARK       I    between atoms: N_13  and  C_14 
REMARK       I    between atoms: C_14  and  N_15 
REMARK    6  A    between atoms: N_15  and  C_16 
ROOT
HETATM    1  C   UNL     1      -9.559   3.495 -31.388  1.00  0.00     0.253 C 
HETATM    2  N   UNL     1      -9.892   3.048 -32.653  1.00  0.00    -0.265 N 
HETATM    3  O   UNL     1      -9.915   2.918 -30.361  1.00  0.00    -0.270 OA
HETATM    4  H   UNL     1      -9.432   3.468 -33.463  1.00  0.00     0.190 HD
ENDROOT
BRANCH   2   5
HETATM    5  N   UNL     1     -10.451   1.757 -32.764  1.00  0.00    -0.249 N 
HETATM    6  C   UNL     1      -9.629   0.644 -32.835  1.00  0.00     0.339 C 
HETATM    7  N   UNL     1      -8.453   0.860 -33.517  1.00  0.00    -0.307 N 
HETATM    8  O   UNL     1     -10.008  -0.411 -32.337  1.00  0.00    -0.245 OA
HETATM    9  H   UNL     1      -8.484   1.655 -34.132  1.00  0.00     0.170 HD
HETATM   10  H   UNL     1     -11.243   1.600 -32.138  1.00  0.00     0.192 HD
BRANCH   7  11
HETATM   11  C   UNL     1      -7.366  -0.042 -33.669  1.00  0.00     0.047 A 
HETATM   12  C   UNL     1      -6.315  -0.065 -32.696  1.00  0.00     0.001 A 
HETATM   13  C   UNL     1      -5.240  -0.975 -32.884  1.00  0.00    -0.024 A 
HETATM   14  C   UNL     1      -6.250   0.769 -31.549  1.00  0.00     0.014 A 
HETATM   15  C   UNL     1      -4.173  -1.019 -31.971  1.00  0.00     0.012 A 
HETATM   16  C   UNL     1      -5.230  -1.838 -33.987  1.00  0.00     0.012 A 
HETATM   17  C   UNL     1      -4.140  -0.178 -30.862  1.00  0.00     0.001 A 
HETATM   18  C   UNL     1      -5.180   0.714 -30.650  1.00  0.00     0.001 A 
HETATM   19  C   UNL     1      -6.266  -1.821 -34.912  1.00  0.00     0.003 A 
HETATM   20  C   UNL     1      -7.324  -0.930 -34.752  1.00  0.00     0.030 A 
ENDBRANCH   7  11
ENDBRANCH   2   5
BRANCH   1  21
HETATM   21  C   UNL     1      -8.558   4.655 -31.371  1.00  0.00     0.228 C 
BRANCH  21  22
HETATM   22  N   UNL     1      -7.161   4.304 -31.181  1.00  0.00    -0.334 N 
HETATM   23  C   UNL     1      -6.516   4.395 -29.989  1.00  0.00     0.321 C 
HETATM   24  N   UNL     1      -5.165   4.229 -30.010  1.00  0.00    -0.309 N 
HETATM   25  O   UNL     1      -7.122   4.530 -28.926  1.00  0.00    -0.247 OA
HETATM   26  H   UNL     1      -4.782   4.018 -29.097  1.00  0.00     0.170 HD
HETATM   27  H   UNL     1      -6.709   3.736 -31.888  1.00  0.00     0.164 HD
BRANCH  24  28
HETATM   28  C   UNL     1      -4.222   4.564 -31.005  1.00  0.00     0.036 A 
HETATM   29  C   UNL     1      -3.482   3.623 -31.725  1.00  0.00     0.032 A 
HETATM   30  C   UNL     1      -2.644   4.021 -32.776  1.00  0.00     0.039 A 
HETATM   31  C   UNL     1      -2.547   5.365 -33.126  1.00  0.00     0.068 A 
HETATM   32  C   UNL     1      -3.263   6.311 -32.394  1.00  0.00     0.039 A 
HETATM   33  C   UNL     1      -4.106   5.914 -31.351  1.00  0.00     0.032 A 
BRANCH  31  34
HETATM   34  O   UNL     1      -1.792   5.869 -34.148  1.00  0.00    -0.356 OA
HETATM   35  C   UNL     1      -0.877   6.904 -33.802  1.00  0.00     0.210 C 
ENDBRANCH  31  34
ENDBRANCH  24  28
ENDBRANCH  21  22
ENDBRANCH   1  21
TORSDOF 6
ENDMDL
MODEL 10
REMARK VINA RESULT:      -8.9      2.257      3.513
REMARK  6 active torsions:
REMARK  status: ('A' for Active; 'I' for Inactive)
REMARK    1  A    between atoms: O_2  and  C_3 
REMARK    2  A    between atoms: C_6  and  N_7 
REMARK       I    between atoms: N_7  and  C_8 
REMARK       I    between atoms: C_8  and  N_9 
REMARK    3  A    between atoms: N_9  and  C_10 
REMARK    4  A    between atoms: C_10  and  C_11 
REMARK       I    between atoms: C_11  and  N_12 
REMARK    5  A    between atoms: N_12  and  N_13 
REMARK       I    between atoms: N_13  and  C_14 
REMARK       I    between atoms: C_14  and  N_15 
REMARK    6  A    between atoms: N_15  and  C_16 
ROOT
HETATM    1  C   UNL     1      -4.375   5.913 -32.858  1.00  0.00     0.253 C 
HETATM    2  N   UNL     1      -5.228   5.358 -33.793  1.00  0.00    -0.265 N 
HETATM    3  O   UNL     1      -4.754   6.277 -31.745  1.00  0.00    -0.270 OA
HETATM    4  H   UNL     1      -4.830   4.924 -34.629  1.00  0.00     0.190 HD
ENDROOT
BRANCH   2   5
HETATM    5  N   UNL     1      -6.515   4.976 -33.360  1.00  0.00    -0.249 N 
HETATM    6  C   UNL     1      -6.828   3.637 -33.195  1.00  0.00     0.339 C 
HETATM    7  N   UNL     1      -6.220   2.803 -34.106  1.00  0.00    -0.307 N 
HETATM    8  O   UNL     1      -7.613   3.312 -32.309  1.00  0.00    -0.245 OA
HETATM    9  H   UNL     1      -5.908   3.274 -34.937  1.00  0.00     0.170 HD
HETATM   10  H   UNL     1      -6.871   5.543 -32.589  1.00  0.00     0.192 HD
BRANCH   7  11
HETATM   11  C   UNL     1      -6.253   1.383 -34.133  1.00  0.00     0.047 A 
HETATM   12  C   UNL     1      -5.349   0.631 -33.315  1.00  0.00     0.001 A 
HETATM   13  C   UNL     1      -5.407  -0.788 -33.373  1.00  0.00    -0.024 A 
HETATM   14  C   UNL     1      -4.376   1.194 -32.448  1.00  0.00     0.014 A 
HETATM   15  C   UNL     1      -4.525  -1.570 -32.608  1.00  0.00     0.012 A 
HETATM   16  C   UNL     1      -6.343  -1.423 -34.198  1.00  0.00     0.012 A 
HETATM   17  C   UNL     1      -3.577  -0.981 -31.776  1.00  0.00     0.001 A 
HETATM   18  C   UNL     1      -3.504   0.402 -31.694  1.00  0.00     0.001 A 
HETATM   19  C   UNL     1      -7.228  -0.683 -34.970  1.00  0.00     0.003 A 
HETATM   20  C   UNL     1      -7.183   0.709 -34.936  1.00  0.00     0.030 A 
ENDBRANCH   7  11
ENDBRANCH   2   5
BRANCH   1  21
HETATM   21  C   UNL     1      -2.895   5.869 -33.247  1.00  0.00     0.228 C 
BRANCH  21  22
HETATM   22  N   UNL     1      -1.935   6.000 -32.164  1.00  0.00    -0.334 N 
HETATM   23  C   UNL     1      -1.630   4.996 -31.301  1.00  0.00     0.321 C 
HETATM   24  N   UNL     1      -0.871   5.328 -30.220  1.00  0.00    -0.309 N 
HETATM   25  O   UNL     1      -1.942   3.826 -31.522  1.00  0.00    -0.247 OA
HETATM   26  H   UNL     1      -0.439   4.523 -29.783  1.00  0.00     0.170 HD
HETATM   27  H   UNL     1      -1.280   6.772 -32.195  1.00  0.00     0.164 HD
BRANCH  24  28
HETATM   28  C   UNL     1      -0.818   6.527 -29.479  1.00  0.00     0.036 A 
HETATM   29  C   UNL     1      -1.947   7.192 -28.993  1.00  0.00     0.032 A 
HETATM   30  C   UNL     1      -1.816   8.319 -28.170  1.00  0.00     0.039 A 
HETATM   31  C   UNL     1      -0.553   8.787 -27.814  1.00  0.00     0.068 A 
HETATM   32  C   UNL     1       0.576   8.143 -28.319  1.00  0.00     0.039 A 
HETATM   33  C   UNL     1       0.447   7.013 -29.133  1.00  0.00     0.032 A 
BRANCH  31  34
HETATM   34  O   UNL     1      -0.300   9.852 -26.996  1.00  0.00    -0.356 OA
HETATM   35  C   UNL     1       1.073  10.148 -26.758  1.00  0.00     0.210 C 
ENDBRANCH  31  34
ENDBRANCH  24  28
ENDBRANCH  21  22
ENDBRANCH   1  21
TORSDOF 6
ENDMDL
