MODEL 1
REMARK VINA RESULT:      -7.8      0.000      0.000
REMARK  6 active torsions:
REMARK  status: ('A' for Active; 'I' for Inactive)
REMARK    1  A    between atoms: C_2  and  N_3 
REMARK    2  A    between atoms: C_2  and  C_21 
REMARK       I    between atoms: N_3  and  C_4 
REMARK       I    between atoms: C_4  and  N_5 
REMARK    3  A    between atoms: N_5  and  C_6 
REMARK    4  A    between atoms: C_6  and  C_7 
REMARK    5  A    between atoms: C_10  and  O_11 
REMARK    6  A    between atoms: O_11  and  C_12 
ROOT
HETATM    1  N   UNL     1      -6.436  -2.187 -33.994  1.00  0.00    -0.332 N 
HETATM    2  C   UNL     1      -6.842  -0.945 -34.374  1.00  0.00     0.317 C 
HETATM    3  N   UNL     1      -7.332  -0.223 -33.319  1.00  0.00    -0.339 N 
HETATM    4  O   UNL     1      -6.771  -0.519 -35.519  1.00  0.00    -0.247 OA
HETATM    5  H   UNL     1      -6.799  -2.576 -33.136  1.00  0.00     0.165 HD
HETATM    6  H   UNL     1      -6.943  -0.456 -32.419  1.00  0.00     0.164 HD
ENDROOT
BRANCH   3   7
HETATM    7  C   UNL     1      -7.714   1.152 -33.533  1.00  0.00     0.162 C 
BRANCH   7   8
HETATM    8  C   UNL     1      -6.574   2.092 -33.247  1.00  0.00    -0.040 A 
HETATM    9  C   UNL     1      -6.497   3.332 -33.894  1.00  0.00     0.011 A 
HETATM   10  C   UNL     1      -5.452   4.222 -33.616  1.00  0.00     0.037 A 
HETATM   11  C   UNL     1      -4.468   3.881 -32.690  1.00  0.00     0.069 A 
HETATM   12  C   UNL     1      -4.525   2.631 -32.069  1.00  0.00     0.037 A 
HETATM   13  C   UNL     1      -5.566   1.740 -32.344  1.00  0.00     0.011 A 
BRANCH  11  14
HETATM   14  O   UNL     1      -3.414   4.660 -32.301  1.00  0.00    -0.346 OA
BRANCH  14  15
HETATM   15  C   UNL     1      -2.103   4.378 -32.809  1.00  0.00     0.129 C 
HETATM   16  C   UNL     1      -1.935   4.918 -34.238  1.00  0.00     0.032 C 
HETATM   17  C   UNL     1      -2.035   6.442 -34.297  1.00  0.00     0.002 C 
HETATM   18  C   UNL     1      -1.037   7.105 -33.352  1.00  0.00     0.000 C 
HETATM   19  C   UNL     1      -1.184   6.586 -31.926  1.00  0.00     0.002 C 
HETATM   20  C   UNL     1      -1.098   5.060 -31.867  1.00  0.00     0.032 C 
ENDBRANCH  14  15
ENDBRANCH  11  14
ENDBRANCH   7   8
ENDBRANCH   3   7
BRANCH   1  21
HETATM   21  C   UNL     1      -5.912  -3.157 -34.950  1.00  0.00     0.155 C 
HETATM   22  C   UNL     1      -7.019  -4.045 -35.518  1.00  0.00     0.041 C 
BRANCH  21  23
HETATM   23  C   UNL     1      -4.864  -3.990 -34.258  1.00  0.00     0.169 A 
HETATM   24  N   UNL     1      -4.786  -5.328 -34.382  1.00  0.00    -0.156 NA
HETATM   25  N   UNL     1      -3.713  -5.603 -33.621  1.00  0.00    -0.270 N 
HETATM   26  H   UNL     1      -3.403  -6.564 -33.524  1.00  0.00     0.190 HD
HETATM   27  C   UNL     1      -3.189  -4.474 -33.078  1.00  0.00     0.227 A 
HETATM   28  N   UNL     1      -3.892  -3.436 -33.461  1.00  0.00    -0.223 NA
ENDBRANCH  21  23
ENDBRANCH   1  21
TORSDOF 6
ENDMDL
MODEL 2
REMARK VINA RESULT:      -7.7      4.906      9.634
REMARK  6 active torsions:
REMARK  status: ('A' for Active; 'I' for Inactive)
REMARK    1  A    between atoms: C_2  and  N_3 
REMARK    2  A    between atoms: C_2  and  C_21 
REMARK       I    between atoms: N_3  and  C_4 
REMARK       I    between atoms: C_4  and  N_5 
REMARK    3  A    between atoms: N_5  and  C_6 
REMARK    4  A    between atoms: C_6  and  C_7 
REMARK    5  A    between atoms: C_10  and  O_11 
REMARK    6  A    between atoms: O_11  and  C_12 
ROOT
HETATM    1  N   UNL     1      -1.564   5.344 -30.479  1.00  0.00    -0.332 N 
HETATM    2  C   UNL     1      -2.772   5.134 -31.069  1.00  0.00     0.317 C 
HETATM    3  N   UNL     1      -3.171   3.828 -30.966  1.00  0.00    -0.339 N 
HETATM    4  O   UNL     1      -3.429   6.008 -31.619  1.00  0.00    -0.247 OA
HETATM    5  H   UNL     1      -0.952   4.555 -30.328  1.00  0.00     0.165 HD
HETATM    6  H   UNL     1      -2.826   3.335 -30.158  1.00  0.00     0.164 HD
ENDROOT
BRANCH   3   7
HETATM    7  C   UNL     1      -4.477   3.458 -31.455  1.00  0.00     0.162 C 
BRANCH   7   8
HETATM    8  C   UNL     1      -4.542   1.996 -31.803  1.00  0.00    -0.040 A 
HETATM    9  C   UNL     1      -5.696   1.251 -31.528  1.00  0.00     0.011 A 
HETATM   10  C   UNL     1      -5.772  -0.105 -31.870  1.00  0.00     0.037 A 
HETATM   11  C   UNL     1      -4.693  -0.735 -32.488  1.00  0.00     0.069 A 
HETATM   12  C   UNL     1      -3.530  -0.002 -32.733  1.00  0.00     0.037 A 
HETATM   13  C   UNL     1      -3.449   1.351 -32.393  1.00  0.00     0.011 A 
BRANCH  11  14
HETATM   14  O   UNL     1      -4.642  -2.036 -32.902  1.00  0.00    -0.346 OA
BRANCH  14  15
HETATM   15  C   UNL     1      -4.454  -2.327 -34.294  1.00  0.00     0.129 C 
HETATM   16  C   UNL     1      -4.021  -3.787 -34.501  1.00  0.00     0.032 C 
HETATM   17  C   UNL     1      -5.096  -4.778 -34.057  1.00  0.00     0.002 C 
HETATM   18  C   UNL     1      -6.426  -4.510 -34.754  1.00  0.00     0.000 C 
HETATM   19  C   UNL     1      -6.879  -3.066 -34.564  1.00  0.00     0.002 C 
HETATM   20  C   UNL     1      -5.799  -2.073 -34.994  1.00  0.00     0.032 C 
ENDBRANCH  14  15
ENDBRANCH  11  14
ENDBRANCH   7   8
ENDBRANCH   3   7
BRANCH   1  21
HETATM   21  C   UNL     1      -0.912   6.649 -30.491  1.00  0.00     0.155 C 
HETATM   22  C   UNL     1       0.283   6.675 -31.446  1.00  0.00     0.041 C 
BRANCH  21  23
HETATM   23  C   UNL     1      -0.478   6.980 -29.087  1.00  0.00     0.169 A 
HETATM   24  N   UNL     1      -1.279   6.838 -28.015  1.00  0.00    -0.156 NA
HETATM   25  N   UNL     1      -0.463   7.227 -27.020  1.00  0.00    -0.270 N 
HETATM   26  H   UNL     1      -0.804   7.223 -26.065  1.00  0.00     0.190 HD
HETATM   27  C   UNL     1       0.760   7.579 -27.493  1.00  0.00     0.227 A 
HETATM   28  N   UNL     1       0.786   7.434 -28.795  1.00  0.00    -0.223 NA
ENDBRANCH  21  23
ENDBRANCH   1  21
TORSDOF 6
ENDMDL
MODEL 3
REMARK VINA RESULT:      -7.4      3.890      5.876
REMARK  6 active torsions:
REMARK  status: ('A' for Active; 'I' for Inactive)
REMARK    1  A    between atoms: C_2  and  N_3 
REMARK    2  A    between atoms: C_2  and  C_21 
REMARK       I    between atoms: N_3  and  C_4 
REMARK       I    between atoms: C_4  and  N_5 
REMARK    3  A    between atoms: N_5  and  C_6 
REMARK    4  A    between atoms: C_6  and  C_7 
REMARK    5  A    between atoms: C_10  and  O_11 
REMARK    6  A    between atoms: O_11  and  C_12 
ROOT
HETATM    1  N   UNL     1     -10.675   1.503 -33.147  1.00  0.00    -0.332 N 
HETATM    2  C   UNL     1      -9.441   0.935 -33.077  1.00  0.00     0.317 C 
HETATM    3  N   UNL     1      -8.904   1.034 -31.821  1.00  0.00    -0.339 N 
HETATM    4  O   UNL     1      -8.879   0.394 -34.019  1.00  0.00    -0.247 OA
HETATM    5  H   UNL     1     -10.938   2.184 -32.449  1.00  0.00     0.165 HD
HETATM    6  H   UNL     1      -9.573   1.064 -31.067  1.00  0.00     0.164 HD
ENDROOT
BRANCH   3   7
HETATM    7  C   UNL     1      -7.639   0.394 -31.552  1.00  0.00     0.162 C 
BRANCH   7   8
HETATM    8  C   UNL     1      -6.484   1.323 -31.808  1.00  0.00    -0.040 A 
HETATM    9  C   UNL     1      -5.205   0.813 -32.065  1.00  0.00     0.011 A 
HETATM   10  C   UNL     1      -4.130   1.672 -32.326  1.00  0.00     0.037 A 
HETATM   11  C   UNL     1      -4.319   3.053 -32.329  1.00  0.00     0.069 A 
HETATM   12  C   UNL     1      -5.586   3.564 -32.039  1.00  0.00     0.037 A 
HETATM   13  C   UNL     1      -6.662   2.711 -31.777  1.00  0.00     0.011 A 
BRANCH  11  14
HETATM   14  O   UNL     1      -3.372   4.001 -32.597  1.00  0.00    -0.346 OA
BRANCH  14  15
HETATM   15  C   UNL     1      -3.767   5.242 -33.196  1.00  0.00     0.129 C 
HETATM   16  C   UNL     1      -3.044   6.429 -32.538  1.00  0.00     0.032 C 
HETATM   17  C   UNL     1      -1.532   6.377 -32.753  1.00  0.00     0.002 C 
HETATM   18  C   UNL     1      -1.180   6.290 -34.235  1.00  0.00     0.000 C 
HETATM   19  C   UNL     1      -1.885   5.120 -34.912  1.00  0.00     0.002 C 
HETATM   20  C   UNL     1      -3.397   5.163 -34.686  1.00  0.00     0.032 C 
ENDBRANCH  14  15
ENDBRANCH  11  14
ENDBRANCH   7   8
ENDBRANCH   3   7
BRANCH   1  21
HETATM   21  C   UNL     1     -11.434   1.557 -34.392  1.00  0.00     0.155 C 
HETATM   22  C   UNL     1     -11.609   2.994 -34.885  1.00  0.00     0.041 C 
BRANCH  21  23
HETATM   23  C   UNL     1     -12.773   0.906 -34.165  1.00  0.00     0.169 A 
HETATM   24  N   UNL     1     -12.935  -0.210 -33.430  1.00  0.00    -0.156 NA
HETATM   25  N   UNL     1     -14.266  -0.384 -33.501  1.00  0.00    -0.270 N 
HETATM   26  H   UNL     1     -14.692  -1.171 -33.024  1.00  0.00     0.190 HD
HETATM   27  C   UNL     1     -14.853   0.588 -34.244  1.00  0.00     0.227 A 
HETATM   28  N   UNL     1     -13.939   1.421 -34.679  1.00  0.00    -0.223 NA
ENDBRANCH  21  23
ENDBRANCH   1  21
TORSDOF 6
ENDMDL
MODEL 4
REMARK VINA RESULT:      -7.4      5.818      8.481
REMARK  6 active torsions:
REMARK  status: ('A' for Active; 'I' for Inactive)
REMARK    1  A    between atoms: C_2  and  N_3 
REMARK    2  A    between atoms: C_2  and  C_21 
REMARK       I    between atoms: N_3  and  C_4 
REMARK       I    between atoms: C_4  and  N_5 
REMARK    3  A    between atoms: N_5  and  C_6 
REMARK    4  A    between atoms: C_6  and  C_7 
REMARK    5  A    between atoms: C_10  and  O_11 
REMARK    6  A    between atoms: O_11  and  C_12 
ROOT
HETATM    1  N   UNL     1     -12.847   3.508 -31.311  1.00  0.00    -0.332 N 
HETATM    2  C   UNL     1     -11.567   3.959 -31.413  1.00  0.00     0.317 C 
HETATM    3  N   UNL     1     -10.814   3.607 -30.325  1.00  0.00    -0.339 N 
HETATM    4  O   UNL     1     -11.137   4.594 -32.365  1.00  0.00    -0.247 OA
HETATM    5  H   UNL     1     -13.210   3.275 -30.397  1.00  0.00     0.165 HD
HETATM    6  H   UNL     1     -11.095   2.756 -29.862  1.00  0.00     0.164 HD
ENDROOT
BRANCH   3   7
HETATM    7  C   UNL     1      -9.406   3.923 -30.321  1.00  0.00     0.162 C 
BRANCH   7   8
HETATM    8  C   UNL     1      -8.580   2.769 -30.822  1.00  0.00    -0.040 A 
HETATM    9  C   UNL     1      -9.200   1.618 -31.325  1.00  0.00     0.011 A 
HETATM   10  C   UNL     1      -8.438   0.549 -31.814  1.00  0.00     0.037 A 
HETATM   11  C   UNL     1      -7.046   0.617 -31.803  1.00  0.00     0.069 A 
HETATM   12  C   UNL     1      -6.426   1.749 -31.270  1.00  0.00     0.037 A 
HETATM   13  C   UNL     1      -7.183   2.818 -30.781  1.00  0.00     0.011 A 
BRANCH  11  14
HETATM   14  O   UNL     1      -6.184  -0.333 -32.273  1.00  0.00    -0.346 OA
BRANCH  14  15
HETATM   15  C   UNL     1      -5.470  -0.095 -33.494  1.00  0.00     0.129 C 
HETATM   16  C   UNL     1      -4.183  -0.934 -33.556  1.00  0.00     0.032 C 
HETATM   17  C   UNL     1      -4.471  -2.435 -33.582  1.00  0.00     0.002 C 
HETATM   18  C   UNL     1      -5.408  -2.805 -34.727  1.00  0.00     0.000 C 
HETATM   19  C   UNL     1      -6.694  -1.986 -34.689  1.00  0.00     0.002 C 
HETATM   20  C   UNL     1      -6.407  -0.484 -34.649  1.00  0.00     0.032 C 
ENDBRANCH  14  15
ENDBRANCH  11  14
ENDBRANCH   7   8
ENDBRANCH   3   7
BRANCH   1  21
HETATM   21  C   UNL     1     -13.852   3.791 -32.330  1.00  0.00     0.155 C 
HETATM   22  C   UNL     1     -15.192   4.187 -31.708  1.00  0.00     0.041 C 
BRANCH  21  23
HETATM   23  C   UNL     1     -14.009   2.570 -33.198  1.00  0.00     0.169 A 
HETATM   24  N   UNL     1     -13.136   2.236 -34.167  1.00  0.00    -0.156 NA
HETATM   25  N   UNL     1     -13.676   1.097 -34.631  1.00  0.00    -0.270 N 
HETATM   26  H   UNL     1     -13.219   0.600 -35.388  1.00  0.00     0.190 HD
HETATM   27  C   UNL     1     -14.813   0.780 -33.961  1.00  0.00     0.227 A 
HETATM   28  N   UNL     1     -15.053   1.689 -33.048  1.00  0.00    -0.223 NA
ENDBRANCH  21  23
ENDBRANCH   1  21
TORSDOF 6
ENDMDL
MODEL 5
REMARK VINA RESULT:      -7.3      5.644      8.945
REMARK  6 active torsions:
REMARK  status: ('A' for Active; 'I' for Inactive)
REMARK    1  A    between atoms: C_2  and  N_3 
REMARK    2  A    between atoms: C_2  and  C_21 
REMARK       I    between atoms: N_3  and  C_4 
REMARK       I    between atoms: C_4  and  N_5 
REMARK    3  A    between atoms: N_5  and  C_6 
REMARK    4  A    between atoms: C_6  and  C_7 
REMARK    5  A    between atoms: C_10  and  O_11 
REMARK    6  A    between atoms: O_11  and  C_12 
ROOT
HETATM    1  N   UNL     1     -11.868   3.145 -31.906  1.00  0.00    -0.332 N 
HETATM    2  C   UNL     1     -10.563   3.348 -32.234  1.00  0.00     0.317 C 
HETATM    3  N   UNL     1      -9.717   2.636 -31.426  1.00  0.00    -0.339 N 
HETATM    4  O   UNL     1     -10.188   4.072 -33.145  1.00  0.00    -0.247 OA
HETATM    5  H   UNL     1     -12.090   2.801 -30.982  1.00  0.00     0.165 HD
HETATM    6  H   UNL     1     -10.095   1.779 -31.053  1.00  0.00     0.164 HD
ENDROOT
BRANCH   3   7
HETATM    7  C   UNL     1      -8.301   2.662 -31.704  1.00  0.00     0.162 C 
BRANCH   7   8
HETATM    8  C   UNL     1      -7.819   1.341 -32.238  1.00  0.00    -0.040 A 
HETATM    9  C   UNL     1      -6.832   0.617 -31.556  1.00  0.00     0.011 A 
HETATM   10  C   UNL     1      -6.394  -0.624 -32.035  1.00  0.00     0.037 A 
HETATM   11  C   UNL     1      -6.935  -1.156 -33.205  1.00  0.00     0.069 A 
HETATM   12  C   UNL     1      -7.894  -0.420 -33.904  1.00  0.00     0.037 A 
HETATM   13  C   UNL     1      -8.334   0.820 -33.430  1.00  0.00     0.011 A 
BRANCH  11  14
HETATM   14  O   UNL     1      -6.625  -2.362 -33.766  1.00  0.00    -0.346 OA
BRANCH  14  15
HETATM   15  C   UNL     1      -5.628  -2.426 -34.796  1.00  0.00     0.129 C 
HETATM   16  C   UNL     1      -4.222  -2.190 -34.221  1.00  0.00     0.032 C 
HETATM   17  C   UNL     1      -3.809  -3.284 -33.235  1.00  0.00     0.002 C 
HETATM   18  C   UNL     1      -3.905  -4.670 -33.866  1.00  0.00     0.000 C 
HETATM   19  C   UNL     1      -5.292  -4.929 -34.444  1.00  0.00     0.002 C 
HETATM   20  C   UNL     1      -5.713  -3.829 -35.419  1.00  0.00     0.032 C 
ENDBRANCH  14  15
ENDBRANCH  11  14
ENDBRANCH   7   8
ENDBRANCH   3   7
BRANCH   1  21
HETATM   21  C   UNL     1     -12.956   3.825 -32.600  1.00  0.00     0.155 C 
HETATM   22  C   UNL     1     -13.628   4.870 -31.708  1.00  0.00     0.041 C 
BRANCH  21  23
HETATM   23  C   UNL     1     -13.954   2.791 -33.052  1.00  0.00     0.169 A 
HETATM   24  N   UNL     1     -15.219   2.737 -32.595  1.00  0.00    -0.156 NA
HETATM   25  N   UNL     1     -15.707   1.693 -33.286  1.00  0.00    -0.270 N 
HETATM   26  H   UNL     1     -16.670   1.409 -33.147  1.00  0.00     0.190 HD
HETATM   27  C   UNL     1     -14.767   1.163 -34.111  1.00  0.00     0.227 A 
HETATM   28  N   UNL     1     -13.647   1.833 -33.989  1.00  0.00    -0.223 NA
ENDBRANCH  21  23
ENDBRANCH   1  21
TORSDOF 6
ENDMDL
MODEL 6
REMARK VINA RESULT:      -7.2      4.157      9.260
REMARK  6 active torsions:
REMARK  status: ('A' for Active; 'I' for Inactive)
REMARK    1  A    between atoms: C_2  and  N_3 
REMARK    2  A    between atoms: C_2  and  C_21 
REMARK       I    between atoms: N_3  and  C_4 
REMARK       I    between atoms: C_4  and  N_5 
REMARK    3  A    between atoms: N_5  and  C_6 
REMARK    4  A    between atoms: C_6  and  C_7 
REMARK    5  A    between atoms: C_10  and  O_11 
REMARK    6  A    between atoms: O_11  and  C_12 
ROOT
HETATM    1  N   UNL     1      -3.622   5.446 -32.572  1.00  0.00    -0.332 N 
HETATM    2  C   UNL     1      -4.507   4.953 -33.482  1.00  0.00     0.317 C 
HETATM    3  N   UNL     1      -5.424   4.118 -32.902  1.00  0.00    -0.339 N 
HETATM    4  O   UNL     1      -4.491   5.229 -34.673  1.00  0.00    -0.247 OA
HETATM    5  H   UNL     1      -3.497   4.953 -31.699  1.00  0.00     0.165 HD
HETATM    6  H   UNL     1      -5.634   4.313 -31.935  1.00  0.00     0.164 HD
ENDROOT
BRANCH   3   7
HETATM    7  C   UNL     1      -6.494   3.589 -33.712  1.00  0.00     0.162 C 
BRANCH   7   8
HETATM    8  C   UNL     1      -6.402   2.093 -33.840  1.00  0.00    -0.040 A 
HETATM    9  C   UNL     1      -5.607   1.352 -32.957  1.00  0.00     0.011 A 
HETATM   10  C   UNL     1      -5.533  -0.043 -33.055  1.00  0.00     0.037 A 
HETATM   11  C   UNL     1      -6.252  -0.715 -34.042  1.00  0.00     0.069 A 
HETATM   12  C   UNL     1      -7.018   0.024 -34.945  1.00  0.00     0.037 A 
HETATM   13  C   UNL     1      -7.094   1.417 -34.851  1.00  0.00     0.011 A 
BRANCH  11  14
HETATM   14  O   UNL     1      -6.297  -2.068 -34.234  1.00  0.00    -0.346 OA
BRANCH  14  15
HETATM   15  C   UNL     1      -5.510  -2.659 -35.277  1.00  0.00     0.129 C 
HETATM   16  C   UNL     1      -4.059  -2.876 -34.820  1.00  0.00     0.032 C 
HETATM   17  C   UNL     1      -3.957  -3.875 -33.667  1.00  0.00     0.002 C 
HETATM   18  C   UNL     1      -4.613  -5.206 -34.021  1.00  0.00     0.000 C 
HETATM   19  C   UNL     1      -6.055  -5.019 -34.478  1.00  0.00     0.002 C 
HETATM   20  C   UNL     1      -6.160  -4.009 -35.622  1.00  0.00     0.032 C 
ENDBRANCH  14  15
ENDBRANCH  11  14
ENDBRANCH   7   8
ENDBRANCH   3   7
BRANCH   1  21
HETATM   21  C   UNL     1      -2.526   6.328 -32.956  1.00  0.00     0.155 C 
HETATM   22  C   UNL     1      -1.179   5.604 -32.921  1.00  0.00     0.041 C 
BRANCH  21  23
HETATM   23  C   UNL     1      -2.517   7.512 -32.024  1.00  0.00     0.169 A 
HETATM   24  N   UNL     1      -1.914   8.679 -32.320  1.00  0.00    -0.156 NA
HETATM   25  N   UNL     1      -2.190   9.406 -31.224  1.00  0.00    -0.270 N 
HETATM   26  H   UNL     1      -1.855  10.361 -31.161  1.00  0.00     0.190 HD
HETATM   27  C   UNL     1      -2.922   8.694 -30.329  1.00  0.00     0.227 A 
HETATM   28  N   UNL     1      -3.147   7.492 -30.803  1.00  0.00    -0.223 NA
ENDBRANCH  21  23
ENDBRANCH   1  21
TORSDOF 6
ENDMDL
MODEL 7
REMARK VINA RESULT:      -7.2      5.648     10.044
REMARK  6 active torsions:
REMARK  status: ('A' for Active; 'I' for Inactive)
REMARK    1  A    between atoms: C_2  and  N_3 
REMARK    2  A    between atoms: C_2  and  C_21 
REMARK       I    between atoms: N_3  and  C_4 
REMARK       I    between atoms: C_4  and  N_5 
REMARK    3  A    between atoms: N_5  and  C_6 
REMARK    4  A    between atoms: C_6  and  C_7 
REMARK    5  A    between atoms: C_10  and  O_11 
REMARK    6  A    between atoms: O_11  and  C_12 
ROOT
HETATM    1  N   UNL     1      -0.657   6.179 -28.581  1.00  0.00    -0.332 N 
HETATM    2  C   UNL     1      -0.835   6.234 -29.929  1.00  0.00     0.317 C 
HETATM    3  N   UNL     1      -1.132   5.006 -30.456  1.00  0.00    -0.339 N 
HETATM    4  O   UNL     1      -0.748   7.258 -30.592  1.00  0.00    -0.247 OA
HETATM    5  H   UNL     1      -0.437   5.289 -28.155  1.00  0.00     0.165 HD
HETATM    6  H   UNL     1      -1.611   4.373 -29.832  1.00  0.00     0.164 HD
ENDROOT
BRANCH   3   7
HETATM    7  C   UNL     1      -1.448   4.908 -31.860  1.00  0.00     0.162 C 
BRANCH   7   8
HETATM    8  C   UNL     1      -2.723   4.141 -32.087  1.00  0.00    -0.040 A 
HETATM    9  C   UNL     1      -3.024   3.018 -31.306  1.00  0.00     0.011 A 
HETATM   10  C   UNL     1      -4.219   2.313 -31.497  1.00  0.00     0.037 A 
HETATM   11  C   UNL     1      -5.126   2.719 -32.474  1.00  0.00     0.069 A 
HETATM   12  C   UNL     1      -4.811   3.818 -33.276  1.00  0.00     0.037 A 
HETATM   13  C   UNL     1      -3.620   4.524 -33.090  1.00  0.00     0.011 A 
BRANCH  11  14
HETATM   14  O   UNL     1      -6.337   2.146 -32.746  1.00  0.00    -0.346 OA
BRANCH  14  15
HETATM   15  C   UNL     1      -6.474   0.720 -32.676  1.00  0.00     0.129 C 
HETATM   16  C   UNL     1      -7.939   0.315 -32.453  1.00  0.00     0.032 C 
HETATM   17  C   UNL     1      -8.836   0.717 -33.624  1.00  0.00     0.002 C 
HETATM   18  C   UNL     1      -8.319   0.153 -34.944  1.00  0.00     0.000 C 
HETATM   19  C   UNL     1      -6.865   0.541 -35.190  1.00  0.00     0.002 C 
HETATM   20  C   UNL     1      -5.969   0.152 -34.013  1.00  0.00     0.032 C 
ENDBRANCH  14  15
ENDBRANCH  11  14
ENDBRANCH   7   8
ENDBRANCH   3   7
BRANCH   1  21
HETATM   21  C   UNL     1      -0.293   7.355 -27.798  1.00  0.00     0.155 C 
HETATM   22  C   UNL     1       1.150   7.277 -27.299  1.00  0.00     0.041 C 
BRANCH  21  23
HETATM   23  C   UNL     1      -1.251   7.474 -26.642  1.00  0.00     0.169 A 
HETATM   24  N   UNL     1      -1.958   6.435 -26.160  1.00  0.00    -0.156 NA
HETATM   25  N   UNL     1      -2.630   7.015 -25.151  1.00  0.00    -0.270 N 
HETATM   26  H   UNL     1      -3.262   6.458 -24.586  1.00  0.00     0.190 HD
HETATM   27  C   UNL     1      -2.327   8.334 -25.050  1.00  0.00     0.227 A 
HETATM   28  N   UNL     1      -1.458   8.658 -25.976  1.00  0.00    -0.223 NA
ENDBRANCH  21  23
ENDBRANCH   1  21
TORSDOF 6
ENDMDL
MODEL 8
REMARK VINA RESULT:      -7.2      1.437      2.287
REMARK  6 active torsions:
REMARK  status: ('A' for Active; 'I' for Inactive)
REMARK    1  A    between atoms: C_2  and  N_3 
REMARK    2  A    between atoms: C_2  and  C_21 
REMARK       I    between atoms: N_3  and  C_4 
REMARK       I    between atoms: C_4  and  N_5 
REMARK    3  A    between atoms: N_5  and  C_6 
REMARK    4  A    between atoms: C_6  and  C_7 
REMARK    5  A    between atoms: C_10  and  O_11 
REMARK    6  A    between atoms: O_11  and  C_12 
ROOT
HETATM    1  N   UNL     1      -5.953  -1.121 -33.209  1.00  0.00    -0.332 N 
HETATM    2  C   UNL     1      -6.256   0.178 -33.482  1.00  0.00     0.317 C 
HETATM    3  N   UNL     1      -6.450   0.907 -32.340  1.00  0.00    -0.339 N 
HETATM    4  O   UNL     1      -6.338   0.641 -34.611  1.00  0.00    -0.247 OA
HETATM    5  H   UNL     1      -6.203  -1.500 -32.307  1.00  0.00     0.165 HD
HETATM    6  H   UNL     1      -5.939   0.588 -31.531  1.00  0.00     0.164 HD
ENDROOT
BRANCH   3   7
HETATM    7  C   UNL     1      -6.683   2.327 -32.451  1.00  0.00     0.162 C 
BRANCH   7   8
HETATM    8  C   UNL     1      -5.398   3.106 -32.358  1.00  0.00    -0.040 A 
HETATM    9  C   UNL     1      -5.140   4.157 -33.247  1.00  0.00     0.011 A 
HETATM   10  C   UNL     1      -3.957   4.901 -33.152  1.00  0.00     0.037 A 
HETATM   11  C   UNL     1      -3.015   4.599 -32.170  1.00  0.00     0.069 A 
HETATM   12  C   UNL     1      -3.256   3.530 -31.305  1.00  0.00     0.037 A 
HETATM   13  C   UNL     1      -4.435   2.785 -31.396  1.00  0.00     0.011 A 
BRANCH  11  14
HETATM   14  O   UNL     1      -1.839   5.258 -31.945  1.00  0.00    -0.346 OA
BRANCH  14  15
HETATM   15  C   UNL     1      -1.846   6.684 -31.798  1.00  0.00     0.129 C 
HETATM   16  C   UNL     1      -2.174   7.090 -30.352  1.00  0.00     0.032 C 
HETATM   17  C   UNL     1      -1.108   6.620 -29.363  1.00  0.00     0.002 C 
HETATM   18  C   UNL     1       0.280   7.117 -29.757  1.00  0.00     0.000 C 
HETATM   19  C   UNL     1       0.631   6.727 -31.189  1.00  0.00     0.002 C 
HETATM   20  C   UNL     1      -0.442   7.184 -32.179  1.00  0.00     0.032 C 
ENDBRANCH  14  15
ENDBRANCH  11  14
ENDBRANCH   7   8
ENDBRANCH   3   7
BRANCH   1  21
HETATM   21  C   UNL     1      -5.740  -2.105 -34.265  1.00  0.00     0.155 C 
HETATM   22  C   UNL     1      -7.038  -2.823 -34.638  1.00  0.00     0.041 C 
BRANCH  21  23
HETATM   23  C   UNL     1      -4.703  -3.092 -33.795  1.00  0.00     0.169 A 
HETATM   24  N   UNL     1      -3.806  -2.816 -32.830  1.00  0.00    -0.156 NA
HETATM   25  N   UNL     1      -3.133  -3.977 -32.753  1.00  0.00    -0.270 N 
HETATM   26  H   UNL     1      -2.374  -4.070 -32.087  1.00  0.00     0.190 HD
HETATM   27  C   UNL     1      -3.617  -4.888 -33.635  1.00  0.00     0.227 A 
HETATM   28  N   UNL     1      -4.610  -4.363 -34.310  1.00  0.00    -0.223 NA
ENDBRANCH  21  23
ENDBRANCH   1  21
TORSDOF 6
ENDMDL
MODEL 9
REMARK VINA RESULT:      -7.1      4.549      6.494
REMARK  6 active torsions:
REMARK  status: ('A' for Active; 'I' for Inactive)
REMARK    1  A    between atoms: C_2  and  N_3 
REMARK    2  A    between atoms: C_2  and  C_21 
REMARK       I    between atoms: N_3  and  C_4 
REMARK       I    between atoms: C_4  and  N_5 
REMARK    3  A    between atoms: N_5  and  C_6 
REMARK    4  A    between atoms: C_6  and  C_7 
REMARK    5  A    between atoms: C_10  and  O_11 
REMARK    6  A    between atoms: O_11  and  C_12 
ROOT
HETATM    1  N   UNL     1     -11.545   1.999 -33.036  1.00  0.00    -0.332 N 
HETATM    2  C   UNL     1     -10.355   1.373 -32.827  1.00  0.00     0.317 C 
HETATM    3  N   UNL     1      -9.584   2.035 -31.910  1.00  0.00    -0.339 N 
HETATM    4  O   UNL     1     -10.017   0.338 -33.383  1.00  0.00    -0.247 OA
HETATM    5  H   UNL     1     -11.630   2.977 -32.796  1.00  0.00     0.165 HD
HETATM    6  H   UNL     1     -10.094   2.560 -31.216  1.00  0.00     0.164 HD
ENDROOT
BRANCH   3   7
HETATM    7  C   UNL     1      -8.331   1.448 -31.499  1.00  0.00     0.162 C 
BRANCH   7   8
HETATM    8  C   UNL     1      -7.163   2.314 -31.886  1.00  0.00    -0.040 A 
HETATM    9  C   UNL     1      -6.778   2.430 -33.228  1.00  0.00     0.011 A 
HETATM   10  C   UNL     1      -5.706   3.252 -33.598  1.00  0.00     0.037 A 
HETATM   11  C   UNL     1      -5.003   3.966 -32.630  1.00  0.00     0.069 A 
HETATM   12  C   UNL     1      -5.364   3.825 -31.288  1.00  0.00     0.037 A 
HETATM   13  C   UNL     1      -6.432   3.006 -30.914  1.00  0.00     0.011 A 
BRANCH  11  14
HETATM   14  O   UNL     1      -3.962   4.823 -32.851  1.00  0.00    -0.346 OA
BRANCH  14  15
HETATM   15  C   UNL     1      -2.667   4.295 -33.166  1.00  0.00     0.129 C 
HETATM   16  C   UNL     1      -2.125   4.898 -34.472  1.00  0.00     0.032 C 
HETATM   17  C   UNL     1      -1.894   6.405 -34.362  1.00  0.00     0.002 C 
HETATM   18  C   UNL     1      -0.975   6.745 -33.192  1.00  0.00     0.000 C 
HETATM   19  C   UNL     1      -1.490   6.158 -31.883  1.00  0.00     0.002 C 
HETATM   20  C   UNL     1      -1.736   4.653 -31.996  1.00  0.00     0.032 C 
ENDBRANCH  14  15
ENDBRANCH  11  14
ENDBRANCH   7   8
ENDBRANCH   3   7
BRANCH   1  21
HETATM   21  C   UNL     1     -12.523   1.504 -34.000  1.00  0.00     0.155 C 
HETATM   22  C   UNL     1     -12.340   2.151 -35.373  1.00  0.00     0.041 C 
BRANCH  21  23
HETATM   23  C   UNL     1     -13.903   1.778 -33.463  1.00  0.00     0.169 A 
HETATM   24  N   UNL     1     -15.015   1.201 -33.957  1.00  0.00    -0.156 NA
HETATM   25  N   UNL     1     -15.963   1.727 -33.163  1.00  0.00    -0.270 N 
HETATM   26  H   UNL     1     -16.933   1.466 -33.303  1.00  0.00     0.190 HD
HETATM   27  C   UNL     1     -15.427   2.572 -32.246  1.00  0.00     0.227 A 
HETATM   28  N   UNL     1     -14.127   2.627 -32.406  1.00  0.00    -0.223 NA
ENDBRANCH  21  23
ENDBRANCH   1  21
TORSDOF 6
ENDMDL
MODEL 10
REMARK VINA RESULT:      -7.1      5.312      9.595
REMARK  6 active torsions:
REMARK  status: ('A' for Active; 'I' for Inactive)
REMARK    1  A    between atoms: C_2  and  N_3 
REMARK    2  A    between atoms: C_2  and  C_21 
REMARK       I    between atoms: N_3  and  C_4 
REMARK       I    between atoms: C_4  and  N_5 
REMARK    3  A    between atoms: N_5  and  C_6 
REMARK    4  A    between atoms: C_6  and  C_7 
REMARK    5  A    between atoms: C_10  and  O_11 
REMARK    6  A    between atoms: O_11  and  C_12 
ROOT
HETATM    1  N   UNL     1      -0.219   6.457 -29.517  1.00  0.00    -0.332 N 
HETATM    2  C   UNL     1      -0.852   6.629 -30.709  1.00  0.00     0.317 C 
HETATM    3  N   UNL     1      -0.602   5.597 -31.574  1.00  0.00    -0.339 N 
HETATM    4  O   UNL     1      -1.567   7.585 -30.976  1.00  0.00    -0.247 OA
HETATM    5  H   UNL     1       0.577   5.835 -29.474  1.00  0.00     0.165 HD
HETATM    6  H   UNL     1      -0.413   4.706 -31.140  1.00  0.00     0.164 HD
ENDROOT
BRANCH   3   7
HETATM    7  C   UNL     1      -1.279   5.575 -32.848  1.00  0.00     0.162 C 
BRANCH   7   8
HETATM    8  C   UNL     1      -2.517   4.721 -32.801  1.00  0.00    -0.040 A 
HETATM    9  C   UNL     1      -3.572   4.950 -33.694  1.00  0.00     0.011 A 
HETATM   10  C   UNL     1      -4.717   4.145 -33.671  1.00  0.00     0.037 A 
HETATM   11  C   UNL     1      -4.825   3.102 -32.752  1.00  0.00     0.069 A 
HETATM   12  C   UNL     1      -3.789   2.895 -31.839  1.00  0.00     0.037 A 
HETATM   13  C   UNL     1      -2.644   3.696 -31.858  1.00  0.00     0.011 A 
BRANCH  11  14
HETATM   14  O   UNL     1      -5.866   2.224 -32.639  1.00  0.00    -0.346 OA
BRANCH  14  15
HETATM   15  C   UNL     1      -5.612   0.883 -32.200  1.00  0.00     0.129 C 
HETATM   16  C   UNL     1      -6.843   0.289 -31.496  1.00  0.00     0.032 C 
HETATM   17  C   UNL     1      -8.039   0.151 -32.439  1.00  0.00     0.002 C 
HETATM   18  C   UNL     1      -7.683  -0.666 -33.677  1.00  0.00     0.000 C 
HETATM   19  C   UNL     1      -6.463  -0.097 -34.395  1.00  0.00     0.002 C 
HETATM   20  C   UNL     1      -5.271   0.055 -33.450  1.00  0.00     0.032 C 
ENDBRANCH  14  15
ENDBRANCH  11  14
ENDBRANCH   7   8
ENDBRANCH   3   7
BRANCH   1  21
HETATM   21  C   UNL     1      -0.301   7.444 -28.446  1.00  0.00     0.155 C 
HETATM   22  C   UNL     1       1.086   7.872 -27.964  1.00  0.00     0.041 C 
BRANCH  21  23
HETATM   23  C   UNL     1      -1.100   6.855 -27.314  1.00  0.00     0.169 A 
HETATM   24  N   UNL     1      -2.414   7.090 -27.137  1.00  0.00    -0.156 NA
HETATM   25  N   UNL     1      -2.671   6.353 -26.043  1.00  0.00    -0.270 N 
HETATM   26  H   UNL     1      -3.611   6.332 -25.665  1.00  0.00     0.190 HD
HETATM   27  C   UNL     1      -1.556   5.715 -25.603  1.00  0.00     0.227 A 
HETATM   28  N   UNL     1      -0.545   6.010 -26.383  1.00  0.00    -0.223 NA
ENDBRANCH  21  23
ENDBRANCH   1  21
TORSDOF 6
ENDMDL
