MODEL 1
REMARK VINA RESULT:     -10.1      0.000      0.000
REMARK  7 active torsions:
REMARK  status: ('A' for Active; 'I' for Inactive)
REMARK    1  A    between atoms: O_2  and  C_3 
REMARK    2  A    between atoms: C_5  and  C_15 
REMARK    3  A    between atoms: C_8  and  C_9 
REMARK       I    between atoms: C_15  and  N_17 
REMARK    4  A    between atoms: N_17  and  C_18 
REMARK    5  A    between atoms: C_18  and  C_19 
REMARK    6  A    between atoms: C_23  and  C_25 
REMARK       I    between atoms: C_25  and  N_27 
REMARK    7  A    between atoms: N_27  and  C_28 
ROOT
HETATM    1  C   UNL     1      -4.158   5.508 -33.931  1.00  0.00    -0.040 A 
HETATM    2  C   UNL     1      -3.261   5.173 -34.957  1.00  0.00     0.009 A 
HETATM    3  C   UNL     1      -1.956   5.661 -34.941  1.00  0.00     0.002 A 
HETATM    4  C   UNL     1      -1.536   6.494 -33.905  1.00  0.00     0.017 A 
HETATM    5  C   UNL     1      -2.418   6.856 -32.879  1.00  0.00     0.033 A 
HETATM    6  C   UNL     1      -3.729   6.356 -32.895  1.00  0.00     0.026 A 
ENDROOT
BRANCH   1   7
HETATM    7  C   UNL     1      -5.568   4.976 -33.943  1.00  0.00     0.161 C 
BRANCH   7   8
HETATM    8  N   UNL     1      -5.590   3.546 -34.147  1.00  0.00    -0.353 N 
HETATM    9  C   UNL     1      -6.012   2.682 -33.160  1.00  0.00     0.252 C 
HETATM   10  O   UNL     1      -6.384   3.051 -32.051  1.00  0.00    -0.268 OA
HETATM   11  H   UNL     1      -5.535   3.216 -35.100  1.00  0.00     0.163 HD
BRANCH   9  12
HETATM   12  C   UNL     1      -6.028   1.233 -33.519  1.00  0.00     0.034 A 
HETATM   13  C   UNL     1      -5.174   0.362 -32.827  1.00  0.00     0.054 A 
HETATM   14  C   UNL     1      -5.146  -1.007 -33.129  1.00  0.00     0.080 A 
HETATM   15  C   UNL     1      -5.982  -1.512 -34.150  1.00  0.00     0.010 A 
HETATM   16  C   UNL     1      -6.819  -0.625 -34.850  1.00  0.00     0.016 A 
HETATM   17  C   UNL     1      -6.841   0.737 -34.542  1.00  0.00     0.018 A 
BRANCH  14  18
HETATM   18  O   UNL     1      -4.348  -1.913 -32.476  1.00  0.00    -0.355 OA
HETATM   19  C   UNL     1      -3.127  -1.450 -31.915  1.00  0.00     0.210 C 
ENDBRANCH  14  18
BRANCH  15  20
HETATM   20  C   UNL     1      -5.986  -2.922 -34.520  1.00  0.00     0.013 A 
HETATM   21  C   UNL     1      -4.941  -3.874 -34.573  1.00  0.00     0.152 A 
HETATM   22  N   UNL     1      -5.357  -5.078 -34.978  1.00  0.00    -0.187 NA
HETATM   23  N   UNL     1      -6.674  -4.907 -35.166  1.00  0.00    -0.289 N 
HETATM   24  H   UNL     1      -7.223  -5.705 -35.467  1.00  0.00     0.188 HD
HETATM   25  C   UNL     1      -7.100  -3.634 -34.914  1.00  0.00     0.123 A 
ENDBRANCH  15  20
ENDBRANCH   9  12
ENDBRANCH   7   8
ENDBRANCH   1   7
BRANCH   5  26
HETATM   26  C   UNL     1      -1.898   7.727 -31.780  1.00  0.00     0.257 C 
HETATM   27  O   UNL     1      -1.760   8.921 -32.018  1.00  0.00    -0.267 OA
HETATM   28  N   UNL     1      -1.645   7.090 -30.585  1.00  0.00    -0.301 N 
HETATM   29  H   UNL     1      -1.879   6.121 -30.438  1.00  0.00     0.171 HD
BRANCH  28  30
HETATM   30  C   UNL     1      -1.106   7.747 -29.513  1.00  0.00     0.174 A 
HETATM   31  N   UNL     1       0.146   7.868 -29.149  1.00  0.00    -0.228 NA
HETATM   32  C   UNL     1       0.205   8.603 -27.988  1.00  0.00     0.054 A 
HETATM   33  C   UNL     1       1.491   8.948 -27.323  1.00  0.00     0.090 C 
HETATM   34  C   UNL     1      -1.009   9.030 -27.492  1.00  0.00     0.039 A 
HETATM   35  C   UNL     1       1.219   9.495 -25.901  1.00  0.00     0.276 C 
HETATM   36  N   UNL     1       0.093  10.457 -25.842  1.00  0.00     0.088 N 
HETATM   37  C   UNL     1      -1.179   9.811 -26.236  1.00  0.00     0.317 C 
HETATM   38  H   UNL     1       0.279  11.208 -26.507  1.00  0.00     0.316 HD
HETATM   39  S   UNL     1      -2.272   8.497 -28.501  1.00  0.00    -0.053 SA
ENDBRANCH  28  30
ENDBRANCH   5  26
TORSDOF 7
ENDMDL
MODEL 2
REMARK VINA RESULT:      -9.3      2.909     11.854
REMARK  7 active torsions:
REMARK  status: ('A' for Active; 'I' for Inactive)
REMARK    1  A    between atoms: O_2  and  C_3 
REMARK    2  A    between atoms: C_5  and  C_15 
REMARK    3  A    between atoms: C_8  and  C_9 
REMARK       I    between atoms: C_15  and  N_17 
REMARK    4  A    between atoms: N_17  and  C_18 
REMARK    5  A    between atoms: C_18  and  C_19 
REMARK    6  A    between atoms: C_23  and  C_25 
REMARK       I    between atoms: C_25  and  N_27 
REMARK    7  A    between atoms: N_27  and  C_28 
ROOT
HETATM    1  C   UNL     1      -4.935   4.835 -31.607  1.00  0.00    -0.040 A 
HETATM    2  C   UNL     1      -5.916   5.284 -30.710  1.00  0.00     0.009 A 
HETATM    3  C   UNL     1      -6.833   4.389 -30.161  1.00  0.00     0.002 A 
HETATM    4  C   UNL     1      -6.784   3.040 -30.509  1.00  0.00     0.017 A 
HETATM    5  C   UNL     1      -5.824   2.572 -31.415  1.00  0.00     0.033 A 
HETATM    6  C   UNL     1      -4.898   3.475 -31.959  1.00  0.00     0.026 A 
ENDROOT
BRANCH   1   7
HETATM    7  C   UNL     1      -3.938   5.801 -32.197  1.00  0.00     0.161 C 
BRANCH   7   8
HETATM    8  N   UNL     1      -3.103   6.386 -31.174  1.00  0.00    -0.353 N 
HETATM    9  C   UNL     1      -1.817   5.943 -30.951  1.00  0.00     0.252 C 
HETATM   10  O   UNL     1      -1.296   5.031 -31.584  1.00  0.00    -0.268 OA
HETATM   11  H   UNL     1      -3.386   7.282 -30.805  1.00  0.00     0.163 HD
BRANCH   9  12
HETATM   12  C   UNL     1      -1.048   6.665 -29.896  1.00  0.00     0.034 A 
HETATM   13  C   UNL     1      -1.716   7.049 -28.724  1.00  0.00     0.054 A 
HETATM   14  C   UNL     1      -1.041   7.735 -27.704  1.00  0.00     0.080 A 
HETATM   15  C   UNL     1       0.326   8.053 -27.864  1.00  0.00     0.010 A 
HETATM   16  C   UNL     1       0.979   7.680 -29.052  1.00  0.00     0.016 A 
HETATM   17  C   UNL     1       0.300   6.996 -30.063  1.00  0.00     0.018 A 
BRANCH  14  18
HETATM   18  O   UNL     1      -1.633   8.120 -26.526  1.00  0.00    -0.355 OA
HETATM   19  C   UNL     1      -2.155   7.108 -25.676  1.00  0.00     0.210 C 
ENDBRANCH  14  18
BRANCH  15  20
HETATM   20  C   UNL     1       1.077   8.777 -26.846  1.00  0.00     0.013 A 
HETATM   21  C   UNL     1       1.946   8.319 -25.829  1.00  0.00     0.152 A 
HETATM   22  N   UNL     1       2.437   9.312 -25.080  1.00  0.00    -0.187 NA
HETATM   23  N   UNL     1       1.900  10.412 -25.630  1.00  0.00    -0.289 N 
HETATM   24  H   UNL     1       2.144  11.313 -25.234  1.00  0.00     0.188 HD
HETATM   25  C   UNL     1       1.073  10.147 -26.683  1.00  0.00     0.123 A 
ENDBRANCH  15  20
ENDBRANCH   9  12
ENDBRANCH   7   8
ENDBRANCH   1   7
BRANCH   5  26
HETATM   26  C   UNL     1      -5.803   1.109 -31.723  1.00  0.00     0.257 C 
HETATM   27  O   UNL     1      -6.503   0.374 -31.036  1.00  0.00    -0.267 OA
HETATM   28  N   UNL     1      -5.003   0.734 -32.780  1.00  0.00    -0.301 N 
HETATM   29  H   UNL     1      -4.535   1.412 -33.359  1.00  0.00     0.171 HD
BRANCH  28  30
HETATM   30  C   UNL     1      -4.836  -0.577 -33.135  1.00  0.00     0.174 A 
HETATM   31  N   UNL     1      -5.451  -1.280 -34.052  1.00  0.00    -0.228 NA
HETATM   32  C   UNL     1      -4.962  -2.565 -34.033  1.00  0.00     0.054 A 
HETATM   33  C   UNL     1      -5.434  -3.616 -34.976  1.00  0.00     0.090 C 
HETATM   34  C   UNL     1      -3.979  -2.813 -33.099  1.00  0.00     0.039 A 
HETATM   35  C   UNL     1      -4.940  -5.005 -34.507  1.00  0.00     0.276 C 
HETATM   36  N   UNL     1      -3.526  -5.012 -34.064  1.00  0.00     0.088 N 
HETATM   37  C   UNL     1      -3.333  -4.138 -32.885  1.00  0.00     0.317 C 
HETATM   38  H   UNL     1      -2.951  -4.643 -34.823  1.00  0.00     0.316 HD
HETATM   39  S   UNL     1      -3.650  -1.402 -32.207  1.00  0.00    -0.053 SA
ENDBRANCH  28  30
ENDBRANCH   5  26
TORSDOF 7
ENDMDL
MODEL 3
REMARK VINA RESULT:      -9.2      1.714      2.336
REMARK  7 active torsions:
REMARK  status: ('A' for Active; 'I' for Inactive)
REMARK    1  A    between atoms: O_2  and  C_3 
REMARK    2  A    between atoms: C_5  and  C_15 
REMARK    3  A    between atoms: C_8  and  C_9 
REMARK       I    between atoms: C_15  and  N_17 
REMARK    4  A    between atoms: N_17  and  C_18 
REMARK    5  A    between atoms: C_18  and  C_19 
REMARK    6  A    between atoms: C_23  and  C_25 
REMARK       I    between atoms: C_25  and  N_27 
REMARK    7  A    between atoms: N_27  and  C_28 
ROOT
HETATM    1  C   UNL     1      -5.741   5.444 -32.092  1.00  0.00    -0.040 A 
HETATM    2  C   UNL     1      -6.773   5.301 -31.152  1.00  0.00     0.009 A 
HETATM    3  C   UNL     1      -6.584   5.698 -29.829  1.00  0.00     0.002 A 
HETATM    4  C   UNL     1      -5.361   6.236 -29.432  1.00  0.00     0.017 A 
HETATM    5  C   UNL     1      -4.310   6.373 -30.348  1.00  0.00     0.033 A 
HETATM    6  C   UNL     1      -4.508   5.979 -31.680  1.00  0.00     0.026 A 
ENDROOT
BRANCH   1   7
HETATM    7  C   UNL     1      -5.946   5.021 -33.524  1.00  0.00     0.161 C 
BRANCH   7   8
HETATM    8  N   UNL     1      -5.831   3.588 -33.672  1.00  0.00    -0.353 N 
HETATM    9  C   UNL     1      -6.942   2.787 -33.826  1.00  0.00     0.252 C 
HETATM   10  O   UNL     1      -8.090   3.217 -33.839  1.00  0.00    -0.268 OA
HETATM   11  H   UNL     1      -4.922   3.222 -33.914  1.00  0.00     0.163 HD
BRANCH   9  12
HETATM   12  C   UNL     1      -6.679   1.330 -34.015  1.00  0.00     0.034 A 
HETATM   13  C   UNL     1      -5.844   0.676 -33.097  1.00  0.00     0.054 A 
HETATM   14  C   UNL     1      -5.560  -0.691 -33.232  1.00  0.00     0.080 A 
HETATM   15  C   UNL     1      -6.113  -1.414 -34.313  1.00  0.00     0.010 A 
HETATM   16  C   UNL     1      -6.932  -0.741 -35.237  1.00  0.00     0.016 A 
HETATM   17  C   UNL     1      -7.211   0.620 -35.094  1.00  0.00     0.018 A 
BRANCH  14  18
HETATM   18  O   UNL     1      -4.768  -1.393 -32.358  1.00  0.00    -0.355 OA
HETATM   19  C   UNL     1      -3.542  -0.805 -31.943  1.00  0.00     0.210 C 
ENDBRANCH  14  18
BRANCH  15  20
HETATM   20  C   UNL     1      -5.842  -2.832 -34.515  1.00  0.00     0.013 A 
HETATM   21  C   UNL     1      -6.705  -3.909 -34.827  1.00  0.00     0.152 A 
HETATM   22  N   UNL     1      -6.062  -5.077 -34.919  1.00  0.00    -0.187 NA
HETATM   23  N   UNL     1      -4.783  -4.750 -34.687  1.00  0.00    -0.289 N 
HETATM   24  H   UNL     1      -4.085  -5.485 -34.720  1.00  0.00     0.188 HD
HETATM   25  C   UNL     1      -4.598  -3.421 -34.432  1.00  0.00     0.123 A 
ENDBRANCH  15  20
ENDBRANCH   9  12
ENDBRANCH   7   8
ENDBRANCH   1   7
BRANCH   5  26
HETATM   26  C   UNL     1      -3.034   6.986 -29.867  1.00  0.00     0.257 C 
HETATM   27  O   UNL     1      -2.227   7.355 -30.713  1.00  0.00    -0.267 OA
HETATM   28  N   UNL     1      -2.904   7.095 -28.500  1.00  0.00    -0.301 N 
HETATM   29  H   UNL     1      -3.657   6.859 -27.874  1.00  0.00     0.171 HD
BRANCH  28  30
HETATM   30  C   UNL     1      -1.764   7.576 -27.916  1.00  0.00     0.174 A 
HETATM   31  N   UNL     1      -0.653   6.953 -27.612  1.00  0.00    -0.228 NA
HETATM   32  C   UNL     1       0.210   7.844 -27.018  1.00  0.00     0.054 A 
HETATM   33  C   UNL     1       1.578   7.459 -26.576  1.00  0.00     0.090 C 
HETATM   34  C   UNL     1      -0.264   9.132 -26.883  1.00  0.00     0.039 A 
HETATM   35  C   UNL     1       2.173   8.569 -25.677  1.00  0.00     0.276 C 
HETATM   36  N   UNL     1       1.936   9.939 -26.191  1.00  0.00     0.088 N 
HETATM   37  C   UNL     1       0.490  10.245 -26.243  1.00  0.00     0.317 C 
HETATM   38  H   UNL     1       2.300   9.989 -27.144  1.00  0.00     0.316 HD
HETATM   39  S   UNL     1      -1.841   9.243 -27.513  1.00  0.00    -0.053 SA
ENDBRANCH  28  30
ENDBRANCH   5  26
TORSDOF 7
ENDMDL
MODEL 4
REMARK VINA RESULT:      -9.1      4.071     10.623
REMARK  7 active torsions:
REMARK  status: ('A' for Active; 'I' for Inactive)
REMARK    1  A    between atoms: O_2  and  C_3 
REMARK    2  A    between atoms: C_5  and  C_15 
REMARK    3  A    between atoms: C_8  and  C_9 
REMARK       I    between atoms: C_15  and  N_17 
REMARK    4  A    between atoms: N_17  and  C_18 
REMARK    5  A    between atoms: C_18  and  C_19 
REMARK    6  A    between atoms: C_23  and  C_25 
REMARK       I    between atoms: C_25  and  N_27 
REMARK    7  A    between atoms: N_27  and  C_28 
ROOT
HETATM    1  C   UNL     1      -4.527  -1.353 -32.915  1.00  0.00    -0.040 A 
HETATM    2  C   UNL     1      -4.359  -2.578 -33.579  1.00  0.00     0.009 A 
HETATM    3  C   UNL     1      -5.271  -2.985 -34.551  1.00  0.00     0.002 A 
HETATM    4  C   UNL     1      -6.362  -2.177 -34.864  1.00  0.00     0.017 A 
HETATM    5  C   UNL     1      -6.560  -0.958 -34.203  1.00  0.00     0.033 A 
HETATM    6  C   UNL     1      -5.636  -0.549 -33.230  1.00  0.00     0.026 A 
ENDROOT
BRANCH   1   7
HETATM    7  C   UNL     1      -3.538  -0.909 -31.868  1.00  0.00     0.161 C 
BRANCH   7   8
HETATM    8  N   UNL     1      -3.332   0.521 -31.911  1.00  0.00    -0.353 N 
HETATM    9  C   UNL     1      -4.057   1.379 -31.113  1.00  0.00     0.252 C 
HETATM   10  O   UNL     1      -4.922   1.005 -30.328  1.00  0.00    -0.268 OA
HETATM   11  H   UNL     1      -2.481   0.850 -32.343  1.00  0.00     0.163 HD
BRANCH   9  12
HETATM   12  C   UNL     1      -3.712   2.827 -31.223  1.00  0.00     0.034 A 
HETATM   13  C   UNL     1      -2.360   3.186 -31.329  1.00  0.00     0.054 A 
HETATM   14  C   UNL     1      -1.981   4.534 -31.428  1.00  0.00     0.080 A 
HETATM   15  C   UNL     1      -2.973   5.539 -31.411  1.00  0.00     0.010 A 
HETATM   16  C   UNL     1      -4.323   5.166 -31.285  1.00  0.00     0.016 A 
HETATM   17  C   UNL     1      -4.692   3.822 -31.187  1.00  0.00     0.018 A 
BRANCH  14  18
HETATM   18  O   UNL     1      -0.679   4.949 -31.554  1.00  0.00    -0.355 OA
HETATM   19  C   UNL     1       0.099   5.084 -30.372  1.00  0.00     0.210 C 
ENDBRANCH  14  18
BRANCH  15  20
HETATM   20  C   UNL     1      -2.641   6.956 -31.497  1.00  0.00     0.013 A 
HETATM   21  C   UNL     1      -2.187   7.742 -32.582  1.00  0.00     0.152 A 
HETATM   22  N   UNL     1      -1.982   9.019 -32.246  1.00  0.00    -0.187 NA
HETATM   23  N   UNL     1      -2.323   9.061 -30.950  1.00  0.00    -0.289 N 
HETATM   24  H   UNL     1      -2.264   9.950 -30.466  1.00  0.00     0.188 HD
HETATM   25  C   UNL     1      -2.716   7.852 -30.450  1.00  0.00     0.123 A 
ENDBRANCH  15  20
ENDBRANCH   9  12
ENDBRANCH   7   8
ENDBRANCH   1   7
BRANCH   5  26
HETATM   26  C   UNL     1      -7.733  -0.122 -34.606  1.00  0.00     0.257 C 
HETATM   27  O   UNL     1      -8.084  -0.164 -35.779  1.00  0.00    -0.267 OA
HETATM   28  N   UNL     1      -8.323   0.603 -33.594  1.00  0.00    -0.301 N 
HETATM   29  H   UNL     1      -8.037   0.506 -32.634  1.00  0.00     0.171 HD
BRANCH  28  30
HETATM   30  C   UNL     1      -9.363   1.460 -33.827  1.00  0.00     0.174 A 
HETATM   31  N   UNL     1      -9.352   2.679 -34.308  1.00  0.00    -0.228 NA
HETATM   32  C   UNL     1     -10.641   3.156 -34.344  1.00  0.00     0.054 A 
HETATM   33  C   UNL     1     -10.979   4.508 -34.867  1.00  0.00     0.090 C 
HETATM   34  C   UNL     1     -11.611   2.286 -33.892  1.00  0.00     0.039 A 
HETATM   35  C   UNL     1     -12.436   4.870 -34.490  1.00  0.00     0.276 C 
HETATM   36  N   UNL     1     -13.393   3.756 -34.688  1.00  0.00     0.088 N 
HETATM   37  C   UNL     1     -13.063   2.608 -33.816  1.00  0.00     0.317 C 
HETATM   38  H   UNL     1     -13.321   3.442 -35.657  1.00  0.00     0.316 HD
HETATM   39  S   UNL     1     -10.898   0.822 -33.398  1.00  0.00    -0.053 SA
ENDBRANCH  28  30
ENDBRANCH   5  26
TORSDOF 7
ENDMDL
MODEL 5
REMARK VINA RESULT:      -9.1     18.686     20.268
REMARK  7 active torsions:
REMARK  status: ('A' for Active; 'I' for Inactive)
REMARK    1  A    between atoms: O_2  and  C_3 
REMARK    2  A    between atoms: C_5  and  C_15 
REMARK    3  A    between atoms: C_8  and  C_9 
REMARK       I    between atoms: C_15  and  N_17 
REMARK    4  A    between atoms: N_17  and  C_18 
REMARK    5  A    between atoms: C_18  and  C_19 
REMARK    6  A    between atoms: C_23  and  C_25 
REMARK       I    between atoms: C_25  and  N_27 
REMARK    7  A    between atoms: N_27  and  C_28 
ROOT
HETATM    1  C   UNL     1      -0.657 -14.329 -38.353  1.00  0.00    -0.040 A 
HETATM    2  C   UNL     1       0.662 -14.807 -38.401  1.00  0.00     0.009 A 
HETATM    3  C   UNL     1       1.093 -15.781 -37.502  1.00  0.00     0.002 A 
HETATM    4  C   UNL     1       0.214 -16.282 -36.543  1.00  0.00     0.017 A 
HETATM    5  C   UNL     1      -1.102 -15.808 -36.465  1.00  0.00     0.033 A 
HETATM    6  C   UNL     1      -1.533 -14.833 -37.376  1.00  0.00     0.026 A 
ENDROOT
BRANCH   1   7
HETATM    7  C   UNL     1      -1.126 -13.280 -39.328  1.00  0.00     0.161 C 
BRANCH   7   8
HETATM    8  N   UNL     1      -2.561 -13.318 -39.494  1.00  0.00    -0.353 N 
HETATM    9  C   UNL     1      -3.375 -12.340 -38.966  1.00  0.00     0.252 C 
HETATM   10  O   UNL     1      -2.956 -11.386 -38.320  1.00  0.00    -0.268 OA
HETATM   11  H   UNL     1      -2.925 -13.929 -40.211  1.00  0.00     0.163 HD
BRANCH   9  12
HETATM   12  C   UNL     1      -4.834 -12.477 -39.250  1.00  0.00     0.034 A 
HETATM   13  C   UNL     1      -5.678 -12.924 -38.223  1.00  0.00     0.054 A 
HETATM   14  C   UNL     1      -7.055 -13.076 -38.440  1.00  0.00     0.080 A 
HETATM   15  C   UNL     1      -7.596 -12.784 -39.712  1.00  0.00     0.010 A 
HETATM   16  C   UNL     1      -6.737 -12.356 -40.739  1.00  0.00     0.016 A 
HETATM   17  C   UNL     1      -5.366 -12.207 -40.514  1.00  0.00     0.018 A 
BRANCH  14  18
HETATM   18  O   UNL     1      -7.936 -13.489 -37.471  1.00  0.00    -0.355 OA
HETATM   19  C   UNL     1      -7.487 -13.512 -36.122  1.00  0.00     0.210 C 
ENDBRANCH  14  18
BRANCH  15  20
HETATM   20  C   UNL     1      -9.017 -12.936 -40.002  1.00  0.00     0.013 A 
HETATM   21  C   UNL     1      -9.825 -14.092 -40.113  1.00  0.00     0.152 A 
HETATM   22  N   UNL     1     -11.098 -13.807 -40.406  1.00  0.00    -0.187 NA
HETATM   23  N   UNL     1     -11.114 -12.467 -40.463  1.00  0.00    -0.289 N 
HETATM   24  H   UNL     1     -11.996 -12.006 -40.660  1.00  0.00     0.188 HD
HETATM   25  C   UNL     1      -9.894 -11.897 -40.237  1.00  0.00     0.123 A 
ENDBRANCH  15  20
ENDBRANCH   9  12
ENDBRANCH   7   8
ENDBRANCH   1   7
BRANCH   5  26
HETATM   26  C   UNL     1      -2.005 -16.408 -35.435  1.00  0.00     0.257 C 
HETATM   27  O   UNL     1      -2.195 -17.618 -35.481  1.00  0.00    -0.267 OA
HETATM   28  N   UNL     1      -2.522 -15.527 -34.511  1.00  0.00    -0.301 N 
HETATM   29  H   UNL     1      -2.238 -14.562 -34.480  1.00  0.00     0.171 HD
BRANCH  28  30
HETATM   30  C   UNL     1      -3.412 -15.923 -33.550  1.00  0.00     0.174 A 
HETATM   31  N   UNL     1      -3.191 -16.436 -32.366  1.00  0.00    -0.228 NA
HETATM   32  C   UNL     1      -4.398 -16.696 -31.760  1.00  0.00     0.054 A 
HETATM   33  C   UNL     1      -4.499 -17.259 -30.385  1.00  0.00     0.090 C 
HETATM   34  C   UNL     1      -5.517 -16.372 -32.498  1.00  0.00     0.039 A 
HETATM   35  C   UNL     1      -5.949 -17.726 -30.112  1.00  0.00     0.276 C 
HETATM   36  N   UNL     1      -6.978 -16.768 -30.580  1.00  0.00     0.088 N 
HETATM   37  C   UNL     1      -6.918 -16.596 -32.048  1.00  0.00     0.317 C 
HETATM   38  H   UNL     1      -6.787 -15.860 -30.152  1.00  0.00     0.316 HD
HETATM   39  S   UNL     1      -5.056 -15.724 -34.002  1.00  0.00    -0.053 SA
ENDBRANCH  28  30
ENDBRANCH   5  26
TORSDOF 7
ENDMDL
MODEL 6
REMARK VINA RESULT:      -9.1      4.000     12.090
REMARK  7 active torsions:
REMARK  status: ('A' for Active; 'I' for Inactive)
REMARK    1  A    between atoms: O_2  and  C_3 
REMARK    2  A    between atoms: C_5  and  C_15 
REMARK    3  A    between atoms: C_8  and  C_9 
REMARK       I    between atoms: C_15  and  N_17 
REMARK    4  A    between atoms: N_17  and  C_18 
REMARK    5  A    between atoms: C_18  and  C_19 
REMARK    6  A    between atoms: C_23  and  C_25 
REMARK       I    between atoms: C_25  and  N_27 
REMARK    7  A    between atoms: N_27  and  C_28 
ROOT
HETATM    1  C   UNL     1      -4.069   2.846 -32.057  1.00  0.00    -0.040 A 
HETATM    2  C   UNL     1      -3.487   1.733 -31.431  1.00  0.00     0.009 A 
HETATM    3  C   UNL     1      -4.284   0.698 -30.947  1.00  0.00     0.002 A 
HETATM    4  C   UNL     1      -5.670   0.766 -31.078  1.00  0.00     0.017 A 
HETATM    5  C   UNL     1      -6.275   1.875 -31.684  1.00  0.00     0.033 A 
HETATM    6  C   UNL     1      -5.468   2.911 -32.176  1.00  0.00     0.026 A 
ENDROOT
BRANCH   1   7
HETATM    7  C   UNL     1      -3.208   3.964 -32.587  1.00  0.00     0.161 C 
BRANCH   7   8
HETATM    8  N   UNL     1      -2.583   4.702 -31.514  1.00  0.00    -0.353 N 
HETATM    9  C   UNL     1      -1.250   5.048 -31.556  1.00  0.00     0.252 C 
HETATM   10  O   UNL     1      -0.503   4.754 -32.484  1.00  0.00    -0.268 OA
HETATM   11  H   UNL     1      -3.194   5.173 -30.863  1.00  0.00     0.163 HD
BRANCH   9  12
HETATM   12  C   UNL     1      -0.743   5.850 -30.404  1.00  0.00     0.034 A 
HETATM   13  C   UNL     1      -1.243   7.147 -30.220  1.00  0.00     0.054 A 
HETATM   14  C   UNL     1      -0.795   7.945 -29.157  1.00  0.00     0.080 A 
HETATM   15  C   UNL     1       0.178   7.438 -28.268  1.00  0.00     0.010 A 
HETATM   16  C   UNL     1       0.686   6.144 -28.475  1.00  0.00     0.016 A 
HETATM   17  C   UNL     1       0.235   5.355 -29.536  1.00  0.00     0.018 A 
BRANCH  14  18
HETATM   18  O   UNL     1      -1.259   9.214 -28.911  1.00  0.00    -0.355 OA
HETATM   19  C   UNL     1      -2.297   9.720 -29.739  1.00  0.00     0.210 C 
ENDBRANCH  14  18
BRANCH  15  20
HETATM   20  C   UNL     1       0.693   8.225 -27.153  1.00  0.00     0.013 A 
HETATM   21  C   UNL     1       0.125   8.543 -25.897  1.00  0.00     0.152 A 
HETATM   22  N   UNL     1       0.922   9.310 -25.147  1.00  0.00    -0.187 NA
HETATM   23  N   UNL     1       2.013   9.469 -25.911  1.00  0.00    -0.289 N 
HETATM   24  H   UNL     1       2.783  10.015 -25.541  1.00  0.00     0.188 HD
HETATM   25  C   UNL     1       1.924   8.847 -27.125  1.00  0.00     0.123 A 
ENDBRANCH  15  20
ENDBRANCH   9  12
ENDBRANCH   7   8
ENDBRANCH   1   7
BRANCH   5  26
HETATM   26  C   UNL     1      -7.764   1.874 -31.821  1.00  0.00     0.257 C 
HETATM   27  O   UNL     1      -8.427   2.149 -30.827  1.00  0.00    -0.267 OA
HETATM   28  N   UNL     1      -8.246   1.582 -33.078  1.00  0.00    -0.301 N 
HETATM   29  H   UNL     1      -7.634   1.465 -33.868  1.00  0.00     0.171 HD
BRANCH  28  30
HETATM   30  C   UNL     1      -9.586   1.482 -33.336  1.00  0.00     0.174 A 
HETATM   31  N   UNL     1     -10.393   0.462 -33.186  1.00  0.00    -0.228 NA
HETATM   32  C   UNL     1     -11.654   0.826 -33.597  1.00  0.00     0.054 A 
HETATM   33  C   UNL     1     -12.817  -0.101 -33.529  1.00  0.00     0.090 C 
HETATM   34  C   UNL     1     -11.781   2.122 -34.051  1.00  0.00     0.039 A 
HETATM   35  C   UNL     1     -14.000   0.478 -34.341  1.00  0.00     0.276 C 
HETATM   36  N   UNL     1     -14.216   1.928 -34.123  1.00  0.00     0.088 N 
HETATM   37  C   UNL     1     -13.045   2.714 -34.570  1.00  0.00     0.317 C 
HETATM   38  H   UNL     1     -14.332   2.085 -33.121  1.00  0.00     0.316 HD
HETATM   39  S   UNL     1     -10.280   2.919 -33.969  1.00  0.00    -0.053 SA
ENDBRANCH  28  30
ENDBRANCH   5  26
TORSDOF 7
ENDMDL
MODEL 7
REMARK VINA RESULT:      -9.0      5.073      9.127
REMARK  7 active torsions:
REMARK  status: ('A' for Active; 'I' for Inactive)
REMARK    1  A    between atoms: O_2  and  C_3 
REMARK    2  A    between atoms: C_5  and  C_15 
REMARK    3  A    between atoms: C_8  and  C_9 
REMARK       I    between atoms: C_15  and  N_17 
REMARK    4  A    between atoms: N_17  and  C_18 
REMARK    5  A    between atoms: C_18  and  C_19 
REMARK    6  A    between atoms: C_23  and  C_25 
REMARK       I    between atoms: C_25  and  N_27 
REMARK    7  A    between atoms: N_27  and  C_28 
ROOT
HETATM    1  C   UNL     1      -5.894   4.949 -31.329  1.00  0.00    -0.040 A 
HETATM    2  C   UNL     1      -5.884   6.315 -31.008  1.00  0.00     0.009 A 
HETATM    3  C   UNL     1      -7.076   6.986 -30.738  1.00  0.00     0.002 A 
HETATM    4  C   UNL     1      -8.288   6.301 -30.792  1.00  0.00     0.017 A 
HETATM    5  C   UNL     1      -8.325   4.941 -31.127  1.00  0.00     0.033 A 
HETATM    6  C   UNL     1      -7.123   4.269 -31.391  1.00  0.00     0.026 A 
ENDROOT
BRANCH   1   7
HETATM    7  C   UNL     1      -4.606   4.221 -31.615  1.00  0.00     0.161 C 
BRANCH   7   8
HETATM    8  N   UNL     1      -4.853   2.918 -32.188  1.00  0.00    -0.353 N 
HETATM    9  C   UNL     1      -3.996   1.860 -31.972  1.00  0.00     0.252 C 
HETATM   10  O   UNL     1      -2.974   1.942 -31.299  1.00  0.00    -0.268 OA
HETATM   11  H   UNL     1      -5.784   2.735 -32.532  1.00  0.00     0.163 HD
BRANCH   9  12
HETATM   12  C   UNL     1      -4.394   0.558 -32.584  1.00  0.00     0.034 A 
HETATM   13  C   UNL     1      -5.671   0.449 -33.154  1.00  0.00     0.054 A 
HETATM   14  C   UNL     1      -6.097  -0.755 -33.736  1.00  0.00     0.080 A 
HETATM   15  C   UNL     1      -5.232  -1.871 -33.739  1.00  0.00     0.010 A 
HETATM   16  C   UNL     1      -3.962  -1.754 -33.146  1.00  0.00     0.016 A 
HETATM   17  C   UNL     1      -3.546  -0.552 -32.569  1.00  0.00     0.018 A 
BRANCH  14  18
HETATM   18  O   UNL     1      -7.325  -0.920 -34.326  1.00  0.00    -0.355 OA
HETATM   19  C   UNL     1      -7.845   0.151 -35.104  1.00  0.00     0.210 C 
ENDBRANCH  14  18
BRANCH  15  20
HETATM   20  C   UNL     1      -5.623  -3.152 -34.315  1.00  0.00     0.013 A 
HETATM   21  C   UNL     1      -4.924  -4.377 -34.422  1.00  0.00     0.152 A 
HETATM   22  N   UNL     1      -5.635  -5.328 -35.037  1.00  0.00    -0.187 NA
HETATM   23  N   UNL     1      -6.800  -4.721 -35.308  1.00  0.00    -0.289 N 
HETATM   24  H   UNL     1      -7.525  -5.258 -35.771  1.00  0.00     0.188 HD
HETATM   25  C   UNL     1      -6.842  -3.416 -34.905  1.00  0.00     0.123 A 
ENDBRANCH  15  20
ENDBRANCH   9  12
ENDBRANCH   7   8
ENDBRANCH   1   7
BRANCH   5  26
HETATM   26  C   UNL     1      -9.654   4.256 -31.138  1.00  0.00     0.257 C 
HETATM   27  O   UNL     1      -9.947   3.569 -30.166  1.00  0.00    -0.267 OA
HETATM   28  N   UNL     1     -10.435   4.489 -32.249  1.00  0.00    -0.301 N 
HETATM   29  H   UNL     1     -10.163   5.147 -32.961  1.00  0.00     0.171 HD
BRANCH  28  30
HETATM   30  C   UNL     1     -11.646   3.878 -32.425  1.00  0.00     0.174 A 
HETATM   31  N   UNL     1     -12.827   4.216 -31.971  1.00  0.00    -0.228 NA
HETATM   32  C   UNL     1     -13.750   3.287 -32.392  1.00  0.00     0.054 A 
HETATM   33  C   UNL     1     -15.199   3.394 -32.068  1.00  0.00     0.090 C 
HETATM   34  C   UNL     1     -13.250   2.259 -33.163  1.00  0.00     0.039 A 
HETATM   35  C   UNL     1     -15.913   2.063 -32.402  1.00  0.00     0.276 C 
HETATM   36  N   UNL     1     -15.503   1.479 -33.701  1.00  0.00     0.088 N 
HETATM   37  C   UNL     1     -14.064   1.132 -33.697  1.00  0.00     0.317 C 
HETATM   38  H   UNL     1     -15.652   2.180 -34.427  1.00  0.00     0.316 HD
HETATM   39  S   UNL     1     -11.572   2.448 -33.371  1.00  0.00    -0.053 SA
ENDBRANCH  28  30
ENDBRANCH   5  26
TORSDOF 7
ENDMDL
MODEL 8
REMARK VINA RESULT:      -8.8      1.627      2.215
REMARK  7 active torsions:
REMARK  status: ('A' for Active; 'I' for Inactive)
REMARK    1  A    between atoms: O_2  and  C_3 
REMARK    2  A    between atoms: C_5  and  C_15 
REMARK    3  A    between atoms: C_8  and  C_9 
REMARK       I    between atoms: C_15  and  N_17 
REMARK    4  A    between atoms: N_17  and  C_18 
REMARK    5  A    between atoms: C_18  and  C_19 
REMARK    6  A    between atoms: C_23  and  C_25 
REMARK       I    between atoms: C_25  and  N_27 
REMARK    7  A    between atoms: N_27  and  C_28 
ROOT
HETATM    1  C   UNL     1      -2.904   5.646 -32.082  1.00  0.00    -0.040 A 
HETATM    2  C   UNL     1      -1.768   4.881 -32.387  1.00  0.00     0.009 A 
HETATM    3  C   UNL     1      -0.590   5.045 -31.661  1.00  0.00     0.002 A 
HETATM    4  C   UNL     1      -0.533   5.978 -30.628  1.00  0.00     0.017 A 
HETATM    5  C   UNL     1      -1.649   6.766 -30.316  1.00  0.00     0.033 A 
HETATM    6  C   UNL     1      -2.834   6.592 -31.045  1.00  0.00     0.026 A 
ENDROOT
BRANCH   1   7
HETATM    7  C   UNL     1      -4.181   5.465 -32.863  1.00  0.00     0.161 C 
BRANCH   7   8
HETATM    8  N   UNL     1      -4.420   4.073 -33.168  1.00  0.00    -0.353 N 
HETATM    9  C   UNL     1      -5.564   3.429 -32.750  1.00  0.00     0.252 C 
HETATM   10  O   UNL     1      -6.446   3.972 -32.093  1.00  0.00    -0.268 OA
HETATM   11  H   UNL     1      -3.861   3.660 -33.900  1.00  0.00     0.163 HD
BRANCH   9  12
HETATM   12  C   UNL     1      -5.706   2.005 -33.173  1.00  0.00     0.034 A 
HETATM   13  C   UNL     1      -5.031   1.018 -32.440  1.00  0.00     0.054 A 
HETATM   14  C   UNL     1      -5.126  -0.335 -32.799  1.00  0.00     0.080 A 
HETATM   15  C   UNL     1      -5.904  -0.705 -33.919  1.00  0.00     0.010 A 
HETATM   16  C   UNL     1      -6.560   0.296 -34.657  1.00  0.00     0.016 A 
HETATM   17  C   UNL     1      -6.460   1.640 -34.292  1.00  0.00     0.018 A 
BRANCH  14  18
HETATM   18  O   UNL     1      -4.506  -1.349 -32.112  1.00  0.00    -0.355 OA
HETATM   19  C   UNL     1      -3.127  -1.204 -31.802  1.00  0.00     0.210 C 
ENDBRANCH  14  18
BRANCH  15  20
HETATM   20  C   UNL     1      -6.029  -2.092 -34.350  1.00  0.00     0.013 A 
HETATM   21  C   UNL     1      -7.124  -2.987 -34.302  1.00  0.00     0.152 A 
HETATM   22  N   UNL     1      -6.829  -4.194 -34.794  1.00  0.00    -0.187 NA
HETATM   23  N   UNL     1      -5.550  -4.071 -35.177  1.00  0.00    -0.289 N 
HETATM   24  H   UNL     1      -5.098  -4.872 -35.605  1.00  0.00     0.188 HD
HETATM   25  C   UNL     1      -5.021  -2.837 -34.927  1.00  0.00     0.123 A 
ENDBRANCH  15  20
ENDBRANCH   9  12
ENDBRANCH   7   8
ENDBRANCH   1   7
BRANCH   5  26
HETATM   26  C   UNL     1      -1.534   7.727 -29.176  1.00  0.00     0.257 C 
HETATM   27  O   UNL     1      -1.848   8.894 -29.383  1.00  0.00    -0.267 OA
HETATM   28  N   UNL     1      -1.100   7.189 -27.985  1.00  0.00    -0.301 N 
HETATM   29  H   UNL     1      -0.957   6.199 -27.869  1.00  0.00     0.171 HD
BRANCH  28  30
HETATM   30  C   UNL     1      -0.886   7.961 -26.875  1.00  0.00     0.174 A 
HETATM   31  N   UNL     1       0.204   8.567 -26.476  1.00  0.00    -0.228 NA
HETATM   32  C   UNL     1      -0.054   9.210 -25.287  1.00  0.00     0.054 A 
HETATM   33  C   UNL     1       0.974  10.020 -24.577  1.00  0.00     0.090 C 
HETATM   34  C   UNL     1      -1.340   9.082 -24.808  1.00  0.00     0.039 A 
HETATM   35  C   UNL     1       0.490  10.346 -23.144  1.00  0.00     0.276 C 
HETATM   36  N   UNL     1      -0.932  10.760 -23.078  1.00  0.00     0.088 N 
HETATM   37  C   UNL     1      -1.826   9.670 -23.529  1.00  0.00     0.317 C 
HETATM   38  H   UNL     1      -1.063  11.551 -23.711  1.00  0.00     0.316 HD
HETATM   39  S   UNL     1      -2.266   8.125 -25.867  1.00  0.00    -0.053 SA
ENDBRANCH  28  30
ENDBRANCH   5  26
TORSDOF 7
ENDMDL
MODEL 9
REMARK VINA RESULT:      -8.7      3.515     10.547
REMARK  7 active torsions:
REMARK  status: ('A' for Active; 'I' for Inactive)
REMARK    1  A    between atoms: O_2  and  C_3 
REMARK    2  A    between atoms: C_5  and  C_15 
REMARK    3  A    between atoms: C_8  and  C_9 
REMARK       I    between atoms: C_15  and  N_17 
REMARK    4  A    between atoms: N_17  and  C_18 
REMARK    5  A    between atoms: C_18  and  C_19 
REMARK    6  A    between atoms: C_23  and  C_25 
REMARK       I    between atoms: C_25  and  N_27 
REMARK    7  A    between atoms: N_27  and  C_28 
ROOT
HETATM    1  C   UNL     1     -10.057   4.128 -34.411  1.00  0.00    -0.040 A 
HETATM    2  C   UNL     1     -11.400   3.886 -34.736  1.00  0.00     0.009 A 
HETATM    3  C   UNL     1     -11.893   2.583 -34.776  1.00  0.00     0.002 A 
HETATM    4  C   UNL     1     -11.049   1.510 -34.496  1.00  0.00     0.017 A 
HETATM    5  C   UNL     1      -9.700   1.726 -34.186  1.00  0.00     0.033 A 
HETATM    6  C   UNL     1      -9.210   3.039 -34.141  1.00  0.00     0.026 A 
ENDROOT
BRANCH   1   7
HETATM    7  C   UNL     1      -9.523   5.537 -34.362  1.00  0.00     0.161 C 
BRANCH   7   8
HETATM    8  N   UNL     1      -8.161   5.569 -33.880  1.00  0.00    -0.353 N 
HETATM    9  C   UNL     1      -7.860   5.958 -32.593  1.00  0.00     0.252 C 
HETATM   10  O   UNL     1      -8.704   6.310 -31.777  1.00  0.00    -0.268 OA
HETATM   11  H   UNL     1      -7.472   5.063 -34.417  1.00  0.00     0.163 HD
BRANCH   9  12
HETATM   12  C   UNL     1      -6.418   5.901 -32.211  1.00  0.00     0.034 A 
HETATM   13  C   UNL     1      -5.456   5.862 -33.231  1.00  0.00     0.054 A 
HETATM   14  C   UNL     1      -4.088   5.800 -32.926  1.00  0.00     0.080 A 
HETATM   15  C   UNL     1      -3.677   5.768 -31.575  1.00  0.00     0.010 A 
HETATM   16  C   UNL     1      -4.652   5.788 -30.563  1.00  0.00     0.016 A 
HETATM   17  C   UNL     1      -6.012   5.849 -30.875  1.00  0.00     0.018 A 
BRANCH  14  18
HETATM   18  O   UNL     1      -3.098   5.780 -33.877  1.00  0.00    -0.355 OA
HETATM   19  C   UNL     1      -3.422   5.291 -35.172  1.00  0.00     0.210 C 
ENDBRANCH  14  18
BRANCH  15  20
HETATM   20  C   UNL     1      -2.271   5.690 -31.196  1.00  0.00     0.013 A 
HETATM   21  C   UNL     1      -1.365   4.604 -31.201  1.00  0.00     0.152 A 
HETATM   22  N   UNL     1      -0.148   4.942 -30.763  1.00  0.00    -0.187 NA
HETATM   23  N   UNL     1      -0.265   6.251 -30.494  1.00  0.00    -0.289 N 
HETATM   24  H   UNL     1       0.552   6.746 -30.154  1.00  0.00     0.188 HD
HETATM   25  C   UNL     1      -1.517   6.746 -30.728  1.00  0.00     0.123 A 
ENDBRANCH  15  20
ENDBRANCH   9  12
ENDBRANCH   7   8
ENDBRANCH   1   7
BRANCH   5  26
HETATM   26  C   UNL     1      -8.853   0.535 -33.866  1.00  0.00     0.257 C 
HETATM   27  O   UNL     1      -8.952   0.053 -32.743  1.00  0.00    -0.267 OA
HETATM   28  N   UNL     1      -8.053   0.082 -34.890  1.00  0.00    -0.301 N 
HETATM   29  H   UNL     1      -8.102   0.473 -35.817  1.00  0.00     0.171 HD
BRANCH  28  30
HETATM   30  C   UNL     1      -7.179  -0.958 -34.723  1.00  0.00     0.174 A 
HETATM   31  N   UNL     1      -7.290  -2.211 -35.087  1.00  0.00    -0.228 NA
HETATM   32  C   UNL     1      -6.166  -2.894 -34.686  1.00  0.00     0.054 A 
HETATM   33  C   UNL     1      -5.964  -4.341 -34.971  1.00  0.00     0.090 C 
HETATM   34  C   UNL     1      -5.217  -2.142 -34.024  1.00  0.00     0.039 A 
HETATM   35  C   UNL     1      -4.780  -4.883 -34.135  1.00  0.00     0.276 C 
HETATM   36  N   UNL     1      -3.606  -3.978 -34.114  1.00  0.00     0.088 N 
HETATM   37  C   UNL     1      -3.943  -2.684 -33.478  1.00  0.00     0.317 C 
HETATM   38  H   UNL     1      -3.332  -3.788 -35.079  1.00  0.00     0.316 HD
HETATM   39  S   UNL     1      -5.740  -0.528 -33.891  1.00  0.00    -0.053 SA
ENDBRANCH  28  30
ENDBRANCH   5  26
TORSDOF 7
ENDMDL
MODEL 10
REMARK VINA RESULT:      -8.7      3.991      7.248
REMARK  7 active torsions:
REMARK  status: ('A' for Active; 'I' for Inactive)
REMARK    1  A    between atoms: O_2  and  C_3 
REMARK    2  A    between atoms: C_5  and  C_15 
REMARK    3  A    between atoms: C_8  and  C_9 
REMARK       I    between atoms: C_15  and  N_17 
REMARK    4  A    between atoms: N_17  and  C_18 
REMARK    5  A    between atoms: C_18  and  C_19 
REMARK    6  A    between atoms: C_23  and  C_25 
REMARK       I    between atoms: C_25  and  N_27 
REMARK    7  A    between atoms: N_27  and  C_28 
ROOT
HETATM    1  C   UNL     1      -5.009  -1.370 -33.343  1.00  0.00    -0.040 A 
HETATM    2  C   UNL     1      -4.170  -2.382 -32.854  1.00  0.00     0.009 A 
HETATM    3  C   UNL     1      -3.072  -2.065 -32.056  1.00  0.00     0.002 A 
HETATM    4  C   UNL     1      -2.798  -0.734 -31.745  1.00  0.00     0.017 A 
HETATM    5  C   UNL     1      -3.612   0.295 -32.236  1.00  0.00     0.033 A 
HETATM    6  C   UNL     1      -4.720  -0.029 -33.032  1.00  0.00     0.026 A 
ENDROOT
BRANCH   1   7
HETATM    7  C   UNL     1      -6.201  -1.711 -34.200  1.00  0.00     0.161 C 
BRANCH   7   8
HETATM    8  N   UNL     1      -7.343  -0.892 -33.867  1.00  0.00    -0.353 N 
HETATM    9  C   UNL     1      -7.706   0.190 -34.639  1.00  0.00     0.252 C 
HETATM   10  O   UNL     1      -7.096   0.540 -35.644  1.00  0.00    -0.268 OA
HETATM   11  H   UNL     1      -8.009  -1.276 -33.212  1.00  0.00     0.163 HD
BRANCH   9  12
HETATM   12  C   UNL     1      -8.933   0.922 -34.208  1.00  0.00     0.034 A 
HETATM   13  C   UNL     1      -9.038   2.288 -34.509  1.00  0.00     0.054 A 
HETATM   14  C   UNL     1     -10.167   3.025 -34.121  1.00  0.00     0.080 A 
HETATM   15  C   UNL     1     -11.205   2.383 -33.410  1.00  0.00     0.010 A 
HETATM   16  C   UNL     1     -11.079   1.018 -33.097  1.00  0.00     0.016 A 
HETATM   17  C   UNL     1      -9.951   0.292 -33.488  1.00  0.00     0.018 A 
BRANCH  14  18
HETATM   18  O   UNL     1     -10.338   4.357 -34.402  1.00  0.00    -0.355 OA
HETATM   19  C   UNL     1      -9.258   5.243 -34.138  1.00  0.00     0.210 C 
ENDBRANCH  14  18
BRANCH  15  20
HETATM   20  C   UNL     1     -12.396   3.099 -32.967  1.00  0.00     0.013 A 
HETATM   21  C   UNL     1     -12.626   3.909 -31.831  1.00  0.00     0.152 A 
HETATM   22  N   UNL     1     -13.875   4.383 -31.776  1.00  0.00    -0.187 NA
HETATM   23  N   UNL     1     -14.444   3.894 -32.888  1.00  0.00    -0.289 N 
HETATM   24  H   UNL     1     -15.410   4.135 -33.078  1.00  0.00     0.188 HD
HETATM   25  C   UNL     1     -13.605   3.113 -33.631  1.00  0.00     0.123 A 
ENDBRANCH  15  20
ENDBRANCH   9  12
ENDBRANCH   7   8
ENDBRANCH   1   7
BRANCH   5  26
HETATM   26  C   UNL     1      -3.284   1.700 -31.841  1.00  0.00     0.257 C 
HETATM   27  O   UNL     1      -2.548   1.861 -30.873  1.00  0.00    -0.267 OA
HETATM   28  N   UNL     1      -3.833   2.684 -32.632  1.00  0.00    -0.301 N 
HETATM   29  H   UNL     1      -4.347   2.468 -33.470  1.00  0.00     0.171 HD
BRANCH  28  30
HETATM   30  C   UNL     1      -3.671   4.014 -32.352  1.00  0.00     0.174 A 
HETATM   31  N   UNL     1      -4.315   4.774 -31.502  1.00  0.00    -0.228 NA
HETATM   32  C   UNL     1      -3.817   6.054 -31.583  1.00  0.00     0.054 A 
HETATM   33  C   UNL     1      -4.316   7.163 -30.723  1.00  0.00     0.090 C 
HETATM   34  C   UNL     1      -2.800   6.241 -32.495  1.00  0.00     0.039 A 
HETATM   35  C   UNL     1      -3.798   8.519 -31.258  1.00  0.00     0.276 C 
HETATM   36  N   UNL     1      -2.369   8.494 -31.651  1.00  0.00     0.088 N 
HETATM   37  C   UNL     1      -2.140   7.548 -32.766  1.00  0.00     0.317 C 
HETATM   38  H   UNL     1      -1.824   8.170 -30.851  1.00  0.00     0.316 HD
HETATM   39  S   UNL     1      -2.448   4.776 -33.286  1.00  0.00    -0.053 SA
ENDBRANCH  28  30
ENDBRANCH   5  26
TORSDOF 7
ENDMDL
