MODEL 1
REMARK VINA RESULT:      -8.6      0.000      0.000
REMARK  5 active torsions:
REMARK  status: ('A' for Active; 'I' for Inactive)
REMARK    1  A    between atoms: C_9  and  C_10 
REMARK       I    between atoms: C_10  and  N_11 
REMARK    2  A    between atoms: N_11  and  C_12 
REMARK    3  A    between atoms: C_12  and  C_13 
REMARK    4  A    between atoms: C_12  and  C_16 
REMARK    5  A    between atoms: C_19  and  O_20 
ROOT
HETATM    1  C   UNL     1      -5.443   3.636 -33.083  1.00  0.00     0.273 C 
HETATM    2  N   UNL     1      -5.127   2.299 -33.102  1.00  0.00    -0.346 N 
HETATM    3  O   UNL     1      -6.451   4.096 -32.557  1.00  0.00    -0.266 OA
HETATM    4  H   UNL     1      -4.230   2.078 -33.518  1.00  0.00     0.163 HD
ENDROOT
BRANCH   2   5
HETATM    5  C   UNL     1      -5.895   1.276 -32.435  1.00  0.00     0.122 C 
BRANCH   5   6
HETATM    6  C   UNL     1      -5.445   1.070 -31.005  1.00  0.00     0.013 A 
HETATM    7  C   UNL     1      -6.145   1.689 -29.815  1.00  0.00     0.007 A 
HETATM    8  C   UNL     1      -6.204   0.200 -30.027  1.00  0.00     0.007 A 
ENDBRANCH   5   6
BRANCH   5   9
HETATM    9  C   UNL     1      -5.840  -0.052 -33.177  1.00  0.00    -0.035 A 
HETATM   10  C   UNL     1      -4.636  -0.772 -33.213  1.00  0.00     0.012 A 
HETATM   11  C   UNL     1      -4.547  -1.982 -33.907  1.00  0.00     0.037 A 
HETATM   12  C   UNL     1      -5.655  -2.504 -34.574  1.00  0.00     0.068 A 
HETATM   13  C   UNL     1      -6.852  -1.791 -34.561  1.00  0.00     0.037 A 
HETATM   14  C   UNL     1      -6.942  -0.574 -33.874  1.00  0.00     0.012 A 
BRANCH  12  15
HETATM   15  O   UNL     1      -5.437  -3.698 -35.204  1.00  0.00    -0.356 OA
HETATM   16  C   UNL     1      -6.555  -4.569 -35.326  1.00  0.00     0.210 C 
ENDBRANCH  12  15
ENDBRANCH   5   9
ENDBRANCH   2   5
BRANCH   1  17
HETATM   17  C   UNL     1      -4.425   4.464 -33.752  1.00  0.00     0.157 A 
HETATM   18  C   UNL     1      -3.168   4.888 -33.228  1.00  0.00     0.029 A 
HETATM   19  C   UNL     1      -2.465   4.726 -32.017  1.00  0.00     0.023 A 
HETATM   20  C   UNL     1      -2.584   5.632 -34.245  1.00  0.00     0.063 A 
HETATM   21  C   UNL     1      -1.197   5.312 -31.868  1.00  0.00    -0.061 A 
HETATM   22  C   UNL     1      -0.432   5.155 -30.586  1.00  0.00     0.048 C 
HETATM   23  C   UNL     1      -0.647   6.057 -32.919  1.00  0.00     0.009 A 
HETATM   24  C   UNL     1      -1.328   6.232 -34.129  1.00  0.00     0.032 A 
HETATM   25  N   UNL     1      -3.486   5.611 -35.272  1.00  0.00    -0.277 N 
HETATM   26  H   UNL     1      -3.392   6.054 -36.178  1.00  0.00     0.189 HD
HETATM   27  N   UNL     1      -4.607   4.913 -35.017  1.00  0.00    -0.168 NA
ENDBRANCH   1  17
TORSDOF 5
ENDMDL
MODEL 2
REMARK VINA RESULT:      -8.3      4.108      6.925
REMARK  5 active torsions:
REMARK  status: ('A' for Active; 'I' for Inactive)
REMARK    1  A    between atoms: C_9  and  C_10 
REMARK       I    between atoms: C_10  and  N_11 
REMARK    2  A    between atoms: N_11  and  C_12 
REMARK    3  A    between atoms: C_12  and  C_13 
REMARK    4  A    between atoms: C_12  and  C_16 
REMARK    5  A    between atoms: C_19  and  O_20 
ROOT
HETATM    1  C   UNL     1      -4.561   0.296 -32.454  1.00  0.00     0.273 C 
HETATM    2  N   UNL     1      -5.889   0.309 -32.103  1.00  0.00    -0.346 N 
HETATM    3  O   UNL     1      -3.926   1.294 -32.780  1.00  0.00    -0.266 OA
HETATM    4  H   UNL     1      -6.259  -0.583 -31.797  1.00  0.00     0.163 HD
ENDROOT
BRANCH   2   5
HETATM    5  C   UNL     1      -6.685   1.506 -31.992  1.00  0.00     0.122 C 
BRANCH   5   6
HETATM    6  C   UNL     1      -6.867   1.936 -30.552  1.00  0.00     0.013 A 
HETATM    7  C   UNL     1      -6.204   3.160 -29.959  1.00  0.00     0.007 A 
HETATM    8  C   UNL     1      -7.696   3.139 -30.157  1.00  0.00     0.007 A 
ENDBRANCH   5   6
BRANCH   5   9
HETATM    9  C   UNL     1      -8.050   1.345 -32.646  1.00  0.00    -0.035 A 
HETATM   10  C   UNL     1      -8.495   2.310 -33.563  1.00  0.00     0.012 A 
HETATM   11  C   UNL     1      -9.754   2.202 -34.160  1.00  0.00     0.037 A 
HETATM   12  C   UNL     1     -10.595   1.130 -33.863  1.00  0.00     0.068 A 
HETATM   13  C   UNL     1     -10.174   0.174 -32.941  1.00  0.00     0.037 A 
HETATM   14  C   UNL     1      -8.916   0.284 -32.334  1.00  0.00     0.012 A 
BRANCH  12  15
HETATM   15  O   UNL     1     -11.793   1.138 -34.522  1.00  0.00    -0.356 OA
HETATM   16  C   UNL     1     -12.905   0.583 -33.831  1.00  0.00     0.210 C 
ENDBRANCH  12  15
ENDBRANCH   5   9
ENDBRANCH   2   5
BRANCH   1  17
HETATM   17  C   UNL     1      -3.973  -1.052 -32.380  1.00  0.00     0.157 A 
HETATM   18  C   UNL     1      -4.351  -2.208 -33.125  1.00  0.00     0.029 A 
HETATM   19  C   UNL     1      -5.316  -2.513 -34.107  1.00  0.00     0.023 A 
HETATM   20  C   UNL     1      -3.493  -3.213 -32.697  1.00  0.00     0.063 A 
HETATM   21  C   UNL     1      -5.384  -3.816 -34.630  1.00  0.00    -0.061 A 
HETATM   22  C   UNL     1      -6.405  -4.164 -35.673  1.00  0.00     0.048 C 
HETATM   23  C   UNL     1      -4.500  -4.799 -34.167  1.00  0.00     0.009 A 
HETATM   24  C   UNL     1      -3.536  -4.518 -33.191  1.00  0.00     0.032 A 
HETATM   25  N   UNL     1      -2.688  -2.625 -31.761  1.00  0.00    -0.277 N 
HETATM   26  H   UNL     1      -1.941  -3.063 -31.236  1.00  0.00     0.189 HD
HETATM   27  N   UNL     1      -2.941  -1.322 -31.545  1.00  0.00    -0.168 NA
ENDBRANCH   1  17
TORSDOF 5
ENDMDL
MODEL 3
REMARK VINA RESULT:      -8.2      1.966      2.588
REMARK  5 active torsions:
REMARK  status: ('A' for Active; 'I' for Inactive)
REMARK    1  A    between atoms: C_9  and  C_10 
REMARK       I    between atoms: C_10  and  N_11 
REMARK    2  A    between atoms: N_11  and  C_12 
REMARK    3  A    between atoms: C_12  and  C_13 
REMARK    4  A    between atoms: C_12  and  C_16 
REMARK    5  A    between atoms: C_19  and  O_20 
ROOT
HETATM    1  C   UNL     1      -6.051   3.058 -32.845  1.00  0.00     0.273 C 
HETATM    2  N   UNL     1      -6.042   1.710 -32.582  1.00  0.00    -0.346 N 
HETATM    3  O   UNL     1      -6.782   3.593 -33.671  1.00  0.00    -0.266 OA
HETATM    4  H   UNL     1      -5.428   1.425 -31.828  1.00  0.00     0.163 HD
ENDROOT
BRANCH   2   5
HETATM    5  C   UNL     1      -6.948   0.762 -33.184  1.00  0.00     0.122 C 
BRANCH   5   6
HETATM    6  C   UNL     1      -8.121   0.445 -32.280  1.00  0.00     0.013 A 
HETATM    7  C   UNL     1      -9.332   1.341 -32.144  1.00  0.00     0.007 A 
HETATM    8  C   UNL     1      -9.465  -0.001 -32.812  1.00  0.00     0.007 A 
ENDBRANCH   5   6
BRANCH   5   9
HETATM    9  C   UNL     1      -6.245  -0.532 -33.569  1.00  0.00    -0.035 A 
HETATM   10  C   UNL     1      -5.055  -0.890 -32.918  1.00  0.00     0.012 A 
HETATM   11  C   UNL     1      -4.373  -2.060 -33.268  1.00  0.00     0.037 A 
HETATM   12  C   UNL     1      -4.865  -2.900 -34.267  1.00  0.00     0.068 A 
HETATM   13  C   UNL     1      -6.037  -2.548 -34.933  1.00  0.00     0.037 A 
HETATM   14  C   UNL     1      -6.717  -1.372 -34.591  1.00  0.00     0.012 A 
BRANCH  12  15
HETATM   15  O   UNL     1      -4.109  -4.015 -34.504  1.00  0.00    -0.356 OA
HETATM   16  C   UNL     1      -3.447  -4.587 -33.382  1.00  0.00     0.210 C 
ENDBRANCH  12  15
ENDBRANCH   5   9
ENDBRANCH   2   5
BRANCH   1  17
HETATM   17  C   UNL     1      -5.092   3.800 -32.008  1.00  0.00     0.157 A 
HETATM   18  C   UNL     1      -3.867   4.405 -32.418  1.00  0.00     0.029 A 
HETATM   19  C   UNL     1      -3.149   4.529 -33.624  1.00  0.00     0.023 A 
HETATM   20  C   UNL     1      -3.345   4.981 -31.267  1.00  0.00     0.063 A 
HETATM   21  C   UNL     1      -1.932   5.231 -33.637  1.00  0.00    -0.061 A 
HETATM   22  C   UNL     1      -1.148   5.373 -34.909  1.00  0.00     0.048 C 
HETATM   23  C   UNL     1      -1.441   5.794 -32.452  1.00  0.00     0.009 A 
HETATM   24  C   UNL     1      -2.136   5.682 -31.243  1.00  0.00     0.032 A 
HETATM   25  N   UNL     1      -4.248   4.699 -30.280  1.00  0.00    -0.277 N 
HETATM   26  H   UNL     1      -4.190   4.965 -29.304  1.00  0.00     0.189 HD
HETATM   27  N   UNL     1      -5.318   3.993 -30.687  1.00  0.00    -0.168 NA
ENDBRANCH   1  17
TORSDOF 5
ENDMDL
MODEL 4
REMARK VINA RESULT:      -8.2      2.655      8.425
REMARK  5 active torsions:
REMARK  status: ('A' for Active; 'I' for Inactive)
REMARK    1  A    between atoms: C_9  and  C_10 
REMARK       I    between atoms: C_10  and  N_11 
REMARK    2  A    between atoms: N_11  and  C_12 
REMARK    3  A    between atoms: C_12  and  C_13 
REMARK    4  A    between atoms: C_12  and  C_16 
REMARK    5  A    between atoms: C_19  and  O_20 
ROOT
HETATM    1  C   UNL     1      -3.720   2.749 -31.541  1.00  0.00     0.273 C 
HETATM    2  N   UNL     1      -2.710   3.385 -32.222  1.00  0.00    -0.346 N 
HETATM    3  O   UNL     1      -4.541   3.324 -30.835  1.00  0.00    -0.266 OA
HETATM    4  H   UNL     1      -2.149   2.785 -32.814  1.00  0.00     0.163 HD
ENDROOT
BRANCH   2   5
HETATM    5  C   UNL     1      -2.536   4.817 -32.259  1.00  0.00     0.122 C 
BRANCH   5   6
HETATM    6  C   UNL     1      -2.048   5.294 -33.610  1.00  0.00     0.013 A 
HETATM    7  C   UNL     1      -2.976   5.698 -34.735  1.00  0.00     0.007 A 
HETATM    8  C   UNL     1      -2.136   6.740 -34.046  1.00  0.00     0.007 A 
ENDBRANCH   5   6
BRANCH   5   9
HETATM    9  C   UNL     1      -1.580   5.302 -31.178  1.00  0.00    -0.035 A 
HETATM   10  C   UNL     1      -1.994   6.310 -30.293  1.00  0.00     0.012 A 
HETATM   11  C   UNL     1      -1.131   6.794 -29.307  1.00  0.00     0.037 A 
HETATM   12  C   UNL     1       0.160   6.282 -29.175  1.00  0.00     0.068 A 
HETATM   13  C   UNL     1       0.590   5.294 -30.058  1.00  0.00     0.037 A 
HETATM   14  C   UNL     1      -0.270   4.813 -31.054  1.00  0.00     0.012 A 
BRANCH  12  15
HETATM   15  O   UNL     1       0.898   6.835 -28.165  1.00  0.00    -0.356 OA
HETATM   16  C   UNL     1       0.980   8.255 -28.138  1.00  0.00     0.210 C 
ENDBRANCH  12  15
ENDBRANCH   5   9
ENDBRANCH   2   5
BRANCH   1  17
HETATM   17  C   UNL     1      -3.720   1.294 -31.768  1.00  0.00     0.157 A 
HETATM   18  C   UNL     1      -4.566   0.551 -32.644  1.00  0.00     0.029 A 
HETATM   19  C   UNL     1      -5.617   0.847 -33.536  1.00  0.00     0.023 A 
HETATM   20  C   UNL     1      -4.164  -0.771 -32.501  1.00  0.00     0.063 A 
HETATM   21  C   UNL     1      -6.227  -0.192 -34.257  1.00  0.00    -0.061 A 
HETATM   22  C   UNL     1      -7.350   0.099 -35.210  1.00  0.00     0.048 C 
HETATM   23  C   UNL     1      -5.791  -1.512 -34.080  1.00  0.00     0.009 A 
HETATM   24  C   UNL     1      -4.751  -1.829 -33.199  1.00  0.00     0.032 A 
HETATM   25  N   UNL     1      -3.147  -0.743 -31.588  1.00  0.00    -0.277 N 
HETATM   26  H   UNL     1      -2.615  -1.532 -31.240  1.00  0.00     0.189 HD
HETATM   27  N   UNL     1      -2.846   0.484 -31.125  1.00  0.00    -0.168 NA
ENDBRANCH   1  17
TORSDOF 5
ENDMDL
MODEL 5
REMARK VINA RESULT:      -8.0      3.773      6.666
REMARK  5 active torsions:
REMARK  status: ('A' for Active; 'I' for Inactive)
REMARK    1  A    between atoms: C_9  and  C_10 
REMARK       I    between atoms: C_10  and  N_11 
REMARK    2  A    between atoms: N_11  and  C_12 
REMARK    3  A    between atoms: C_12  and  C_13 
REMARK    4  A    between atoms: C_12  and  C_16 
REMARK    5  A    between atoms: C_19  and  O_20 
ROOT
HETATM    1  C   UNL     1      -8.436   2.007 -32.573  1.00  0.00     0.273 C 
HETATM    2  N   UNL     1      -7.337   1.523 -33.242  1.00  0.00    -0.346 N 
HETATM    3  O   UNL     1      -8.565   1.979 -31.354  1.00  0.00    -0.266 OA
HETATM    4  H   UNL     1      -7.346   1.673 -34.244  1.00  0.00     0.163 HD
ENDROOT
BRANCH   2   5
HETATM    5  C   UNL     1      -6.161   0.997 -32.593  1.00  0.00     0.122 C 
BRANCH   5   6
HETATM    6  C   UNL     1      -4.984   1.943 -32.696  1.00  0.00     0.013 A 
HETATM    7  C   UNL     1      -5.030   3.382 -32.232  1.00  0.00     0.007 A 
HETATM    8  C   UNL     1      -4.181   2.383 -31.492  1.00  0.00     0.007 A 
ENDBRANCH   5   6
BRANCH   5   9
HETATM    9  C   UNL     1      -5.764  -0.363 -33.150  1.00  0.00    -0.035 A 
HETATM   10  C   UNL     1      -4.521  -0.914 -32.803  1.00  0.00     0.012 A 
HETATM   11  C   UNL     1      -4.118  -2.149 -33.318  1.00  0.00     0.037 A 
HETATM   12  C   UNL     1      -4.944  -2.865 -34.184  1.00  0.00     0.068 A 
HETATM   13  C   UNL     1      -6.174  -2.322 -34.550  1.00  0.00     0.037 A 
HETATM   14  C   UNL     1      -6.577  -1.080 -34.043  1.00  0.00     0.012 A 
BRANCH  12  15
HETATM   15  O   UNL     1      -4.436  -4.062 -34.606  1.00  0.00    -0.356 OA
HETATM   16  C   UNL     1      -3.547  -4.727 -33.717  1.00  0.00     0.210 C 
ENDBRANCH  12  15
ENDBRANCH   5   9
ENDBRANCH   2   5
BRANCH   1  17
HETATM   17  C   UNL     1      -9.440   2.582 -33.484  1.00  0.00     0.157 A 
HETATM   18  C   UNL     1     -10.722   2.050 -33.811  1.00  0.00     0.029 A 
HETATM   19  C   UNL     1     -11.468   0.907 -33.459  1.00  0.00     0.023 A 
HETATM   20  C   UNL     1     -11.278   2.964 -34.696  1.00  0.00     0.063 A 
HETATM   21  C   UNL     1     -12.750   0.721 -34.004  1.00  0.00    -0.061 A 
HETATM   22  C   UNL     1     -13.561  -0.490 -33.646  1.00  0.00     0.048 C 
HETATM   23  C   UNL     1     -13.271   1.668 -34.895  1.00  0.00     0.009 A 
HETATM   24  C   UNL     1     -12.547   2.809 -35.260  1.00  0.00     0.032 A 
HETATM   25  N   UNL     1     -10.337   3.945 -34.841  1.00  0.00    -0.277 N 
HETATM   26  H   UNL     1     -10.404   4.776 -35.417  1.00  0.00     0.189 HD
HETATM   27  N   UNL     1      -9.217   3.755 -34.123  1.00  0.00    -0.168 NA
ENDBRANCH   1  17
TORSDOF 5
ENDMDL
MODEL 6
REMARK VINA RESULT:      -7.8      2.235      3.322
REMARK  5 active torsions:
REMARK  status: ('A' for Active; 'I' for Inactive)
REMARK    1  A    between atoms: C_9  and  C_10 
REMARK       I    between atoms: C_10  and  N_11 
REMARK    2  A    between atoms: N_11  and  C_12 
REMARK    3  A    between atoms: C_12  and  C_13 
REMARK    4  A    between atoms: C_12  and  C_16 
REMARK    5  A    between atoms: C_19  and  O_20 
ROOT
HETATM    1  C   UNL     1      -3.734   2.853 -32.372  1.00  0.00     0.273 C 
HETATM    2  N   UNL     1      -4.868   2.231 -32.836  1.00  0.00    -0.346 N 
HETATM    3  O   UNL     1      -2.994   2.382 -31.515  1.00  0.00    -0.266 OA
HETATM    4  H   UNL     1      -5.343   2.714 -33.590  1.00  0.00     0.163 HD
ENDROOT
BRANCH   2   5
HETATM    5  C   UNL     1      -5.289   0.911 -32.435  1.00  0.00     0.122 C 
BRANCH   5   6
HETATM    6  C   UNL     1      -4.563  -0.173 -33.203  1.00  0.00     0.013 A 
HETATM    7  C   UNL     1      -3.570  -1.121 -32.566  1.00  0.00     0.007 A 
HETATM    8  C   UNL     1      -4.895  -1.642 -33.054  1.00  0.00     0.007 A 
ENDBRANCH   5   6
BRANCH   5   9
HETATM    9  C   UNL     1      -6.791   0.719 -32.593  1.00  0.00    -0.035 A 
HETATM   10  C   UNL     1      -7.362   0.767 -33.874  1.00  0.00     0.012 A 
HETATM   11  C   UNL     1      -8.741   0.620 -34.048  1.00  0.00     0.037 A 
HETATM   12  C   UNL     1      -9.580   0.416 -32.952  1.00  0.00     0.068 A 
HETATM   13  C   UNL     1      -9.029   0.384 -31.673  1.00  0.00     0.037 A 
HETATM   14  C   UNL     1      -7.648   0.540 -31.495  1.00  0.00     0.012 A 
BRANCH  12  15
HETATM   15  O   UNL     1     -10.905   0.277 -33.261  1.00  0.00    -0.356 OA
HETATM   16  C   UNL     1     -11.486   1.306 -34.053  1.00  0.00     0.210 C 
ENDBRANCH  12  15
ENDBRANCH   5   9
ENDBRANCH   2   5
BRANCH   1  17
HETATM   17  C   UNL     1      -3.492   4.146 -33.033  1.00  0.00     0.157 A 
HETATM   18  C   UNL     1      -2.456   5.086 -32.751  1.00  0.00     0.029 A 
HETATM   19  C   UNL     1      -1.379   5.170 -31.846  1.00  0.00     0.023 A 
HETATM   20  C   UNL     1      -2.657   6.127 -33.648  1.00  0.00     0.063 A 
HETATM   21  C   UNL     1      -0.537   6.294 -31.873  1.00  0.00    -0.061 A 
HETATM   22  C   UNL     1       0.615   6.406 -30.917  1.00  0.00     0.048 C 
HETATM   23  C   UNL     1      -0.778   7.322 -32.793  1.00  0.00     0.009 A 
HETATM   24  C   UNL     1      -1.843   7.261 -33.700  1.00  0.00     0.032 A 
HETATM   25  N   UNL     1      -3.754   5.766 -34.380  1.00  0.00    -0.277 N 
HETATM   26  H   UNL     1      -4.189   6.291 -35.130  1.00  0.00     0.189 HD
HETATM   27  N   UNL     1      -4.283   4.576 -34.044  1.00  0.00    -0.168 NA
ENDBRANCH   1  17
TORSDOF 5
ENDMDL
MODEL 7
REMARK VINA RESULT:      -7.7      2.563      7.714
REMARK  5 active torsions:
REMARK  status: ('A' for Active; 'I' for Inactive)
REMARK    1  A    between atoms: C_9  and  C_10 
REMARK       I    between atoms: C_10  and  N_11 
REMARK    2  A    between atoms: N_11  and  C_12 
REMARK    3  A    between atoms: C_12  and  C_13 
REMARK    4  A    between atoms: C_12  and  C_16 
REMARK    5  A    between atoms: C_19  and  O_20 
ROOT
HETATM    1  C   UNL     1      -5.257  -0.104 -31.979  1.00  0.00     0.273 C 
HETATM    2  N   UNL     1      -5.327   0.624 -33.142  1.00  0.00    -0.346 N 
HETATM    3  O   UNL     1      -5.842   0.196 -30.944  1.00  0.00    -0.266 OA
HETATM    4  H   UNL     1      -4.840   0.216 -33.932  1.00  0.00     0.163 HD
ENDROOT
BRANCH   2   5
HETATM    5  C   UNL     1      -6.160   1.788 -33.319  1.00  0.00     0.122 C 
BRANCH   5   6
HETATM    6  C   UNL     1      -7.046   1.671 -34.541  1.00  0.00     0.013 A 
HETATM    7  C   UNL     1      -7.172   0.404 -35.359  1.00  0.00     0.007 A 
HETATM    8  C   UNL     1      -8.339   0.885 -34.540  1.00  0.00     0.007 A 
ENDBRANCH   5   6
BRANCH   5   9
HETATM    9  C   UNL     1      -5.339   3.066 -33.414  1.00  0.00    -0.035 A 
HETATM   10  C   UNL     1      -4.175   3.198 -32.641  1.00  0.00     0.012 A 
HETATM   11  C   UNL     1      -3.414   4.369 -32.688  1.00  0.00     0.037 A 
HETATM   12  C   UNL     1      -3.792   5.433 -33.508  1.00  0.00     0.068 A 
HETATM   13  C   UNL     1      -4.954   5.323 -34.268  1.00  0.00     0.037 A 
HETATM   14  C   UNL     1      -5.724   4.153 -34.216  1.00  0.00     0.012 A 
BRANCH  12  15
HETATM   15  O   UNL     1      -2.956   6.515 -33.468  1.00  0.00    -0.356 OA
HETATM   16  C   UNL     1      -1.615   6.301 -33.890  1.00  0.00     0.210 C 
ENDBRANCH  12  15
ENDBRANCH   5   9
ENDBRANCH   2   5
BRANCH   1  17
HETATM   17  C   UNL     1      -4.413  -1.303 -32.116  1.00  0.00     0.157 A 
HETATM   18  C   UNL     1      -4.628  -2.424 -32.973  1.00  0.00     0.029 A 
HETATM   19  C   UNL     1      -5.603  -2.812 -33.914  1.00  0.00     0.023 A 
HETATM   20  C   UNL     1      -3.554  -3.272 -32.736  1.00  0.00     0.063 A 
HETATM   21  C   UNL     1      -5.466  -4.035 -34.590  1.00  0.00    -0.061 A 
HETATM   22  C   UNL     1      -6.493  -4.470 -35.594  1.00  0.00     0.048 C 
HETATM   23  C   UNL     1      -4.367  -4.861 -34.318  1.00  0.00     0.009 A 
HETATM   24  C   UNL     1      -3.388  -4.497 -33.387  1.00  0.00     0.032 A 
HETATM   25  N   UNL     1      -2.794  -2.637 -31.794  1.00  0.00    -0.277 N 
HETATM   26  H   UNL     1      -1.929  -2.967 -31.381  1.00  0.00     0.189 HD
HETATM   27  N   UNL     1      -3.275  -1.446 -31.397  1.00  0.00    -0.168 NA
ENDBRANCH   1  17
TORSDOF 5
ENDMDL
MODEL 8
REMARK VINA RESULT:      -7.5      4.094      6.548
REMARK  5 active torsions:
REMARK  status: ('A' for Active; 'I' for Inactive)
REMARK    1  A    between atoms: C_9  and  C_10 
REMARK       I    between atoms: C_10  and  N_11 
REMARK    2  A    between atoms: N_11  and  C_12 
REMARK    3  A    between atoms: C_12  and  C_13 
REMARK    4  A    between atoms: C_12  and  C_16 
REMARK    5  A    between atoms: C_19  and  O_20 
ROOT
HETATM    1  C   UNL     1      -9.072   1.271 -32.572  1.00  0.00     0.273 C 
HETATM    2  N   UNL     1      -8.002   1.034 -33.401  1.00  0.00    -0.346 N 
HETATM    3  O   UNL     1      -8.993   1.341 -31.350  1.00  0.00    -0.266 OA
HETATM    4  H   UNL     1      -8.212   1.068 -34.391  1.00  0.00     0.163 HD
ENDROOT
BRANCH   2   5
HETATM    5  C   UNL     1      -6.638   0.917 -32.947  1.00  0.00     0.122 C 
BRANCH   5   6
HETATM    6  C   UNL     1      -5.778   2.065 -33.431  1.00  0.00     0.013 A 
HETATM    7  C   UNL     1      -6.016   3.507 -33.036  1.00  0.00     0.007 A 
HETATM    8  C   UNL     1      -4.794   2.784 -32.535  1.00  0.00     0.007 A 
ENDBRANCH   5   6
BRANCH   5   9
HETATM    9  C   UNL     1      -6.006  -0.400 -33.375  1.00  0.00    -0.035 A 
HETATM   10  C   UNL     1      -6.747  -1.298 -34.158  1.00  0.00     0.012 A 
HETATM   11  C   UNL     1      -6.203  -2.526 -34.546  1.00  0.00     0.037 A 
HETATM   12  C   UNL     1      -4.909  -2.884 -34.169  1.00  0.00     0.068 A 
HETATM   13  C   UNL     1      -4.168  -2.009 -33.377  1.00  0.00     0.037 A 
HETATM   14  C   UNL     1      -4.713  -0.782 -32.979  1.00  0.00     0.012 A 
BRANCH  12  15
HETATM   15  O   UNL     1      -4.494  -4.105 -34.622  1.00  0.00    -0.356 OA
HETATM   16  C   UNL     1      -3.518  -4.779 -33.838  1.00  0.00     0.210 C 
ENDBRANCH  12  15
ENDBRANCH   5   9
ENDBRANCH   2   5
BRANCH   1  17
HETATM   17  C   UNL     1     -10.329   1.453 -33.316  1.00  0.00     0.157 A 
HETATM   18  C   UNL     1     -10.737   2.595 -34.068  1.00  0.00     0.029 A 
HETATM   19  C   UNL     1     -10.192   3.859 -34.372  1.00  0.00     0.023 A 
HETATM   20  C   UNL     1     -11.986   2.266 -34.578  1.00  0.00     0.063 A 
HETATM   21  C   UNL     1     -10.917   4.750 -35.181  1.00  0.00    -0.061 A 
HETATM   22  C   UNL     1     -10.358   6.103 -35.514  1.00  0.00     0.048 C 
HETATM   23  C   UNL     1     -12.175   4.377 -35.672  1.00  0.00     0.009 A 
HETATM   24  C   UNL     1     -12.736   3.128 -35.382  1.00  0.00     0.032 A 
HETATM   25  N   UNL     1     -12.241   1.003 -34.121  1.00  0.00    -0.277 N 
HETATM   26  H   UNL     1     -13.068   0.444 -34.298  1.00  0.00     0.189 HD
HETATM   27  N   UNL     1     -11.265   0.476 -33.362  1.00  0.00    -0.168 NA
ENDBRANCH   1  17
TORSDOF 5
ENDMDL
MODEL 9
REMARK VINA RESULT:      -7.4      3.074      4.603
REMARK  5 active torsions:
REMARK  status: ('A' for Active; 'I' for Inactive)
REMARK    1  A    between atoms: C_9  and  C_10 
REMARK       I    between atoms: C_10  and  N_11 
REMARK    2  A    between atoms: N_11  and  C_12 
REMARK    3  A    between atoms: C_12  and  C_13 
REMARK    4  A    between atoms: C_12  and  C_16 
REMARK    5  A    between atoms: C_19  and  O_20 
ROOT
HETATM    1  C   UNL     1      -5.219   1.872 -31.384  1.00  0.00     0.273 C 
HETATM    2  N   UNL     1      -6.315   1.857 -32.212  1.00  0.00    -0.346 N 
HETATM    3  O   UNL     1      -4.658   0.863 -30.969  1.00  0.00    -0.266 OA
HETATM    4  H   UNL     1      -6.629   2.769 -32.523  1.00  0.00     0.163 HD
ENDROOT
BRANCH   2   5
HETATM    5  C   UNL     1      -6.898   0.658 -32.763  1.00  0.00     0.122 C 
BRANCH   5   6
HETATM    6  C   UNL     1      -6.115   0.142 -33.952  1.00  0.00     0.013 A 
HETATM    7  C   UNL     1      -5.340  -1.157 -33.936  1.00  0.00     0.007 A 
HETATM    8  C   UNL     1      -6.576  -1.034 -34.785  1.00  0.00     0.007 A 
ENDBRANCH   5   6
BRANCH   5   9
HETATM    9  C   UNL     1      -8.350   0.865 -33.169  1.00  0.00    -0.035 A 
HETATM   10  C   UNL     1      -8.692   1.962 -33.975  1.00  0.00     0.012 A 
HETATM   11  C   UNL     1     -10.021   2.192 -34.343  1.00  0.00     0.037 A 
HETATM   12  C   UNL     1     -11.036   1.334 -33.922  1.00  0.00     0.068 A 
HETATM   13  C   UNL     1     -10.714   0.251 -33.107  1.00  0.00     0.037 A 
HETATM   14  C   UNL     1      -9.384   0.023 -32.729  1.00  0.00     0.012 A 
BRANCH  12  15
HETATM   15  O   UNL     1     -12.288   1.666 -34.360  1.00  0.00    -0.356 OA
HETATM   16  C   UNL     1     -12.605   3.052 -34.392  1.00  0.00     0.210 C 
ENDBRANCH  12  15
ENDBRANCH   5   9
ENDBRANCH   2   5
BRANCH   1  17
HETATM   17  C   UNL     1      -4.774   3.238 -31.063  1.00  0.00     0.157 A 
HETATM   18  C   UNL     1      -3.922   4.080 -31.839  1.00  0.00     0.029 A 
HETATM   19  C   UNL     1      -3.233   3.976 -33.064  1.00  0.00     0.023 A 
HETATM   20  C   UNL     1      -3.818   5.259 -31.111  1.00  0.00     0.063 A 
HETATM   21  C   UNL     1      -2.467   5.061 -33.522  1.00  0.00    -0.061 A 
HETATM   22  C   UNL     1      -1.722   4.972 -34.822  1.00  0.00     0.048 C 
HETATM   23  C   UNL     1      -2.388   6.231 -32.755  1.00  0.00     0.009 A 
HETATM   24  C   UNL     1      -3.062   6.355 -31.534  1.00  0.00     0.032 A 
HETATM   25  N   UNL     1      -4.580   5.062 -29.994  1.00  0.00    -0.277 N 
HETATM   26  H   UNL     1      -4.735   5.716 -29.236  1.00  0.00     0.189 HD
HETATM   27  N   UNL     1      -5.178   3.859 -29.929  1.00  0.00    -0.168 NA
ENDBRANCH   1  17
TORSDOF 5
ENDMDL
MODEL 10
REMARK VINA RESULT:      -7.3      2.970      8.564
REMARK  5 active torsions:
REMARK  status: ('A' for Active; 'I' for Inactive)
REMARK    1  A    between atoms: C_9  and  C_10 
REMARK       I    between atoms: C_10  and  N_11 
REMARK    2  A    between atoms: N_11  and  C_12 
REMARK    3  A    between atoms: C_12  and  C_13 
REMARK    4  A    between atoms: C_12  and  C_16 
REMARK    5  A    between atoms: C_19  and  O_20 
ROOT
HETATM    1  C   UNL     1      -4.847   4.570 -31.364  1.00  0.00     0.273 C 
HETATM    2  N   UNL     1      -3.519   4.620 -31.015  1.00  0.00    -0.346 N 
HETATM    3  O   UNL     1      -5.404   5.406 -32.068  1.00  0.00    -0.266 OA
HETATM    4  H   UNL     1      -3.187   3.825 -30.481  1.00  0.00     0.163 HD
ENDROOT
BRANCH   2   5
HETATM    5  C   UNL     1      -2.592   5.613 -31.499  1.00  0.00     0.122 C 
BRANCH   5   6
HETATM    6  C   UNL     1      -1.633   5.044 -32.523  1.00  0.00     0.013 A 
HETATM    7  C   UNL     1      -2.052   4.638 -33.919  1.00  0.00     0.007 A 
HETATM    8  C   UNL     1      -1.157   5.832 -33.724  1.00  0.00     0.007 A 
ENDBRANCH   5   6
BRANCH   5   9
HETATM    9  C   UNL     1      -1.798   6.251 -30.367  1.00  0.00    -0.035 A 
HETATM   10  C   UNL     1      -0.471   5.852 -30.145  1.00  0.00     0.012 A 
HETATM   11  C   UNL     1       0.274   6.401 -29.098  1.00  0.00     0.037 A 
HETATM   12  C   UNL     1      -0.282   7.362 -28.254  1.00  0.00     0.068 A 
HETATM   13  C   UNL     1      -1.604   7.755 -28.452  1.00  0.00     0.037 A 
HETATM   14  C   UNL     1      -2.356   7.199 -29.495  1.00  0.00     0.012 A 
BRANCH  12  15
HETATM   15  O   UNL     1       0.557   7.825 -27.277  1.00  0.00    -0.356 OA
HETATM   16  C   UNL     1       1.661   8.611 -27.705  1.00  0.00     0.210 C 
ENDBRANCH  12  15
ENDBRANCH   5   9
ENDBRANCH   2   5
BRANCH   1  17
HETATM   17  C   UNL     1      -5.529   3.388 -30.812  1.00  0.00     0.157 A 
HETATM   18  C   UNL     1      -5.432   2.038 -31.263  1.00  0.00     0.029 A 
HETATM   19  C   UNL     1      -4.745   1.357 -32.288  1.00  0.00     0.023 A 
HETATM   20  C   UNL     1      -6.254   1.312 -30.412  1.00  0.00     0.063 A 
HETATM   21  C   UNL     1      -4.903  -0.033 -32.422  1.00  0.00    -0.061 A 
HETATM   22  C   UNL     1      -4.184  -0.779 -33.508  1.00  0.00     0.048 C 
HETATM   23  C   UNL     1      -5.744  -0.726 -31.542  1.00  0.00     0.009 A 
HETATM   24  C   UNL     1      -6.437  -0.069 -30.519  1.00  0.00     0.032 A 
HETATM   25  N   UNL     1      -6.772   2.229 -29.540  1.00  0.00    -0.277 N 
HETATM   26  H   UNL     1      -7.417   2.052 -28.778  1.00  0.00     0.189 HD
HETATM   27  N   UNL     1      -6.356   3.491 -29.744  1.00  0.00    -0.168 NA
ENDBRANCH   1  17
TORSDOF 5
ENDMDL
