MODEL 1
REMARK VINA RESULT:     -10.4      0.000      0.000
REMARK  4 active torsions:
REMARK  status: ('A' for Active; 'I' for Inactive)
REMARK    1  A    between atoms: C_2  and  C_5 
REMARK    2  A    between atoms: C_8  and  C_11 
REMARK    3  A    between atoms: C_17  and  C_18 
REMARK    4  A    between atoms: C_24  and  C_30 
ROOT
HETATM    1  C   UNL     1      -5.673   2.816 -32.197  1.00  0.00     0.091 A 
HETATM    2  N   UNL     1      -6.339   2.193 -33.165  1.00  0.00    -0.345 N 
HETATM    3  H   UNL     1      -7.027   2.683 -33.735  1.00  0.00     0.167 HD
HETATM    4  C   UNL     1      -6.118   0.861 -33.410  1.00  0.00     0.049 A 
HETATM    5  C   UNL     1      -6.801   0.220 -34.443  1.00  0.00     0.031 A 
HETATM    6  C   UNL     1      -6.548  -1.131 -34.735  1.00  0.00     0.014 A 
HETATM    7  C   UNL     1      -5.608  -1.869 -34.000  1.00  0.00    -0.022 A 
HETATM    8  C   UNL     1      -4.935  -1.238 -32.951  1.00  0.00     0.031 A 
HETATM    9  C   UNL     1      -5.203   0.107 -32.672  1.00  0.00     0.059 A 
HETATM   10  C   UNL     1      -4.515   0.797 -31.590  1.00  0.00     0.259 A 
HETATM   11  O   UNL     1      -3.699   0.330 -30.825  1.00  0.00    -0.267 OA
HETATM   12  N   UNL     1      -4.814   2.177 -31.426  1.00  0.00    -0.312 N 
HETATM   13  H   UNL     1      -4.314   2.605 -30.657  1.00  0.00     0.170 HD
ENDROOT
BRANCH   1  14
HETATM   14  C   UNL     1      -5.911   4.283 -31.996  1.00  0.00     0.089 C 
HETATM   15  C   UNL     1      -4.988   5.171 -32.841  1.00  0.00     0.057 C 
HETATM   16  C   UNL     1      -5.727   6.516 -32.901  1.00  0.00     0.242 C 
HETATM   17  N   UNL     1      -7.182   6.141 -32.883  1.00  0.00    -0.074 N 
HETATM   18  H   UNL     1      -7.707   6.800 -32.280  1.00  0.00     0.277 HD
HETATM   19  H   UNL     1      -7.600   6.276 -33.820  1.00  0.00     0.277 HD
HETATM   20  C   UNL     1      -7.320   4.723 -32.412  1.00  0.00     0.245 C 
BRANCH  15  21
HETATM   21  C   UNL     1      -3.587   5.285 -32.289  1.00  0.00    -0.051 A 
HETATM   22  C   UNL     1      -3.315   5.939 -31.076  1.00  0.00     0.008 A 
HETATM   23  C   UNL     1      -2.003   6.072 -30.612  1.00  0.00     0.017 A 
HETATM   24  C   UNL     1      -0.929   5.550 -31.343  1.00  0.00     0.047 A 
HETATM   25  C   UNL     1      -1.200   4.875 -32.542  1.00  0.00     0.017 A 
HETATM   26  C   UNL     1      -2.511   4.745 -33.010  1.00  0.00     0.008 A 
BRANCH  24  27
HETATM   27  C   UNL     1       0.499   5.704 -30.862  1.00  0.00     0.417 C 
HETATM   28  F   UNL     1       1.302   4.676 -31.242  1.00  0.00    -0.166 F 
HETATM   29  F   UNL     1       0.582   5.778 -29.509  1.00  0.00    -0.166 F 
HETATM   30  F   UNL     1       1.074   6.837 -31.348  1.00  0.00    -0.166 F 
ENDBRANCH  24  27
ENDBRANCH  15  21
ENDBRANCH   1  14
BRANCH   7  31
HETATM   31  C   UNL     1      -5.308  -3.252 -34.324  1.00  0.00     0.010 A 
HETATM   32  C   UNL     1      -6.077  -4.226 -35.004  1.00  0.00     0.152 A 
HETATM   33  N   UNL     1      -5.447  -5.395 -35.115  1.00  0.00    -0.187 NA
HETATM   34  N   UNL     1      -4.269  -5.184 -34.510  1.00  0.00    -0.289 N 
HETATM   35  H   UNL     1      -3.603  -5.951 -34.471  1.00  0.00     0.188 HD
HETATM   36  C   UNL     1      -4.138  -3.915 -34.018  1.00  0.00     0.123 A 
ENDBRANCH   7  31
TORSDOF 4
ENDMDL
MODEL 2
REMARK VINA RESULT:     -10.2      1.728      2.393
REMARK  4 active torsions:
REMARK  status: ('A' for Active; 'I' for Inactive)
REMARK    1  A    between atoms: C_2  and  C_5 
REMARK    2  A    between atoms: C_8  and  C_11 
REMARK    3  A    between atoms: C_17  and  C_18 
REMARK    4  A    between atoms: C_24  and  C_30 
ROOT
HETATM    1  C   UNL     1      -7.087   2.864 -32.160  1.00  0.00     0.091 A 
HETATM    2  N   UNL     1      -7.329   2.347 -33.360  1.00  0.00    -0.345 N 
HETATM    3  H   UNL     1      -7.733   2.910 -34.108  1.00  0.00     0.167 HD
HETATM    4  C   UNL     1      -7.048   1.028 -33.616  1.00  0.00     0.049 A 
HETATM    5  C   UNL     1      -7.282   0.499 -34.885  1.00  0.00     0.031 A 
HETATM    6  C   UNL     1      -6.953  -0.837 -35.173  1.00  0.00     0.014 A 
HETATM    7  C   UNL     1      -6.385  -1.670 -34.198  1.00  0.00    -0.022 A 
HETATM    8  C   UNL     1      -6.167  -1.152 -32.918  1.00  0.00     0.031 A 
HETATM    9  C   UNL     1      -6.504   0.179 -32.650  1.00  0.00     0.059 A 
HETATM   10  C   UNL     1      -6.285   0.753 -31.329  1.00  0.00     0.259 A 
HETATM   11  O   UNL     1      -5.840   0.192 -30.351  1.00  0.00    -0.267 OA
HETATM   12  N   UNL     1      -6.605   2.130 -31.175  1.00  0.00    -0.312 N 
HETATM   13  H   UNL     1      -6.441   2.475 -30.238  1.00  0.00     0.170 HD
ENDROOT
BRANCH   1  14
HETATM   14  C   UNL     1      -7.364   4.320 -31.939  1.00  0.00     0.089 C 
HETATM   15  C   UNL     1      -7.075   5.189 -33.172  1.00  0.00     0.057 C 
HETATM   16  C   UNL     1      -7.900   6.461 -32.925  1.00  0.00     0.242 C 
HETATM   17  N   UNL     1      -9.111   5.979 -32.176  1.00  0.00    -0.074 N 
HETATM   18  H   UNL     1      -9.350   6.652 -31.426  1.00  0.00     0.277 HD
HETATM   19  H   UNL     1      -9.942   5.988 -32.792  1.00  0.00     0.277 HD
HETATM   20  C   UNL     1      -8.838   4.608 -31.629  1.00  0.00     0.245 C 
BRANCH  15  21
HETATM   21  C   UNL     1      -5.606   5.464 -33.386  1.00  0.00    -0.051 A 
HETATM   22  C   UNL     1      -4.914   4.980 -34.509  1.00  0.00     0.008 A 
HETATM   23  C   UNL     1      -3.542   5.209 -34.657  1.00  0.00     0.017 A 
HETATM   24  C   UNL     1      -2.828   5.929 -33.693  1.00  0.00     0.047 A 
HETATM   25  C   UNL     1      -3.521   6.433 -32.584  1.00  0.00     0.017 A 
HETATM   26  C   UNL     1      -4.892   6.204 -32.430  1.00  0.00     0.008 A 
BRANCH  24  27
HETATM   27  C   UNL     1      -1.338   6.166 -33.832  1.00  0.00     0.417 C 
HETATM   28  F   UNL     1      -0.996   7.477 -33.729  1.00  0.00    -0.166 F 
HETATM   29  F   UNL     1      -0.857   5.735 -35.026  1.00  0.00    -0.166 F 
HETATM   30  F   UNL     1      -0.633   5.511 -32.871  1.00  0.00    -0.166 F 
ENDBRANCH  24  27
ENDBRANCH  15  21
ENDBRANCH   1  14
BRANCH   7  31
HETATM   31  C   UNL     1      -6.001  -3.038 -34.499  1.00  0.00     0.010 A 
HETATM   32  C   UNL     1      -6.739  -4.093 -35.087  1.00  0.00     0.152 A 
HETATM   33  N   UNL     1      -6.028  -5.213 -35.208  1.00  0.00    -0.187 NA
HETATM   34  N   UNL     1      -4.829  -4.891 -34.702  1.00  0.00    -0.289 N 
HETATM   35  H   UNL     1      -4.103  -5.602 -34.690  1.00  0.00     0.188 HD
HETATM   36  C   UNL     1      -4.763  -3.597 -34.263  1.00  0.00     0.123 A 
ENDBRANCH   7  31
TORSDOF 4
ENDMDL
MODEL 3
REMARK VINA RESULT:      -9.5      2.067      2.733
REMARK  4 active torsions:
REMARK  status: ('A' for Active; 'I' for Inactive)
REMARK    1  A    between atoms: C_2  and  C_5 
REMARK    2  A    between atoms: C_8  and  C_11 
REMARK    3  A    between atoms: C_17  and  C_18 
REMARK    4  A    between atoms: C_24  and  C_30 
ROOT
HETATM    1  C   UNL     1      -7.199   2.568 -31.776  1.00  0.00     0.091 A 
HETATM    2  N   UNL     1      -6.038   1.999 -32.086  1.00  0.00    -0.345 N 
HETATM    3  H   UNL     1      -5.152   2.468 -31.899  1.00  0.00     0.167 HD
HETATM    4  C   UNL     1      -6.010   0.762 -32.680  1.00  0.00     0.049 A 
HETATM    5  C   UNL     1      -4.787   0.161 -32.979  1.00  0.00     0.031 A 
HETATM    6  C   UNL     1      -4.745  -1.126 -33.542  1.00  0.00     0.014 A 
HETATM    7  C   UNL     1      -5.922  -1.837 -33.818  1.00  0.00    -0.022 A 
HETATM    8  C   UNL     1      -7.150  -1.231 -33.540  1.00  0.00     0.031 A 
HETATM    9  C   UNL     1      -7.173   0.052 -32.983  1.00  0.00     0.059 A 
HETATM   10  C   UNL     1      -8.436   0.710 -32.674  1.00  0.00     0.259 A 
HETATM   11  O   UNL     1      -9.552   0.281 -32.867  1.00  0.00    -0.267 OA
HETATM   12  N   UNL     1      -8.351   1.987 -32.055  1.00  0.00    -0.312 N 
HETATM   13  H   UNL     1      -9.255   2.402 -31.870  1.00  0.00     0.170 HD
ENDROOT
BRANCH   1  14
HETATM   14  C   UNL     1      -7.182   3.899 -31.085  1.00  0.00     0.089 C 
HETATM   15  C   UNL     1      -6.962   5.079 -32.042  1.00  0.00     0.057 C 
HETATM   16  C   UNL     1      -7.504   6.287 -31.264  1.00  0.00     0.242 C 
HETATM   17  N   UNL     1      -8.633   5.727 -30.446  1.00  0.00    -0.074 N 
HETATM   18  H   UNL     1      -8.623   6.146 -29.499  1.00  0.00     0.277 HD
HETATM   19  H   UNL     1      -9.544   6.024 -30.839  1.00  0.00     0.277 HD
HETATM   20  C   UNL     1      -8.510   4.232 -30.396  1.00  0.00     0.245 C 
BRANCH  15  21
HETATM   21  C   UNL     1      -5.526   5.245 -32.477  1.00  0.00    -0.051 A 
HETATM   22  C   UNL     1      -4.488   5.457 -31.555  1.00  0.00     0.008 A 
HETATM   23  C   UNL     1      -3.173   5.656 -31.989  1.00  0.00     0.017 A 
HETATM   24  C   UNL     1      -2.861   5.643 -33.353  1.00  0.00     0.047 A 
HETATM   25  C   UNL     1      -3.891   5.407 -34.274  1.00  0.00     0.017 A 
HETATM   26  C   UNL     1      -5.207   5.212 -33.843  1.00  0.00     0.008 A 
BRANCH  24  27
HETATM   27  C   UNL     1      -1.444   5.877 -33.838  1.00  0.00     0.417 C 
HETATM   28  F   UNL     1      -1.230   5.414 -35.097  1.00  0.00    -0.166 F 
HETATM   29  F   UNL     1      -0.522   5.274 -33.044  1.00  0.00    -0.166 F 
HETATM   30  F   UNL     1      -1.133   7.200 -33.859  1.00  0.00    -0.166 F 
ENDBRANCH  24  27
ENDBRANCH  15  21
ENDBRANCH   1  14
BRANCH   7  31
HETATM   31  C   UNL     1      -5.886  -3.184 -34.359  1.00  0.00     0.010 A 
HETATM   32  C   UNL     1      -4.838  -4.134 -34.394  1.00  0.00     0.152 A 
HETATM   33  N   UNL     1      -5.200  -5.278 -34.974  1.00  0.00    -0.187 NA
HETATM   34  N   UNL     1      -6.480  -5.075 -35.317  1.00  0.00    -0.289 N 
HETATM   35  H   UNL     1      -6.980  -5.828 -35.783  1.00  0.00     0.188 HD
HETATM   36  C   UNL     1      -6.938  -3.834 -34.970  1.00  0.00     0.123 A 
ENDBRANCH   7  31
TORSDOF 4
ENDMDL
MODEL 4
REMARK VINA RESULT:      -9.5      5.051      6.554
REMARK  4 active torsions:
REMARK  status: ('A' for Active; 'I' for Inactive)
REMARK    1  A    between atoms: C_2  and  C_5 
REMARK    2  A    between atoms: C_8  and  C_11 
REMARK    3  A    between atoms: C_17  and  C_18 
REMARK    4  A    between atoms: C_24  and  C_30 
ROOT
HETATM    1  C   UNL     1      -5.945   3.075 -33.178  1.00  0.00     0.091 A 
HETATM    2  N   UNL     1      -6.615   2.272 -33.998  1.00  0.00    -0.345 N 
HETATM    3  H   UNL     1      -7.359   2.627 -34.596  1.00  0.00     0.167 HD
HETATM    4  C   UNL     1      -6.321   0.932 -34.048  1.00  0.00     0.049 A 
HETATM    5  C   UNL     1      -7.011   0.100 -34.930  1.00  0.00     0.031 A 
HETATM    6  C   UNL     1      -6.686  -1.264 -35.025  1.00  0.00     0.014 A 
HETATM    7  C   UNL     1      -5.666  -1.824 -34.241  1.00  0.00    -0.022 A 
HETATM    8  C   UNL     1      -4.986  -1.000 -33.341  1.00  0.00     0.031 A 
HETATM    9  C   UNL     1      -5.325   0.355 -33.258  1.00  0.00     0.059 A 
HETATM   10  C   UNL     1      -4.631   1.243 -32.335  1.00  0.00     0.259 A 
HETATM   11  O   UNL     1      -3.752   0.948 -31.556  1.00  0.00    -0.267 OA
HETATM   12  N   UNL     1      -5.010   2.613 -32.368  1.00  0.00    -0.312 N 
HETATM   13  H   UNL     1      -4.503   3.184 -31.704  1.00  0.00     0.170 HD
ENDROOT
BRANCH   1  14
HETATM   14  C   UNL     1      -6.266   4.539 -33.190  1.00  0.00     0.089 C 
HETATM   15  C   UNL     1      -7.570   4.883 -32.456  1.00  0.00     0.057 C 
HETATM   16  C   UNL     1      -7.423   6.377 -32.129  1.00  0.00     0.242 C 
HETATM   17  N   UNL     1      -5.949   6.565 -31.904  1.00  0.00    -0.074 N 
HETATM   18  H   UNL     1      -5.640   7.456 -32.331  1.00  0.00     0.277 HD
HETATM   19  H   UNL     1      -5.752   6.691 -30.896  1.00  0.00     0.277 HD
HETATM   20  C   UNL     1      -5.210   5.389 -32.473  1.00  0.00     0.245 C 
BRANCH  15  21
HETATM   21  C   UNL     1      -8.813   4.566 -33.252  1.00  0.00    -0.051 A 
HETATM   22  C   UNL     1      -9.151   5.273 -34.418  1.00  0.00     0.008 A 
HETATM   23  C   UNL     1     -10.333   4.991 -35.110  1.00  0.00     0.017 A 
HETATM   24  C   UNL     1     -11.205   3.994 -34.658  1.00  0.00     0.047 A 
HETATM   25  C   UNL     1     -10.858   3.271 -33.509  1.00  0.00     0.017 A 
HETATM   26  C   UNL     1      -9.678   3.553 -32.813  1.00  0.00     0.008 A 
BRANCH  24  27
HETATM   27  C   UNL     1     -12.500   3.692 -35.386  1.00  0.00     0.417 C 
HETATM   28  F   UNL     1     -13.455   3.165 -34.576  1.00  0.00    -0.166 F 
HETATM   29  F   UNL     1     -12.325   2.806 -36.401  1.00  0.00    -0.166 F 
HETATM   30  F   UNL     1     -13.040   4.811 -35.937  1.00  0.00    -0.166 F 
ENDBRANCH  24  27
ENDBRANCH  15  21
ENDBRANCH   1  14
BRANCH   7  31
HETATM   31  C   UNL     1      -5.295  -3.222 -34.365  1.00  0.00     0.010 A 
HETATM   32  C   UNL     1      -5.981  -4.308 -34.959  1.00  0.00     0.152 A 
HETATM   33  N   UNL     1      -5.301  -5.451 -34.881  1.00  0.00    -0.187 NA
HETATM   34  N   UNL     1      -4.174  -5.113 -34.239  1.00  0.00    -0.289 N 
HETATM   35  H   UNL     1      -3.483  -5.838 -34.061  1.00  0.00     0.188 HD
HETATM   36  C   UNL     1      -4.123  -3.787 -33.908  1.00  0.00     0.123 A 
ENDBRANCH   7  31
TORSDOF 4
ENDMDL
MODEL 5
REMARK VINA RESULT:      -9.4      1.214      2.191
REMARK  4 active torsions:
REMARK  status: ('A' for Active; 'I' for Inactive)
REMARK    1  A    between atoms: C_2  and  C_5 
REMARK    2  A    between atoms: C_8  and  C_11 
REMARK    3  A    between atoms: C_17  and  C_18 
REMARK    4  A    between atoms: C_24  and  C_30 
ROOT
HETATM    1  C   UNL     1      -5.846   3.006 -32.463  1.00  0.00     0.091 A 
HETATM    2  N   UNL     1      -4.949   2.252 -31.837  1.00  0.00    -0.345 N 
HETATM    3  H   UNL     1      -4.411   2.613 -31.050  1.00  0.00     0.167 HD
HETATM    4  C   UNL     1      -4.719   0.963 -32.248  1.00  0.00     0.049 A 
HETATM    5  C   UNL     1      -3.794   0.169 -31.569  1.00  0.00     0.031 A 
HETATM    6  C   UNL     1      -3.586  -1.167 -31.950  1.00  0.00     0.014 A 
HETATM    7  C   UNL     1      -4.296  -1.737 -33.017  1.00  0.00    -0.022 A 
HETATM    8  C   UNL     1      -5.209  -0.941 -33.714  1.00  0.00     0.031 A 
HETATM    9  C   UNL     1      -5.401   0.389 -33.322  1.00  0.00     0.059 A 
HETATM   10  C   UNL     1      -6.349   1.244 -34.023  1.00  0.00     0.259 A 
HETATM   11  O   UNL     1      -7.029   0.953 -34.982  1.00  0.00    -0.267 OA
HETATM   12  N   UNL     1      -6.514   2.560 -33.511  1.00  0.00    -0.312 N 
HETATM   13  H   UNL     1      -7.178   3.113 -34.038  1.00  0.00     0.170 HD
ENDROOT
BRANCH   1  14
HETATM   14  C   UNL     1      -6.099   4.392 -31.951  1.00  0.00     0.089 C 
HETATM   15  C   UNL     1      -5.255   5.465 -32.654  1.00  0.00     0.057 C 
HETATM   16  C   UNL     1      -6.024   6.768 -32.389  1.00  0.00     0.242 C 
HETATM   17  N   UNL     1      -7.466   6.348 -32.356  1.00  0.00    -0.074 N 
HETATM   18  H   UNL     1      -7.961   6.851 -31.598  1.00  0.00     0.277 HD
HETATM   19  H   UNL     1      -7.951   6.656 -33.217  1.00  0.00     0.277 HD
HETATM   20  C   UNL     1      -7.542   4.859 -32.177  1.00  0.00     0.245 C 
BRANCH  15  21
HETATM   21  C   UNL     1      -3.822   5.512 -32.180  1.00  0.00    -0.051 A 
HETATM   22  C   UNL     1      -2.789   4.848 -32.864  1.00  0.00     0.008 A 
HETATM   23  C   UNL     1      -1.479   4.868 -32.376  1.00  0.00     0.017 A 
HETATM   24  C   UNL     1      -1.165   5.555 -31.198  1.00  0.00     0.047 A 
HETATM   25  C   UNL     1      -2.188   6.238 -30.527  1.00  0.00     0.017 A 
HETATM   26  C   UNL     1      -3.501   6.217 -31.010  1.00  0.00     0.008 A 
BRANCH  24  27
HETATM   27  C   UNL     1       0.247   5.568 -30.648  1.00  0.00     0.417 C 
HETATM   28  F   UNL     1       0.327   5.090 -29.378  1.00  0.00    -0.166 F 
HETATM   29  F   UNL     1       0.779   6.817 -30.623  1.00  0.00    -0.166 F 
HETATM   30  F   UNL     1       1.086   4.804 -31.397  1.00  0.00    -0.166 F 
ENDBRANCH  24  27
ENDBRANCH  15  21
ENDBRANCH   1  14
BRANCH   7  31
HETATM   31  C   UNL     1      -4.119  -3.129 -33.389  1.00  0.00     0.010 A 
HETATM   32  C   UNL     1      -3.341  -4.149 -32.793  1.00  0.00     0.152 A 
HETATM   33  N   UNL     1      -3.447  -5.316 -33.428  1.00  0.00    -0.187 NA
HETATM   34  N   UNL     1      -4.294  -5.058 -34.435  1.00  0.00    -0.289 N 
HETATM   35  H   UNL     1      -4.535  -5.816 -35.069  1.00  0.00     0.188 HD
HETATM   36  C   UNL     1      -4.725  -3.760 -34.455  1.00  0.00     0.123 A 
ENDBRANCH   7  31
TORSDOF 4
ENDMDL
MODEL 6
REMARK VINA RESULT:      -9.3      4.365      8.294
REMARK  4 active torsions:
REMARK  status: ('A' for Active; 'I' for Inactive)
REMARK    1  A    between atoms: C_2  and  C_5 
REMARK    2  A    between atoms: C_8  and  C_11 
REMARK    3  A    between atoms: C_17  and  C_18 
REMARK    4  A    between atoms: C_24  and  C_30 
ROOT
HETATM    1  C   UNL     1      -6.741   2.887 -32.260  1.00  0.00     0.091 A 
HETATM    2  N   UNL     1      -5.658   3.034 -33.016  1.00  0.00    -0.345 N 
HETATM    3  H   UNL     1      -5.616   2.653 -33.960  1.00  0.00     0.167 HD
HETATM    4  C   UNL     1      -4.559   3.698 -32.530  1.00  0.00     0.049 A 
HETATM    5  C   UNL     1      -3.435   3.870 -33.340  1.00  0.00     0.031 A 
HETATM    6  C   UNL     1      -2.323   4.589 -32.871  1.00  0.00     0.014 A 
HETATM    7  C   UNL     1      -2.311   5.151 -31.586  1.00  0.00    -0.022 A 
HETATM    8  C   UNL     1      -3.425   4.965 -30.763  1.00  0.00     0.031 A 
HETATM    9  C   UNL     1      -4.522   4.242 -31.245  1.00  0.00     0.059 A 
HETATM   10  C   UNL     1      -5.702   4.035 -30.417  1.00  0.00     0.259 A 
HETATM   11  O   UNL     1      -5.872   4.408 -29.277  1.00  0.00    -0.267 OA
HETATM   12  N   UNL     1      -6.785   3.339 -31.020  1.00  0.00    -0.312 N 
HETATM   13  H   UNL     1      -7.575   3.216 -30.400  1.00  0.00     0.170 HD
ENDROOT
BRANCH   1  14
HETATM   14  C   UNL     1      -7.935   2.197 -32.847  1.00  0.00     0.089 C 
HETATM   15  C   UNL     1      -8.153   0.781 -32.295  1.00  0.00     0.057 C 
HETATM   16  C   UNL     1      -9.634   0.499 -32.587  1.00  0.00     0.242 C 
HETATM   17  N   UNL     1     -10.299   1.841 -32.470  1.00  0.00    -0.074 N 
HETATM   18  H   UNL     1     -11.008   1.948 -33.218  1.00  0.00     0.277 HD
HETATM   19  H   UNL     1     -10.851   1.895 -31.596  1.00  0.00     0.277 HD
HETATM   20  C   UNL     1      -9.254   2.916 -32.536  1.00  0.00     0.245 C 
BRANCH  15  21
HETATM   21  C   UNL     1      -7.221  -0.248 -32.887  1.00  0.00    -0.051 A 
HETATM   22  C   UNL     1      -7.552  -0.975 -34.043  1.00  0.00     0.008 A 
HETATM   23  C   UNL     1      -6.691  -1.956 -34.543  1.00  0.00     0.017 A 
HETATM   24  C   UNL     1      -5.477  -2.235 -33.905  1.00  0.00     0.047 A 
HETATM   25  C   UNL     1      -5.133  -1.494 -32.765  1.00  0.00     0.017 A 
HETATM   26  C   UNL     1      -5.994  -0.514 -32.261  1.00  0.00     0.008 A 
BRANCH  24  27
HETATM   27  C   UNL     1      -4.543  -3.310 -34.424  1.00  0.00     0.417 C 
HETATM   28  F   UNL     1      -3.748  -2.880 -35.438  1.00  0.00    -0.166 F 
HETATM   29  F   UNL     1      -5.216  -4.392 -34.895  1.00  0.00    -0.166 F 
HETATM   30  F   UNL     1      -3.710  -3.765 -33.451  1.00  0.00    -0.166 F 
ENDBRANCH  24  27
ENDBRANCH  15  21
ENDBRANCH   1  14
BRANCH   7  31
HETATM   31  C   UNL     1      -1.184   5.934 -31.110  1.00  0.00     0.010 A 
HETATM   32  C   UNL     1      -0.813   6.309 -29.797  1.00  0.00     0.152 A 
HETATM   33  N   UNL     1       0.308   7.030 -29.765  1.00  0.00    -0.187 NA
HETATM   34  N   UNL     1       0.668   7.123 -31.053  1.00  0.00    -0.289 N 
HETATM   35  H   UNL     1       1.515   7.638 -31.281  1.00  0.00     0.188 HD
HETATM   36  C   UNL     1      -0.195   6.482 -31.899  1.00  0.00     0.123 A 
ENDBRANCH   7  31
TORSDOF 4
ENDMDL
MODEL 7
REMARK VINA RESULT:      -9.2      5.374      8.781
REMARK  4 active torsions:
REMARK  status: ('A' for Active; 'I' for Inactive)
REMARK    1  A    between atoms: C_2  and  C_5 
REMARK    2  A    between atoms: C_8  and  C_11 
REMARK    3  A    between atoms: C_17  and  C_18 
REMARK    4  A    between atoms: C_24  and  C_30 
ROOT
HETATM    1  C   UNL     1      -6.873   1.914 -32.211  1.00  0.00     0.091 A 
HETATM    2  N   UNL     1      -6.879   3.158 -32.679  1.00  0.00    -0.345 N 
HETATM    3  H   UNL     1      -6.041   3.737 -32.656  1.00  0.00     0.167 HD
HETATM    4  C   UNL     1      -8.031   3.697 -33.197  1.00  0.00     0.049 A 
HETATM    5  C   UNL     1      -8.023   4.995 -33.709  1.00  0.00     0.031 A 
HETATM    6  C   UNL     1      -9.182   5.540 -34.286  1.00  0.00     0.014 A 
HETATM    7  C   UNL     1     -10.372   4.800 -34.363  1.00  0.00    -0.022 A 
HETATM    8  C   UNL     1     -10.391   3.507 -33.833  1.00  0.00     0.031 A 
HETATM    9  C   UNL     1      -9.228   2.982 -33.259  1.00  0.00     0.059 A 
HETATM   10  C   UNL     1      -9.212   1.636 -32.704  1.00  0.00     0.259 A 
HETATM   11  O   UNL     1     -10.137   0.857 -32.644  1.00  0.00    -0.267 OA
HETATM   12  N   UNL     1      -7.966   1.174 -32.198  1.00  0.00    -0.312 N 
HETATM   13  H   UNL     1      -8.012   0.237 -31.818  1.00  0.00     0.170 HD
ENDROOT
BRANCH   1  14
HETATM   14  C   UNL     1      -5.582   1.349 -31.698  1.00  0.00     0.089 C 
HETATM   15  C   UNL     1      -4.629   0.897 -32.814  1.00  0.00     0.057 C 
HETATM   16  C   UNL     1      -3.252   0.880 -32.134  1.00  0.00     0.242 C 
HETATM   17  N   UNL     1      -3.320   1.993 -31.127  1.00  0.00    -0.074 N 
HETATM   18  H   UNL     1      -2.860   1.699 -30.247  1.00  0.00     0.277 HD
HETATM   19  H   UNL     1      -2.757   2.801 -31.444  1.00  0.00     0.277 HD
HETATM   20  C   UNL     1      -4.756   2.369 -30.905  1.00  0.00     0.245 C 
BRANCH  15  21
HETATM   21  C   UNL     1      -5.006  -0.428 -33.431  1.00  0.00    -0.051 A 
HETATM   22  C   UNL     1      -6.191  -0.596 -34.167  1.00  0.00     0.008 A 
HETATM   23  C   UNL     1      -6.539  -1.847 -34.687  1.00  0.00     0.017 A 
HETATM   24  C   UNL     1      -5.713  -2.959 -34.490  1.00  0.00     0.047 A 
HETATM   25  C   UNL     1      -4.519  -2.788 -33.777  1.00  0.00     0.017 A 
HETATM   26  C   UNL     1      -4.169  -1.539 -33.252  1.00  0.00     0.008 A 
BRANCH  24  27
HETATM   27  C   UNL     1      -6.089  -4.324 -35.030  1.00  0.00     0.417 C 
HETATM   28  F   UNL     1      -7.329  -4.725 -34.646  1.00  0.00    -0.166 F 
HETATM   29  F   UNL     1      -5.228  -5.293 -34.624  1.00  0.00    -0.166 F 
HETATM   30  F   UNL     1      -6.084  -4.346 -36.389  1.00  0.00    -0.166 F 
ENDBRANCH  24  27
ENDBRANCH  15  21
ENDBRANCH   1  14
BRANCH   7  31
HETATM   31  C   UNL     1     -11.561   5.340 -34.997  1.00  0.00     0.010 A 
HETATM   32  C   UNL     1     -11.834   6.639 -35.488  1.00  0.00     0.152 A 
HETATM   33  N   UNL     1     -13.053   6.744 -36.018  1.00  0.00    -0.187 NA
HETATM   34  N   UNL     1     -13.573   5.517 -35.874  1.00  0.00    -0.289 N 
HETATM   35  H   UNL     1     -14.516   5.350 -36.214  1.00  0.00     0.188 HD
HETATM   36  C   UNL     1     -12.718   4.639 -35.267  1.00  0.00     0.123 A 
ENDBRANCH   7  31
TORSDOF 4
ENDMDL
MODEL 8
REMARK VINA RESULT:      -9.1      4.610      6.147
REMARK  4 active torsions:
REMARK  status: ('A' for Active; 'I' for Inactive)
REMARK    1  A    between atoms: C_2  and  C_5 
REMARK    2  A    between atoms: C_8  and  C_11 
REMARK    3  A    between atoms: C_17  and  C_18 
REMARK    4  A    between atoms: C_24  and  C_30 
ROOT
HETATM    1  C   UNL     1      -5.452   2.774 -32.430  1.00  0.00     0.091 A 
HETATM    2  N   UNL     1      -4.558   1.863 -32.060  1.00  0.00    -0.345 N 
HETATM    3  H   UNL     1      -3.825   2.082 -31.387  1.00  0.00     0.167 HD
HETATM    4  C   UNL     1      -4.599   0.598 -32.592  1.00  0.00     0.049 A 
HETATM    5  C   UNL     1      -3.673  -0.361 -32.179  1.00  0.00     0.031 A 
HETATM    6  C   UNL     1      -3.734  -1.673 -32.679  1.00  0.00     0.014 A 
HETATM    7  C   UNL     1      -4.721  -2.053 -33.601  1.00  0.00    -0.022 A 
HETATM    8  C   UNL     1      -5.639  -1.091 -34.033  1.00  0.00     0.031 A 
HETATM    9  C   UNL     1      -5.560   0.211 -33.527  1.00  0.00     0.059 A 
HETATM   10  C   UNL     1      -6.504   1.236 -33.951  1.00  0.00     0.259 A 
HETATM   11  O   UNL     1      -7.401   1.117 -34.757  1.00  0.00    -0.267 OA
HETATM   12  N   UNL     1      -6.377   2.510 -33.334  1.00  0.00    -0.312 N 
HETATM   13  H   UNL     1      -7.052   3.185 -33.670  1.00  0.00     0.170 HD
ENDROOT
BRANCH   1  14
HETATM   14  C   UNL     1      -5.400   4.128 -31.789  1.00  0.00     0.089 C 
HETATM   15  C   UNL     1      -6.065   4.174 -30.406  1.00  0.00     0.057 C 
HETATM   16  C   UNL     1      -5.447   5.413 -29.742  1.00  0.00     0.242 C 
HETATM   17  N   UNL     1      -4.051   5.473 -30.295  1.00  0.00    -0.074 N 
HETATM   18  H   UNL     1      -3.798   6.456 -30.502  1.00  0.00     0.277 HD
HETATM   19  H   UNL     1      -3.366   5.186 -29.575  1.00  0.00     0.277 HD
HETATM   20  C   UNL     1      -3.969   4.608 -31.519  1.00  0.00     0.245 C 
BRANCH  15  21
HETATM   21  C   UNL     1      -7.574   4.218 -30.463  1.00  0.00    -0.051 A 
HETATM   22  C   UNL     1      -8.356   3.054 -30.385  1.00  0.00     0.008 A 
HETATM   23  C   UNL     1      -9.749   3.119 -30.489  1.00  0.00     0.017 A 
HETATM   24  C   UNL     1     -10.397   4.347 -30.668  1.00  0.00     0.047 A 
HETATM   25  C   UNL     1      -9.620   5.512 -30.721  1.00  0.00     0.017 A 
HETATM   26  C   UNL     1      -8.226   5.450 -30.621  1.00  0.00     0.008 A 
BRANCH  24  27
HETATM   27  C   UNL     1     -11.904   4.430 -30.802  1.00  0.00     0.417 C 
HETATM   28  F   UNL     1     -12.563   3.804 -29.793  1.00  0.00    -0.166 F 
HETATM   29  F   UNL     1     -12.349   3.872 -31.957  1.00  0.00    -0.166 F 
HETATM   30  F   UNL     1     -12.338   5.718 -30.801  1.00  0.00    -0.166 F 
ENDBRANCH  24  27
ENDBRANCH  15  21
ENDBRANCH   1  14
BRANCH   7  31
HETATM   31  C   UNL     1      -4.819  -3.417 -34.090  1.00  0.00     0.010 A 
HETATM   32  C   UNL     1      -5.815  -4.044 -34.875  1.00  0.00     0.152 A 
HETATM   33  N   UNL     1      -5.540  -5.323 -35.130  1.00  0.00    -0.187 NA
HETATM   34  N   UNL     1      -4.368  -5.529 -34.513  1.00  0.00    -0.289 N 
HETATM   35  H   UNL     1      -3.948  -6.454 -34.571  1.00  0.00     0.188 HD
HETATM   36  C   UNL     1      -3.894  -4.416 -33.875  1.00  0.00     0.123 A 
ENDBRANCH   7  31
TORSDOF 4
ENDMDL
MODEL 9
REMARK VINA RESULT:      -9.0      6.132      8.945
REMARK  4 active torsions:
REMARK  status: ('A' for Active; 'I' for Inactive)
REMARK    1  A    between atoms: C_2  and  C_5 
REMARK    2  A    between atoms: C_8  and  C_11 
REMARK    3  A    between atoms: C_17  and  C_18 
REMARK    4  A    between atoms: C_24  and  C_30 
ROOT
HETATM    1  C   UNL     1      -9.051   3.400 -32.754  1.00  0.00     0.091 A 
HETATM    2  N   UNL     1      -9.821   3.918 -31.803  1.00  0.00    -0.345 N 
HETATM    3  H   UNL     1      -9.423   4.450 -31.030  1.00  0.00     0.167 HD
HETATM    4  C   UNL     1     -11.181   3.734 -31.836  1.00  0.00     0.049 A 
HETATM    5  C   UNL     1     -11.985   4.303 -30.847  1.00  0.00     0.031 A 
HETATM    6  C   UNL     1     -13.382   4.163 -30.897  1.00  0.00     0.014 A 
HETATM    7  C   UNL     1     -14.004   3.453 -31.935  1.00  0.00    -0.022 A 
HETATM    8  C   UNL     1     -13.202   2.864 -32.917  1.00  0.00     0.031 A 
HETATM    9  C   UNL     1     -11.813   3.011 -32.849  1.00  0.00     0.059 A 
HETATM   10  C   UNL     1     -10.948   2.416 -33.859  1.00  0.00     0.259 A 
HETATM   11  O   UNL     1     -11.286   1.743 -34.808  1.00  0.00    -0.267 OA
HETATM   12  N   UNL     1      -9.556   2.673 -33.733  1.00  0.00    -0.312 N 
HETATM   13  H   UNL     1      -9.002   2.231 -34.455  1.00  0.00     0.170 HD
ENDROOT
BRANCH   1  14
HETATM   14  C   UNL     1      -7.576   3.665 -32.704  1.00  0.00     0.089 C 
HETATM   15  C   UNL     1      -6.834   3.222 -33.974  1.00  0.00     0.057 C 
HETATM   16  C   UNL     1      -5.534   4.038 -33.942  1.00  0.00     0.242 C 
HETATM   17  N   UNL     1      -5.925   5.335 -33.291  1.00  0.00    -0.074 N 
HETATM   18  H   UNL     1      -5.180   5.639 -32.639  1.00  0.00     0.277 HD
HETATM   19  H   UNL     1      -5.964   6.093 -33.994  1.00  0.00     0.277 HD
HETATM   20  C   UNL     1      -7.240   5.157 -32.590  1.00  0.00     0.245 C 
BRANCH  15  21
HETATM   21  C   UNL     1      -6.601   1.732 -34.047  1.00  0.00    -0.051 A 
HETATM   22  C   UNL     1      -5.897   1.038 -33.049  1.00  0.00     0.008 A 
HETATM   23  C   UNL     1      -5.654  -0.334 -33.166  1.00  0.00     0.017 A 
HETATM   24  C   UNL     1      -6.111  -1.049 -34.279  1.00  0.00     0.047 A 
HETATM   25  C   UNL     1      -6.835  -0.364 -35.264  1.00  0.00     0.017 A 
HETATM   26  C   UNL     1      -7.077   1.009 -35.152  1.00  0.00     0.008 A 
BRANCH  24  27
HETATM   27  C   UNL     1      -5.837  -2.532 -34.429  1.00  0.00     0.417 C 
HETATM   28  F   UNL     1      -6.922  -3.304 -34.156  1.00  0.00    -0.166 F 
HETATM   29  F   UNL     1      -4.845  -2.958 -33.605  1.00  0.00    -0.166 F 
HETATM   30  F   UNL     1      -5.453  -2.847 -35.694  1.00  0.00    -0.166 F 
ENDBRANCH  24  27
ENDBRANCH  15  21
ENDBRANCH   1  14
BRANCH   7  31
HETATM   31  C   UNL     1     -15.449   3.341 -32.019  1.00  0.00     0.010 A 
HETATM   32  C   UNL     1     -16.275   2.208 -32.209  1.00  0.00     0.152 A 
HETATM   33  N   UNL     1     -17.573   2.512 -32.220  1.00  0.00    -0.187 NA
HETATM   34  N   UNL     1     -17.593   3.840 -32.035  1.00  0.00    -0.289 N 
HETATM   35  H   UNL     1     -18.495   4.309 -32.004  1.00  0.00     0.188 HD
HETATM   36  C   UNL     1     -16.345   4.384 -31.909  1.00  0.00     0.123 A 
ENDBRANCH   7  31
TORSDOF 4
ENDMDL
MODEL 10
REMARK VINA RESULT:      -8.9      5.178      9.349
REMARK  4 active torsions:
REMARK  status: ('A' for Active; 'I' for Inactive)
REMARK    1  A    between atoms: C_2  and  C_5 
REMARK    2  A    between atoms: C_8  and  C_11 
REMARK    3  A    between atoms: C_17  and  C_18 
REMARK    4  A    between atoms: C_24  and  C_30 
ROOT
HETATM    1  C   UNL     1      -5.282   1.083 -31.910  1.00  0.00     0.091 A 
HETATM    2  N   UNL     1      -4.203   1.647 -32.442  1.00  0.00    -0.345 N 
HETATM    3  H   UNL     1      -3.619   1.146 -33.111  1.00  0.00     0.167 HD
HETATM    4  C   UNL     1      -3.842   2.923 -32.088  1.00  0.00     0.049 A 
HETATM    5  C   UNL     1      -2.722   3.517 -32.671  1.00  0.00     0.031 A 
HETATM    6  C   UNL     1      -2.371   4.840 -32.353  1.00  0.00     0.014 A 
HETATM    7  C   UNL     1      -3.131   5.596 -31.448  1.00  0.00    -0.022 A 
HETATM    8  C   UNL     1      -4.243   4.999 -30.846  1.00  0.00     0.031 A 
HETATM    9  C   UNL     1      -4.575   3.680 -31.172  1.00  0.00     0.059 A 
HETATM   10  C   UNL     1      -5.730   3.029 -30.568  1.00  0.00     0.259 A 
HETATM   11  O   UNL     1      -6.486   3.497 -29.745  1.00  0.00    -0.267 OA
HETATM   12  N   UNL     1      -6.017   1.709 -31.009  1.00  0.00    -0.312 N 
HETATM   13  H   UNL     1      -6.824   1.302 -30.553  1.00  0.00     0.170 HD
ENDROOT
BRANCH   1  14
HETATM   14  C   UNL     1      -5.666  -0.294 -32.360  1.00  0.00     0.089 C 
HETATM   15  C   UNL     1      -6.358  -0.317 -33.730  1.00  0.00     0.057 C 
HETATM   16  C   UNL     1      -6.168  -1.762 -34.213  1.00  0.00     0.242 C 
HETATM   17  N   UNL     1      -4.840  -2.173 -33.644  1.00  0.00    -0.074 N 
HETATM   18  H   UNL     1      -4.891  -3.150 -33.303  1.00  0.00     0.277 HD
HETATM   19  H   UNL     1      -4.123  -2.207 -34.390  1.00  0.00     0.277 HD
HETATM   20  C   UNL     1      -4.458  -1.220 -32.549  1.00  0.00     0.245 C 
BRANCH  15  21
HETATM   21  C   UNL     1      -7.806   0.111 -33.682  1.00  0.00    -0.051 A 
HETATM   22  C   UNL     1      -8.742  -0.521 -32.846  1.00  0.00     0.008 A 
HETATM   23  C   UNL     1     -10.086  -0.136 -32.858  1.00  0.00     0.017 A 
HETATM   24  C   UNL     1     -10.529   0.891 -33.699  1.00  0.00     0.047 A 
HETATM   25  C   UNL     1      -9.593   1.539 -34.516  1.00  0.00     0.017 A 
HETATM   26  C   UNL     1      -8.248   1.154 -34.510  1.00  0.00     0.008 A 
BRANCH  24  27
HETATM   27  C   UNL     1     -11.987   1.303 -33.736  1.00  0.00     0.417 C 
HETATM   28  F   UNL     1     -12.248   2.401 -32.979  1.00  0.00    -0.166 F 
HETATM   29  F   UNL     1     -12.812   0.322 -33.288  1.00  0.00    -0.166 F 
HETATM   30  F   UNL     1     -12.392   1.604 -34.998  1.00  0.00    -0.166 F 
ENDBRANCH  24  27
ENDBRANCH  15  21
ENDBRANCH   1  14
BRANCH   7  31
HETATM   31  C   UNL     1      -2.801   6.978 -31.148  1.00  0.00     0.010 A 
HETATM   32  C   UNL     1      -3.262   8.182 -31.732  1.00  0.00     0.152 A 
HETATM   33  N   UNL     1      -2.727   9.264 -31.169  1.00  0.00    -0.187 NA
HETATM   34  N   UNL     1      -1.921   8.769 -30.219  1.00  0.00    -0.289 N 
HETATM   35  H   UNL     1      -1.395   9.422 -29.643  1.00  0.00     0.188 HD
HETATM   36  C   UNL     1      -1.930   7.402 -30.167  1.00  0.00     0.123 A 
ENDBRANCH   7  31
TORSDOF 4
ENDMDL
