MODEL 1
REMARK VINA RESULT:      -8.2      0.000      0.000
REMARK  3 active torsions:
REMARK  status: ('A' for Active; 'I' for Inactive)
REMARK    1  A    between atoms: C_5  and  N_6 
REMARK       I    between atoms: N_6  and  C_7 
REMARK    2  A    between atoms: C_7  and  C_8 
REMARK    3  A    between atoms: C_8  and  C_9 
ROOT
HETATM    1  C   UNL     1      -4.409   4.219 -32.603  1.00  0.00     0.286 C 
HETATM    2  N   UNL     1      -3.124   4.681 -31.915  1.00  0.00    -0.056 N 
HETATM    3  H   UNL     1      -3.302   5.608 -31.513  1.00  0.00     0.278 HD
HETATM    4  H   UNL     1      -2.980   4.064 -31.088  1.00  0.00     0.278 HD
HETATM    5  C   UNL     1      -1.918   4.707 -32.815  1.00  0.00     0.209 C 
HETATM    6  C   UNL     1      -2.223   5.654 -34.002  1.00  0.00     0.115 C 
HETATM    7  N   UNL     1      -3.491   5.318 -34.647  1.00  0.00    -0.353 N 
HETATM    8  C   UNL     1      -4.600   4.830 -34.001  1.00  0.00     0.249 C 
HETATM    9  O   UNL     1      -5.684   4.811 -34.575  1.00  0.00    -0.271 OA
HETATM   10  C   UNL     1      -0.692   5.138 -32.014  1.00  0.00     0.035 C 
HETATM   11  C   UNL     1      -0.714   6.612 -31.619  1.00  0.00     0.002 C 
HETATM   12  C   UNL     1      -0.954   7.513 -32.826  1.00  0.00     0.002 C 
HETATM   13  C   UNL     1      -2.228   7.130 -33.575  1.00  0.00     0.027 C 
HETATM   14  H   UNL     1      -3.690   5.709 -35.567  1.00  0.00     0.163 HD
ENDROOT
BRANCH   1  15
HETATM   15  C   UNL     1      -4.479   2.686 -32.709  1.00  0.00     0.146 C 
BRANCH  15  16
HETATM   16  C   UNL     1      -5.082   2.094 -31.463  1.00  0.00     0.224 C 
HETATM   17  N   UNL     1      -5.681   0.878 -31.441  1.00  0.00    -0.327 N 
HETATM   18  H   UNL     1      -6.127   0.698 -30.545  1.00  0.00     0.169 HD
HETATM   19  O   UNL     1      -5.003   2.737 -30.407  1.00  0.00    -0.273 OA
BRANCH  17  20
HETATM   20  C   UNL     1      -5.792  -0.174 -32.370  1.00  0.00     0.034 A 
HETATM   21  C   UNL     1      -6.925  -0.481 -33.121  1.00  0.00     0.030 A 
HETATM   22  C   UNL     1      -6.903  -1.532 -34.049  1.00  0.00     0.009 A 
HETATM   23  C   UNL     1      -5.751  -2.299 -34.238  1.00  0.00    -0.062 A 
HETATM   24  C   UNL     1      -5.717  -3.390 -35.266  1.00  0.00     0.048 C 
HETATM   25  C   UNL     1      -4.609  -1.984 -33.501  1.00  0.00     0.009 A 
HETATM   26  C   UNL     1      -4.631  -0.933 -32.580  1.00  0.00     0.030 A 
ENDBRANCH  17  20
ENDBRANCH  15  16
ENDBRANCH   1  15
TORSDOF 3
ENDMDL
MODEL 2
REMARK VINA RESULT:      -8.1      4.429      6.842
REMARK  3 active torsions:
REMARK  status: ('A' for Active; 'I' for Inactive)
REMARK    1  A    between atoms: C_5  and  N_6 
REMARK       I    between atoms: N_6  and  C_7 
REMARK    2  A    between atoms: C_7  and  C_8 
REMARK    3  A    between atoms: C_8  and  C_9 
ROOT
HETATM    1  C   UNL     1      -5.471  -0.153 -31.601  1.00  0.00     0.286 C 
HETATM    2  N   UNL     1      -6.330  -0.957 -32.579  1.00  0.00    -0.056 N 
HETATM    3  H   UNL     1      -6.371  -1.923 -32.235  1.00  0.00     0.278 HD
HETATM    4  H   UNL     1      -7.306  -0.608 -32.487  1.00  0.00     0.278 HD
HETATM    5  C   UNL     1      -5.847  -0.913 -34.003  1.00  0.00     0.209 C 
HETATM    6  C   UNL     1      -4.397  -1.458 -34.038  1.00  0.00     0.115 C 
HETATM    7  N   UNL     1      -3.546  -0.789 -33.056  1.00  0.00    -0.353 N 
HETATM    8  C   UNL     1      -3.962  -0.339 -31.828  1.00  0.00     0.249 C 
HETATM    9  O   UNL     1      -3.135  -0.016 -30.981  1.00  0.00    -0.271 OA
HETATM   10  C   UNL     1      -6.800  -1.708 -34.891  1.00  0.00     0.035 C 
HETATM   11  C   UNL     1      -6.718  -3.217 -34.669  1.00  0.00     0.002 C 
HETATM   12  C   UNL     1      -5.283  -3.722 -34.773  1.00  0.00     0.002 C 
HETATM   13  C   UNL     1      -4.349  -2.979 -33.821  1.00  0.00     0.027 C 
HETATM   14  H   UNL     1      -2.535  -0.890 -33.137  1.00  0.00     0.163 HD
ENDROOT
BRANCH   1  15
HETATM   15  C   UNL     1      -5.808   1.347 -31.648  1.00  0.00     0.146 C 
BRANCH  15  16
HETATM   16  C   UNL     1      -6.676   1.734 -30.481  1.00  0.00     0.224 C 
HETATM   17  N   UNL     1      -8.014   1.923 -30.590  1.00  0.00    -0.327 N 
HETATM   18  H   UNL     1      -8.411   2.290 -29.728  1.00  0.00     0.169 HD
HETATM   19  O   UNL     1      -6.146   1.859 -29.367  1.00  0.00    -0.273 OA
BRANCH  17  20
HETATM   20  C   UNL     1      -8.953   1.701 -31.615  1.00  0.00     0.034 A 
HETATM   21  C   UNL     1      -9.317   0.457 -32.129  1.00  0.00     0.030 A 
HETATM   22  C   UNL     1     -10.299   0.358 -33.125  1.00  0.00     0.009 A 
HETATM   23  C   UNL     1     -10.929   1.498 -33.630  1.00  0.00    -0.062 A 
HETATM   24  C   UNL     1     -12.013   1.383 -34.660  1.00  0.00     0.048 C 
HETATM   25  C   UNL     1     -10.580   2.743 -33.105  1.00  0.00     0.009 A 
HETATM   26  C   UNL     1      -9.604   2.840 -32.110  1.00  0.00     0.030 A 
ENDBRANCH  17  20
ENDBRANCH  15  16
ENDBRANCH   1  15
TORSDOF 3
ENDMDL
MODEL 3
REMARK VINA RESULT:      -7.7      1.669      2.132
REMARK  3 active torsions:
REMARK  status: ('A' for Active; 'I' for Inactive)
REMARK    1  A    between atoms: C_5  and  N_6 
REMARK       I    between atoms: N_6  and  C_7 
REMARK    2  A    between atoms: C_7  and  C_8 
REMARK    3  A    between atoms: C_8  and  C_9 
ROOT
HETATM    1  C   UNL     1      -6.742   4.350 -32.092  1.00  0.00     0.286 C 
HETATM    2  N   UNL     1      -5.352   4.023 -31.546  1.00  0.00    -0.056 N 
HETATM    3  H   UNL     1      -4.953   4.891 -31.169  1.00  0.00     0.278 HD
HETATM    4  H   UNL     1      -5.486   3.416 -30.711  1.00  0.00     0.278 HD
HETATM    5  C   UNL     1      -4.425   3.398 -32.555  1.00  0.00     0.209 C 
HETATM    6  C   UNL     1      -4.282   4.375 -33.748  1.00  0.00     0.115 C 
HETATM    7  N   UNL     1      -5.586   4.798 -34.257  1.00  0.00    -0.353 N 
HETATM    8  C   UNL     1      -6.708   4.987 -33.491  1.00  0.00     0.249 C 
HETATM    9  O   UNL     1      -7.679   5.573 -33.960  1.00  0.00    -0.271 OA
HETATM   10  C   UNL     1      -3.089   3.075 -31.890  1.00  0.00     0.035 C 
HETATM   11  C   UNL     1      -2.263   4.315 -31.559  1.00  0.00     0.002 C 
HETATM   12  C   UNL     1      -2.093   5.219 -32.776  1.00  0.00     0.002 C 
HETATM   13  C   UNL     1      -3.437   5.607 -33.386  1.00  0.00     0.027 C 
HETATM   14  H   UNL     1      -5.630   5.248 -35.171  1.00  0.00     0.163 HD
ENDROOT
BRANCH   1  15
HETATM   15  C   UNL     1      -7.648   3.107 -32.125  1.00  0.00     0.146 C 
BRANCH  15  16
HETATM   16  C   UNL     1      -7.470   2.287 -30.876  1.00  0.00     0.224 C 
HETATM   17  N   UNL     1      -7.205   0.958 -30.901  1.00  0.00    -0.327 N 
HETATM   18  H   UNL     1      -7.231   0.554 -29.968  1.00  0.00     0.169 HD
HETATM   19  O   UNL     1      -7.544   2.858 -29.779  1.00  0.00    -0.273 OA
BRANCH  17  20
HETATM   20  C   UNL     1      -6.883   0.043 -31.923  1.00  0.00     0.034 A 
HETATM   21  C   UNL     1      -7.740  -0.378 -32.938  1.00  0.00     0.030 A 
HETATM   22  C   UNL     1      -7.292  -1.264 -33.928  1.00  0.00     0.009 A 
HETATM   23  C   UNL     1      -5.983  -1.750 -33.917  1.00  0.00    -0.062 A 
HETATM   24  C   UNL     1      -5.493  -2.659 -35.006  1.00  0.00     0.048 C 
HETATM   25  C   UNL     1      -5.116  -1.317 -32.913  1.00  0.00     0.009 A 
HETATM   26  C   UNL     1      -5.563  -0.430 -31.929  1.00  0.00     0.030 A 
ENDBRANCH  17  20
ENDBRANCH  15  16
ENDBRANCH   1  15
TORSDOF 3
ENDMDL
MODEL 4
REMARK VINA RESULT:      -7.4     16.520     18.356
REMARK  3 active torsions:
REMARK  status: ('A' for Active; 'I' for Inactive)
REMARK    1  A    between atoms: C_5  and  N_6 
REMARK       I    between atoms: N_6  and  C_7 
REMARK    2  A    between atoms: C_7  and  C_8 
REMARK    3  A    between atoms: C_8  and  C_9 
ROOT
HETATM    1  C   UNL     1      -2.689 -13.525 -39.668  1.00  0.00     0.286 C 
HETATM    2  N   UNL     1      -1.644 -13.887 -38.612  1.00  0.00    -0.056 N 
HETATM    3  H   UNL     1      -0.786 -13.368 -38.832  1.00  0.00     0.278 HD
HETATM    4  H   UNL     1      -1.967 -13.483 -37.709  1.00  0.00     0.278 HD
HETATM    5  C   UNL     1      -1.366 -15.363 -38.502  1.00  0.00     0.209 C 
HETATM    6  C   UNL     1      -0.883 -15.867 -39.884  1.00  0.00     0.115 C 
HETATM    7  N   UNL     1      -1.800 -15.471 -40.952  1.00  0.00    -0.353 N 
HETATM    8  C   UNL     1      -2.513 -14.298 -40.985  1.00  0.00     0.249 C 
HETATM    9  O   UNL     1      -3.059 -13.942 -42.024  1.00  0.00    -0.271 OA
HETATM   10  C   UNL     1      -0.346 -15.608 -37.393  1.00  0.00     0.035 C 
HETATM   11  C   UNL     1       1.062 -15.138 -37.750  1.00  0.00     0.002 C 
HETATM   12  C   UNL     1       1.522 -15.707 -39.087  1.00  0.00     0.002 C 
HETATM   13  C   UNL     1       0.539 -15.385 -40.210  1.00  0.00     0.027 C 
HETATM   14  H   UNL     1      -1.720 -15.930 -41.859  1.00  0.00     0.163 HD
ENDROOT
BRANCH   1  15
HETATM   15  C   UNL     1      -4.121 -13.735 -39.147  1.00  0.00     0.146 C 
BRANCH  15  16
HETATM   16  C   UNL     1      -4.488 -12.665 -38.154  1.00  0.00     0.224 C 
HETATM   17  N   UNL     1      -5.756 -12.211 -37.998  1.00  0.00    -0.327 N 
HETATM   18  H   UNL     1      -5.791 -11.413 -37.367  1.00  0.00     0.169 HD
HETATM   19  O   UNL     1      -3.596 -12.200 -37.432  1.00  0.00    -0.273 OA
BRANCH  17  20
HETATM   20  C   UNL     1      -7.009 -12.617 -38.494  1.00  0.00     0.034 A 
HETATM   21  C   UNL     1      -7.963 -13.352 -37.792  1.00  0.00     0.030 A 
HETATM   22  C   UNL     1      -9.198 -13.663 -38.380  1.00  0.00     0.009 A 
HETATM   23  C   UNL     1      -9.498 -13.252 -39.681  1.00  0.00    -0.062 A 
HETATM   24  C   UNL     1     -10.838 -13.544 -40.287  1.00  0.00     0.048 C 
HETATM   25  C   UNL     1      -8.553 -12.501 -40.380  1.00  0.00     0.009 A 
HETATM   26  C   UNL     1      -7.324 -12.188 -39.791  1.00  0.00     0.030 A 
ENDBRANCH  17  20
ENDBRANCH  15  16
ENDBRANCH   1  15
TORSDOF 3
ENDMDL
MODEL 5
REMARK VINA RESULT:      -7.4      1.844      2.733
REMARK  3 active torsions:
REMARK  status: ('A' for Active; 'I' for Inactive)
REMARK    1  A    between atoms: C_5  and  N_6 
REMARK       I    between atoms: N_6  and  C_7 
REMARK    2  A    between atoms: C_7  and  C_8 
REMARK    3  A    between atoms: C_8  and  C_9 
ROOT
HETATM    1  C   UNL     1      -5.283   3.760 -31.673  1.00  0.00     0.286 C 
HETATM    2  N   UNL     1      -4.561   3.828 -33.019  1.00  0.00    -0.056 N 
HETATM    3  H   UNL     1      -3.579   3.577 -32.859  1.00  0.00     0.278 HD
HETATM    4  H   UNL     1      -4.934   3.053 -33.606  1.00  0.00     0.278 HD
HETATM    5  C   UNL     1      -4.670   5.161 -33.710  1.00  0.00     0.209 C 
HETATM    6  C   UNL     1      -4.084   6.241 -32.768  1.00  0.00     0.115 C 
HETATM    7  N   UNL     1      -4.672   6.167 -31.431  1.00  0.00    -0.353 N 
HETATM    8  C   UNL     1      -5.065   5.011 -30.805  1.00  0.00     0.249 C 
HETATM    9  O   UNL     1      -5.315   5.019 -29.604  1.00  0.00    -0.271 OA
HETATM   10  C   UNL     1      -3.954   5.098 -35.057  1.00  0.00     0.035 C 
HETATM   11  C   UNL     1      -2.434   5.030 -34.932  1.00  0.00     0.002 C 
HETATM   12  C   UNL     1      -1.893   6.147 -34.048  1.00  0.00     0.002 C 
HETATM   13  C   UNL     1      -2.552   6.152 -32.671  1.00  0.00     0.027 C 
HETATM   14  H   UNL     1      -4.544   6.956 -30.798  1.00  0.00     0.163 HD
ENDROOT
BRANCH   1  15
HETATM   15  C   UNL     1      -6.793   3.524 -31.847  1.00  0.00     0.146 C 
BRANCH  15  16
HETATM   16  C   UNL     1      -7.315   2.606 -30.775  1.00  0.00     0.224 C 
HETATM   17  N   UNL     1      -7.338   1.257 -30.908  1.00  0.00    -0.327 N 
HETATM   18  H   UNL     1      -7.828   0.814 -30.134  1.00  0.00     0.169 HD
HETATM   19  O   UNL     1      -7.715   3.106 -29.714  1.00  0.00    -0.273 OA
BRANCH  17  20
HETATM   20  C   UNL     1      -6.818   0.359 -31.860  1.00  0.00     0.034 A 
HETATM   21  C   UNL     1      -5.533  -0.182 -31.851  1.00  0.00     0.030 A 
HETATM   22  C   UNL     1      -5.141  -1.103 -32.833  1.00  0.00     0.009 A 
HETATM   23  C   UNL     1      -6.022  -1.494 -33.844  1.00  0.00    -0.062 A 
HETATM   24  C   UNL     1      -5.614  -2.516 -34.864  1.00  0.00     0.048 C 
HETATM   25  C   UNL     1      -7.314  -0.969 -33.846  1.00  0.00     0.009 A 
HETATM   26  C   UNL     1      -7.706  -0.054 -32.864  1.00  0.00     0.030 A 
ENDBRANCH  17  20
ENDBRANCH  15  16
ENDBRANCH   1  15
TORSDOF 3
ENDMDL
MODEL 6
REMARK VINA RESULT:      -7.3      2.217      7.655
REMARK  3 active torsions:
REMARK  status: ('A' for Active; 'I' for Inactive)
REMARK    1  A    between atoms: C_5  and  N_6 
REMARK       I    between atoms: N_6  and  C_7 
REMARK    2  A    between atoms: C_7  and  C_8 
REMARK    3  A    between atoms: C_8  and  C_9 
ROOT
HETATM    1  C   UNL     1      -4.435   3.888 -32.771  1.00  0.00     0.286 C 
HETATM    2  N   UNL     1      -4.537   2.363 -32.723  1.00  0.00    -0.056 N 
HETATM    3  H   UNL     1      -5.519   2.112 -32.887  1.00  0.00     0.278 HD
HETATM    4  H   UNL     1      -4.033   1.996 -33.556  1.00  0.00     0.278 HD
HETATM    5  C   UNL     1      -4.032   1.751 -31.443  1.00  0.00     0.209 C 
HETATM    6  C   UNL     1      -4.846   2.349 -30.269  1.00  0.00     0.115 C 
HETATM    7  N   UNL     1      -4.861   3.811 -30.313  1.00  0.00    -0.353 N 
HETATM    8  C   UNL     1      -4.868   4.565 -31.460  1.00  0.00     0.249 C 
HETATM    9  O   UNL     1      -5.127   5.763 -31.404  1.00  0.00    -0.271 OA
HETATM   10  C   UNL     1      -4.142   0.231 -31.526  1.00  0.00     0.035 C 
HETATM   11  C   UNL     1      -5.581  -0.276 -31.468  1.00  0.00     0.002 C 
HETATM   12  C   UNL     1      -6.327   0.287 -30.264  1.00  0.00     0.002 C 
HETATM   13  C   UNL     1      -6.286   1.812 -30.232  1.00  0.00     0.027 C 
HETATM   14  H   UNL     1      -5.160   4.321 -29.483  1.00  0.00     0.163 HD
ENDROOT
BRANCH   1  15
HETATM   15  C   UNL     1      -3.014   4.352 -33.134  1.00  0.00     0.146 C 
BRANCH  15  16
HETATM   16  C   UNL     1      -3.050   5.691 -33.820  1.00  0.00     0.224 C 
HETATM   17  N   UNL     1      -2.548   6.818 -33.259  1.00  0.00    -0.327 N 
HETATM   18  H   UNL     1      -2.765   7.641 -33.817  1.00  0.00     0.169 HD
HETATM   19  O   UNL     1      -3.539   5.758 -34.957  1.00  0.00    -0.273 OA
BRANCH  17  20
HETATM   20  C   UNL     1      -1.785   7.081 -32.105  1.00  0.00     0.034 A 
HETATM   21  C   UNL     1      -2.257   7.673 -30.935  1.00  0.00     0.030 A 
HETATM   22  C   UNL     1      -1.410   7.846 -29.832  1.00  0.00     0.009 A 
HETATM   23  C   UNL     1      -0.074   7.439 -29.880  1.00  0.00    -0.062 A 
HETATM   24  C   UNL     1       0.816   7.582 -28.682  1.00  0.00     0.048 C 
HETATM   25  C   UNL     1       0.397   6.830 -31.044  1.00  0.00     0.009 A 
HETATM   26  C   UNL     1      -0.450   6.654 -32.142  1.00  0.00     0.030 A 
ENDBRANCH  17  20
ENDBRANCH  15  16
ENDBRANCH   1  15
TORSDOF 3
ENDMDL
MODEL 7
REMARK VINA RESULT:      -7.3     16.330     17.889
REMARK  3 active torsions:
REMARK  status: ('A' for Active; 'I' for Inactive)
REMARK    1  A    between atoms: C_5  and  N_6 
REMARK       I    between atoms: N_6  and  C_7 
REMARK    2  A    between atoms: C_7  and  C_8 
REMARK    3  A    between atoms: C_8  and  C_9 
ROOT
HETATM    1  C   UNL     1      -3.594 -14.515 -36.316  1.00  0.00     0.286 C 
HETATM    2  N   UNL     1      -4.281 -13.665 -35.247  1.00  0.00    -0.056 N 
HETATM    3  H   UNL     1      -3.650 -13.614 -34.438  1.00  0.00     0.278 HD
HETATM    4  H   UNL     1      -4.318 -12.689 -35.608  1.00  0.00     0.278 HD
HETATM    5  C   UNL     1      -5.640 -14.167 -34.839  1.00  0.00     0.209 C 
HETATM    6  C   UNL     1      -5.480 -15.613 -34.308  1.00  0.00     0.115 C 
HETATM    7  N   UNL     1      -4.747 -16.456 -35.252  1.00  0.00    -0.353 N 
HETATM    8  C   UNL     1      -3.730 -16.027 -36.067  1.00  0.00     0.249 C 
HETATM    9  O   UNL     1      -3.017 -16.845 -36.639  1.00  0.00    -0.271 OA
HETATM   10  C   UNL     1      -6.245 -13.220 -33.805  1.00  0.00     0.035 C 
HETATM   11  C   UNL     1      -5.557 -13.291 -32.443  1.00  0.00     0.002 C 
HETATM   12  C   UNL     1      -5.477 -14.725 -31.929  1.00  0.00     0.002 C 
HETATM   13  C   UNL     1      -4.794 -15.651 -32.933  1.00  0.00     0.027 C 
HETATM   14  H   UNL     1      -4.778 -17.467 -35.129  1.00  0.00     0.163 HD
ENDROOT
BRANCH   1  15
HETATM   15  C   UNL     1      -4.117 -14.188 -37.726  1.00  0.00     0.146 C 
BRANCH  15  16
HETATM   16  C   UNL     1      -4.164 -12.699 -37.942  1.00  0.00     0.224 C 
HETATM   17  N   UNL     1      -5.254 -12.063 -38.437  1.00  0.00    -0.327 N 
HETATM   18  H   UNL     1      -5.061 -11.080 -38.620  1.00  0.00     0.169 HD
HETATM   19  O   UNL     1      -3.172 -12.025 -37.630  1.00  0.00    -0.273 OA
BRANCH  17  20
HETATM   20  C   UNL     1      -6.574 -12.460 -38.721  1.00  0.00     0.034 A 
HETATM   21  C   UNL     1      -7.505 -12.919 -37.790  1.00  0.00     0.030 A 
HETATM   22  C   UNL     1      -8.808 -13.248 -38.187  1.00  0.00     0.009 A 
HETATM   23  C   UNL     1      -9.204 -13.131 -39.522  1.00  0.00    -0.062 A 
HETATM   24  C   UNL     1     -10.614 -13.437 -39.934  1.00  0.00     0.048 C 
HETATM   25  C   UNL     1      -8.281 -12.655 -40.454  1.00  0.00     0.009 A 
HETATM   26  C   UNL     1      -6.983 -12.324 -40.056  1.00  0.00     0.030 A 
ENDBRANCH  17  20
ENDBRANCH  15  16
ENDBRANCH   1  15
TORSDOF 3
ENDMDL
MODEL 8
REMARK VINA RESULT:      -7.3     16.408     18.692
REMARK  3 active torsions:
REMARK  status: ('A' for Active; 'I' for Inactive)
REMARK    1  A    between atoms: C_5  and  N_6 
REMARK       I    between atoms: N_6  and  C_7 
REMARK    2  A    between atoms: C_7  and  C_8 
REMARK    3  A    between atoms: C_8  and  C_9 
ROOT
HETATM    1  C   UNL     1      -3.869 -13.973 -39.385  1.00  0.00     0.286 C 
HETATM    2  N   UNL     1      -4.673 -14.472 -40.586  1.00  0.00    -0.056 N 
HETATM    3  H   UNL     1      -4.634 -15.498 -40.583  1.00  0.00     0.278 HD
HETATM    4  H   UNL     1      -5.673 -14.250 -40.399  1.00  0.00     0.278 HD
HETATM    5  C   UNL     1      -4.212 -13.920 -41.908  1.00  0.00     0.209 C 
HETATM    6  C   UNL     1      -2.725 -14.308 -42.100  1.00  0.00     0.115 C 
HETATM    7  N   UNL     1      -1.917 -13.938 -40.939  1.00  0.00    -0.353 N 
HETATM    8  C   UNL     1      -2.352 -13.955 -39.638  1.00  0.00     0.249 C 
HETATM    9  O   UNL     1      -1.543 -13.867 -38.720  1.00  0.00    -0.271 OA
HETATM   10  C   UNL     1      -5.110 -14.448 -43.024  1.00  0.00     0.035 C 
HETATM   11  C   UNL     1      -4.907 -15.933 -43.313  1.00  0.00     0.002 C 
HETATM   12  C   UNL     1      -3.438 -16.261 -43.558  1.00  0.00     0.002 C 
HETATM   13  C   UNL     1      -2.554 -15.806 -42.400  1.00  0.00     0.027 C 
HETATM   14  H   UNL     1      -0.902 -13.928 -41.034  1.00  0.00     0.163 HD
ENDROOT
BRANCH   1  15
HETATM   15  C   UNL     1      -4.323 -12.573 -38.937  1.00  0.00     0.146 C 
BRANCH  15  16
HETATM   16  C   UNL     1      -4.841 -12.610 -37.524  1.00  0.00     0.224 C 
HETATM   17  N   UNL     1      -6.149 -12.803 -37.226  1.00  0.00    -0.327 N 
HETATM   18  H   UNL     1      -6.327 -12.682 -36.231  1.00  0.00     0.169 HD
HETATM   19  O   UNL     1      -4.031 -12.483 -36.595  1.00  0.00    -0.273 OA
BRANCH  17  20
HETATM   20  C   UNL     1      -7.285 -13.151 -37.982  1.00  0.00     0.034 A 
HETATM   21  C   UNL     1      -7.901 -14.401 -37.995  1.00  0.00     0.030 A 
HETATM   22  C   UNL     1      -9.056 -14.618 -38.760  1.00  0.00     0.009 A 
HETATM   23  C   UNL     1      -9.611 -13.594 -39.530  1.00  0.00    -0.062 A 
HETATM   24  C   UNL     1     -10.874 -13.816 -40.308  1.00  0.00     0.048 C 
HETATM   25  C   UNL     1      -9.008 -12.336 -39.505  1.00  0.00     0.009 A 
HETATM   26  C   UNL     1      -7.858 -12.120 -38.739  1.00  0.00     0.030 A 
ENDBRANCH  17  20
ENDBRANCH  15  16
ENDBRANCH   1  15
TORSDOF 3
ENDMDL
MODEL 9
REMARK VINA RESULT:      -7.2     16.386     18.496
REMARK  3 active torsions:
REMARK  status: ('A' for Active; 'I' for Inactive)
REMARK    1  A    between atoms: C_5  and  N_6 
REMARK       I    between atoms: N_6  and  C_7 
REMARK    2  A    between atoms: C_7  and  C_8 
REMARK    3  A    between atoms: C_8  and  C_9 
ROOT
HETATM    1  C   UNL     1      -4.214 -12.693 -37.478  1.00  0.00     0.286 C 
HETATM    2  N   UNL     1      -4.859 -12.328 -38.816  1.00  0.00    -0.056 N 
HETATM    3  H   UNL     1      -5.520 -11.562 -38.643  1.00  0.00     0.278 HD
HETATM    4  H   UNL     1      -4.116 -11.900 -39.407  1.00  0.00     0.278 HD
HETATM    5  C   UNL     1      -5.537 -13.479 -39.508  1.00  0.00     0.209 C 
HETATM    6  C   UNL     1      -6.626 -14.038 -38.559  1.00  0.00     0.115 C 
HETATM    7  N   UNL     1      -6.088 -14.323 -37.229  1.00  0.00    -0.353 N 
HETATM    8  C   UNL     1      -5.099 -13.602 -36.608  1.00  0.00     0.249 C 
HETATM    9  O   UNL     1      -4.886 -13.760 -35.410  1.00  0.00    -0.271 OA
HETATM   10  C   UNL     1      -6.103 -13.009 -40.846  1.00  0.00     0.035 C 
HETATM   11  C   UNL     1      -7.310 -12.086 -40.703  1.00  0.00     0.002 C 
HETATM   12  C   UNL     1      -8.384 -12.701 -39.812  1.00  0.00     0.002 C 
HETATM   13  C   UNL     1      -7.832 -13.092 -38.443  1.00  0.00     0.027 C 
HETATM   14  H   UNL     1      -6.637 -14.902 -36.595  1.00  0.00     0.163 HD
ENDROOT
BRANCH   1  15
HETATM   15  C   UNL     1      -2.841 -13.360 -37.671  1.00  0.00     0.146 C 
BRANCH  15  16
HETATM   16  C   UNL     1      -1.952 -12.506 -38.534  1.00  0.00     0.224 C 
HETATM   17  N   UNL     1      -1.302 -12.987 -39.622  1.00  0.00    -0.327 N 
HETATM   18  H   UNL     1      -0.663 -12.297 -40.009  1.00  0.00     0.169 HD
HETATM   19  O   UNL     1      -1.831 -11.306 -38.250  1.00  0.00    -0.273 OA
BRANCH  17  20
HETATM   20  C   UNL     1      -1.344 -14.204 -40.328  1.00  0.00     0.034 A 
HETATM   21  C   UNL     1      -0.579 -15.335 -40.046  1.00  0.00     0.030 A 
HETATM   22  C   UNL     1      -0.739 -16.508 -40.797  1.00  0.00     0.009 A 
HETATM   23  C   UNL     1      -1.659 -16.571 -41.846  1.00  0.00    -0.062 A 
HETATM   24  C   UNL     1      -1.861 -17.844 -42.614  1.00  0.00     0.048 C 
HETATM   25  C   UNL     1      -2.440 -15.447 -42.119  1.00  0.00     0.009 A 
HETATM   26  C   UNL     1      -2.283 -14.279 -41.368  1.00  0.00     0.030 A 
ENDBRANCH  17  20
ENDBRANCH  15  16
ENDBRANCH   1  15
TORSDOF 3
ENDMDL
MODEL 10
REMARK VINA RESULT:      -7.2      1.838      7.817
REMARK  3 active torsions:
REMARK  status: ('A' for Active; 'I' for Inactive)
REMARK    1  A    between atoms: C_5  and  N_6 
REMARK       I    between atoms: N_6  and  C_7 
REMARK    2  A    between atoms: C_7  and  C_8 
REMARK    3  A    between atoms: C_8  and  C_9 
ROOT
HETATM    1  C   UNL     1      -5.609   3.375 -32.464  1.00  0.00     0.286 C 
HETATM    2  N   UNL     1      -6.412   2.699 -33.577  1.00  0.00    -0.056 N 
HETATM    3  H   UNL     1      -7.408   2.850 -33.377  1.00  0.00     0.278 HD
HETATM    4  H   UNL     1      -6.239   3.239 -34.450  1.00  0.00     0.278 HD
HETATM    5  C   UNL     1      -6.113   1.235 -33.751  1.00  0.00     0.209 C 
HETATM    6  C   UNL     1      -6.409   0.519 -32.409  1.00  0.00     0.115 C 
HETATM    7  N   UNL     1      -5.739   1.177 -31.289  1.00  0.00    -0.353 N 
HETATM    8  C   UNL     1      -5.519   2.528 -31.184  1.00  0.00     0.249 C 
HETATM    9  O   UNL     1      -5.174   3.011 -30.110  1.00  0.00    -0.271 OA
HETATM   10  C   UNL     1      -6.936   0.680 -34.911  1.00  0.00     0.035 C 
HETATM   11  C   UNL     1      -8.426   0.573 -34.600  1.00  0.00     0.002 C 
HETATM   12  C   UNL     1      -8.676  -0.192 -33.305  1.00  0.00     0.002 C 
HETATM   13  C   UNL     1      -7.917   0.419 -32.130  1.00  0.00     0.027 C 
HETATM   14  H   UNL     1      -5.665   0.678 -30.403  1.00  0.00     0.163 HD
ENDROOT
BRANCH   1  15
HETATM   15  C   UNL     1      -4.188   3.740 -32.929  1.00  0.00     0.146 C 
BRANCH  15  16
HETATM   16  C   UNL     1      -4.207   4.998 -33.755  1.00  0.00     0.224 C 
HETATM   17  N   UNL     1      -3.464   6.090 -33.449  1.00  0.00    -0.327 N 
HETATM   18  H   UNL     1      -3.693   6.877 -34.051  1.00  0.00     0.169 HD
HETATM   19  O   UNL     1      -4.912   5.024 -34.774  1.00  0.00    -0.273 OA
BRANCH  17  20
HETATM   20  C   UNL     1      -2.449   6.350 -32.509  1.00  0.00     0.034 A 
HETATM   21  C   UNL     1      -1.078   6.277 -32.750  1.00  0.00     0.030 A 
HETATM   22  C   UNL     1      -0.159   6.601 -31.743  1.00  0.00     0.009 A 
HETATM   23  C   UNL     1      -0.591   6.997 -30.475  1.00  0.00    -0.062 A 
HETATM   24  C   UNL     1       0.395   7.390 -29.415  1.00  0.00     0.048 C 
HETATM   25  C   UNL     1      -1.963   7.089 -30.235  1.00  0.00     0.009 A 
HETATM   26  C   UNL     1      -2.879   6.769 -31.241  1.00  0.00     0.030 A 
ENDBRANCH  17  20
ENDBRANCH  15  16
ENDBRANCH   1  15
TORSDOF 3
ENDMDL
