MODEL 1
REMARK VINA RESULT:      -8.1      0.000      0.000
REMARK  5 active torsions:
REMARK  status: ('A' for Active; 'I' for Inactive)
REMARK    1  A    between atoms: N_3  and  C_4 
REMARK    2  A    between atoms: C_5  and  O_6 
REMARK    3  A    between atoms: C_14  and  C_15 
REMARK    4  A    between atoms: C_15  and  N_16 
REMARK       I    between atoms: N_16  and  C_17 
REMARK       I    between atoms: C_17  and  N_18 
REMARK    5  A    between atoms: N_18  and  C_19 
ROOT
HETATM    1  C   UNL     1     -10.007   3.286 -31.085  1.00  0.00     0.068 C 
HETATM    2  C   UNL     1      -9.061   2.624 -32.025  1.00  0.00     0.014 A 
HETATM    3  N   UNL     1      -9.427   1.939 -33.181  1.00  0.00    -0.317 N 
HETATM    4  C   UNL     1      -8.256   1.514 -33.812  1.00  0.00     0.021 A 
HETATM    5  C   UNL     1      -8.243   0.617 -35.009  1.00  0.00     0.069 C 
HETATM    6  C   UNL     1      -7.165   2.037 -33.130  1.00  0.00    -0.016 A 
HETATM    7  C   UNL     1      -7.680   2.672 -31.976  1.00  0.00     0.035 A 
ENDROOT
BRANCH   6   8
HETATM    8  C   UNL     1      -5.733   1.982 -33.533  1.00  0.00     0.165 C 
BRANCH   8   9
HETATM    9  N   UNL     1      -4.973   1.188 -32.602  1.00  0.00    -0.339 N 
HETATM   10  C   UNL     1      -4.931  -0.173 -32.548  1.00  0.00     0.316 C 
HETATM   11  N   UNL     1      -5.491  -0.814 -33.615  1.00  0.00    -0.339 N 
HETATM   12  O   UNL     1      -4.441  -0.735 -31.576  1.00  0.00    -0.247 OA
HETATM   13  H   UNL     1      -5.462  -0.300 -34.480  1.00  0.00     0.164 HD
HETATM   14  H   UNL     1      -4.628   1.640 -31.763  1.00  0.00     0.164 HD
BRANCH  11  15
HETATM   15  C   UNL     1      -5.571  -2.261 -33.765  1.00  0.00     0.086 C 
HETATM   16  C   UNL     1      -4.261  -2.901 -34.243  1.00  0.00     0.025 C 
HETATM   17  C   UNL     1      -4.378  -4.424 -34.279  1.00  0.00     0.002 C 
HETATM   18  C   UNL     1      -5.571  -4.880 -35.118  1.00  0.00     0.000 C 
HETATM   19  C   UNL     1      -6.873  -4.223 -34.665  1.00  0.00     0.002 C 
HETATM   20  C   UNL     1      -6.757  -2.699 -34.631  1.00  0.00     0.025 C 
ENDBRANCH  11  15
ENDBRANCH   8   9
ENDBRANCH   6   8
BRANCH   3  21
HETATM   21  C   UNL     1     -10.741   1.845 -33.735  1.00  0.00     0.072 A 
HETATM   22  C   UNL     1     -11.241   2.782 -34.656  1.00  0.00     0.095 A 
HETATM   23  C   UNL     1     -12.531   2.595 -35.173  1.00  0.00     0.039 A 
HETATM   24  C   UNL     1     -13.304   1.493 -34.795  1.00  0.00     0.003 A 
HETATM   25  C   UNL     1     -12.803   0.567 -33.888  1.00  0.00     0.002 A 
HETATM   26  C   UNL     1     -11.528   0.741 -33.357  1.00  0.00     0.033 A 
BRANCH  22  27
HETATM   27  O   UNL     1     -10.483   3.889 -34.930  1.00  0.00    -0.354 OA
HETATM   28  C   UNL     1     -10.974   5.134 -34.443  1.00  0.00     0.210 C 
ENDBRANCH  22  27
ENDBRANCH   3  21
TORSDOF 5
ENDMDL
MODEL 2
REMARK VINA RESULT:      -7.9      4.199      6.914
REMARK  5 active torsions:
REMARK  status: ('A' for Active; 'I' for Inactive)
REMARK    1  A    between atoms: N_3  and  C_4 
REMARK    2  A    between atoms: C_5  and  O_6 
REMARK    3  A    between atoms: C_14  and  C_15 
REMARK    4  A    between atoms: C_15  and  N_16 
REMARK       I    between atoms: N_16  and  C_17 
REMARK       I    between atoms: C_17  and  N_18 
REMARK    5  A    between atoms: N_18  and  C_19 
ROOT
HETATM    1  C   UNL     1      -5.657   7.104 -32.009  1.00  0.00     0.068 C 
HETATM    2  C   UNL     1      -5.346   5.664 -32.229  1.00  0.00     0.014 A 
HETATM    3  N   UNL     1      -4.066   5.114 -32.245  1.00  0.00    -0.317 N 
HETATM    4  C   UNL     1      -4.200   3.735 -32.425  1.00  0.00     0.021 A 
HETATM    5  C   UNL     1      -3.040   2.816 -32.642  1.00  0.00     0.069 C 
HETATM    6  C   UNL     1      -5.549   3.408 -32.392  1.00  0.00    -0.016 A 
HETATM    7  C   UNL     1      -6.257   4.631 -32.338  1.00  0.00     0.035 A 
ENDROOT
BRANCH   6   8
HETATM    8  C   UNL     1      -6.151   2.046 -32.382  1.00  0.00     0.165 C 
BRANCH   8   9
HETATM    9  N   UNL     1      -6.780   1.758 -33.646  1.00  0.00    -0.339 N 
HETATM   10  C   UNL     1      -6.629   0.622 -34.383  1.00  0.00     0.316 C 
HETATM   11  N   UNL     1      -5.998  -0.405 -33.742  1.00  0.00    -0.339 N 
HETATM   12  O   UNL     1      -7.023   0.584 -35.541  1.00  0.00    -0.247 OA
HETATM   13  H   UNL     1      -6.110  -0.413 -32.742  1.00  0.00     0.164 HD
HETATM   14  H   UNL     1      -7.174   2.533 -34.167  1.00  0.00     0.164 HD
BRANCH  11  15
HETATM   15  C   UNL     1      -5.717  -1.705 -34.336  1.00  0.00     0.086 C 
HETATM   16  C   UNL     1      -6.936  -2.637 -34.375  1.00  0.00     0.025 C 
HETATM   17  C   UNL     1      -6.604  -3.940 -35.102  1.00  0.00     0.002 C 
HETATM   18  C   UNL     1      -5.382  -4.629 -34.498  1.00  0.00     0.000 C 
HETATM   19  C   UNL     1      -4.175  -3.697 -34.429  1.00  0.00     0.002 C 
HETATM   20  C   UNL     1      -4.505  -2.395 -33.700  1.00  0.00     0.025 C 
ENDBRANCH  11  15
ENDBRANCH   8   9
ENDBRANCH   6   8
BRANCH   3  21
HETATM   21  C   UNL     1      -2.845   5.791 -31.942  1.00  0.00     0.072 A 
HETATM   22  C   UNL     1      -2.052   6.396 -32.932  1.00  0.00     0.095 A 
HETATM   23  C   UNL     1      -0.884   7.067 -32.541  1.00  0.00     0.039 A 
HETATM   24  C   UNL     1      -0.519   7.149 -31.194  1.00  0.00     0.003 A 
HETATM   25  C   UNL     1      -1.310   6.553 -30.219  1.00  0.00     0.002 A 
HETATM   26  C   UNL     1      -2.468   5.875 -30.588  1.00  0.00     0.033 A 
BRANCH  22  27
HETATM   27  O   UNL     1      -2.403   6.216 -34.244  1.00  0.00    -0.354 OA
HETATM   28  C   UNL     1      -1.662   5.244 -34.974  1.00  0.00     0.210 C 
ENDBRANCH  22  27
ENDBRANCH   3  21
TORSDOF 5
ENDMDL
MODEL 3
REMARK VINA RESULT:      -7.7      5.791      8.371
REMARK  5 active torsions:
REMARK  status: ('A' for Active; 'I' for Inactive)
REMARK    1  A    between atoms: N_3  and  C_4 
REMARK    2  A    between atoms: C_5  and  O_6 
REMARK    3  A    between atoms: C_14  and  C_15 
REMARK    4  A    between atoms: C_15  and  N_16 
REMARK       I    between atoms: N_16  and  C_17 
REMARK       I    between atoms: C_17  and  N_18 
REMARK    5  A    between atoms: N_18  and  C_19 
ROOT
HETATM    1  C   UNL     1      -4.513  -0.067 -31.179  1.00  0.00     0.068 C 
HETATM    2  C   UNL     1      -4.306   1.334 -31.644  1.00  0.00     0.014 A 
HETATM    3  N   UNL     1      -5.153   2.025 -32.508  1.00  0.00    -0.317 N 
HETATM    4  C   UNL     1      -4.645   3.318 -32.654  1.00  0.00     0.021 A 
HETATM    5  C   UNL     1      -5.199   4.315 -33.621  1.00  0.00     0.069 C 
HETATM    6  C   UNL     1      -3.569   3.476 -31.792  1.00  0.00    -0.016 A 
HETATM    7  C   UNL     1      -3.325   2.208 -31.217  1.00  0.00     0.035 A 
ENDROOT
BRANCH   6   8
HETATM    8  C   UNL     1      -2.825   4.731 -31.493  1.00  0.00     0.165 C 
BRANCH   8   9
HETATM    9  N   UNL     1      -1.406   4.530 -31.643  1.00  0.00    -0.339 N 
HETATM   10  C   UNL     1      -0.427   5.077 -30.870  1.00  0.00     0.316 C 
HETATM   11  N   UNL     1      -0.861   5.686 -29.728  1.00  0.00    -0.339 N 
HETATM   12  O   UNL     1       0.742   5.025 -31.231  1.00  0.00    -0.247 OA
HETATM   13  H   UNL     1      -1.714   5.311 -29.346  1.00  0.00     0.164 HD
HETATM   14  H   UNL     1      -1.070   4.158 -32.524  1.00  0.00     0.164 HD
BRANCH  11  15
HETATM   15  C   UNL     1       0.003   6.347 -28.760  1.00  0.00     0.086 C 
HETATM   16  C   UNL     1      -0.552   6.328 -27.330  1.00  0.00     0.025 C 
HETATM   17  C   UNL     1       0.447   6.940 -26.349  1.00  0.00     0.002 C 
HETATM   18  C   UNL     1       0.870   8.345 -26.774  1.00  0.00     0.000 C 
HETATM   19  C   UNL     1       1.395   8.374 -28.207  1.00  0.00     0.002 C 
HETATM   20  C   UNL     1       0.396   7.764 -29.190  1.00  0.00     0.025 C 
ENDBRANCH  11  15
ENDBRANCH   8   9
ENDBRANCH   6   8
BRANCH   3  21
HETATM   21  C   UNL     1      -6.413   1.572 -33.007  1.00  0.00     0.072 A 
HETATM   22  C   UNL     1      -7.616   1.765 -32.306  1.00  0.00     0.095 A 
HETATM   23  C   UNL     1      -8.811   1.317 -32.885  1.00  0.00     0.039 A 
HETATM   24  C   UNL     1      -8.816   0.705 -34.142  1.00  0.00     0.003 A 
HETATM   25  C   UNL     1      -7.624   0.521 -34.834  1.00  0.00     0.002 A 
HETATM   26  C   UNL     1      -6.426   0.951 -34.270  1.00  0.00     0.033 A 
BRANCH  22  27
HETATM   27  O   UNL     1      -7.553   2.291 -31.043  1.00  0.00    -0.354 OA
HETATM   28  C   UNL     1      -8.693   3.018 -30.598  1.00  0.00     0.210 C 
ENDBRANCH  22  27
ENDBRANCH   3  21
TORSDOF 5
ENDMDL
MODEL 4
REMARK VINA RESULT:      -7.7      1.852      2.471
REMARK  5 active torsions:
REMARK  status: ('A' for Active; 'I' for Inactive)
REMARK    1  A    between atoms: N_3  and  C_4 
REMARK    2  A    between atoms: C_5  and  O_6 
REMARK    3  A    between atoms: C_14  and  C_15 
REMARK    4  A    between atoms: C_15  and  N_16 
REMARK       I    between atoms: N_16  and  C_17 
REMARK       I    between atoms: C_17  and  N_18 
REMARK    5  A    between atoms: N_18  and  C_19 
ROOT
HETATM    1  C   UNL     1     -11.776   4.857 -34.669  1.00  0.00     0.068 C 
HETATM    2  C   UNL     1     -10.914   3.701 -34.293  1.00  0.00     0.014 A 
HETATM    3  N   UNL     1     -11.373   2.501 -33.755  1.00  0.00    -0.317 N 
HETATM    4  C   UNL     1     -10.270   1.659 -33.594  1.00  0.00     0.021 A 
HETATM    5  C   UNL     1     -10.338   0.334 -32.905  1.00  0.00     0.069 C 
HETATM    6  C   UNL     1      -9.153   2.274 -34.145  1.00  0.00    -0.016 A 
HETATM    7  C   UNL     1      -9.556   3.578 -34.516  1.00  0.00     0.035 A 
ENDROOT
BRANCH   6   8
HETATM    8  C   UNL     1      -7.801   1.686 -34.344  1.00  0.00     0.165 C 
BRANCH   8   9
HETATM    9  N   UNL     1      -7.253   1.234 -33.090  1.00  0.00    -0.339 N 
HETATM   10  C   UNL     1      -6.771  -0.012 -32.821  1.00  0.00     0.316 C 
HETATM   11  N   UNL     1      -6.602  -0.816 -33.911  1.00  0.00    -0.339 N 
HETATM   12  O   UNL     1      -6.549  -0.349 -31.665  1.00  0.00    -0.247 OA
HETATM   13  H   UNL     1      -6.409  -0.329 -34.771  1.00  0.00     0.164 HD
HETATM   14  H   UNL     1      -7.449   1.783 -32.261  1.00  0.00     0.164 HD
BRANCH  11  15
HETATM   15  C   UNL     1      -6.113  -2.187 -33.862  1.00  0.00     0.086 C 
HETATM   16  C   UNL     1      -4.601  -2.307 -34.092  1.00  0.00     0.025 C 
HETATM   17  C   UNL     1      -4.136  -3.753 -33.924  1.00  0.00     0.002 C 
HETATM   18  C   UNL     1      -4.923  -4.708 -34.819  1.00  0.00     0.000 C 
HETATM   19  C   UNL     1      -6.430  -4.572 -34.616  1.00  0.00     0.002 C 
HETATM   20  C   UNL     1      -6.896  -3.127 -34.786  1.00  0.00     0.025 C 
ENDBRANCH  11  15
ENDBRANCH   8   9
ENDBRANCH   6   8
BRANCH   3  21
HETATM   21  C   UNL     1     -12.737   2.114 -33.575  1.00  0.00     0.072 A 
HETATM   22  C   UNL     1     -13.543   2.645 -32.553  1.00  0.00     0.095 A 
HETATM   23  C   UNL     1     -14.881   2.233 -32.470  1.00  0.00     0.039 A 
HETATM   24  C   UNL     1     -15.412   1.326 -33.391  1.00  0.00     0.003 A 
HETATM   25  C   UNL     1     -14.612   0.808 -34.403  1.00  0.00     0.002 A 
HETATM   26  C   UNL     1     -13.279   1.198 -34.496  1.00  0.00     0.033 A 
BRANCH  22  27
HETATM   27  O   UNL     1     -12.958   3.463 -31.624  1.00  0.00    -0.354 OA
HETATM   28  C   UNL     1     -13.584   4.722 -31.399  1.00  0.00     0.210 C 
ENDBRANCH  22  27
ENDBRANCH   3  21
TORSDOF 5
ENDMDL
MODEL 5
REMARK VINA RESULT:      -7.6      3.431      6.107
REMARK  5 active torsions:
REMARK  status: ('A' for Active; 'I' for Inactive)
REMARK    1  A    between atoms: N_3  and  C_4 
REMARK    2  A    between atoms: C_5  and  O_6 
REMARK    3  A    between atoms: C_14  and  C_15 
REMARK    4  A    between atoms: C_15  and  N_16 
REMARK       I    between atoms: N_16  and  C_17 
REMARK       I    between atoms: C_17  and  N_18 
REMARK    5  A    between atoms: N_18  and  C_19 
ROOT
HETATM    1  C   UNL     1      -2.977   2.493 -31.261  1.00  0.00     0.068 C 
HETATM    2  C   UNL     1      -4.328   2.761 -31.830  1.00  0.00     0.014 A 
HETATM    3  N   UNL     1      -4.675   3.886 -32.574  1.00  0.00    -0.317 N 
HETATM    4  C   UNL     1      -6.007   3.739 -32.969  1.00  0.00     0.021 A 
HETATM    5  C   UNL     1      -6.785   4.813 -33.661  1.00  0.00     0.069 C 
HETATM    6  C   UNL     1      -6.449   2.479 -32.590  1.00  0.00    -0.016 A 
HETATM    7  C   UNL     1      -5.412   1.905 -31.819  1.00  0.00     0.035 A 
ENDROOT
BRANCH   6   8
HETATM    8  C   UNL     1      -7.741   1.829 -32.942  1.00  0.00     0.165 C 
BRANCH   8   9
HETATM    9  N   UNL     1      -7.784   1.509 -34.346  1.00  0.00    -0.339 N 
HETATM   10  C   UNL     1      -7.201   0.434 -34.948  1.00  0.00     0.316 C 
HETATM   11  N   UNL     1      -6.730  -0.523 -34.096  1.00  0.00    -0.339 N 
HETATM   12  O   UNL     1      -7.106   0.390 -36.168  1.00  0.00    -0.247 OA
HETATM   13  H   UNL     1      -7.219  -0.586 -33.218  1.00  0.00     0.164 HD
HETATM   14  H   UNL     1      -8.050   2.243 -34.993  1.00  0.00     0.164 HD
BRANCH  11  15
HETATM   15  C   UNL     1      -6.062  -1.748 -34.512  1.00  0.00     0.086 C 
HETATM   16  C   UNL     1      -7.000  -2.959 -34.599  1.00  0.00     0.025 C 
HETATM   17  C   UNL     1      -6.262  -4.183 -35.142  1.00  0.00     0.002 C 
HETATM   18  C   UNL     1      -5.008  -4.494 -34.327  1.00  0.00     0.000 C 
HETATM   19  C   UNL     1      -4.085  -3.283 -34.213  1.00  0.00     0.002 C 
HETATM   20  C   UNL     1      -4.821  -2.059 -33.669  1.00  0.00     0.025 C 
ENDBRANCH  11  15
ENDBRANCH   8   9
ENDBRANCH   6   8
BRANCH   3  21
HETATM   21  C   UNL     1      -3.792   4.917 -33.021  1.00  0.00     0.072 A 
HETATM   22  C   UNL     1      -3.577   6.097 -32.289  1.00  0.00     0.095 A 
HETATM   23  C   UNL     1      -2.669   7.042 -32.787  1.00  0.00     0.039 A 
HETATM   24  C   UNL     1      -1.975   6.813 -33.979  1.00  0.00     0.003 A 
HETATM   25  C   UNL     1      -2.188   5.642 -34.697  1.00  0.00     0.002 A 
HETATM   26  C   UNL     1      -3.093   4.697 -34.223  1.00  0.00     0.033 A 
BRANCH  22  27
HETATM   27  O   UNL     1      -4.341   6.316 -31.173  1.00  0.00    -0.354 OA
HETATM   28  C   UNL     1      -5.298   7.367 -31.253  1.00  0.00     0.210 C 
ENDBRANCH  22  27
ENDBRANCH   3  21
TORSDOF 5
ENDMDL
MODEL 6
REMARK VINA RESULT:      -7.6      2.822      5.198
REMARK  5 active torsions:
REMARK  status: ('A' for Active; 'I' for Inactive)
REMARK    1  A    between atoms: N_3  and  C_4 
REMARK    2  A    between atoms: C_5  and  O_6 
REMARK    3  A    between atoms: C_14  and  C_15 
REMARK    4  A    between atoms: C_15  and  N_16 
REMARK       I    between atoms: N_16  and  C_17 
REMARK       I    between atoms: C_17  and  N_18 
REMARK    5  A    between atoms: N_18  and  C_19 
ROOT
HETATM    1  C   UNL     1      -9.606   2.944 -30.922  1.00  0.00     0.068 C 
HETATM    2  C   UNL     1      -8.717   2.215 -31.870  1.00  0.00     0.014 A 
HETATM    3  N   UNL     1      -9.129   1.618 -33.058  1.00  0.00    -0.317 N 
HETATM    4  C   UNL     1      -7.997   1.089 -33.683  1.00  0.00     0.021 A 
HETATM    5  C   UNL     1      -8.055   0.241 -34.913  1.00  0.00     0.069 C 
HETATM    6  C   UNL     1      -6.872   1.464 -32.960  1.00  0.00    -0.016 A 
HETATM    7  C   UNL     1      -7.341   2.109 -31.793  1.00  0.00     0.035 A 
ENDROOT
BRANCH   6   8
HETATM    8  C   UNL     1      -5.446   1.265 -33.338  1.00  0.00     0.165 C 
BRANCH   8   9
HETATM    9  N   UNL     1      -4.585   1.466 -32.199  1.00  0.00    -0.339 N 
HETATM   10  C   UNL     1      -3.678   2.470 -32.039  1.00  0.00     0.316 C 
HETATM   11  N   UNL     1      -3.768   3.483 -32.950  1.00  0.00    -0.339 N 
HETATM   12  O   UNL     1      -2.844   2.408 -31.145  1.00  0.00    -0.247 OA
HETATM   13  H   UNL     1      -4.689   3.633 -33.327  1.00  0.00     0.164 HD
HETATM   14  H   UNL     1      -4.447   0.687 -31.566  1.00  0.00     0.164 HD
BRANCH  11  15
HETATM   15  C   UNL     1      -2.898   4.651 -32.980  1.00  0.00     0.086 C 
HETATM   16  C   UNL     1      -3.597   5.948 -32.553  1.00  0.00     0.025 C 
HETATM   17  C   UNL     1      -2.607   7.111 -32.504  1.00  0.00     0.002 C 
HETATM   18  C   UNL     1      -1.864   7.277 -33.829  1.00  0.00     0.000 C 
HETATM   19  C   UNL     1      -1.191   5.981 -34.273  1.00  0.00     0.002 C 
HETATM   20  C   UNL     1      -2.180   4.817 -34.324  1.00  0.00     0.025 C 
ENDBRANCH  11  15
ENDBRANCH   8   9
ENDBRANCH   6   8
BRANCH   3  21
HETATM   21  C   UNL     1     -10.432   1.690 -33.640  1.00  0.00     0.072 A 
HETATM   22  C   UNL     1     -10.824   2.742 -34.486  1.00  0.00     0.095 A 
HETATM   23  C   UNL     1     -12.113   2.717 -35.039  1.00  0.00     0.039 A 
HETATM   24  C   UNL     1     -12.989   1.661 -34.770  1.00  0.00     0.003 A 
HETATM   25  C   UNL     1     -12.595   0.621 -33.937  1.00  0.00     0.002 A 
HETATM   26  C   UNL     1     -11.323   0.634 -33.371  1.00  0.00     0.033 A 
BRANCH  22  27
HETATM   27  O   UNL     1      -9.965   3.795 -34.652  1.00  0.00    -0.354 OA
HETATM   28  C   UNL     1     -10.477   4.934 -35.335  1.00  0.00     0.210 C 
ENDBRANCH  22  27
ENDBRANCH   3  21
TORSDOF 5
ENDMDL
MODEL 7
REMARK VINA RESULT:      -7.6      4.604      7.145
REMARK  5 active torsions:
REMARK  status: ('A' for Active; 'I' for Inactive)
REMARK    1  A    between atoms: N_3  and  C_4 
REMARK    2  A    between atoms: C_5  and  O_6 
REMARK    3  A    between atoms: C_14  and  C_15 
REMARK    4  A    between atoms: C_15  and  N_16 
REMARK       I    between atoms: N_16  and  C_17 
REMARK       I    between atoms: C_17  and  N_18 
REMARK    5  A    between atoms: N_18  and  C_19 
ROOT
HETATM    1  C   UNL     1      -4.674   5.751 -29.575  1.00  0.00     0.068 C 
HETATM    2  C   UNL     1      -4.883   5.428 -31.015  1.00  0.00     0.014 A 
HETATM    3  N   UNL     1      -3.930   5.588 -32.018  1.00  0.00    -0.317 N 
HETATM    4  C   UNL     1      -4.490   5.126 -33.212  1.00  0.00     0.021 A 
HETATM    5  C   UNL     1      -3.825   5.269 -34.544  1.00  0.00     0.069 C 
HETATM    6  C   UNL     1      -5.729   4.563 -32.937  1.00  0.00    -0.016 A 
HETATM    7  C   UNL     1      -5.992   4.820 -31.571  1.00  0.00     0.035 A 
ENDROOT
BRANCH   6   8
HETATM    8  C   UNL     1      -6.607   3.806 -33.870  1.00  0.00     0.165 C 
BRANCH   8   9
HETATM    9  N   UNL     1      -7.504   2.945 -33.140  1.00  0.00    -0.339 N 
HETATM   10  C   UNL     1      -7.445   1.585 -33.077  1.00  0.00     0.316 C 
HETATM   11  N   UNL     1      -6.302   1.030 -33.576  1.00  0.00    -0.339 N 
HETATM   12  O   UNL     1      -8.388   0.950 -32.623  1.00  0.00    -0.247 OA
HETATM   13  H   UNL     1      -5.485   1.616 -33.515  1.00  0.00     0.164 HD
HETATM   14  H   UNL     1      -8.393   3.329 -32.842  1.00  0.00     0.164 HD
BRANCH  11  15
HETATM   15  C   UNL     1      -6.026  -0.399 -33.623  1.00  0.00     0.086 C 
HETATM   16  C   UNL     1      -4.533  -0.739 -33.529  1.00  0.00     0.025 C 
HETATM   17  C   UNL     1      -4.320  -2.251 -33.477  1.00  0.00     0.002 C 
HETATM   18  C   UNL     1      -4.988  -2.958 -34.655  1.00  0.00     0.000 C 
HETATM   19  C   UNL     1      -6.468  -2.600 -34.771  1.00  0.00     0.002 C 
HETATM   20  C   UNL     1      -6.683  -1.088 -34.825  1.00  0.00     0.025 C 
ENDBRANCH  11  15
ENDBRANCH   8   9
ENDBRANCH   6   8
BRANCH   3  21
HETATM   21  C   UNL     1      -2.565   5.972 -31.843  1.00  0.00     0.072 A 
HETATM   22  C   UNL     1      -2.163   7.316 -31.771  1.00  0.00     0.095 A 
HETATM   23  C   UNL     1      -0.805   7.602 -31.565  1.00  0.00     0.039 A 
HETATM   24  C   UNL     1       0.131   6.574 -31.418  1.00  0.00     0.003 A 
HETATM   25  C   UNL     1      -0.273   5.246 -31.485  1.00  0.00     0.002 A 
HETATM   26  C   UNL     1      -1.616   4.943 -31.698  1.00  0.00     0.033 A 
BRANCH  22  27
HETATM   27  O   UNL     1      -3.099   8.288 -32.006  1.00  0.00    -0.354 OA
HETATM   28  C   UNL     1      -3.441   9.123 -30.905  1.00  0.00     0.210 C 
ENDBRANCH  22  27
ENDBRANCH   3  21
TORSDOF 5
ENDMDL
MODEL 8
REMARK VINA RESULT:      -7.5      3.979      6.731
REMARK  5 active torsions:
REMARK  status: ('A' for Active; 'I' for Inactive)
REMARK    1  A    between atoms: N_3  and  C_4 
REMARK    2  A    between atoms: C_5  and  O_6 
REMARK    3  A    between atoms: C_14  and  C_15 
REMARK    4  A    between atoms: C_15  and  N_16 
REMARK       I    between atoms: N_16  and  C_17 
REMARK       I    between atoms: C_17  and  N_18 
REMARK    5  A    between atoms: N_18  and  C_19 
ROOT
HETATM    1  C   UNL     1      -5.875   6.690 -32.457  1.00  0.00     0.068 C 
HETATM    2  C   UNL     1      -5.507   5.333 -31.965  1.00  0.00     0.014 A 
HETATM    3  N   UNL     1      -4.296   4.691 -32.212  1.00  0.00    -0.317 N 
HETATM    4  C   UNL     1      -4.319   3.467 -31.538  1.00  0.00     0.021 A 
HETATM    5  C   UNL     1      -3.254   2.428 -31.681  1.00  0.00     0.069 C 
HETATM    6  C   UNL     1      -5.475   3.400 -30.772  1.00  0.00    -0.016 A 
HETATM    7  C   UNL     1      -6.242   4.542 -31.102  1.00  0.00     0.035 A 
ENDROOT
BRANCH   6   8
HETATM    8  C   UNL     1      -5.840   2.359 -29.773  1.00  0.00     0.165 C 
BRANCH   8   9
HETATM    9  N   UNL     1      -7.036   1.664 -30.176  1.00  0.00    -0.339 N 
HETATM   10  C   UNL     1      -7.112   0.642 -31.074  1.00  0.00     0.316 C 
HETATM   11  N   UNL     1      -5.913   0.103 -31.443  1.00  0.00    -0.339 N 
HETATM   12  O   UNL     1      -8.199   0.287 -31.511  1.00  0.00    -0.247 OA
HETATM   13  H   UNL     1      -5.188   0.167 -30.747  1.00  0.00     0.164 HD
HETATM   14  H   UNL     1      -7.929   2.102 -29.981  1.00  0.00     0.164 HD
BRANCH  11  15
HETATM   15  C   UNL     1      -5.751  -0.987 -32.395  1.00  0.00     0.086 C 
HETATM   16  C   UNL     1      -4.313  -1.515 -32.484  1.00  0.00     0.025 C 
HETATM   17  C   UNL     1      -4.231  -2.722 -33.417  1.00  0.00     0.002 C 
HETATM   18  C   UNL     1      -4.806  -2.409 -34.798  1.00  0.00     0.000 C 
HETATM   19  C   UNL     1      -6.226  -1.855 -34.713  1.00  0.00     0.002 C 
HETATM   20  C   UNL     1      -6.309  -0.647 -33.781  1.00  0.00     0.025 C 
ENDBRANCH  11  15
ENDBRANCH   8   9
ENDBRANCH   6   8
BRANCH   3  21
HETATM   21  C   UNL     1      -3.157   5.248 -32.871  1.00  0.00     0.072 A 
HETATM   22  C   UNL     1      -2.230   6.072 -32.209  1.00  0.00     0.095 A 
HETATM   23  C   UNL     1      -1.123   6.549 -32.925  1.00  0.00     0.039 A 
HETATM   24  C   UNL     1      -0.930   6.203 -34.265  1.00  0.00     0.003 A 
HETATM   25  C   UNL     1      -1.846   5.383 -34.914  1.00  0.00     0.002 A 
HETATM   26  C   UNL     1      -2.957   4.907 -34.222  1.00  0.00     0.033 A 
BRANCH  22  27
HETATM   27  O   UNL     1      -2.505   6.454 -30.923  1.00  0.00    -0.354 OA
HETATM   28  C   UNL     1      -1.418   6.431 -30.005  1.00  0.00     0.210 C 
ENDBRANCH  22  27
ENDBRANCH   3  21
TORSDOF 5
ENDMDL
MODEL 9
REMARK VINA RESULT:      -7.4      1.585      2.624
REMARK  5 active torsions:
REMARK  status: ('A' for Active; 'I' for Inactive)
REMARK    1  A    between atoms: N_3  and  C_4 
REMARK    2  A    between atoms: C_5  and  O_6 
REMARK    3  A    between atoms: C_14  and  C_15 
REMARK    4  A    between atoms: C_15  and  N_16 
REMARK       I    between atoms: N_16  and  C_17 
REMARK       I    between atoms: C_17  and  N_18 
REMARK    5  A    between atoms: N_18  and  C_19 
ROOT
HETATM    1  C   UNL     1     -11.739   4.122 -30.619  1.00  0.00     0.068 C 
HETATM    2  C   UNL     1     -10.449   3.595 -31.144  1.00  0.00     0.014 A 
HETATM    3  N   UNL     1     -10.177   3.330 -32.484  1.00  0.00    -0.317 N 
HETATM    4  C   UNL     1      -8.850   2.903 -32.572  1.00  0.00     0.021 A 
HETATM    5  C   UNL     1      -8.232   2.385 -33.831  1.00  0.00     0.069 C 
HETATM    6  C   UNL     1      -8.257   3.024 -31.322  1.00  0.00    -0.016 A 
HETATM    7  C   UNL     1      -9.286   3.392 -30.424  1.00  0.00     0.035 A 
ENDROOT
BRANCH   6   8
HETATM    8  C   UNL     1      -6.821   2.840 -30.979  1.00  0.00     0.165 C 
BRANCH   8   9
HETATM    9  N   UNL     1      -6.636   1.654 -30.182  1.00  0.00    -0.339 N 
HETATM   10  C   UNL     1      -6.462   0.386 -30.651  1.00  0.00     0.316 C 
HETATM   11  N   UNL     1      -6.227   0.290 -31.992  1.00  0.00    -0.339 N 
HETATM   12  O   UNL     1      -6.549  -0.568 -29.888  1.00  0.00    -0.247 OA
HETATM   13  H   UNL     1      -5.773   1.090 -32.400  1.00  0.00     0.164 HD
HETATM   14  H   UNL     1      -6.892   1.695 -29.203  1.00  0.00     0.164 HD
BRANCH  11  15
HETATM   15  C   UNL     1      -6.023  -0.960 -32.711  1.00  0.00     0.086 C 
HETATM   16  C   UNL     1      -4.582  -1.161 -33.196  1.00  0.00     0.025 C 
HETATM   17  C   UNL     1      -4.411  -2.533 -33.847  1.00  0.00     0.002 C 
HETATM   18  C   UNL     1      -5.424  -2.757 -34.969  1.00  0.00     0.000 C 
HETATM   19  C   UNL     1      -6.858  -2.530 -34.498  1.00  0.00     0.002 C 
HETATM   20  C   UNL     1      -7.031  -1.157 -33.849  1.00  0.00     0.025 C 
ENDBRANCH  11  15
ENDBRANCH   8   9
ENDBRANCH   6   8
BRANCH   3  21
HETATM   21  C   UNL     1     -11.025   3.618 -33.598  1.00  0.00     0.072 A 
HETATM   22  C   UNL     1     -11.967   2.697 -34.088  1.00  0.00     0.095 A 
HETATM   23  C   UNL     1     -12.780   3.075 -35.166  1.00  0.00     0.039 A 
HETATM   24  C   UNL     1     -12.673   4.348 -35.735  1.00  0.00     0.003 A 
HETATM   25  C   UNL     1     -11.744   5.257 -35.243  1.00  0.00     0.002 A 
HETATM   26  C   UNL     1     -10.921   4.895 -34.179  1.00  0.00     0.033 A 
BRANCH  22  27
HETATM   27  O   UNL     1     -11.977   1.435 -33.556  1.00  0.00    -0.354 OA
HETATM   28  C   UNL     1     -13.091   0.613 -33.887  1.00  0.00     0.210 C 
ENDBRANCH  22  27
ENDBRANCH   3  21
TORSDOF 5
ENDMDL
MODEL 10
REMARK VINA RESULT:      -7.4      2.709      5.086
REMARK  5 active torsions:
REMARK  status: ('A' for Active; 'I' for Inactive)
REMARK    1  A    between atoms: N_3  and  C_4 
REMARK    2  A    between atoms: C_5  and  O_6 
REMARK    3  A    between atoms: C_14  and  C_15 
REMARK    4  A    between atoms: C_15  and  N_16 
REMARK       I    between atoms: N_16  and  C_17 
REMARK       I    between atoms: C_17  and  N_18 
REMARK    5  A    between atoms: N_18  and  C_19 
ROOT
HETATM    1  C   UNL     1      -7.731   0.279 -35.146  1.00  0.00     0.068 C 
HETATM    2  C   UNL     1      -7.682   0.990 -33.838  1.00  0.00     0.014 A 
HETATM    3  N   UNL     1      -8.782   1.540 -33.182  1.00  0.00    -0.317 N 
HETATM    4  C   UNL     1      -8.333   2.066 -31.969  1.00  0.00     0.021 A 
HETATM    5  C   UNL     1      -9.196   2.871 -31.050  1.00  0.00     0.069 C 
HETATM    6  C   UNL     1      -6.994   1.736 -31.806  1.00  0.00    -0.016 A 
HETATM    7  C   UNL     1      -6.582   1.123 -33.012  1.00  0.00     0.035 A 
ENDROOT
BRANCH   6   8
HETATM    8  C   UNL     1      -6.150   1.946 -30.598  1.00  0.00     0.165 C 
BRANCH   8   9
HETATM    9  N   UNL     1      -4.897   1.245 -30.725  1.00  0.00    -0.339 N 
HETATM   10  C   UNL     1      -3.768   1.712 -31.329  1.00  0.00     0.316 C 
HETATM   11  N   UNL     1      -3.783   3.042 -31.639  1.00  0.00    -0.339 N 
HETATM   12  O   UNL     1      -2.846   0.948 -31.582  1.00  0.00    -0.247 OA
HETATM   13  H   UNL     1      -4.356   3.610 -31.036  1.00  0.00     0.164 HD
HETATM   14  H   UNL     1      -4.897   0.242 -30.581  1.00  0.00     0.164 HD
BRANCH  11  15
HETATM   15  C   UNL     1      -2.695   3.752 -32.297  1.00  0.00     0.086 C 
HETATM   16  C   UNL     1      -1.915   4.682 -31.359  1.00  0.00     0.025 C 
HETATM   17  C   UNL     1      -0.726   5.315 -32.082  1.00  0.00     0.002 C 
HETATM   18  C   UNL     1      -1.158   6.031 -33.361  1.00  0.00     0.000 C 
HETATM   19  C   UNL     1      -1.961   5.118 -34.284  1.00  0.00     0.002 C 
HETATM   20  C   UNL     1      -3.151   4.487 -33.562  1.00  0.00     0.025 C 
ENDBRANCH  11  15
ENDBRANCH   8   9
ENDBRANCH   6   8
BRANCH   3  21
HETATM   21  C   UNL     1     -10.151   1.425 -33.574  1.00  0.00     0.072 A 
HETATM   22  C   UNL     1     -10.795   2.395 -34.360  1.00  0.00     0.095 A 
HETATM   23  C   UNL     1     -12.133   2.186 -34.725  1.00  0.00     0.039 A 
HETATM   24  C   UNL     1     -12.813   1.030 -34.331  1.00  0.00     0.003 A 
HETATM   25  C   UNL     1     -12.170   0.071 -33.558  1.00  0.00     0.002 A 
HETATM   26  C   UNL     1     -10.844   0.266 -33.178  1.00  0.00     0.033 A 
BRANCH  22  27
HETATM   27  O   UNL     1     -10.118   3.550 -34.650  1.00  0.00    -0.354 OA
HETATM   28  C   UNL     1     -10.738   4.438 -35.573  1.00  0.00     0.210 C 
ENDBRANCH  22  27
ENDBRANCH   3  21
TORSDOF 5
ENDMDL
