MODEL 1
REMARK VINA RESULT:      -8.4      0.000      0.000
REMARK  10 active torsions:
REMARK  status: ('A' for Active; 'I' for Inactive)
REMARK    1  A    between atoms: C_2  and  N_3 
REMARK    2  A    between atoms: N_3  and  C_5 
REMARK    3  A    between atoms: N_3  and  C_35 
REMARK    4  A    between atoms: C_5  and  C_6 
REMARK    5  A    between atoms: C_6  and  N_7 
REMARK       I    between atoms: N_7  and  C_8 
REMARK    6  A    between atoms: C_8  and  C_9 
REMARK    7  A    between atoms: N_15  and  C_16 
REMARK    8  A    between atoms: C_16  and  C_17 
REMARK       I    between atoms: C_17  and  N_18 
REMARK    9  A    between atoms: N_18  and  C_19 
REMARK   10  A    between atoms: C_21  and  C_22 
ROOT
HETATM    1  C   UNL     1      -8.657   4.029 -32.650  1.00  0.00     0.081 A 
HETATM    2  S   UNL     1      -7.212   4.906 -32.354  1.00  0.00    -0.063 SA
HETATM    3  C   UNL     1      -6.437   3.560 -31.673  1.00  0.00     0.116 A 
HETATM    4  C   UNL     1      -7.259   2.456 -31.637  1.00  0.00     0.075 A 
HETATM    5  C   UNL     1      -6.679   1.217 -31.129  1.00  0.00     0.262 C 
HETATM    6  O   UNL     1      -7.331   0.185 -30.984  1.00  0.00    -0.267 OA
HETATM    7  N   UNL     1      -5.317   1.295 -30.864  1.00  0.00    -0.299 N 
HETATM    8  C   UNL     1      -4.642   2.499 -30.892  1.00  0.00     0.214 C 
HETATM    9  N   UNL     1      -5.145   3.630 -31.269  1.00  0.00    -0.235 NA
HETATM   10  C   UNL     1      -8.575   2.716 -32.184  1.00  0.00    -0.021 A 
HETATM   11  C   UNL     1      -9.650   1.678 -32.299  1.00  0.00     0.051 C 
ENDROOT
BRANCH   7  12
HETATM   12  C   UNL     1      -4.604   0.066 -30.551  1.00  0.00     0.236 C 
BRANCH  12  13
HETATM   13  C   UNL     1      -3.389  -0.125 -31.460  1.00  0.00     0.240 C 
HETATM   14  N   UNL     1      -3.584  -0.327 -32.802  1.00  0.00    -0.326 N 
HETATM   15  H   UNL     1      -2.781  -0.060 -33.362  1.00  0.00     0.169 HD
HETATM   16  O   UNL     1      -2.246   0.099 -31.053  1.00  0.00    -0.271 OA
BRANCH  14  17
HETATM   17  C   UNL     1      -4.687  -0.851 -33.493  1.00  0.00     0.035 A 
HETATM   18  C   UNL     1      -4.839  -2.215 -33.757  1.00  0.00     0.045 A 
HETATM   19  C   UNL     1      -5.944  -2.689 -34.485  1.00  0.00     0.050 A 
HETATM   20  C   UNL     1      -6.897  -1.771 -34.951  1.00  0.00     0.016 A 
HETATM   21  C   UNL     1      -6.728  -0.407 -34.724  1.00  0.00     0.003 A 
HETATM   22  C   UNL     1      -5.614   0.052 -34.018  1.00  0.00     0.029 A 
BRANCH  19  23
HETATM   23  C   UNL     1      -6.106  -4.160 -34.791  1.00  0.00     0.417 C 
HETATM   24  F   UNL     1      -5.133  -4.940 -34.243  1.00  0.00    -0.166 F 
HETATM   25  F   UNL     1      -7.284  -4.657 -34.326  1.00  0.00    -0.166 F 
HETATM   26  F   UNL     1      -6.086  -4.423 -36.126  1.00  0.00    -0.166 F 
ENDBRANCH  19  23
ENDBRANCH  14  17
ENDBRANCH  12  13
ENDBRANCH   7  12
BRANCH   1  27
HETATM   27  C   UNL     1      -9.710   4.727 -33.376  1.00  0.00     0.259 C 
HETATM   28  N   UNL     1     -10.170   4.115 -34.530  1.00  0.00    -0.355 N 
HETATM   29  H   UNL     1     -10.007   3.117 -34.616  1.00  0.00     0.162 HD
HETATM   30  O   UNL     1     -10.182   5.817 -33.051  1.00  0.00    -0.267 OA
BRANCH  28  31
HETATM   31  C   UNL     1     -11.203   4.744 -35.333  1.00  0.00     0.150 C 
BRANCH  31  32
HETATM   32  C   UNL     1     -12.480   3.880 -35.441  1.00  0.00     0.254 C 
BRANCH  32  33
HETATM   33  N   UNL     1     -12.619   2.823 -34.352  1.00  0.00    -0.070 N 
HETATM   34  H   UNL     1     -11.705   2.813 -33.879  1.00  0.00     0.279 HD
BRANCH  33  35
HETATM   35  C   UNL     1     -12.806   1.407 -34.876  1.00  0.00     0.230 C 
HETATM   36  C   UNL     1     -12.931   0.404 -33.744  1.00  0.00     0.034 C 
ENDBRANCH  33  35
BRANCH  33  37
HETATM   37  C   UNL     1     -13.632   3.141 -33.270  1.00  0.00     0.230 C 
HETATM   38  C   UNL     1     -12.967   3.718 -32.034  1.00  0.00     0.034 C 
ENDBRANCH  33  37
ENDBRANCH  32  33
ENDBRANCH  31  32
ENDBRANCH  28  31
ENDBRANCH   1  27
TORSDOF 10
ENDMDL
MODEL 2
REMARK VINA RESULT:      -8.3      4.139      8.074
REMARK  10 active torsions:
REMARK  status: ('A' for Active; 'I' for Inactive)
REMARK    1  A    between atoms: C_2  and  N_3 
REMARK    2  A    between atoms: N_3  and  C_5 
REMARK    3  A    between atoms: N_3  and  C_35 
REMARK    4  A    between atoms: C_5  and  C_6 
REMARK    5  A    between atoms: C_6  and  N_7 
REMARK       I    between atoms: N_7  and  C_8 
REMARK    6  A    between atoms: C_8  and  C_9 
REMARK    7  A    between atoms: N_15  and  C_16 
REMARK    8  A    between atoms: C_16  and  C_17 
REMARK       I    between atoms: C_17  and  N_18 
REMARK    9  A    between atoms: N_18  and  C_19 
REMARK   10  A    between atoms: C_21  and  C_22 
ROOT
HETATM    1  C   UNL     1      -2.831   5.662 -31.371  1.00  0.00     0.081 A 
HETATM    2  S   UNL     1      -4.018   6.586 -30.544  1.00  0.00    -0.063 SA
HETATM    3  C   UNL     1      -5.296   5.682 -31.197  1.00  0.00     0.116 A 
HETATM    4  C   UNL     1      -4.848   4.703 -32.056  1.00  0.00     0.075 A 
HETATM    5  C   UNL     1      -5.856   3.818 -32.632  1.00  0.00     0.262 C 
HETATM    6  O   UNL     1      -5.588   2.953 -33.463  1.00  0.00    -0.267 OA
HETATM    7  N   UNL     1      -7.136   4.011 -32.126  1.00  0.00    -0.299 N 
HETATM    8  C   UNL     1      -7.437   5.083 -31.308  1.00  0.00     0.214 C 
HETATM    9  N   UNL     1      -6.579   5.929 -30.838  1.00  0.00    -0.235 NA
HETATM   10  C   UNL     1      -3.405   4.689 -32.191  1.00  0.00    -0.021 A 
HETATM   11  C   UNL     1      -2.657   3.702 -33.034  1.00  0.00     0.051 C 
ENDROOT
BRANCH   7  12
HETATM   12  C   UNL     1      -8.169   3.051 -32.480  1.00  0.00     0.236 C 
BRANCH  12  13
HETATM   13  C   UNL     1      -8.599   2.220 -31.271  1.00  0.00     0.240 C 
HETATM   14  N   UNL     1      -7.803   1.183 -30.854  1.00  0.00    -0.326 N 
HETATM   15  H   UNL     1      -7.936   0.952 -29.875  1.00  0.00     0.169 HD
HETATM   16  O   UNL     1      -9.530   2.581 -30.545  1.00  0.00    -0.271 OA
BRANCH  14  17
HETATM   17  C   UNL     1      -6.875   0.406 -31.564  1.00  0.00     0.035 A 
HETATM   18  C   UNL     1      -7.221  -0.349 -32.689  1.00  0.00     0.045 A 
HETATM   19  C   UNL     1      -6.263  -1.141 -33.346  1.00  0.00     0.050 A 
HETATM   20  C   UNL     1      -4.950  -1.169 -32.854  1.00  0.00     0.016 A 
HETATM   21  C   UNL     1      -4.611  -0.448 -31.711  1.00  0.00     0.003 A 
HETATM   22  C   UNL     1      -5.578   0.317 -31.055  1.00  0.00     0.029 A 
BRANCH  19  23
HETATM   23  C   UNL     1      -6.632  -1.975 -34.550  1.00  0.00     0.417 C 
HETATM   24  F   UNL     1      -7.494  -1.351 -35.400  1.00  0.00    -0.166 F 
HETATM   25  F   UNL     1      -5.547  -2.306 -35.301  1.00  0.00    -0.166 F 
HETATM   26  F   UNL     1      -7.229  -3.150 -34.211  1.00  0.00    -0.166 F 
ENDBRANCH  19  23
ENDBRANCH  14  17
ENDBRANCH  12  13
ENDBRANCH   7  12
BRANCH   1  27
HETATM   27  C   UNL     1      -1.438   5.962 -31.068  1.00  0.00     0.259 C 
HETATM   28  N   UNL     1      -0.785   5.071 -30.234  1.00  0.00    -0.355 N 
HETATM   29  H   UNL     1      -1.177   4.138 -30.162  1.00  0.00     0.162 HD
HETATM   30  O   UNL     1      -0.831   6.953 -31.474  1.00  0.00    -0.267 OA
BRANCH  28  31
HETATM   31  C   UNL     1       0.600   5.297 -29.858  1.00  0.00     0.150 C 
BRANCH  31  32
HETATM   32  C   UNL     1       0.762   5.619 -28.356  1.00  0.00     0.254 C 
BRANCH  32  33
HETATM   33  N   UNL     1      -0.300   6.556 -27.793  1.00  0.00    -0.070 N 
HETATM   34  H   UNL     1      -1.157   6.320 -28.312  1.00  0.00     0.279 HD
BRANCH  33  35
HETATM   35  C   UNL     1      -0.055   8.027 -28.088  1.00  0.00     0.230 C 
HETATM   36  C   UNL     1       1.392   8.414 -27.846  1.00  0.00     0.034 C 
ENDBRANCH  33  35
BRANCH  33  37
HETATM   37  C   UNL     1      -0.639   6.343 -26.331  1.00  0.00     0.230 C 
HETATM   38  C   UNL     1      -2.095   6.661 -26.043  1.00  0.00     0.034 C 
ENDBRANCH  33  37
ENDBRANCH  32  33
ENDBRANCH  31  32
ENDBRANCH  28  31
ENDBRANCH   1  27
TORSDOF 10
ENDMDL
MODEL 3
REMARK VINA RESULT:      -7.9      6.003      9.186
REMARK  10 active torsions:
REMARK  status: ('A' for Active; 'I' for Inactive)
REMARK    1  A    between atoms: C_2  and  N_3 
REMARK    2  A    between atoms: N_3  and  C_5 
REMARK    3  A    between atoms: N_3  and  C_35 
REMARK    4  A    between atoms: C_5  and  C_6 
REMARK    5  A    between atoms: C_6  and  N_7 
REMARK       I    between atoms: N_7  and  C_8 
REMARK    6  A    between atoms: C_8  and  C_9 
REMARK    7  A    between atoms: N_15  and  C_16 
REMARK    8  A    between atoms: C_16  and  C_17 
REMARK       I    between atoms: C_17  and  N_18 
REMARK    9  A    between atoms: N_18  and  C_19 
REMARK   10  A    between atoms: C_21  and  C_22 
ROOT
HETATM    1  C   UNL     1      -5.738   2.293 -31.842  1.00  0.00     0.081 A 
HETATM    2  S   UNL     1      -6.590   3.780 -31.937  1.00  0.00    -0.063 SA
HETATM    3  C   UNL     1      -5.173   4.697 -31.769  1.00  0.00     0.116 A 
HETATM    4  C   UNL     1      -4.059   3.902 -31.615  1.00  0.00     0.075 A 
HETATM    5  C   UNL     1      -2.770   4.580 -31.525  1.00  0.00     0.262 C 
HETATM    6  O   UNL     1      -1.716   3.984 -31.318  1.00  0.00    -0.267 OA
HETATM    7  N   UNL     1      -2.835   5.952 -31.737  1.00  0.00    -0.299 N 
HETATM    8  C   UNL     1      -4.043   6.616 -31.819  1.00  0.00     0.214 C 
HETATM    9  N   UNL     1      -5.208   6.051 -31.829  1.00  0.00    -0.235 NA
HETATM   10  C   UNL     1      -4.372   2.487 -31.631  1.00  0.00    -0.021 A 
HETATM   11  C   UNL     1      -3.341   1.405 -31.520  1.00  0.00     0.051 C 
ENDROOT
BRANCH   7  12
HETATM   12  C   UNL     1      -1.588   6.689 -31.871  1.00  0.00     0.236 C 
BRANCH  12  13
HETATM   13  C   UNL     1      -1.751   8.148 -31.444  1.00  0.00     0.240 C 
HETATM   14  N   UNL     1      -1.170   8.572 -30.276  1.00  0.00    -0.326 N 
HETATM   15  H   UNL     1      -0.991   9.570 -30.264  1.00  0.00     0.169 HD
HETATM   16  O   UNL     1      -2.213   8.992 -32.217  1.00  0.00    -0.271 OA
BRANCH  14  17
HETATM   17  C   UNL     1      -0.816   7.854 -29.123  1.00  0.00     0.035 A 
HETATM   18  C   UNL     1      -1.739   7.510 -28.131  1.00  0.00     0.045 A 
HETATM   19  C   UNL     1      -1.331   6.822 -26.975  1.00  0.00     0.050 A 
HETATM   20  C   UNL     1       0.023   6.487 -26.826  1.00  0.00     0.016 A 
HETATM   21  C   UNL     1       0.952   6.863 -27.794  1.00  0.00     0.003 A 
HETATM   22  C   UNL     1       0.536   7.566 -28.927  1.00  0.00     0.029 A 
BRANCH  19  23
HETATM   23  C   UNL     1      -2.318   6.462 -25.890  1.00  0.00     0.417 C 
HETATM   24  F   UNL     1      -3.577   6.230 -26.355  1.00  0.00    -0.166 F 
HETATM   25  F   UNL     1      -1.958   5.335 -25.218  1.00  0.00    -0.166 F 
HETATM   26  F   UNL     1      -2.442   7.439 -24.950  1.00  0.00    -0.166 F 
ENDBRANCH  19  23
ENDBRANCH  14  17
ENDBRANCH  12  13
ENDBRANCH   7  12
BRANCH   1  27
HETATM   27  C   UNL     1      -6.514   1.079 -32.051  1.00  0.00     0.259 C 
HETATM   28  N   UNL     1      -6.651   0.654 -33.362  1.00  0.00    -0.355 N 
HETATM   29  H   UNL     1      -5.963   0.992 -34.027  1.00  0.00     0.162 HD
HETATM   30  O   UNL     1      -7.070   0.439 -31.157  1.00  0.00    -0.267 OA
BRANCH  28  31
HETATM   31  C   UNL     1      -7.425  -0.534 -33.672  1.00  0.00     0.150 C 
BRANCH  31  32
HETATM   32  C   UNL     1      -6.741  -1.429 -34.730  1.00  0.00     0.254 C 
BRANCH  32  33
HETATM   33  N   UNL     1      -5.660  -2.349 -34.174  1.00  0.00    -0.070 N 
HETATM   34  H   UNL     1      -6.030  -2.667 -33.268  1.00  0.00     0.279 HD
BRANCH  33  35
HETATM   35  C   UNL     1      -4.353  -1.647 -33.842  1.00  0.00     0.230 C 
HETATM   36  C   UNL     1      -3.761  -2.154 -32.540  1.00  0.00     0.034 C 
ENDBRANCH  33  35
BRANCH  33  37
HETATM   37  C   UNL     1      -5.412  -3.611 -34.977  1.00  0.00     0.230 C 
HETATM   38  C   UNL     1      -6.686  -4.417 -35.159  1.00  0.00     0.034 C 
ENDBRANCH  33  37
ENDBRANCH  32  33
ENDBRANCH  31  32
ENDBRANCH  28  31
ENDBRANCH   1  27
TORSDOF 10
ENDMDL
MODEL 4
REMARK VINA RESULT:      -7.9      4.425      8.209
REMARK  10 active torsions:
REMARK  status: ('A' for Active; 'I' for Inactive)
REMARK    1  A    between atoms: C_2  and  N_3 
REMARK    2  A    between atoms: N_3  and  C_5 
REMARK    3  A    between atoms: N_3  and  C_35 
REMARK    4  A    between atoms: C_5  and  C_6 
REMARK    5  A    between atoms: C_6  and  N_7 
REMARK       I    between atoms: N_7  and  C_8 
REMARK    6  A    between atoms: C_8  and  C_9 
REMARK    7  A    between atoms: N_15  and  C_16 
REMARK    8  A    between atoms: C_16  and  C_17 
REMARK       I    between atoms: C_17  and  N_18 
REMARK    9  A    between atoms: N_18  and  C_19 
REMARK   10  A    between atoms: C_21  and  C_22 
ROOT
HETATM    1  C   UNL     1      -2.990   5.728 -31.320  1.00  0.00     0.081 A 
HETATM    2  S   UNL     1      -4.219   6.650 -30.555  1.00  0.00    -0.063 SA
HETATM    3  C   UNL     1      -5.459   5.724 -31.247  1.00  0.00     0.116 A 
HETATM    4  C   UNL     1      -4.967   4.738 -32.073  1.00  0.00     0.075 A 
HETATM    5  C   UNL     1      -5.940   3.834 -32.676  1.00  0.00     0.262 C 
HETATM    6  O   UNL     1      -5.630   2.960 -33.482  1.00  0.00    -0.267 OA
HETATM    7  N   UNL     1      -7.242   4.020 -32.226  1.00  0.00    -0.299 N 
HETATM    8  C   UNL     1      -7.588   5.099 -31.437  1.00  0.00     0.214 C 
HETATM    9  N   UNL     1      -6.759   5.961 -30.944  1.00  0.00    -0.235 NA
HETATM   10  C   UNL     1      -3.520   4.738 -32.148  1.00  0.00    -0.021 A 
HETATM   11  C   UNL     1      -2.727   3.747 -32.945  1.00  0.00     0.051 C 
ENDROOT
BRANCH   7  12
HETATM   12  C   UNL     1      -8.250   3.043 -32.608  1.00  0.00     0.236 C 
BRANCH  12  13
HETATM   13  C   UNL     1      -8.719   2.222 -31.405  1.00  0.00     0.240 C 
HETATM   14  N   UNL     1      -8.000   1.116 -31.030  1.00  0.00    -0.326 N 
HETATM   15  H   UNL     1      -8.130   0.874 -30.053  1.00  0.00     0.169 HD
HETATM   16  O   UNL     1      -9.600   2.642 -30.650  1.00  0.00    -0.271 OA
BRANCH  14  17
HETATM   17  C   UNL     1      -7.155   0.283 -31.778  1.00  0.00     0.035 A 
HETATM   18  C   UNL     1      -5.799   0.116 -31.483  1.00  0.00     0.045 A 
HETATM   19  C   UNL     1      -4.983  -0.701 -32.283  1.00  0.00     0.050 A 
HETATM   20  C   UNL     1      -5.548  -1.350 -33.392  1.00  0.00     0.016 A 
HETATM   21  C   UNL     1      -6.890  -1.155 -33.712  1.00  0.00     0.003 A 
HETATM   22  C   UNL     1      -7.684  -0.322 -32.920  1.00  0.00     0.029 A 
BRANCH  19  23
HETATM   23  C   UNL     1      -3.512  -0.872 -31.983  1.00  0.00     0.417 C 
HETATM   24  F   UNL     1      -2.697  -0.335 -32.932  1.00  0.00    -0.166 F 
HETATM   25  F   UNL     1      -3.153  -0.282 -30.810  1.00  0.00    -0.166 F 
HETATM   26  F   UNL     1      -3.148  -2.179 -31.875  1.00  0.00    -0.166 F 
ENDBRANCH  19  23
ENDBRANCH  14  17
ENDBRANCH  12  13
ENDBRANCH   7  12
BRANCH   1  27
HETATM   27  C   UNL     1      -1.614   6.048 -30.964  1.00  0.00     0.259 C 
HETATM   28  N   UNL     1      -0.984   5.174 -30.094  1.00  0.00    -0.355 N 
HETATM   29  H   UNL     1      -1.368   4.237 -30.027  1.00  0.00     0.162 HD
HETATM   30  O   UNL     1      -1.001   7.042 -31.357  1.00  0.00    -0.267 OA
BRANCH  28  31
HETATM   31  C   UNL     1       0.381   5.420 -29.666  1.00  0.00     0.150 C 
BRANCH  31  32
HETATM   32  C   UNL     1       0.455   6.104 -28.282  1.00  0.00     0.254 C 
BRANCH  32  33
HETATM   33  N   UNL     1      -0.562   7.220 -28.076  1.00  0.00    -0.070 N 
HETATM   34  H   UNL     1      -1.069   7.279 -28.969  1.00  0.00     0.279 HD
BRANCH  33  35
HETATM   35  C   UNL     1       0.053   8.597 -27.880  1.00  0.00     0.230 C 
HETATM   36  C   UNL     1       1.568   8.532 -27.833  1.00  0.00     0.034 C 
ENDBRANCH  33  35
BRANCH  33  37
HETATM   37  C   UNL     1      -1.620   6.942 -27.026  1.00  0.00     0.230 C 
HETATM   38  C   UNL     1      -1.610   7.992 -25.930  1.00  0.00     0.034 C 
ENDBRANCH  33  37
ENDBRANCH  32  33
ENDBRANCH  31  32
ENDBRANCH  28  31
ENDBRANCH   1  27
TORSDOF 10
ENDMDL
MODEL 5
REMARK VINA RESULT:      -7.8      1.936      2.514
REMARK  10 active torsions:
REMARK  status: ('A' for Active; 'I' for Inactive)
REMARK    1  A    between atoms: C_2  and  N_3 
REMARK    2  A    between atoms: N_3  and  C_5 
REMARK    3  A    between atoms: N_3  and  C_35 
REMARK    4  A    between atoms: C_5  and  C_6 
REMARK    5  A    between atoms: C_6  and  N_7 
REMARK       I    between atoms: N_7  and  C_8 
REMARK    6  A    between atoms: C_8  and  C_9 
REMARK    7  A    between atoms: N_15  and  C_16 
REMARK    8  A    between atoms: C_16  and  C_17 
REMARK       I    between atoms: C_17  and  N_18 
REMARK    9  A    between atoms: N_18  and  C_19 
REMARK   10  A    between atoms: C_21  and  C_22 
ROOT
HETATM    1  C   UNL     1     -10.106   2.606 -32.688  1.00  0.00     0.081 A 
HETATM    2  S   UNL     1      -9.221   3.964 -32.125  1.00  0.00    -0.063 SA
HETATM    3  C   UNL     1      -7.974   2.997 -31.503  1.00  0.00     0.116 A 
HETATM    4  C   UNL     1      -8.222   1.654 -31.688  1.00  0.00     0.075 A 
HETATM    5  C   UNL     1      -7.186   0.724 -31.251  1.00  0.00     0.262 C 
HETATM    6  O   UNL     1      -7.321  -0.496 -31.300  1.00  0.00    -0.267 OA
HETATM    7  N   UNL     1      -6.019   1.340 -30.814  1.00  0.00    -0.299 N 
HETATM    8  C   UNL     1      -5.947   2.707 -30.628  1.00  0.00     0.214 C 
HETATM    9  N   UNL     1      -6.874   3.553 -30.939  1.00  0.00    -0.235 NA
HETATM   10  C   UNL     1      -9.480   1.403 -32.361  1.00  0.00    -0.021 A 
HETATM   11  C   UNL     1      -9.974   0.034 -32.719  1.00  0.00     0.051 C 
ENDROOT
BRANCH   7  12
HETATM   12  C   UNL     1      -4.856   0.506 -30.550  1.00  0.00     0.236 C 
BRANCH  12  13
HETATM   13  C   UNL     1      -3.697   0.848 -31.487  1.00  0.00     0.240 C 
HETATM   14  N   UNL     1      -3.727   0.394 -32.781  1.00  0.00    -0.326 N 
HETATM   15  H   UNL     1      -3.165   0.958 -33.410  1.00  0.00     0.169 HD
HETATM   16  O   UNL     1      -2.845   1.683 -31.171  1.00  0.00    -0.271 OA
BRANCH  14  17
HETATM   17  C   UNL     1      -4.382  -0.713 -33.342  1.00  0.00     0.035 A 
HETATM   18  C   UNL     1      -3.883  -2.016 -33.252  1.00  0.00     0.045 A 
HETATM   19  C   UNL     1      -4.556  -3.088 -33.863  1.00  0.00     0.050 A 
HETATM   20  C   UNL     1      -5.740  -2.834 -34.570  1.00  0.00     0.016 A 
HETATM   21  C   UNL     1      -6.220  -1.531 -34.695  1.00  0.00     0.003 A 
HETATM   22  C   UNL     1      -5.529  -0.472 -34.102  1.00  0.00     0.029 A 
BRANCH  19  23
HETATM   23  C   UNL     1      -4.014  -4.496 -33.786  1.00  0.00     0.417 C 
HETATM   24  F   UNL     1      -3.587  -4.849 -32.542  1.00  0.00    -0.166 F 
HETATM   25  F   UNL     1      -4.944  -5.427 -34.136  1.00  0.00    -0.166 F 
HETATM   26  F   UNL     1      -2.952  -4.694 -34.614  1.00  0.00    -0.166 F 
ENDBRANCH  19  23
ENDBRANCH  14  17
ENDBRANCH  12  13
ENDBRANCH   7  12
BRANCH   1  27
HETATM   27  C   UNL     1     -11.311   2.884 -33.458  1.00  0.00     0.259 C 
HETATM   28  N   UNL     1     -11.128   3.494 -34.688  1.00  0.00    -0.355 N 
HETATM   29  H   UNL     1     -10.210   3.407 -35.111  1.00  0.00     0.162 HD
HETATM   30  O   UNL     1     -12.457   2.643 -33.077  1.00  0.00    -0.267 OA
BRANCH  28  31
HETATM   31  C   UNL     1     -12.271   3.829 -35.519  1.00  0.00     0.150 C 
BRANCH  31  32
HETATM   32  C   UNL     1     -12.540   5.350 -35.572  1.00  0.00     0.254 C 
BRANCH  32  33
HETATM   33  N   UNL     1     -13.908   5.767 -35.045  1.00  0.00    -0.070 N 
HETATM   34  H   UNL     1     -14.524   4.971 -35.260  1.00  0.00     0.279 HD
BRANCH  33  35
HETATM   35  C   UNL     1     -14.524   6.950 -35.773  1.00  0.00     0.230 C 
HETATM   36  C   UNL     1     -14.119   6.981 -37.235  1.00  0.00     0.034 C 
ENDBRANCH  33  35
BRANCH  33  37
HETATM   37  C   UNL     1     -13.991   5.949 -33.542  1.00  0.00     0.230 C 
HETATM   38  C   UNL     1     -14.638   7.271 -33.174  1.00  0.00     0.034 C 
ENDBRANCH  33  37
ENDBRANCH  32  33
ENDBRANCH  31  32
ENDBRANCH  28  31
ENDBRANCH   1  27
TORSDOF 10
ENDMDL
MODEL 6
REMARK VINA RESULT:      -7.8      6.347      8.155
REMARK  10 active torsions:
REMARK  status: ('A' for Active; 'I' for Inactive)
REMARK    1  A    between atoms: C_2  and  N_3 
REMARK    2  A    between atoms: N_3  and  C_5 
REMARK    3  A    between atoms: N_3  and  C_35 
REMARK    4  A    between atoms: C_5  and  C_6 
REMARK    5  A    between atoms: C_6  and  N_7 
REMARK       I    between atoms: N_7  and  C_8 
REMARK    6  A    between atoms: C_8  and  C_9 
REMARK    7  A    between atoms: N_15  and  C_16 
REMARK    8  A    between atoms: C_16  and  C_17 
REMARK       I    between atoms: C_17  and  N_18 
REMARK    9  A    between atoms: N_18  and  C_19 
REMARK   10  A    between atoms: C_21  and  C_22 
ROOT
HETATM    1  C   UNL     1      -7.280   3.190 -32.842  1.00  0.00     0.081 A 
HETATM    2  S   UNL     1      -5.785   2.406 -33.151  1.00  0.00    -0.063 SA
HETATM    3  C   UNL     1      -4.900   3.841 -32.964  1.00  0.00     0.116 A 
HETATM    4  C   UNL     1      -5.715   4.918 -32.696  1.00  0.00     0.075 A 
HETATM    5  C   UNL     1      -5.060   6.199 -32.451  1.00  0.00     0.262 C 
HETATM    6  O   UNL     1      -5.681   7.243 -32.270  1.00  0.00    -0.267 OA
HETATM    7  N   UNL     1      -3.673   6.125 -32.398  1.00  0.00    -0.299 N 
HETATM    8  C   UNL     1      -2.995   4.975 -32.751  1.00  0.00     0.214 C 
HETATM    9  N   UNL     1      -3.547   3.841 -33.044  1.00  0.00    -0.235 NA
HETATM   10  C   UNL     1      -7.119   4.562 -32.643  1.00  0.00    -0.021 A 
HETATM   11  C   UNL     1      -8.214   5.536 -32.333  1.00  0.00     0.051 C 
ENDROOT
BRANCH   7  12
HETATM   12  C   UNL     1      -2.936   7.300 -31.959  1.00  0.00     0.236 C 
BRANCH  12  13
HETATM   13  C   UNL     1      -1.673   7.514 -32.795  1.00  0.00     0.240 C 
HETATM   14  N   UNL     1      -0.492   6.957 -32.377  1.00  0.00    -0.326 N 
HETATM   15  H   UNL     1       0.166   6.811 -33.135  1.00  0.00     0.169 HD
HETATM   16  O   UNL     1      -1.732   7.998 -33.929  1.00  0.00    -0.271 OA
BRANCH  14  17
HETATM   17  C   UNL     1      -0.063   6.589 -31.092  1.00  0.00     0.035 A 
HETATM   18  C   UNL     1       0.276   7.523 -30.109  1.00  0.00     0.045 A 
HETATM   19  C   UNL     1       0.735   7.106 -28.848  1.00  0.00     0.050 A 
HETATM   20  C   UNL     1       0.853   5.733 -28.586  1.00  0.00     0.016 A 
HETATM   21  C   UNL     1       0.553   4.800 -29.577  1.00  0.00     0.003 A 
HETATM   22  C   UNL     1       0.119   5.229 -30.833  1.00  0.00     0.029 A 
BRANCH  19  23
HETATM   23  C   UNL     1       1.122   8.109 -27.786  1.00  0.00     0.417 C 
HETATM   24  F   UNL     1       2.121   8.951 -28.171  1.00  0.00    -0.166 F 
HETATM   25  F   UNL     1       0.081   8.909 -27.428  1.00  0.00    -0.166 F 
HETATM   26  F   UNL     1       1.555   7.517 -26.639  1.00  0.00    -0.166 F 
ENDBRANCH  19  23
ENDBRANCH  14  17
ENDBRANCH  12  13
ENDBRANCH   7  12
BRANCH   1  27
HETATM   27  C   UNL     1      -8.462   2.341 -32.767  1.00  0.00     0.259 C 
HETATM   28  N   UNL     1      -9.254   2.289 -33.902  1.00  0.00    -0.355 N 
HETATM   29  H   UNL     1      -8.816   2.551 -34.779  1.00  0.00     0.162 HD
HETATM   30  O   UNL     1      -8.808   1.708 -31.770  1.00  0.00    -0.267 OA
BRANCH  28  31
HETATM   31  C   UNL     1     -10.464   1.486 -33.916  1.00  0.00     0.150 C 
BRANCH  31  32
HETATM   32  C   UNL     1     -11.745   2.345 -34.003  1.00  0.00     0.254 C 
BRANCH  32  33
HETATM   33  N   UNL     1     -12.917   1.813 -33.188  1.00  0.00    -0.070 N 
HETATM   34  H   UNL     1     -12.529   1.650 -32.248  1.00  0.00     0.279 HD
BRANCH  33  35
HETATM   35  C   UNL     1     -13.429   0.455 -33.642  1.00  0.00     0.230 C 
HETATM   36  C   UNL     1     -14.820   0.553 -34.241  1.00  0.00     0.034 C 
ENDBRANCH  33  35
BRANCH  33  37
HETATM   37  C   UNL     1     -14.061   2.788 -32.991  1.00  0.00     0.230 C 
HETATM   38  C   UNL     1     -14.224   3.171 -31.531  1.00  0.00     0.034 C 
ENDBRANCH  33  37
ENDBRANCH  32  33
ENDBRANCH  31  32
ENDBRANCH  28  31
ENDBRANCH   1  27
TORSDOF 10
ENDMDL
MODEL 7
REMARK VINA RESULT:      -7.7      6.335      9.037
REMARK  10 active torsions:
REMARK  status: ('A' for Active; 'I' for Inactive)
REMARK    1  A    between atoms: C_2  and  N_3 
REMARK    2  A    between atoms: N_3  and  C_5 
REMARK    3  A    between atoms: N_3  and  C_35 
REMARK    4  A    between atoms: C_5  and  C_6 
REMARK    5  A    between atoms: C_6  and  N_7 
REMARK       I    between atoms: N_7  and  C_8 
REMARK    6  A    between atoms: C_8  and  C_9 
REMARK    7  A    between atoms: N_15  and  C_16 
REMARK    8  A    between atoms: C_16  and  C_17 
REMARK       I    between atoms: C_17  and  N_18 
REMARK    9  A    between atoms: N_18  and  C_19 
REMARK   10  A    between atoms: C_21  and  C_22 
ROOT
HETATM    1  C   UNL     1      -6.794   2.921 -33.175  1.00  0.00     0.081 A 
HETATM    2  S   UNL     1      -7.633   4.399 -33.410  1.00  0.00    -0.063 SA
HETATM    3  C   UNL     1      -6.401   5.310 -32.682  1.00  0.00     0.116 A 
HETATM    4  C   UNL     1      -5.368   4.515 -32.236  1.00  0.00     0.075 A 
HETATM    5  C   UNL     1      -4.218   5.195 -31.648  1.00  0.00     0.262 C 
HETATM    6  O   UNL     1      -3.268   4.593 -31.154  1.00  0.00    -0.267 OA
HETATM    7  N   UNL     1      -4.273   6.581 -31.736  1.00  0.00    -0.299 N 
HETATM    8  C   UNL     1      -5.413   7.235 -32.159  1.00  0.00     0.214 C 
HETATM    9  N   UNL     1      -6.477   6.661 -32.619  1.00  0.00    -0.235 NA
HETATM   10  C   UNL     1      -5.590   3.107 -32.494  1.00  0.00    -0.021 A 
HETATM   11  C   UNL     1      -4.607   2.031 -32.145  1.00  0.00     0.051 C 
ENDROOT
BRANCH   7  12
HETATM   12  C   UNL     1      -3.089   7.342 -31.367  1.00  0.00     0.236 C 
BRANCH  12  13
HETATM   13  C   UNL     1      -1.993   7.222 -32.426  1.00  0.00     0.240 C 
HETATM   14  N   UNL     1      -0.840   6.545 -32.121  1.00  0.00    -0.326 N 
HETATM   15  H   UNL     1      -0.365   6.184 -32.942  1.00  0.00     0.169 HD
HETATM   16  O   UNL     1      -2.202   7.540 -33.600  1.00  0.00    -0.271 OA
BRANCH  14  17
HETATM   17  C   UNL     1      -0.228   6.301 -30.882  1.00  0.00     0.035 A 
HETATM   18  C   UNL     1       0.095   7.321 -29.982  1.00  0.00     0.045 A 
HETATM   19  C   UNL     1       0.741   7.031 -28.768  1.00  0.00     0.050 A 
HETATM   20  C   UNL     1       1.064   5.699 -28.470  1.00  0.00     0.016 A 
HETATM   21  C   UNL     1       0.779   4.685 -29.382  1.00  0.00     0.003 A 
HETATM   22  C   UNL     1       0.157   4.990 -30.594  1.00  0.00     0.029 A 
BRANCH  19  23
HETATM   23  C   UNL     1       1.111   8.129 -27.798  1.00  0.00     0.417 C 
HETATM   24  F   UNL     1       0.059   8.918 -27.443  1.00  0.00    -0.166 F 
HETATM   25  F   UNL     1       1.616   7.640 -26.633  1.00  0.00    -0.166 F 
HETATM   26  F   UNL     1       2.057   8.971 -28.296  1.00  0.00    -0.166 F 
ENDBRANCH  19  23
ENDBRANCH  14  17
ENDBRANCH  12  13
ENDBRANCH   7  12
BRANCH   1  27
HETATM   27  C   UNL     1      -7.396   1.727 -33.752  1.00  0.00     0.259 C 
HETATM   28  N   UNL     1      -6.571   0.940 -34.537  1.00  0.00    -0.355 N 
HETATM   29  H   UNL     1      -5.571   1.041 -34.397  1.00  0.00     0.162 HD
HETATM   30  O   UNL     1      -8.575   1.399 -33.613  1.00  0.00    -0.267 OA
BRANCH  28  31
HETATM   31  C   UNL     1      -7.087  -0.260 -35.172  1.00  0.00     0.150 C 
BRANCH  31  32
HETATM   32  C   UNL     1      -6.841  -1.531 -34.329  1.00  0.00     0.254 C 
BRANCH  32  33
HETATM   33  N   UNL     1      -5.855  -2.516 -34.946  1.00  0.00    -0.070 N 
HETATM   34  H   UNL     1      -5.717  -2.179 -35.909  1.00  0.00     0.279 HD
BRANCH  33  35
HETATM   35  C   UNL     1      -6.395  -3.929 -35.097  1.00  0.00     0.230 C 
HETATM   36  C   UNL     1      -5.389  -4.966 -34.631  1.00  0.00     0.034 C 
ENDBRANCH  33  35
BRANCH  33  37
HETATM   37  C   UNL     1      -4.474  -2.524 -34.318  1.00  0.00     0.230 C 
HETATM   38  C   UNL     1      -4.429  -1.683 -33.055  1.00  0.00     0.034 C 
ENDBRANCH  33  37
ENDBRANCH  32  33
ENDBRANCH  31  32
ENDBRANCH  28  31
ENDBRANCH   1  27
TORSDOF 10
ENDMDL
MODEL 8
REMARK VINA RESULT:      -7.6      2.544      7.369
REMARK  10 active torsions:
REMARK  status: ('A' for Active; 'I' for Inactive)
REMARK    1  A    between atoms: C_2  and  N_3 
REMARK    2  A    between atoms: N_3  and  C_5 
REMARK    3  A    between atoms: N_3  and  C_35 
REMARK    4  A    between atoms: C_5  and  C_6 
REMARK    5  A    between atoms: C_6  and  N_7 
REMARK       I    between atoms: N_7  and  C_8 
REMARK    6  A    between atoms: C_8  and  C_9 
REMARK    7  A    between atoms: N_15  and  C_16 
REMARK    8  A    between atoms: C_16  and  C_17 
REMARK       I    between atoms: C_17  and  N_18 
REMARK    9  A    between atoms: N_18  and  C_19 
REMARK   10  A    between atoms: C_21  and  C_22 
ROOT
HETATM    1  C   UNL     1      -6.232   1.660 -31.851  1.00  0.00     0.081 A 
HETATM    2  S   UNL     1      -6.546   2.307 -30.293  1.00  0.00    -0.063 SA
HETATM    3  C   UNL     1      -7.380   3.642 -30.926  1.00  0.00     0.116 A 
HETATM    4  C   UNL     1      -7.407   3.627 -32.303  1.00  0.00     0.075 A 
HETATM    5  C   UNL     1      -8.155   4.694 -32.960  1.00  0.00     0.262 C 
HETATM    6  O   UNL     1      -8.194   4.827 -34.181  1.00  0.00    -0.267 OA
HETATM    7  N   UNL     1      -8.852   5.520 -32.086  1.00  0.00    -0.299 N 
HETATM    8  C   UNL     1      -8.673   5.443 -30.719  1.00  0.00     0.214 C 
HETATM    9  N   UNL     1      -7.960   4.554 -30.107  1.00  0.00    -0.235 NA
HETATM   10  C   UNL     1      -6.718   2.484 -32.867  1.00  0.00    -0.021 A 
HETATM   11  C   UNL     1      -6.630   2.207 -34.337  1.00  0.00     0.051 C 
ENDROOT
BRANCH   7  12
HETATM   12  C   UNL     1      -9.787   6.484 -32.646  1.00  0.00     0.236 C 
BRANCH  12  13
HETATM   13  C   UNL     1     -11.194   6.293 -32.080  1.00  0.00     0.240 C 
HETATM   14  N   UNL     1     -11.756   5.042 -32.094  1.00  0.00    -0.326 N 
HETATM   15  H   UNL     1     -12.474   4.924 -31.387  1.00  0.00     0.169 HD
HETATM   16  O   UNL     1     -11.750   7.186 -31.434  1.00  0.00    -0.271 OA
BRANCH  14  17
HETATM   17  C   UNL     1     -11.508   3.941 -32.929  1.00  0.00     0.035 A 
HETATM   18  C   UNL     1     -10.905   2.765 -32.473  1.00  0.00     0.045 A 
HETATM   19  C   UNL     1     -10.643   1.702 -33.355  1.00  0.00     0.050 A 
HETATM   20  C   UNL     1     -10.992   1.838 -34.707  1.00  0.00     0.016 A 
HETATM   21  C   UNL     1     -11.557   3.024 -35.172  1.00  0.00     0.003 A 
HETATM   22  C   UNL     1     -11.791   4.081 -34.289  1.00  0.00     0.029 A 
BRANCH  19  23
HETATM   23  C   UNL     1      -9.976   0.435 -32.876  1.00  0.00     0.417 C 
HETATM   24  F   UNL     1      -8.997  -0.014 -33.709  1.00  0.00    -0.166 F 
HETATM   25  F   UNL     1      -9.383   0.592 -31.660  1.00  0.00    -0.166 F 
HETATM   26  F   UNL     1     -10.851  -0.598 -32.738  1.00  0.00    -0.166 F 
ENDBRANCH  19  23
ENDBRANCH  14  17
ENDBRANCH  12  13
ENDBRANCH   7  12
BRANCH   1  27
HETATM   27  C   UNL     1      -5.583   0.357 -31.900  1.00  0.00     0.259 C 
HETATM   28  N   UNL     1      -4.288   0.333 -32.392  1.00  0.00    -0.355 N 
HETATM   29  H   UNL     1      -3.772   1.206 -32.368  1.00  0.00     0.162 HD
HETATM   30  O   UNL     1      -6.113  -0.704 -31.569  1.00  0.00    -0.267 OA
BRANCH  28  31
HETATM   31  C   UNL     1      -3.566  -0.922 -32.499  1.00  0.00     0.150 C 
BRANCH  31  32
HETATM   32  C   UNL     1      -3.790  -1.622 -33.858  1.00  0.00     0.254 C 
BRANCH  32  33
HETATM   33  N   UNL     1      -4.804  -2.760 -33.821  1.00  0.00    -0.070 N 
HETATM   34  H   UNL     1      -5.039  -2.868 -32.825  1.00  0.00     0.279 HD
BRANCH  33  35
HETATM   35  C   UNL     1      -4.244  -4.109 -34.242  1.00  0.00     0.230 C 
HETATM   36  C   UNL     1      -3.377  -4.719 -33.156  1.00  0.00     0.034 C 
ENDBRANCH  33  35
BRANCH  33  37
HETATM   37  C   UNL     1      -6.119  -2.474 -34.519  1.00  0.00     0.230 C 
HETATM   38  C   UNL     1      -6.867  -3.753 -34.849  1.00  0.00     0.034 C 
ENDBRANCH  33  37
ENDBRANCH  32  33
ENDBRANCH  31  32
ENDBRANCH  28  31
ENDBRANCH   1  27
TORSDOF 10
ENDMDL
MODEL 9
REMARK VINA RESULT:      -7.6      4.048      7.566
REMARK  10 active torsions:
REMARK  status: ('A' for Active; 'I' for Inactive)
REMARK    1  A    between atoms: C_2  and  N_3 
REMARK    2  A    between atoms: N_3  and  C_5 
REMARK    3  A    between atoms: N_3  and  C_35 
REMARK    4  A    between atoms: C_5  and  C_6 
REMARK    5  A    between atoms: C_6  and  N_7 
REMARK       I    between atoms: N_7  and  C_8 
REMARK    6  A    between atoms: C_8  and  C_9 
REMARK    7  A    between atoms: N_15  and  C_16 
REMARK    8  A    between atoms: C_16  and  C_17 
REMARK       I    between atoms: C_17  and  N_18 
REMARK    9  A    between atoms: N_18  and  C_19 
REMARK   10  A    between atoms: C_21  and  C_22 
ROOT
HETATM    1  C   UNL     1      -4.886   6.299 -32.271  1.00  0.00     0.081 A 
HETATM    2  S   UNL     1      -6.476   6.944 -32.257  1.00  0.00    -0.063 SA
HETATM    3  C   UNL     1      -7.134   5.558 -32.981  1.00  0.00     0.116 A 
HETATM    4  C   UNL     1      -6.169   4.616 -33.261  1.00  0.00     0.075 A 
HETATM    5  C   UNL     1      -6.624   3.351 -33.828  1.00  0.00     0.262 C 
HETATM    6  O   UNL     1      -5.854   2.463 -34.183  1.00  0.00    -0.267 OA
HETATM    7  N   UNL     1      -8.007   3.224 -33.891  1.00  0.00    -0.299 N 
HETATM    8  C   UNL     1      -8.845   4.289 -33.627  1.00  0.00     0.214 C 
HETATM    9  N   UNL     1      -8.468   5.447 -33.191  1.00  0.00    -0.235 NA
HETATM   10  C   UNL     1      -4.839   5.041 -32.874  1.00  0.00    -0.021 A 
HETATM   11  C   UNL     1      -3.614   4.192 -33.033  1.00  0.00     0.051 C 
ENDROOT
BRANCH   7  12
HETATM   12  C   UNL     1      -8.564   1.928 -34.248  1.00  0.00     0.236 C 
BRANCH  12  13
HETATM   13  C   UNL     1      -9.104   1.193 -33.020  1.00  0.00     0.240 C 
HETATM   14  N   UNL     1      -8.290   0.310 -32.358  1.00  0.00    -0.326 N 
HETATM   15  H   UNL     1      -8.558   0.176 -31.389  1.00  0.00     0.169 HD
HETATM   16  O   UNL     1     -10.171   1.524 -32.495  1.00  0.00    -0.271 OA
BRANCH  14  17
HETATM   17  C   UNL     1      -7.187  -0.429 -32.814  1.00  0.00     0.035 A 
HETATM   18  C   UNL     1      -5.943  -0.406 -32.176  1.00  0.00     0.045 A 
HETATM   19  C   UNL     1      -4.857  -1.135 -32.691  1.00  0.00     0.050 A 
HETATM   20  C   UNL     1      -5.036  -1.886 -33.862  1.00  0.00     0.016 A 
HETATM   21  C   UNL     1      -6.263  -1.880 -34.522  1.00  0.00     0.003 A 
HETATM   22  C   UNL     1      -7.327  -1.134 -34.011  1.00  0.00     0.029 A 
BRANCH  19  23
HETATM   23  C   UNL     1      -3.505  -1.101 -32.019  1.00  0.00     0.417 C 
HETATM   24  F   UNL     1      -2.556  -0.438 -32.736  1.00  0.00    -0.166 F 
HETATM   25  F   UNL     1      -3.547  -0.488 -30.805  1.00  0.00    -0.166 F 
HETATM   26  F   UNL     1      -3.000  -2.346 -31.795  1.00  0.00    -0.166 F 
ENDBRANCH  19  23
ENDBRANCH  14  17
ENDBRANCH  12  13
ENDBRANCH   7  12
BRANCH   1  27
HETATM   27  C   UNL     1      -3.852   7.091 -31.619  1.00  0.00     0.259 C 
HETATM   28  N   UNL     1      -4.080   7.431 -30.296  1.00  0.00    -0.355 N 
HETATM   29  H   UNL     1      -4.743   6.859 -29.784  1.00  0.00     0.162 HD
HETATM   30  O   UNL     1      -2.827   7.495 -32.169  1.00  0.00    -0.267 OA
BRANCH  28  31
HETATM   31  C   UNL     1      -3.116   8.237 -29.568  1.00  0.00     0.150 C 
BRANCH  31  32
HETATM   32  C   UNL     1      -2.079   7.380 -28.808  1.00  0.00     0.254 C 
BRANCH  32  33
HETATM   33  N   UNL     1      -0.776   7.150 -29.563  1.00  0.00    -0.070 N 
HETATM   34  H   UNL     1      -0.877   7.696 -30.430  1.00  0.00     0.279 HD
BRANCH  33  35
HETATM   35  C   UNL     1      -0.564   5.717 -30.024  1.00  0.00     0.230 C 
HETATM   36  C   UNL     1       0.345   5.647 -31.237  1.00  0.00     0.034 C 
ENDBRANCH  33  35
BRANCH  33  37
HETATM   37  C   UNL     1       0.466   7.694 -28.885  1.00  0.00     0.230 C 
HETATM   38  C   UNL     1       0.879   6.836 -27.703  1.00  0.00     0.034 C 
ENDBRANCH  33  37
ENDBRANCH  32  33
ENDBRANCH  31  32
ENDBRANCH  28  31
ENDBRANCH   1  27
TORSDOF 10
ENDMDL
MODEL 10
REMARK VINA RESULT:      -7.6      4.693      8.905
REMARK  10 active torsions:
REMARK  status: ('A' for Active; 'I' for Inactive)
REMARK    1  A    between atoms: C_2  and  N_3 
REMARK    2  A    between atoms: N_3  and  C_5 
REMARK    3  A    between atoms: N_3  and  C_35 
REMARK    4  A    between atoms: C_5  and  C_6 
REMARK    5  A    between atoms: C_6  and  N_7 
REMARK       I    between atoms: N_7  and  C_8 
REMARK    6  A    between atoms: C_8  and  C_9 
REMARK    7  A    between atoms: N_15  and  C_16 
REMARK    8  A    between atoms: C_16  and  C_17 
REMARK       I    between atoms: C_17  and  N_18 
REMARK    9  A    between atoms: N_18  and  C_19 
REMARK   10  A    between atoms: C_21  and  C_22 
ROOT
HETATM    1  C   UNL     1      -3.678   3.619 -31.691  1.00  0.00     0.081 A 
HETATM    2  S   UNL     1      -3.330   1.973 -31.351  1.00  0.00    -0.063 SA
HETATM    3  C   UNL     1      -4.941   1.497 -31.587  1.00  0.00     0.116 A 
HETATM    4  C   UNL     1      -5.754   2.566 -31.895  1.00  0.00     0.075 A 
HETATM    5  C   UNL     1      -7.153   2.270 -32.183  1.00  0.00     0.262 C 
HETATM    6  O   UNL     1      -7.989   3.144 -32.402  1.00  0.00    -0.267 OA
HETATM    7  N   UNL     1      -7.448   0.913 -32.230  1.00  0.00    -0.299 N 
HETATM    8  C   UNL     1      -6.531  -0.042 -31.835  1.00  0.00     0.214 C 
HETATM    9  N   UNL     1      -5.303   0.194 -31.504  1.00  0.00    -0.235 NA
HETATM   10  C   UNL     1      -5.036   3.824 -31.937  1.00  0.00    -0.021 A 
HETATM   11  C   UNL     1      -5.674   5.135 -32.285  1.00  0.00     0.051 C 
ENDROOT
BRANCH   7  12
HETATM   12  C   UNL     1      -8.761   0.508 -32.709  1.00  0.00     0.236 C 
BRANCH  12  13
HETATM   13  C   UNL     1      -8.832   0.531 -34.236  1.00  0.00     0.240 C 
HETATM   14  N   UNL     1      -9.726   1.368 -34.852  1.00  0.00    -0.326 N 
HETATM   15  H   UNL     1      -9.455   1.608 -35.799  1.00  0.00     0.169 HD
HETATM   16  O   UNL     1      -7.973  -0.029 -34.924  1.00  0.00    -0.271 OA
BRANCH  14  17
HETATM   17  C   UNL     1     -10.935   1.909 -34.387  1.00  0.00     0.035 A 
HETATM   18  C   UNL     1     -12.071   1.131 -34.144  1.00  0.00     0.045 A 
HETATM   19  C   UNL     1     -13.271   1.723 -33.714  1.00  0.00     0.050 A 
HETATM   20  C   UNL     1     -13.317   3.114 -33.534  1.00  0.00     0.016 A 
HETATM   21  C   UNL     1     -12.199   3.897 -33.813  1.00  0.00     0.003 A 
HETATM   22  C   UNL     1     -11.020   3.297 -34.261  1.00  0.00     0.029 A 
BRANCH  19  23
HETATM   23  C   UNL     1     -14.508   0.892 -33.466  1.00  0.00     0.417 C 
HETATM   24  F   UNL     1     -14.238  -0.404 -33.148  1.00  0.00    -0.166 F 
HETATM   25  F   UNL     1     -15.258   1.377 -32.439  1.00  0.00    -0.166 F 
HETATM   26  F   UNL     1     -15.333   0.846 -34.548  1.00  0.00    -0.166 F 
ENDBRANCH  19  23
ENDBRANCH  14  17
ENDBRANCH  12  13
ENDBRANCH   7  12
BRANCH   1  27
HETATM   27  C   UNL     1      -2.545   4.532 -31.738  1.00  0.00     0.259 C 
HETATM   28  N   UNL     1      -2.353   5.333 -30.625  1.00  0.00    -0.355 N 
HETATM   29  H   UNL     1      -2.774   5.019 -29.757  1.00  0.00     0.162 HD
HETATM   30  O   UNL     1      -1.783   4.655 -32.698  1.00  0.00    -0.267 OA
BRANCH  28  31
HETATM   31  C   UNL     1      -1.262   6.290 -30.587  1.00  0.00     0.150 C 
BRANCH  31  32
HETATM   32  C   UNL     1      -0.234   5.975 -29.477  1.00  0.00     0.254 C 
BRANCH  32  33
HETATM   33  N   UNL     1      -0.206   6.986 -28.338  1.00  0.00    -0.070 N 
HETATM   34  H   UNL     1      -1.096   7.498 -28.422  1.00  0.00     0.279 HD
BRANCH  33  35
HETATM   35  C   UNL     1       0.873   8.049 -28.471  1.00  0.00     0.230 C 
HETATM   36  C   UNL     1       1.624   8.251 -27.169  1.00  0.00     0.034 C 
ENDBRANCH  33  35
BRANCH  33  37
HETATM   37  C   UNL     1      -0.213   6.389 -26.945  1.00  0.00     0.230 C 
HETATM   38  C   UNL     1      -1.556   6.577 -26.262  1.00  0.00     0.034 C 
ENDBRANCH  33  37
ENDBRANCH  32  33
ENDBRANCH  31  32
ENDBRANCH  28  31
ENDBRANCH   1  27
TORSDOF 10
ENDMDL
