MODEL 1
REMARK VINA RESULT:      -9.1      0.000      0.000
REMARK  8 active torsions:
REMARK  status: ('A' for Active; 'I' for Inactive)
REMARK    1  A    between atoms: N_4  and  C_5 
REMARK    2  A    between atoms: C_14  and  C_15 
REMARK    3  A    between atoms: C_15  and  C_16 
REMARK    4  A    between atoms: C_16  and  C_17 
REMARK       I    between atoms: C_17  and  N_18 
REMARK    5  A    between atoms: N_18  and  C_19 
REMARK    6  A    between atoms: C_22  and  S_23 
REMARK    7  A    between atoms: S_23  and  N_24 
REMARK    8  A    between atoms: N_24  and  C_25 
ROOT
HETATM    1  C   UNL     1      -7.308   3.392 -31.300  1.00  0.00     0.222 C 
HETATM    2  N   UNL     1      -8.371   2.549 -31.026  1.00  0.00    -0.327 N 
HETATM    3  O   UNL     1      -7.118   4.014 -32.341  1.00  0.00    -0.273 OA
HETATM    4  H   UNL     1      -8.387   2.111 -30.114  1.00  0.00     0.169 HD
ENDROOT
BRANCH   1   5
HETATM    5  C   UNL     1      -6.320   3.514 -30.153  1.00  0.00     0.108 C 
BRANCH   5   6
HETATM    6  C   UNL     1      -5.569   2.206 -29.920  1.00  0.00     0.055 C 
BRANCH   6   7
HETATM    7  C   UNL     1      -5.086   1.469 -31.125  1.00  0.00     0.030 A 
HETATM    8  C   UNL     1      -4.158   1.659 -32.080  1.00  0.00     0.014 A 
HETATM    9  C   UNL     1      -3.223   2.810 -32.249  1.00  0.00     0.064 C 
HETATM   10  N   UNL     1      -4.134   0.631 -33.016  1.00  0.00    -0.199 NA
HETATM   11  N   UNL     1      -5.160  -0.256 -32.672  1.00  0.00    -0.238 N 
HETATM   12  H   UNL     1      -4.223   0.991 -33.968  1.00  0.00     0.153 HD
HETATM   13  C   UNL     1      -5.767   0.186 -31.499  1.00  0.00     0.270 A 
HETATM   14  O   UNL     1      -6.671  -0.300 -30.839  1.00  0.00    -0.266 OA
BRANCH  11  15
HETATM   15  C   UNL     1      -5.387  -1.430 -33.420  1.00  0.00     0.055 A 
HETATM   16  C   UNL     1      -4.351  -2.344 -33.669  1.00  0.00     0.034 A 
HETATM   17  C   UNL     1      -4.583  -3.512 -34.404  1.00  0.00     0.044 A 
HETATM   18  C   UNL     1      -5.853  -3.773 -34.895  1.00  0.00     0.116 A 
HETATM   19  F   UNL     1      -6.076  -4.891 -35.597  1.00  0.00    -0.206 F 
HETATM   20  C   UNL     1      -6.897  -2.886 -34.668  1.00  0.00     0.044 A 
HETATM   21  C   UNL     1      -6.663  -1.718 -33.936  1.00  0.00     0.034 A 
ENDBRANCH  11  15
ENDBRANCH   6   7
ENDBRANCH   5   6
ENDBRANCH   1   5
BRANCH   2  22
HETATM   22  C   UNL     1      -9.418   2.183 -31.897  1.00  0.00     0.034 A 
HETATM   23  C   UNL     1      -9.542   0.920 -32.482  1.00  0.00     0.031 A 
HETATM   24  C   UNL     1     -10.624   0.624 -33.316  1.00  0.00     0.027 A 
HETATM   25  C   UNL     1     -11.597   1.595 -33.557  1.00  0.00     0.074 A 
HETATM   26  C   UNL     1     -11.478   2.869 -33.002  1.00  0.00     0.027 A 
HETATM   27  C   UNL     1     -10.389   3.157 -32.173  1.00  0.00     0.031 A 
BRANCH  25  28
HETATM   28  S   UNL     1     -12.978   1.211 -34.604  1.00  0.00     0.241 S 
HETATM   29  O   UNL     1     -12.675   1.691 -35.935  1.00  0.00    -0.206 OA
HETATM   30  O   UNL     1     -13.372  -0.159 -34.363  1.00  0.00    -0.206 OA
BRANCH  28  31
HETATM   31  N   UNL     1     -14.153   2.259 -33.981  1.00  0.00    -0.211 NA
HETATM   32  H   UNL     1     -14.753   2.603 -34.732  1.00  0.00     0.140 HD
BRANCH  31  33
HETATM   33  C   UNL     1     -14.818   1.842 -32.748  1.00  0.00     0.071 A 
HETATM   34  C   UNL     1     -15.036   2.829 -31.636  1.00  0.00     0.022 A 
HETATM   35  C   UNL     1     -16.207   2.296 -32.410  1.00  0.00     0.022 A 
ENDBRANCH  31  33
ENDBRANCH  28  31
ENDBRANCH  25  28
ENDBRANCH   2  22
TORSDOF 8
ENDMDL
MODEL 2
REMARK VINA RESULT:      -8.9      1.421      2.007
REMARK  8 active torsions:
REMARK  status: ('A' for Active; 'I' for Inactive)
REMARK    1  A    between atoms: N_4  and  C_5 
REMARK    2  A    between atoms: C_14  and  C_15 
REMARK    3  A    between atoms: C_15  and  C_16 
REMARK    4  A    between atoms: C_16  and  C_17 
REMARK       I    between atoms: C_17  and  N_18 
REMARK    5  A    between atoms: N_18  and  C_19 
REMARK    6  A    between atoms: C_22  and  S_23 
REMARK    7  A    between atoms: S_23  and  N_24 
REMARK    8  A    between atoms: N_24  and  C_25 
ROOT
HETATM    1  C   UNL     1      -7.800   3.550 -31.910  1.00  0.00     0.222 C 
HETATM    2  N   UNL     1      -8.539   3.364 -33.065  1.00  0.00    -0.327 N 
HETATM    3  O   UNL     1      -8.093   3.159 -30.785  1.00  0.00    -0.273 OA
HETATM    4  H   UNL     1      -8.158   3.746 -33.922  1.00  0.00     0.169 HD
ENDROOT
BRANCH   1   5
HETATM    5  C   UNL     1      -6.510   4.321 -32.134  1.00  0.00     0.108 C 
BRANCH   5   6
HETATM    6  C   UNL     1      -5.653   3.676 -33.217  1.00  0.00     0.055 C 
BRANCH   6   7
HETATM    7  C   UNL     1      -5.221   2.264 -32.999  1.00  0.00     0.030 A 
HETATM    8  C   UNL     1      -4.331   1.624 -32.219  1.00  0.00     0.014 A 
HETATM    9  C   UNL     1      -3.385   2.203 -31.222  1.00  0.00     0.064 C 
HETATM   10  N   UNL     1      -4.319   0.250 -32.436  1.00  0.00    -0.199 NA
HETATM   11  N   UNL     1      -5.224  -0.005 -33.473  1.00  0.00    -0.238 N 
HETATM   12  H   UNL     1      -3.376  -0.087 -32.641  1.00  0.00     0.153 HD
HETATM   13  C   UNL     1      -5.837   1.188 -33.844  1.00  0.00     0.270 A 
HETATM   14  O   UNL     1      -6.702   1.414 -34.674  1.00  0.00    -0.266 OA
BRANCH  11  15
HETATM   15  C   UNL     1      -5.464  -1.322 -33.921  1.00  0.00     0.055 A 
HETATM   16  C   UNL     1      -6.768  -1.782 -34.159  1.00  0.00     0.034 A 
HETATM   17  C   UNL     1      -7.000  -3.085 -34.613  1.00  0.00     0.044 A 
HETATM   18  C   UNL     1      -5.928  -3.937 -34.830  1.00  0.00     0.116 A 
HETATM   19  F   UNL     1      -6.149  -5.184 -35.265  1.00  0.00    -0.206 F 
HETATM   20  C   UNL     1      -4.627  -3.512 -34.599  1.00  0.00     0.044 A 
HETATM   21  C   UNL     1      -4.397  -2.210 -34.144  1.00  0.00     0.034 A 
ENDBRANCH  11  15
ENDBRANCH   6   7
ENDBRANCH   5   6
ENDBRANCH   1   5
BRANCH   2  22
HETATM   22  C   UNL     1      -9.801   2.744 -33.183  1.00  0.00     0.034 A 
HETATM   23  C   UNL     1     -11.011   3.440 -33.234  1.00  0.00     0.031 A 
HETATM   24  C   UNL     1     -12.221   2.755 -33.378  1.00  0.00     0.027 A 
HETATM   25  C   UNL     1     -12.220   1.363 -33.482  1.00  0.00     0.074 A 
HETATM   26  C   UNL     1     -11.024   0.649 -33.407  1.00  0.00     0.027 A 
HETATM   27  C   UNL     1      -9.818   1.343 -33.259  1.00  0.00     0.031 A 
BRANCH  25  28
HETATM   28  S   UNL     1     -13.757   0.497 -33.679  1.00  0.00     0.241 S 
HETATM   29  O   UNL     1     -14.364   0.943 -34.914  1.00  0.00    -0.206 OA
HETATM   30  O   UNL     1     -13.532  -0.906 -33.407  1.00  0.00    -0.206 OA
BRANCH  28  31
HETATM   31  N   UNL     1     -14.672   1.181 -32.429  1.00  0.00    -0.211 NA
HETATM   32  H   UNL     1     -14.078   1.368 -31.620  1.00  0.00     0.140 HD
BRANCH  31  33
HETATM   33  C   UNL     1     -15.618   2.228 -32.805  1.00  0.00     0.071 A 
HETATM   34  C   UNL     1     -16.853   2.462 -31.981  1.00  0.00     0.022 A 
HETATM   35  C   UNL     1     -15.757   3.489 -32.004  1.00  0.00     0.022 A 
ENDBRANCH  31  33
ENDBRANCH  28  31
ENDBRANCH  25  28
ENDBRANCH   2  22
TORSDOF 8
ENDMDL
MODEL 3
REMARK VINA RESULT:      -8.8      3.883      7.805
REMARK  8 active torsions:
REMARK  status: ('A' for Active; 'I' for Inactive)
REMARK    1  A    between atoms: N_4  and  C_5 
REMARK    2  A    between atoms: C_14  and  C_15 
REMARK    3  A    between atoms: C_15  and  C_16 
REMARK    4  A    between atoms: C_16  and  C_17 
REMARK       I    between atoms: C_17  and  N_18 
REMARK    5  A    between atoms: N_18  and  C_19 
REMARK    6  A    between atoms: C_22  and  S_23 
REMARK    7  A    between atoms: S_23  and  N_24 
REMARK    8  A    between atoms: N_24  and  C_25 
ROOT
HETATM    1  C   UNL     1      -7.688   4.025 -31.263  1.00  0.00     0.222 C 
HETATM    2  N   UNL     1      -7.328   4.743 -32.390  1.00  0.00    -0.327 N 
HETATM    3  O   UNL     1      -6.945   3.670 -30.354  1.00  0.00    -0.273 OA
HETATM    4  H   UNL     1      -8.063   4.964 -33.050  1.00  0.00     0.169 HD
ENDROOT
BRANCH   1   5
HETATM    5  C   UNL     1      -9.167   3.678 -31.214  1.00  0.00     0.108 C 
BRANCH   5   6
HETATM    6  C   UNL     1      -9.385   2.171 -31.118  1.00  0.00     0.055 C 
BRANCH   6   7
HETATM    7  C   UNL     1      -8.911   1.335 -32.260  1.00  0.00     0.030 A 
HETATM    8  C   UNL     1      -9.285   1.120 -33.534  1.00  0.00     0.014 A 
HETATM    9  C   UNL     1     -10.431   1.718 -34.279  1.00  0.00     0.064 C 
HETATM   10  N   UNL     1      -8.476   0.191 -34.180  1.00  0.00    -0.199 NA
HETATM   11  N   UNL     1      -7.552  -0.269 -33.235  1.00  0.00    -0.238 N 
HETATM   12  H   UNL     1      -9.030  -0.562 -34.593  1.00  0.00     0.153 HD
HETATM   13  C   UNL     1      -7.745   0.417 -32.040  1.00  0.00     0.270 A 
HETATM   14  O   UNL     1      -7.145   0.354 -30.980  1.00  0.00    -0.266 OA
BRANCH  11  15
HETATM   15  C   UNL     1      -6.565  -1.215 -33.585  1.00  0.00     0.055 A 
HETATM   16  C   UNL     1      -5.247  -1.096 -33.117  1.00  0.00     0.034 A 
HETATM   17  C   UNL     1      -4.274  -2.041 -33.459  1.00  0.00     0.044 A 
HETATM   18  C   UNL     1      -4.613  -3.112 -34.272  1.00  0.00     0.116 A 
HETATM   19  F   UNL     1      -3.682  -4.018 -34.598  1.00  0.00    -0.206 F 
HETATM   20  C   UNL     1      -5.907  -3.255 -34.753  1.00  0.00     0.044 A 
HETATM   21  C   UNL     1      -6.878  -2.307 -34.413  1.00  0.00     0.034 A 
ENDBRANCH  11  15
ENDBRANCH   6   7
ENDBRANCH   5   6
ENDBRANCH   1   5
BRANCH   2  22
HETATM   22  C   UNL     1      -6.032   5.164 -32.757  1.00  0.00     0.034 A 
HETATM   23  C   UNL     1      -5.228   5.992 -31.970  1.00  0.00     0.031 A 
HETATM   24  C   UNL     1      -3.942   6.345 -32.391  1.00  0.00     0.027 A 
HETATM   25  C   UNL     1      -3.453   5.856 -33.604  1.00  0.00     0.074 A 
HETATM   26  C   UNL     1      -4.251   5.049 -34.415  1.00  0.00     0.027 A 
HETATM   27  C   UNL     1      -5.538   4.705 -33.987  1.00  0.00     0.031 A 
BRANCH  25  28
HETATM   28  S   UNL     1      -1.815   6.294 -34.129  1.00  0.00     0.241 S 
HETATM   29  O   UNL     1      -1.432   5.390 -35.192  1.00  0.00    -0.206 OA
HETATM   30  O   UNL     1      -1.753   7.729 -34.294  1.00  0.00    -0.206 OA
BRANCH  28  31
HETATM   31  N   UNL     1      -0.912   5.838 -32.772  1.00  0.00    -0.211 NA
HETATM   32  H   UNL     1      -0.317   5.039 -32.996  1.00  0.00     0.140 HD
BRANCH  31  33
HETATM   33  C   UNL     1      -0.299   6.915 -31.998  1.00  0.00     0.071 A 
HETATM   34  C   UNL     1      -0.769   7.203 -30.600  1.00  0.00     0.022 A 
HETATM   35  C   UNL     1       0.602   6.634 -30.832  1.00  0.00     0.022 A 
ENDBRANCH  31  33
ENDBRANCH  28  31
ENDBRANCH  25  28
ENDBRANCH   2  22
TORSDOF 8
ENDMDL
MODEL 4
REMARK VINA RESULT:      -8.4      1.335      1.945
REMARK  8 active torsions:
REMARK  status: ('A' for Active; 'I' for Inactive)
REMARK    1  A    between atoms: N_4  and  C_5 
REMARK    2  A    between atoms: C_14  and  C_15 
REMARK    3  A    between atoms: C_15  and  C_16 
REMARK    4  A    between atoms: C_16  and  C_17 
REMARK       I    between atoms: C_17  and  N_18 
REMARK    5  A    between atoms: N_18  and  C_19 
REMARK    6  A    between atoms: C_22  and  S_23 
REMARK    7  A    between atoms: S_23  and  N_24 
REMARK    8  A    between atoms: N_24  and  C_25 
ROOT
HETATM    1  C   UNL     1      -7.144   3.601 -31.035  1.00  0.00     0.222 C 
HETATM    2  N   UNL     1      -8.213   2.738 -30.861  1.00  0.00    -0.327 N 
HETATM    3  O   UNL     1      -6.977   4.378 -31.969  1.00  0.00    -0.273 OA
HETATM    4  H   UNL     1      -8.207   2.160 -30.031  1.00  0.00     0.169 HD
ENDROOT
BRANCH   1   5
HETATM    5  C   UNL     1      -6.116   3.523 -29.919  1.00  0.00     0.108 C 
BRANCH   5   6
HETATM    6  C   UNL     1      -5.592   2.102 -29.738  1.00  0.00     0.055 C 
BRANCH   6   7
HETATM    7  C   UNL     1      -5.088   1.397 -30.953  1.00  0.00     0.030 A 
HETATM    8  C   UNL     1      -4.116   1.591 -31.863  1.00  0.00     0.014 A 
HETATM    9  C   UNL     1      -3.134   2.711 -31.947  1.00  0.00     0.064 C 
HETATM   10  N   UNL     1      -4.091   0.602 -32.839  1.00  0.00    -0.199 NA
HETATM   11  N   UNL     1      -5.162  -0.259 -32.573  1.00  0.00    -0.238 N 
HETATM   12  H   UNL     1      -4.129   1.004 -33.779  1.00  0.00     0.153 HD
HETATM   13  C   UNL     1      -5.799   0.156 -31.408  1.00  0.00     0.270 A 
HETATM   14  O   UNL     1      -6.746  -0.321 -30.804  1.00  0.00    -0.266 OA
BRANCH  11  15
HETATM   15  C   UNL     1      -5.401  -1.392 -33.379  1.00  0.00     0.055 A 
HETATM   16  C   UNL     1      -6.671  -1.643 -33.921  1.00  0.00     0.034 A 
HETATM   17  C   UNL     1      -6.901  -2.763 -34.728  1.00  0.00     0.044 A 
HETATM   18  C   UNL     1      -5.862  -3.640 -34.996  1.00  0.00     0.116 A 
HETATM   19  F   UNL     1      -6.081  -4.712 -35.769  1.00  0.00    -0.206 F 
HETATM   20  C   UNL     1      -4.596  -3.422 -34.471  1.00  0.00     0.044 A 
HETATM   21  C   UNL     1      -4.368  -2.303 -33.663  1.00  0.00     0.034 A 
ENDBRANCH  11  15
ENDBRANCH   6   7
ENDBRANCH   5   6
ENDBRANCH   1   5
BRANCH   2  22
HETATM   22  C   UNL     1      -9.295   2.530 -31.742  1.00  0.00     0.034 A 
HETATM   23  C   UNL     1      -9.348   1.501 -32.685  1.00  0.00     0.031 A 
HETATM   24  C   UNL     1     -10.469   1.344 -33.506  1.00  0.00     0.027 A 
HETATM   25  C   UNL     1     -11.550   2.216 -33.374  1.00  0.00     0.074 A 
HETATM   26  C   UNL     1     -11.506   3.264 -32.455  1.00  0.00     0.027 A 
HETATM   27  C   UNL     1     -10.378   3.417 -31.642  1.00  0.00     0.031 A 
BRANCH  25  28
HETATM   28  S   UNL     1     -12.978   2.004 -34.407  1.00  0.00     0.241 S 
HETATM   29  O   UNL     1     -12.526   1.540 -35.701  1.00  0.00    -0.206 OA
HETATM   30  O   UNL     1     -13.988   1.292 -33.656  1.00  0.00    -0.206 OA
BRANCH  28  31
HETATM   31  N   UNL     1     -13.458   3.613 -34.623  1.00  0.00    -0.211 NA
HETATM   32  H   UNL     1     -13.583   4.068 -33.718  1.00  0.00     0.140 HD
BRANCH  31  33
HETATM   33  C   UNL     1     -12.752   4.377 -35.649  1.00  0.00     0.071 A 
HETATM   34  C   UNL     1     -13.086   5.825 -35.878  1.00  0.00     0.022 A 
HETATM   35  C   UNL     1     -11.756   5.441 -35.294  1.00  0.00     0.022 A 
ENDBRANCH  31  33
ENDBRANCH  28  31
ENDBRANCH  25  28
ENDBRANCH   2  22
TORSDOF 8
ENDMDL
MODEL 5
REMARK VINA RESULT:      -8.4      4.679      8.673
REMARK  8 active torsions:
REMARK  status: ('A' for Active; 'I' for Inactive)
REMARK    1  A    between atoms: N_4  and  C_5 
REMARK    2  A    between atoms: C_14  and  C_15 
REMARK    3  A    between atoms: C_15  and  C_16 
REMARK    4  A    between atoms: C_16  and  C_17 
REMARK       I    between atoms: C_17  and  N_18 
REMARK    5  A    between atoms: N_18  and  C_19 
REMARK    6  A    between atoms: C_22  and  S_23 
REMARK    7  A    between atoms: S_23  and  N_24 
REMARK    8  A    between atoms: N_24  and  C_25 
ROOT
HETATM    1  C   UNL     1      -6.119   4.650 -33.494  1.00  0.00     0.222 C 
HETATM    2  N   UNL     1      -5.598   4.750 -32.216  1.00  0.00    -0.327 N 
HETATM    3  O   UNL     1      -5.493   4.730 -34.547  1.00  0.00    -0.273 OA
HETATM    4  H   UNL     1      -6.248   4.657 -31.446  1.00  0.00     0.169 HD
ENDROOT
BRANCH   1   5
HETATM    5  C   UNL     1      -7.620   4.417 -33.521  1.00  0.00     0.108 C 
BRANCH   5   6
HETATM    6  C   UNL     1      -7.971   3.105 -34.215  1.00  0.00     0.055 C 
BRANCH   6   7
HETATM    7  C   UNL     1      -7.489   1.843 -33.581  1.00  0.00     0.030 A 
HETATM    8  C   UNL     1      -7.298   1.390 -32.329  1.00  0.00     0.014 A 
HETATM    9  C   UNL     1      -7.531   2.101 -31.039  1.00  0.00     0.064 C 
HETATM   10  N   UNL     1      -6.792   0.095 -32.300  1.00  0.00    -0.199 NA
HETATM   11  N   UNL     1      -6.586  -0.291 -33.629  1.00  0.00    -0.238 N 
HETATM   12  H   UNL     1      -5.942   0.039 -31.734  1.00  0.00     0.153 HD
HETATM   13  C   UNL     1      -7.023   0.728 -34.470  1.00  0.00     0.270 A 
HETATM   14  O   UNL     1      -7.059   0.795 -35.688  1.00  0.00    -0.266 OA
BRANCH  11  15
HETATM   15  C   UNL     1      -6.095  -1.576 -33.945  1.00  0.00     0.055 A 
HETATM   16  C   UNL     1      -4.765  -1.932 -33.672  1.00  0.00     0.034 A 
HETATM   17  C   UNL     1      -4.285  -3.210 -33.978  1.00  0.00     0.044 A 
HETATM   18  C   UNL     1      -5.133  -4.140 -34.561  1.00  0.00     0.116 A 
HETATM   19  F   UNL     1      -4.674  -5.364 -34.853  1.00  0.00    -0.206 F 
HETATM   20  C   UNL     1      -6.452  -3.816 -34.847  1.00  0.00     0.044 A 
HETATM   21  C   UNL     1      -6.929  -2.537 -34.542  1.00  0.00     0.034 A 
ENDBRANCH  11  15
ENDBRANCH   6   7
ENDBRANCH   5   6
ENDBRANCH   1   5
BRANCH   2  22
HETATM   22  C   UNL     1      -4.261   5.021 -31.856  1.00  0.00     0.034 A 
HETATM   23  C   UNL     1      -3.818   6.255 -31.372  1.00  0.00     0.031 A 
HETATM   24  C   UNL     1      -2.480   6.438 -31.011  1.00  0.00     0.027 A 
HETATM   25  C   UNL     1      -1.581   5.377 -31.125  1.00  0.00     0.074 A 
HETATM   26  C   UNL     1      -1.999   4.146 -31.630  1.00  0.00     0.027 A 
HETATM   27  C   UNL     1      -3.339   3.973 -31.993  1.00  0.00     0.031 A 
BRANCH  25  28
HETATM   28  S   UNL     1       0.114   5.610 -30.652  1.00  0.00     0.241 S 
HETATM   29  O   UNL     1       0.861   4.450 -31.088  1.00  0.00    -0.206 OA
HETATM   30  O   UNL     1       0.514   6.951 -31.017  1.00  0.00    -0.206 OA
BRANCH  28  31
HETATM   31  N   UNL     1      -0.004   5.489 -28.967  1.00  0.00    -0.211 NA
HETATM   32  H   UNL     1       0.569   4.715 -28.628  1.00  0.00     0.140 HD
BRANCH  31  33
HETATM   33  C   UNL     1       0.067   6.738 -28.213  1.00  0.00     0.071 A 
HETATM   34  C   UNL     1      -0.450   6.800 -26.803  1.00  0.00     0.022 A 
HETATM   35  C   UNL     1       1.024   6.916 -27.072  1.00  0.00     0.022 A 
ENDBRANCH  31  33
ENDBRANCH  28  31
ENDBRANCH  25  28
ENDBRANCH   2  22
TORSDOF 8
ENDMDL
MODEL 6
REMARK VINA RESULT:      -8.1      4.161      8.305
REMARK  8 active torsions:
REMARK  status: ('A' for Active; 'I' for Inactive)
REMARK    1  A    between atoms: N_4  and  C_5 
REMARK    2  A    between atoms: C_14  and  C_15 
REMARK    3  A    between atoms: C_15  and  C_16 
REMARK    4  A    between atoms: C_16  and  C_17 
REMARK       I    between atoms: C_17  and  N_18 
REMARK    5  A    between atoms: N_18  and  C_19 
REMARK    6  A    between atoms: C_22  and  S_23 
REMARK    7  A    between atoms: S_23  and  N_24 
REMARK    8  A    between atoms: N_24  and  C_25 
ROOT
HETATM    1  C   UNL     1      -7.848   4.648 -31.733  1.00  0.00     0.222 C 
HETATM    2  N   UNL     1      -6.813   4.282 -30.890  1.00  0.00    -0.327 N 
HETATM    3  O   UNL     1      -7.768   5.385 -32.710  1.00  0.00    -0.273 OA
HETATM    4  H   UNL     1      -7.041   3.660 -30.125  1.00  0.00     0.169 HD
ENDROOT
BRANCH   1   5
HETATM    5  C   UNL     1      -9.185   4.038 -31.350  1.00  0.00     0.108 C 
BRANCH   5   6
HETATM    6  C   UNL     1      -9.027   2.600 -30.865  1.00  0.00     0.055 C 
BRANCH   6   7
HETATM    7  C   UNL     1      -8.785   1.551 -31.899  1.00  0.00     0.030 A 
HETATM    8  C   UNL     1      -9.472   1.009 -32.920  1.00  0.00     0.014 A 
HETATM    9  C   UNL     1     -10.856   1.324 -33.378  1.00  0.00     0.064 C 
HETATM   10  N   UNL     1      -8.757   0.014 -33.578  1.00  0.00    -0.199 NA
HETATM   11  N   UNL     1      -7.546  -0.136 -32.894  1.00  0.00    -0.238 N 
HETATM   12  H   UNL     1      -9.293  -0.856 -33.633  1.00  0.00     0.153 HD
HETATM   13  C   UNL     1      -7.485   0.802 -31.867  1.00  0.00     0.270 A 
HETATM   14  O   UNL     1      -6.605   1.040 -31.057  1.00  0.00    -0.266 OA
BRANCH  11  15
HETATM   15  C   UNL     1      -6.575  -1.063 -33.329  1.00  0.00     0.055 A 
HETATM   16  C   UNL     1      -6.899  -2.080 -34.241  1.00  0.00     0.034 A 
HETATM   17  C   UNL     1      -5.931  -2.991 -34.677  1.00  0.00     0.044 A 
HETATM   18  C   UNL     1      -4.632  -2.891 -34.204  1.00  0.00     0.116 A 
HETATM   19  F   UNL     1      -3.705  -3.762 -34.622  1.00  0.00    -0.206 F 
HETATM   20  C   UNL     1      -4.282  -1.899 -33.299  1.00  0.00     0.044 A 
HETATM   21  C   UNL     1      -5.251  -0.991 -32.862  1.00  0.00     0.034 A 
ENDBRANCH  11  15
ENDBRANCH   6   7
ENDBRANCH   5   6
ENDBRANCH   1   5
BRANCH   2  22
HETATM   22  C   UNL     1      -5.474   4.722 -30.940  1.00  0.00     0.034 A 
HETATM   23  C   UNL     1      -5.042   5.967 -30.474  1.00  0.00     0.031 A 
HETATM   24  C   UNL     1      -3.691   6.320 -30.534  1.00  0.00     0.027 A 
HETATM   25  C   UNL     1      -2.762   5.417 -31.054  1.00  0.00     0.074 A 
HETATM   26  C   UNL     1      -3.178   4.180 -31.547  1.00  0.00     0.027 A 
HETATM   27  C   UNL     1      -4.532   3.837 -31.487  1.00  0.00     0.031 A 
BRANCH  25  28
HETATM   28  S   UNL     1      -1.045   5.863 -31.115  1.00  0.00     0.241 S 
HETATM   29  O   UNL     1      -0.347   4.843 -31.867  1.00  0.00    -0.206 OA
HETATM   30  O   UNL     1      -0.946   7.263 -31.463  1.00  0.00    -0.206 OA
BRANCH  28  31
HETATM   31  N   UNL     1      -0.600   5.645 -29.496  1.00  0.00    -0.211 NA
HETATM   32  H   UNL     1       0.170   4.978 -29.430  1.00  0.00     0.140 HD
BRANCH  31  33
HETATM   33  C   UNL     1      -0.499   6.849 -28.676  1.00  0.00     0.071 A 
HETATM   34  C   UNL     1       0.204   6.802 -27.348  1.00  0.00     0.022 A 
HETATM   35  C   UNL     1       0.803   7.570 -28.491  1.00  0.00     0.022 A 
ENDBRANCH  31  33
ENDBRANCH  28  31
ENDBRANCH  25  28
ENDBRANCH   2  22
TORSDOF 8
ENDMDL
MODEL 7
REMARK VINA RESULT:      -8.0     15.564     18.710
REMARK  8 active torsions:
REMARK  status: ('A' for Active; 'I' for Inactive)
REMARK    1  A    between atoms: N_4  and  C_5 
REMARK    2  A    between atoms: C_14  and  C_15 
REMARK    3  A    between atoms: C_15  and  C_16 
REMARK    4  A    between atoms: C_16  and  C_17 
REMARK       I    between atoms: C_17  and  N_18 
REMARK    5  A    between atoms: N_18  and  C_19 
REMARK    6  A    between atoms: C_22  and  S_23 
REMARK    7  A    between atoms: S_23  and  N_24 
REMARK    8  A    between atoms: N_24  and  C_25 
ROOT
HETATM    1  C   UNL     1      -4.480 -13.788 -41.248  1.00  0.00     0.222 C 
HETATM    2  N   UNL     1      -3.509 -13.190 -40.464  1.00  0.00    -0.327 N 
HETATM    3  O   UNL     1      -4.432 -14.911 -41.741  1.00  0.00    -0.273 OA
HETATM    4  H   UNL     1      -3.700 -12.255 -40.128  1.00  0.00     0.169 HD
ENDROOT
BRANCH   1   5
HETATM    5  C   UNL     1      -5.697 -12.909 -41.480  1.00  0.00     0.108 C 
BRANCH   5   6
HETATM    6  C   UNL     1      -5.995 -12.034 -40.266  1.00  0.00     0.055 C 
BRANCH   6   7
HETATM    7  C   UNL     1      -6.855 -12.617 -39.195  1.00  0.00     0.030 A 
HETATM    8  C   UNL     1      -8.173 -12.785 -38.983  1.00  0.00     0.014 A 
HETATM    9  C   UNL     1      -9.312 -12.380 -39.857  1.00  0.00     0.064 C 
HETATM   10  N   UNL     1      -8.446 -13.394 -37.764  1.00  0.00    -0.199 NA
HETATM   11  N   UNL     1      -7.218 -13.579 -37.118  1.00  0.00    -0.238 N 
HETATM   12  H   UNL     1      -9.107 -12.843 -37.211  1.00  0.00     0.153 HD
HETATM   13  C   UNL     1      -6.195 -13.150 -37.958  1.00  0.00     0.270 A 
HETATM   14  O   UNL     1      -4.984 -13.162 -37.808  1.00  0.00    -0.266 OA
BRANCH  11  15
HETATM   15  C   UNL     1      -7.149 -14.202 -35.853  1.00  0.00     0.055 A 
HETATM   16  C   UNL     1      -7.040 -13.445 -34.676  1.00  0.00     0.034 A 
HETATM   17  C   UNL     1      -6.981 -14.066 -33.424  1.00  0.00     0.044 A 
HETATM   18  C   UNL     1      -7.029 -15.449 -33.342  1.00  0.00     0.116 A 
HETATM   19  F   UNL     1      -6.974 -16.044 -32.143  1.00  0.00    -0.206 F 
HETATM   20  C   UNL     1      -7.133 -16.225 -34.488  1.00  0.00     0.044 A 
HETATM   21  C   UNL     1      -7.189 -15.602 -35.739  1.00  0.00     0.034 A 
ENDBRANCH  11  15
ENDBRANCH   6   7
ENDBRANCH   5   6
ENDBRANCH   1   5
BRANCH   2  22
HETATM   22  C   UNL     1      -2.247 -13.716 -40.116  1.00  0.00     0.034 A 
HETATM   23  C   UNL     1      -1.529 -14.613 -40.912  1.00  0.00     0.031 A 
HETATM   24  C   UNL     1      -0.270 -15.070 -40.510  1.00  0.00     0.027 A 
HETATM   25  C   UNL     1       0.280 -14.618 -39.310  1.00  0.00     0.074 A 
HETATM   26  C   UNL     1      -0.433 -13.742 -38.491  1.00  0.00     0.027 A 
HETATM   27  C   UNL     1      -1.693 -13.294 -38.898  1.00  0.00     0.031 A 
BRANCH  25  28
HETATM   28  S   UNL     1       1.885 -15.189 -38.811  1.00  0.00     0.241 S 
HETATM   29  O   UNL     1       2.229 -16.327 -39.635  1.00  0.00    -0.206 OA
HETATM   30  O   UNL     1       2.763 -14.046 -38.691  1.00  0.00    -0.206 OA
BRANCH  28  31
HETATM   31  N   UNL     1       1.541 -15.806 -37.273  1.00  0.00    -0.211 NA
HETATM   32  H   UNL     1       1.325 -15.044 -36.628  1.00  0.00     0.140 HD
BRANCH  31  33
HETATM   33  C   UNL     1       0.674 -16.980 -37.215  1.00  0.00     0.071 A 
HETATM   34  C   UNL     1       0.547 -17.764 -35.939  1.00  0.00     0.022 A 
HETATM   35  C   UNL     1      -0.619 -16.969 -36.454  1.00  0.00     0.022 A 
ENDBRANCH  31  33
ENDBRANCH  28  31
ENDBRANCH  25  28
ENDBRANCH   2  22
TORSDOF 8
ENDMDL
MODEL 8
REMARK VINA RESULT:      -7.9     15.335     17.482
REMARK  8 active torsions:
REMARK  status: ('A' for Active; 'I' for Inactive)
REMARK    1  A    between atoms: N_4  and  C_5 
REMARK    2  A    between atoms: C_14  and  C_15 
REMARK    3  A    between atoms: C_15  and  C_16 
REMARK    4  A    between atoms: C_16  and  C_17 
REMARK       I    between atoms: C_17  and  N_18 
REMARK    5  A    between atoms: N_18  and  C_19 
REMARK    6  A    between atoms: C_22  and  S_23 
REMARK    7  A    between atoms: S_23  and  N_24 
REMARK    8  A    between atoms: N_24  and  C_25 
ROOT
HETATM    1  C   UNL     1      -7.252 -13.810 -37.011  1.00  0.00     0.222 C 
HETATM    2  N   UNL     1      -6.504 -13.250 -35.991  1.00  0.00    -0.327 N 
HETATM    3  O   UNL     1      -7.621 -14.978 -37.090  1.00  0.00    -0.273 OA
HETATM    4  H   UNL     1      -6.283 -12.265 -36.070  1.00  0.00     0.169 HD
ENDROOT
BRANCH   1   5
HETATM    5  C   UNL     1      -7.618 -12.824 -38.107  1.00  0.00     0.108 C 
BRANCH   5   6
HETATM    6  C   UNL     1      -6.379 -12.156 -38.695  1.00  0.00     0.055 C 
BRANCH   6   7
HETATM    7  C   UNL     1      -5.268 -13.046 -39.142  1.00  0.00     0.030 A 
HETATM    8  C   UNL     1      -5.091 -13.993 -40.081  1.00  0.00     0.014 A 
HETATM    9  C   UNL     1      -6.077 -14.509 -41.074  1.00  0.00     0.064 C 
HETATM   10  N   UNL     1      -3.814 -14.543 -40.054  1.00  0.00    -0.199 NA
HETATM   11  N   UNL     1      -3.138 -13.948 -38.982  1.00  0.00    -0.238 N 
HETATM   12  H   UNL     1      -3.848 -15.562 -39.985  1.00  0.00     0.153 HD
HETATM   13  C   UNL     1      -3.966 -12.995 -38.396  1.00  0.00     0.270 A 
HETATM   14  O   UNL     1      -3.767 -12.230 -37.467  1.00  0.00    -0.266 OA
BRANCH  11  15
HETATM   15  C   UNL     1      -1.797 -14.278 -38.696  1.00  0.00     0.055 A 
HETATM   16  C   UNL     1      -1.439 -14.868 -37.474  1.00  0.00     0.034 A 
HETATM   17  C   UNL     1      -0.108 -15.202 -37.198  1.00  0.00     0.044 A 
HETATM   18  C   UNL     1       0.873 -14.947 -38.144  1.00  0.00     0.116 A 
HETATM   19  F   UNL     1       2.147 -15.268 -37.881  1.00  0.00    -0.206 F 
HETATM   20  C   UNL     1       0.551 -14.361 -39.360  1.00  0.00     0.044 A 
HETATM   21  C   UNL     1      -0.779 -14.026 -39.633  1.00  0.00     0.034 A 
ENDBRANCH  11  15
ENDBRANCH   6   7
ENDBRANCH   5   6
ENDBRANCH   1   5
BRANCH   2  22
HETATM   22  C   UNL     1      -5.962 -13.907 -34.867  1.00  0.00     0.034 A 
HETATM   23  C   UNL     1      -4.908 -14.823 -34.931  1.00  0.00     0.031 A 
HETATM   24  C   UNL     1      -4.407 -15.414 -33.767  1.00  0.00     0.027 A 
HETATM   25  C   UNL     1      -4.958 -15.080 -32.529  1.00  0.00     0.074 A 
HETATM   26  C   UNL     1      -6.027 -14.188 -32.448  1.00  0.00     0.027 A 
HETATM   27  C   UNL     1      -6.524 -13.604 -33.618  1.00  0.00     0.031 A 
BRANCH  25  28
HETATM   28  S   UNL     1      -4.310 -15.822 -31.052  1.00  0.00     0.241 S 
HETATM   29  O   UNL     1      -5.208 -15.503 -29.963  1.00  0.00    -0.206 OA
HETATM   30  O   UNL     1      -3.934 -17.186 -31.350  1.00  0.00    -0.206 OA
BRANCH  28  31
HETATM   31  N   UNL     1      -2.920 -14.888 -30.808  1.00  0.00    -0.211 NA
HETATM   32  H   UNL     1      -3.167 -13.994 -30.381  1.00  0.00     0.140 HD
BRANCH  31  33
HETATM   33  C   UNL     1      -1.753 -15.577 -30.262  1.00  0.00     0.071 A 
HETATM   34  C   UNL     1      -0.793 -14.844 -29.367  1.00  0.00     0.022 A 
HETATM   35  C   UNL     1      -1.660 -15.936 -28.808  1.00  0.00     0.022 A 
ENDBRANCH  31  33
ENDBRANCH  28  31
ENDBRANCH  25  28
ENDBRANCH   2  22
TORSDOF 8
ENDMDL
MODEL 9
REMARK VINA RESULT:      -7.8      4.639      9.471
REMARK  8 active torsions:
REMARK  status: ('A' for Active; 'I' for Inactive)
REMARK    1  A    between atoms: N_4  and  C_5 
REMARK    2  A    between atoms: C_14  and  C_15 
REMARK    3  A    between atoms: C_15  and  C_16 
REMARK    4  A    between atoms: C_16  and  C_17 
REMARK       I    between atoms: C_17  and  N_18 
REMARK    5  A    between atoms: N_18  and  C_19 
REMARK    6  A    between atoms: C_22  and  S_23 
REMARK    7  A    between atoms: S_23  and  N_24 
REMARK    8  A    between atoms: N_24  and  C_25 
ROOT
HETATM    1  C   UNL     1      -6.103   2.223 -31.590  1.00  0.00     0.222 C 
HETATM    2  N   UNL     1      -5.152   2.402 -32.579  1.00  0.00    -0.327 N 
HETATM    3  O   UNL     1      -6.396   3.021 -30.705  1.00  0.00    -0.273 OA
HETATM    4  H   UNL     1      -5.029   1.647 -33.242  1.00  0.00     0.169 HD
ENDROOT
BRANCH   1   5
HETATM    5  C   UNL     1      -6.816   0.884 -31.671  1.00  0.00     0.108 C 
BRANCH   5   6
HETATM    6  C   UNL     1      -7.489   0.689 -33.026  1.00  0.00     0.055 C 
BRANCH   6   7
HETATM    7  C   UNL     1      -8.708   1.502 -33.309  1.00  0.00     0.030 A 
HETATM    8  C   UNL     1      -8.974   2.762 -33.699  1.00  0.00     0.014 A 
HETATM    9  C   UNL     1      -8.013   3.865 -33.991  1.00  0.00     0.064 C 
HETATM   10  N   UNL     1     -10.338   3.016 -33.796  1.00  0.00    -0.199 NA
HETATM   11  N   UNL     1     -10.998   1.853 -33.383  1.00  0.00    -0.238 N 
HETATM   12  H   UNL     1     -10.604   3.839 -33.251  1.00  0.00     0.153 HD
HETATM   13  C   UNL     1     -10.053   0.871 -33.098  1.00  0.00     0.270 A 
HETATM   14  O   UNL     1     -10.191  -0.287 -32.743  1.00  0.00    -0.266 OA
BRANCH  11  15
HETATM   15  C   UNL     1     -12.407   1.777 -33.388  1.00  0.00     0.055 A 
HETATM   16  C   UNL     1     -13.184   2.652 -32.612  1.00  0.00     0.034 A 
HETATM   17  C   UNL     1     -14.582   2.579 -32.627  1.00  0.00     0.044 A 
HETATM   18  C   UNL     1     -15.210   1.629 -33.418  1.00  0.00     0.116 A 
HETATM   19  F   UNL     1     -16.548   1.560 -33.433  1.00  0.00    -0.206 F 
HETATM   20  C   UNL     1     -14.469   0.747 -34.192  1.00  0.00     0.044 A 
HETATM   21  C   UNL     1     -13.073   0.820 -34.174  1.00  0.00     0.034 A 
ENDBRANCH  11  15
ENDBRANCH   6   7
ENDBRANCH   5   6
ENDBRANCH   1   5
BRANCH   2  22
HETATM   22  C   UNL     1      -4.285   3.503 -32.742  1.00  0.00     0.034 A 
HETATM   23  C   UNL     1      -4.547   4.585 -33.587  1.00  0.00     0.031 A 
HETATM   24  C   UNL     1      -3.650   5.653 -33.675  1.00  0.00     0.027 A 
HETATM   25  C   UNL     1      -2.486   5.645 -32.904  1.00  0.00     0.074 A 
HETATM   26  C   UNL     1      -2.195   4.562 -32.074  1.00  0.00     0.027 A 
HETATM   27  C   UNL     1      -3.097   3.496 -31.996  1.00  0.00     0.031 A 
BRANCH  25  28
HETATM   28  S   UNL     1      -1.356   7.010 -33.007  1.00  0.00     0.241 S 
HETATM   29  O   UNL     1      -0.624   6.889 -34.250  1.00  0.00    -0.206 OA
HETATM   30  O   UNL     1      -2.065   8.222 -32.659  1.00  0.00    -0.206 OA
BRANCH  28  31
HETATM   31  N   UNL     1      -0.264   6.615 -31.775  1.00  0.00    -0.211 NA
HETATM   32  H   UNL     1       0.695   6.721 -32.108  1.00  0.00     0.140 HD
BRANCH  31  33
HETATM   33  C   UNL     1      -0.559   7.139 -30.444  1.00  0.00     0.071 A 
HETATM   34  C   UNL     1      -0.347   6.279 -29.229  1.00  0.00     0.022 A 
HETATM   35  C   UNL     1       0.531   7.473 -29.469  1.00  0.00     0.022 A 
ENDBRANCH  31  33
ENDBRANCH  28  31
ENDBRANCH  25  28
ENDBRANCH   2  22
TORSDOF 8
ENDMDL
MODEL 10
REMARK VINA RESULT:      -7.8      6.961     10.182
REMARK  8 active torsions:
REMARK  status: ('A' for Active; 'I' for Inactive)
REMARK    1  A    between atoms: N_4  and  C_5 
REMARK    2  A    between atoms: C_14  and  C_15 
REMARK    3  A    between atoms: C_15  and  C_16 
REMARK    4  A    between atoms: C_16  and  C_17 
REMARK       I    between atoms: C_17  and  N_18 
REMARK    5  A    between atoms: N_18  and  C_19 
REMARK    6  A    between atoms: C_22  and  S_23 
REMARK    7  A    between atoms: S_23  and  N_24 
REMARK    8  A    between atoms: N_24  and  C_25 
ROOT
HETATM    1  C   UNL     1      -2.001   4.482 -33.047  1.00  0.00     0.222 C 
HETATM    2  N   UNL     1      -2.788   3.753 -32.173  1.00  0.00    -0.327 N 
HETATM    3  O   UNL     1      -2.106   4.517 -34.269  1.00  0.00    -0.273 OA
HETATM    4  H   UNL     1      -2.576   3.834 -31.186  1.00  0.00     0.169 HD
ENDROOT
BRANCH   1   5
HETATM    5  C   UNL     1      -0.922   5.297 -32.355  1.00  0.00     0.108 C 
BRANCH   5   6
HETATM    6  C   UNL     1      -1.067   5.244 -30.837  1.00  0.00     0.055 C 
BRANCH   6   7
HETATM    7  C   UNL     1      -0.954   6.531 -30.092  1.00  0.00     0.030 A 
HETATM    8  C   UNL     1      -1.480   7.766 -30.188  1.00  0.00     0.014 A 
HETATM    9  C   UNL     1      -2.446   8.286 -31.199  1.00  0.00     0.064 C 
HETATM   10  N   UNL     1      -1.003   8.630 -29.209  1.00  0.00    -0.199 NA
HETATM   11  N   UNL     1      -0.057   7.917 -28.464  1.00  0.00    -0.238 N 
HETATM   12  H   UNL     1      -0.622   9.486 -29.619  1.00  0.00     0.153 HD
HETATM   13  C   UNL     1      -0.000   6.609 -28.936  1.00  0.00     0.270 A 
HETATM   14  O   UNL     1       0.657   5.653 -28.557  1.00  0.00    -0.266 OA
BRANCH  11  15
HETATM   15  C   UNL     1       0.604   8.511 -27.368  1.00  0.00     0.055 A 
HETATM   16  C   UNL     1       1.600   7.822 -26.660  1.00  0.00     0.034 A 
HETATM   17  C   UNL     1       2.260   8.419 -25.580  1.00  0.00     0.044 A 
HETATM   18  C   UNL     1       1.924   9.710 -25.200  1.00  0.00     0.116 A 
HETATM   19  F   UNL     1       2.556  10.283 -24.167  1.00  0.00    -0.206 F 
HETATM   20  C   UNL     1       0.940  10.416 -25.878  1.00  0.00     0.044 A 
HETATM   21  C   UNL     1       0.281   9.816 -26.956  1.00  0.00     0.034 A 
ENDBRANCH  11  15
ENDBRANCH   6   7
ENDBRANCH   5   6
ENDBRANCH   1   5
BRANCH   2  22
HETATM   22  C   UNL     1      -3.828   2.859 -32.502  1.00  0.00     0.034 A 
HETATM   23  C   UNL     1      -3.732   1.470 -32.380  1.00  0.00     0.031 A 
HETATM   24  C   UNL     1      -4.818   0.650 -32.702  1.00  0.00     0.027 A 
HETATM   25  C   UNL     1      -6.013   1.224 -33.138  1.00  0.00     0.074 A 
HETATM   26  C   UNL     1      -6.120   2.607 -33.289  1.00  0.00     0.027 A 
HETATM   27  C   UNL     1      -5.027   3.419 -32.969  1.00  0.00     0.031 A 
BRANCH  25  28
HETATM   28  S   UNL     1      -7.394   0.181 -33.532  1.00  0.00     0.241 S 
HETATM   29  O   UNL     1      -8.327   0.241 -32.427  1.00  0.00    -0.206 OA
HETATM   30  O   UNL     1      -7.808   0.458 -34.889  1.00  0.00    -0.206 OA
BRANCH  28  31
HETATM   31  N   UNL     1      -6.672  -1.348 -33.457  1.00  0.00    -0.211 NA
HETATM   32  H   UNL     1      -7.017  -1.862 -32.645  1.00  0.00     0.140 HD
BRANCH  31  33
HETATM   33  C   UNL     1      -6.576  -2.091 -34.711  1.00  0.00     0.071 A 
HETATM   34  C   UNL     1      -5.375  -2.951 -34.991  1.00  0.00     0.022 A 
HETATM   35  C   UNL     1      -6.717  -3.584 -34.755  1.00  0.00     0.022 A 
ENDBRANCH  31  33
ENDBRANCH  28  31
ENDBRANCH  25  28
ENDBRANCH   2  22
TORSDOF 8
ENDMDL
