MODEL 1
REMARK VINA RESULT:      -7.3      0.000      0.000
REMARK  6 active torsions:
REMARK  status: ('A' for Active; 'I' for Inactive)
REMARK    1  A    between atoms: C_2  and  O_3 
REMARK    2  A    between atoms: O_3  and  C_4 
REMARK    3  A    between atoms: C_4  and  C_5 
REMARK    4  A    between atoms: C_6  and  O_7 
REMARK    5  A    between atoms: C_12  and  O_13 
REMARK    6  A    between atoms: C_17  and  C_18 
ROOT
HETATM    1  C   UNL     1      -6.206   1.368 -33.549  1.00  0.00     0.133 C 
HETATM    2  C   UNL     1      -6.102   0.256 -32.454  1.00  0.00     0.073 C 
HETATM    3  C   UNL     1      -4.644   0.064 -31.996  1.00  0.00     0.047 C 
HETATM    4  C   UNL     1      -7.005   0.523 -31.219  1.00  0.00     0.097 C 
HETATM    5  C   UNL     1      -6.896   1.943 -30.817  1.00  0.00     0.042 A 
HETATM    6  C   UNL     1      -6.537   3.004 -31.622  1.00  0.00     0.030 A 
HETATM    7  C   UNL     1      -6.637   4.105 -30.756  1.00  0.00     0.190 A 
HETATM    8  N   UNL     1      -6.993   3.783 -29.519  1.00  0.00    -0.149 NA
HETATM    9  N   UNL     1      -7.156   2.450 -29.578  1.00  0.00    -0.279 N 
HETATM   10  H   UNL     1      -7.452   1.962 -28.738  1.00  0.00     0.189 HD
HETATM   11  C   UNL     1      -6.228   2.855 -33.074  1.00  0.00     0.074 C 
ENDROOT
BRANCH  11  12
HETATM   12  C   UNL     1      -4.939   3.604 -33.389  1.00  0.00    -0.048 A 
HETATM   13  C   UNL     1      -3.719   3.389 -32.726  1.00  0.00     0.009 A 
HETATM   14  C   UNL     1      -2.573   4.109 -33.079  1.00  0.00     0.024 A 
HETATM   15  C   UNL     1      -2.630   5.049 -34.103  1.00  0.00     0.034 A 
HETATM   16 CL   UNL     1      -1.221   5.938 -34.532  1.00  0.00    -0.084 Cl
HETATM   17  C   UNL     1      -3.822   5.275 -34.781  1.00  0.00     0.024 A 
HETATM   18  C   UNL     1      -4.966   4.554 -34.429  1.00  0.00     0.009 A 
ENDBRANCH  11  12
BRANCH   1  19
HETATM   19  C   UNL     1      -7.412   1.116 -34.435  1.00  0.00     0.267 C 
HETATM   20  O   UNL     1      -7.379   0.347 -35.389  1.00  0.00    -0.265 OA
BRANCH  19  21
HETATM   21  O   UNL     1      -8.501   1.828 -34.046  1.00  0.00    -0.321 OA
BRANCH  21  22
HETATM   22  C   UNL     1      -9.771   1.177 -34.204  1.00  0.00     0.174 C 
HETATM   23  C   UNL     1     -10.034   0.273 -33.017  1.00  0.00     0.034 C 
ENDBRANCH  21  22
ENDBRANCH  19  21
ENDBRANCH   1  19
BRANCH   2  24
HETATM   24  O   UNL     1      -6.492  -1.019 -32.995  1.00  0.00    -0.389 OA
HETATM   25  H   UNL     1      -5.693  -1.500 -33.278  1.00  0.00     0.210 HD
ENDBRANCH   2  24
BRANCH   7  26
HETATM   26  O   UNL     1      -6.415   5.401 -30.990  1.00  0.00    -0.343 OA
HETATM   27  H   UNL     1      -5.473   5.598 -30.876  1.00  0.00     0.219 HD
ENDBRANCH   7  26
TORSDOF 6
ENDMDL
MODEL 2
REMARK VINA RESULT:      -7.1      3.320      6.014
REMARK  6 active torsions:
REMARK  status: ('A' for Active; 'I' for Inactive)
REMARK    1  A    between atoms: C_2  and  O_3 
REMARK    2  A    between atoms: O_3  and  C_4 
REMARK    3  A    between atoms: C_4  and  C_5 
REMARK    4  A    between atoms: C_6  and  O_7 
REMARK    5  A    between atoms: C_12  and  O_13 
REMARK    6  A    between atoms: C_17  and  C_18 
ROOT
HETATM    1  C   UNL     1      -3.302   4.111 -33.035  1.00  0.00     0.133 C 
HETATM    2  C   UNL     1      -4.171   5.374 -33.346  1.00  0.00     0.073 C 
HETATM    3  C   UNL     1      -5.338   5.025 -34.289  1.00  0.00     0.047 C 
HETATM    4  C   UNL     1      -4.721   6.071 -32.072  1.00  0.00     0.097 C 
HETATM    5  C   UNL     1      -5.239   5.055 -31.130  1.00  0.00     0.042 A 
HETATM    6  C   UNL     1      -4.862   3.730 -31.055  1.00  0.00     0.030 A 
HETATM    7  C   UNL     1      -5.622   3.246 -29.977  1.00  0.00     0.190 A 
HETATM    8  N   UNL     1      -6.423   4.155 -29.437  1.00  0.00    -0.149 NA
HETATM    9  N   UNL     1      -6.168   5.263 -30.154  1.00  0.00    -0.279 N 
HETATM   10  H   UNL     1      -6.659   6.119 -29.912  1.00  0.00     0.189 HD
HETATM   11  C   UNL     1      -3.815   3.132 -31.932  1.00  0.00     0.074 C 
ENDROOT
BRANCH  11  12
HETATM   12  C   UNL     1      -4.330   1.812 -32.495  1.00  0.00    -0.048 A 
HETATM   13  C   UNL     1      -5.582   1.652 -33.109  1.00  0.00     0.009 A 
HETATM   14  C   UNL     1      -5.983   0.410 -33.612  1.00  0.00     0.024 A 
HETATM   15  C   UNL     1      -5.133  -0.687 -33.513  1.00  0.00     0.034 A 
HETATM   16 CL   UNL     1      -5.628  -2.216 -34.127  1.00  0.00    -0.084 Cl
HETATM   17  C   UNL     1      -3.884  -0.554 -32.918  1.00  0.00     0.024 A 
HETATM   18  C   UNL     1      -3.484   0.688 -32.417  1.00  0.00     0.009 A 
ENDBRANCH  11  12
BRANCH   1  19
HETATM   19  C   UNL     1      -1.880   4.525 -32.704  1.00  0.00     0.267 C 
HETATM   20  O   UNL     1      -1.121   4.998 -33.542  1.00  0.00    -0.265 OA
BRANCH  19  21
HETATM   21  O   UNL     1      -1.567   4.312 -31.400  1.00  0.00    -0.321 OA
BRANCH  21  22
HETATM   22  C   UNL     1      -1.034   5.439 -30.687  1.00  0.00     0.174 C 
HETATM   23  C   UNL     1       0.424   5.192 -30.356  1.00  0.00     0.034 C 
ENDBRANCH  21  22
ENDBRANCH  19  21
ENDBRANCH   1  19
BRANCH   2  24
HETATM   24  O   UNL     1      -3.395   6.352 -34.062  1.00  0.00    -0.389 OA
HETATM   25  H   UNL     1      -2.802   5.892 -34.684  1.00  0.00     0.210 HD
ENDBRANCH   2  24
BRANCH   7  26
HETATM   26  O   UNL     1      -5.663   2.025 -29.439  1.00  0.00    -0.343 OA
HETATM   27  H   UNL     1      -4.881   1.522 -29.710  1.00  0.00     0.219 HD
ENDBRANCH   7  26
TORSDOF 6
ENDMDL
MODEL 3
REMARK VINA RESULT:      -7.0      3.108      5.246
REMARK  6 active torsions:
REMARK  status: ('A' for Active; 'I' for Inactive)
REMARK    1  A    between atoms: C_2  and  O_3 
REMARK    2  A    between atoms: O_3  and  C_4 
REMARK    3  A    between atoms: C_4  and  C_5 
REMARK    4  A    between atoms: C_6  and  O_7 
REMARK    5  A    between atoms: C_12  and  O_13 
REMARK    6  A    between atoms: C_17  and  C_18 
ROOT
HETATM    1  C   UNL     1      -7.213   2.090 -33.305  1.00  0.00     0.133 C 
HETATM    2  C   UNL     1      -8.358   2.326 -32.265  1.00  0.00     0.073 C 
HETATM    3  C   UNL     1      -9.305   1.114 -32.198  1.00  0.00     0.047 C 
HETATM    4  C   UNL     1      -7.835   2.659 -30.841  1.00  0.00     0.097 C 
HETATM    5  C   UNL     1      -6.721   1.750 -30.491  1.00  0.00     0.042 A 
HETATM    6  C   UNL     1      -5.887   1.090 -31.370  1.00  0.00     0.030 A 
HETATM    7  C   UNL     1      -5.001   0.413 -30.516  1.00  0.00     0.190 A 
HETATM    8  N   UNL     1      -5.258   0.594 -29.227  1.00  0.00    -0.149 NA
HETATM    9  N   UNL     1      -6.314   1.425 -29.231  1.00  0.00    -0.279 N 
HETATM   10  H   UNL     1      -6.691   1.730 -28.339  1.00  0.00     0.189 HD
HETATM   11  C   UNL     1      -5.986   1.239 -32.851  1.00  0.00     0.074 C 
ENDROOT
BRANCH  11  12
HETATM   12  C   UNL     1      -5.943  -0.142 -33.495  1.00  0.00    -0.048 A 
HETATM   13  C   UNL     1      -4.759  -0.829 -33.810  1.00  0.00     0.009 A 
HETATM   14  C   UNL     1      -4.800  -2.101 -34.391  1.00  0.00     0.024 A 
HETATM   15  C   UNL     1      -6.024  -2.705 -34.658  1.00  0.00     0.034 A 
HETATM   16 CL   UNL     1      -6.072  -4.267 -35.377  1.00  0.00    -0.084 Cl
HETATM   17  C   UNL     1      -7.210  -2.051 -34.347  1.00  0.00     0.024 A 
HETATM   18  C   UNL     1      -7.169  -0.782 -33.765  1.00  0.00     0.009 A 
ENDBRANCH  11  12
BRANCH   1  19
HETATM   19  C   UNL     1      -6.718   3.419 -33.846  1.00  0.00     0.267 C 
HETATM   20  O   UNL     1      -7.470   4.242 -34.356  1.00  0.00    -0.265 OA
BRANCH  19  21
HETATM   21  O   UNL     1      -5.378   3.574 -33.696  1.00  0.00    -0.321 OA
BRANCH  21  22
HETATM   22  C   UNL     1      -4.883   4.918 -33.799  1.00  0.00     0.174 C 
HETATM   23  C   UNL     1      -4.060   5.065 -35.064  1.00  0.00     0.034 C 
ENDBRANCH  21  22
ENDBRANCH  19  21
ENDBRANCH   1  19
BRANCH   2  24
HETATM   24  O   UNL     1      -9.191   3.425 -32.677  1.00  0.00    -0.389 OA
HETATM   25  H   UNL     1      -9.354   3.356 -33.636  1.00  0.00     0.210 HD
ENDBRANCH   2  24
BRANCH   7  26
HETATM   26  O   UNL     1      -3.969  -0.382 -30.809  1.00  0.00    -0.343 OA
HETATM   27  H   UNL     1      -3.975  -0.590 -31.756  1.00  0.00     0.219 HD
ENDBRANCH   7  26
TORSDOF 6
ENDMDL
MODEL 4
REMARK VINA RESULT:      -6.8      3.401      6.009
REMARK  6 active torsions:
REMARK  status: ('A' for Active; 'I' for Inactive)
REMARK    1  A    between atoms: C_2  and  O_3 
REMARK    2  A    between atoms: O_3  and  C_4 
REMARK    3  A    between atoms: C_4  and  C_5 
REMARK    4  A    between atoms: C_6  and  O_7 
REMARK    5  A    between atoms: C_12  and  O_13 
REMARK    6  A    between atoms: C_17  and  C_18 
ROOT
HETATM    1  C   UNL     1      -6.240   2.706 -31.990  1.00  0.00     0.133 C 
HETATM    2  C   UNL     1      -5.395   2.097 -30.823  1.00  0.00     0.073 C 
HETATM    3  C   UNL     1      -6.279   1.268 -29.873  1.00  0.00     0.047 C 
HETATM    4  C   UNL     1      -4.203   1.232 -31.314  1.00  0.00     0.097 C 
HETATM    5  C   UNL     1      -4.645   0.352 -32.419  1.00  0.00     0.042 A 
HETATM    6  C   UNL     1      -5.709   0.567 -33.271  1.00  0.00     0.030 A 
HETATM    7  C   UNL     1      -5.648  -0.537 -34.136  1.00  0.00     0.190 A 
HETATM    8  N   UNL     1      -4.668  -1.387 -33.852  1.00  0.00    -0.149 NA
HETATM    9  N   UNL     1      -4.058  -0.819 -32.798  1.00  0.00    -0.279 N 
HETATM   10  H   UNL     1      -3.247  -1.285 -32.401  1.00  0.00     0.189 HD
HETATM   11  C   UNL     1      -6.569   1.783 -33.206  1.00  0.00     0.074 C 
ENDROOT
BRANCH  11  12
HETATM   12  C   UNL     1      -8.033   1.362 -33.260  1.00  0.00    -0.048 A 
HETATM   13  C   UNL     1      -8.572   0.288 -32.533  1.00  0.00     0.009 A 
HETATM   14  C   UNL     1      -9.930  -0.033 -32.626  1.00  0.00     0.024 A 
HETATM   15  C   UNL     1     -10.768   0.720 -33.443  1.00  0.00     0.034 A 
HETATM   16 CL   UNL     1     -12.438   0.321 -33.560  1.00  0.00    -0.084 Cl
HETATM   17  C   UNL     1     -10.263   1.794 -34.165  1.00  0.00     0.024 A 
HETATM   18  C   UNL     1      -8.906   2.115 -34.070  1.00  0.00     0.009 A 
ENDBRANCH  11  12
BRANCH   1  19
HETATM   19  C   UNL     1      -5.587   3.978 -32.499  1.00  0.00     0.267 C 
HETATM   20  O   UNL     1      -5.707   5.054 -31.925  1.00  0.00    -0.265 OA
BRANCH  19  21
HETATM   21  O   UNL     1      -4.872   3.775 -33.635  1.00  0.00    -0.321 OA
BRANCH  21  22
HETATM   22  C   UNL     1      -4.884   4.849 -34.589  1.00  0.00     0.174 C 
HETATM   23  C   UNL     1      -3.462   5.226 -34.954  1.00  0.00     0.034 C 
ENDBRANCH  21  22
ENDBRANCH  19  21
ENDBRANCH   1  19
BRANCH   2  24
HETATM   24  O   UNL     1      -4.847   3.144 -30.001  1.00  0.00    -0.389 OA
HETATM   25  H   UNL     1      -4.397   3.792 -30.574  1.00  0.00     0.210 HD
ENDBRANCH   2  24
BRANCH   7  26
HETATM   26  O   UNL     1      -6.426  -0.856 -35.173  1.00  0.00    -0.343 OA
HETATM   27  H   UNL     1      -6.121  -1.687 -35.568  1.00  0.00     0.219 HD
ENDBRANCH   7  26
TORSDOF 6
ENDMDL
MODEL 5
REMARK VINA RESULT:      -6.5      4.837      6.933
REMARK  6 active torsions:
REMARK  status: ('A' for Active; 'I' for Inactive)
REMARK    1  A    between atoms: C_2  and  O_3 
REMARK    2  A    between atoms: O_3  and  C_4 
REMARK    3  A    between atoms: C_4  and  C_5 
REMARK    4  A    between atoms: C_6  and  O_7 
REMARK    5  A    between atoms: C_12  and  O_13 
REMARK    6  A    between atoms: C_17  and  C_18 
ROOT
HETATM    1  C   UNL     1     -10.633   3.705 -33.031  1.00  0.00     0.133 C 
HETATM    2  C   UNL     1     -11.411   4.419 -34.186  1.00  0.00     0.073 C 
HETATM    3  C   UNL     1     -10.734   4.171 -35.546  1.00  0.00     0.047 C 
HETATM    4  C   UNL     1     -12.907   4.010 -34.264  1.00  0.00     0.097 C 
HETATM    5  C   UNL     1     -13.033   2.544 -34.110  1.00  0.00     0.042 A 
HETATM    6  C   UNL     1     -12.143   1.700 -33.478  1.00  0.00     0.030 A 
HETATM    7  C   UNL     1     -12.766   0.446 -33.588  1.00  0.00     0.190 A 
HETATM    8  N   UNL     1     -13.918   0.476 -34.246  1.00  0.00    -0.149 NA
HETATM    9  N   UNL     1     -14.069   1.776 -34.552  1.00  0.00    -0.279 N 
HETATM   10  H   UNL     1     -14.906   2.059 -35.054  1.00  0.00     0.189 HD
HETATM   11  C   UNL     1     -10.899   2.182 -32.812  1.00  0.00     0.074 C 
ENDROOT
BRANCH  11  12
HETATM   12  C   UNL     1      -9.731   1.301 -33.240  1.00  0.00    -0.048 A 
HETATM   13  C   UNL     1      -9.319   1.130 -34.571  1.00  0.00     0.009 A 
HETATM   14  C   UNL     1      -8.228   0.312 -34.886  1.00  0.00     0.024 A 
HETATM   15  C   UNL     1      -7.532  -0.340 -33.873  1.00  0.00     0.034 A 
HETATM   16 CL   UNL     1      -6.195  -1.349 -34.262  1.00  0.00    -0.084 Cl
HETATM   17  C   UNL     1      -7.913  -0.180 -32.546  1.00  0.00     0.024 A 
HETATM   18  C   UNL     1      -9.002   0.639 -32.232  1.00  0.00     0.009 A 
ENDBRANCH  11  12
BRANCH   1  19
HETATM   19  C   UNL     1     -10.854   4.437 -31.721  1.00  0.00     0.267 C 
HETATM   20  O   UNL     1     -11.868   4.288 -31.047  1.00  0.00    -0.265 OA
BRANCH  19  21
HETATM   21  O   UNL     1      -9.817   5.251 -31.399  1.00  0.00    -0.321 OA
BRANCH  21  22
HETATM   22  C   UNL     1      -8.521   4.633 -31.350  1.00  0.00     0.174 C 
HETATM   23  C   UNL     1      -8.438   3.711 -30.150  1.00  0.00     0.034 C 
ENDBRANCH  21  22
ENDBRANCH  19  21
ENDBRANCH   1  19
BRANCH   2  24
HETATM   24  O   UNL     1     -11.372   5.847 -34.007  1.00  0.00    -0.389 OA
HETATM   25  H   UNL     1     -12.282   6.195 -34.046  1.00  0.00     0.210 HD
ENDBRANCH   2  24
BRANCH   7  26
HETATM   26  O   UNL     1     -12.367  -0.749 -33.146  1.00  0.00    -0.343 OA
HETATM   27  H   UNL     1     -12.948  -1.044 -32.429  1.00  0.00     0.219 HD
ENDBRANCH   7  26
TORSDOF 6
ENDMDL
MODEL 6
REMARK VINA RESULT:      -6.5      3.422      4.807
REMARK  6 active torsions:
REMARK  status: ('A' for Active; 'I' for Inactive)
REMARK    1  A    between atoms: C_2  and  O_3 
REMARK    2  A    between atoms: O_3  and  C_4 
REMARK    3  A    between atoms: C_4  and  C_5 
REMARK    4  A    between atoms: C_6  and  O_7 
REMARK    5  A    between atoms: C_12  and  O_13 
REMARK    6  A    between atoms: C_17  and  C_18 
ROOT
HETATM    1  C   UNL     1      -9.887   2.585 -33.079  1.00  0.00     0.133 C 
HETATM    2  C   UNL     1     -10.047   3.398 -31.752  1.00  0.00     0.073 C 
HETATM    3  C   UNL     1      -9.317   2.705 -30.587  1.00  0.00     0.047 C 
HETATM    4  C   UNL     1      -9.562   4.869 -31.870  1.00  0.00     0.097 C 
HETATM    5  C   UNL     1      -8.271   4.913 -32.591  1.00  0.00     0.042 A 
HETATM    6  C   UNL     1      -7.792   3.980 -33.487  1.00  0.00     0.030 A 
HETATM    7  C   UNL     1      -6.566   4.531 -33.893  1.00  0.00     0.190 A 
HETATM    8  N   UNL     1      -6.274   5.681 -33.298  1.00  0.00    -0.149 NA
HETATM    9  N   UNL     1      -7.337   5.904 -32.507  1.00  0.00    -0.279 N 
HETATM   10  H   UNL     1      -7.356   6.753 -31.951  1.00  0.00     0.189 HD
HETATM   11  C   UNL     1      -8.563   2.767 -33.886  1.00  0.00     0.074 C 
ENDROOT
BRANCH  11  12
HETATM   12  C   UNL     1      -7.647   1.550 -33.817  1.00  0.00    -0.048 A 
HETATM   13  C   UNL     1      -6.892   1.194 -32.688  1.00  0.00     0.009 A 
HETATM   14  C   UNL     1      -6.081   0.054 -32.697  1.00  0.00     0.024 A 
HETATM   15  C   UNL     1      -6.020  -0.748 -33.831  1.00  0.00     0.034 A 
HETATM   16 CL   UNL     1      -5.018  -2.146 -33.842  1.00  0.00    -0.084 Cl
HETATM   17  C   UNL     1      -6.766  -0.424 -34.959  1.00  0.00     0.024 A 
HETATM   18  C   UNL     1      -7.577   0.714 -34.949  1.00  0.00     0.009 A 
ENDBRANCH  11  12
BRANCH   1  19
HETATM   19  C   UNL     1     -11.065   2.851 -33.999  1.00  0.00     0.267 C 
HETATM   20  O   UNL     1     -10.984   3.591 -34.973  1.00  0.00    -0.265 OA
BRANCH  19  21
HETATM   21  O   UNL     1     -12.183   2.183 -33.618  1.00  0.00    -0.321 OA
BRANCH  21  22
HETATM   22  C   UNL     1     -12.696   1.224 -34.556  1.00  0.00     0.174 C 
HETATM   23  C   UNL     1     -13.322   0.063 -33.810  1.00  0.00     0.034 C 
ENDBRANCH  21  22
ENDBRANCH  19  21
ENDBRANCH   1  19
BRANCH   2  24
HETATM   24  O   UNL     1     -11.429   3.440 -31.352  1.00  0.00    -0.389 OA
HETATM   25  H   UNL     1     -11.612   2.681 -30.768  1.00  0.00     0.210 HD
ENDBRANCH   2  24
BRANCH   7  26
HETATM   26  O   UNL     1      -5.665   4.068 -34.762  1.00  0.00    -0.343 OA
HETATM   27  H   UNL     1      -6.004   3.266 -35.189  1.00  0.00     0.219 HD
ENDBRANCH   7  26
TORSDOF 6
ENDMDL
MODEL 7
REMARK VINA RESULT:      -6.4      3.381      4.858
REMARK  6 active torsions:
REMARK  status: ('A' for Active; 'I' for Inactive)
REMARK    1  A    between atoms: C_2  and  O_3 
REMARK    2  A    between atoms: O_3  and  C_4 
REMARK    3  A    between atoms: C_4  and  C_5 
REMARK    4  A    between atoms: C_6  and  O_7 
REMARK    5  A    between atoms: C_12  and  O_13 
REMARK    6  A    between atoms: C_17  and  C_18 
ROOT
HETATM    1  C   UNL     1      -9.760   2.558 -33.172  1.00  0.00     0.133 C 
HETATM    2  C   UNL     1      -9.957   3.320 -31.819  1.00  0.00     0.073 C 
HETATM    3  C   UNL     1      -9.226   2.604 -30.669  1.00  0.00     0.047 C 
HETATM    4  C   UNL     1      -9.508   4.805 -31.879  1.00  0.00     0.097 C 
HETATM    5  C   UNL     1      -8.209   4.906 -32.580  1.00  0.00     0.042 A 
HETATM    6  C   UNL     1      -7.696   4.017 -33.502  1.00  0.00     0.030 A 
HETATM    7  C   UNL     1      -6.478   4.612 -33.871  1.00  0.00     0.190 A 
HETATM    8  N   UNL     1      -6.222   5.747 -33.233  1.00  0.00    -0.149 NA
HETATM    9  N   UNL     1      -7.302   5.916 -32.449  1.00  0.00    -0.279 N 
HETATM   10  H   UNL     1      -7.348   6.745 -31.864  1.00  0.00     0.189 HD
HETATM   11  C   UNL     1      -8.430   2.800 -33.953  1.00  0.00     0.074 C 
ENDROOT
BRANCH  11  12
HETATM   12  C   UNL     1      -7.486   1.604 -33.914  1.00  0.00    -0.048 A 
HETATM   13  C   UNL     1      -6.619   1.319 -32.847  1.00  0.00     0.009 A 
HETATM   14  C   UNL     1      -5.788   0.194 -32.878  1.00  0.00     0.024 A 
HETATM   15  C   UNL     1      -5.817  -0.662 -33.974  1.00  0.00     0.034 A 
HETATM   16 CL   UNL     1      -4.790  -2.042 -34.013  1.00  0.00    -0.084 Cl
HETATM   17  C   UNL     1      -6.672  -0.408 -35.039  1.00  0.00     0.024 A 
HETATM   18  C   UNL     1      -7.504   0.715 -35.006  1.00  0.00     0.009 A 
ENDBRANCH  11  12
BRANCH   1  19
HETATM   19  C   UNL     1     -10.932   2.828 -34.098  1.00  0.00     0.267 C 
HETATM   20  O   UNL     1     -12.051   2.372 -33.892  1.00  0.00    -0.265 OA
BRANCH  19  21
HETATM   21  O   UNL     1     -10.592   3.617 -35.149  1.00  0.00    -0.321 OA
BRANCH  21  22
HETATM   22  C   UNL     1     -11.270   4.881 -35.234  1.00  0.00     0.174 C 
HETATM   23  C   UNL     1     -10.258   5.991 -35.434  1.00  0.00     0.034 C 
ENDBRANCH  21  22
ENDBRANCH  19  21
ENDBRANCH   1  19
BRANCH   2  24
HETATM   24  O   UNL     1     -11.345   3.313 -31.438  1.00  0.00    -0.389 OA
HETATM   25  H   UNL     1     -11.407   3.217 -30.469  1.00  0.00     0.210 HD
ENDBRANCH   2  24
BRANCH   7  26
HETATM   26  O   UNL     1      -5.554   4.202 -34.742  1.00  0.00    -0.343 OA
HETATM   27  H   UNL     1      -5.577   4.763 -35.532  1.00  0.00     0.219 HD
ENDBRANCH   7  26
TORSDOF 6
ENDMDL
MODEL 8
REMARK VINA RESULT:      -6.4      1.305      2.054
REMARK  6 active torsions:
REMARK  status: ('A' for Active; 'I' for Inactive)
REMARK    1  A    between atoms: C_2  and  O_3 
REMARK    2  A    between atoms: O_3  and  C_4 
REMARK    3  A    between atoms: C_4  and  C_5 
REMARK    4  A    between atoms: C_6  and  O_7 
REMARK    5  A    between atoms: C_12  and  O_13 
REMARK    6  A    between atoms: C_17  and  C_18 
ROOT
HETATM    1  C   UNL     1      -6.528   2.322 -32.667  1.00  0.00     0.133 C 
HETATM    2  C   UNL     1      -6.355   1.388 -31.424  1.00  0.00     0.073 C 
HETATM    3  C   UNL     1      -4.887   0.957 -31.255  1.00  0.00     0.047 C 
HETATM    4  C   UNL     1      -6.868   2.023 -30.103  1.00  0.00     0.097 C 
HETATM    5  C   UNL     1      -6.417   3.429 -30.015  1.00  0.00     0.042 A 
HETATM    6  C   UNL     1      -6.085   4.257 -31.068  1.00  0.00     0.030 A 
HETATM    7  C   UNL     1      -5.776   5.470 -30.430  1.00  0.00     0.190 A 
HETATM    8  N   UNL     1      -5.870   5.418 -29.107  1.00  0.00    -0.149 NA
HETATM    9  N   UNL     1      -6.273   4.157 -28.872  1.00  0.00    -0.279 N 
HETATM   10  H   UNL     1      -6.435   3.874 -27.910  1.00  0.00     0.189 HD
HETATM   11  C   UNL     1      -6.172   3.832 -32.495  1.00  0.00     0.074 C 
ENDROOT
BRANCH  11  12
HETATM   12  C   UNL     1      -4.889   4.232 -33.213  1.00  0.00    -0.048 A 
HETATM   13  C   UNL     1      -4.850   4.981 -34.400  1.00  0.00     0.009 A 
HETATM   14  C   UNL     1      -3.630   5.320 -34.996  1.00  0.00     0.024 A 
HETATM   15  C   UNL     1      -2.434   4.919 -34.410  1.00  0.00     0.034 A 
HETATM   16 CL   UNL     1      -0.936   5.332 -35.146  1.00  0.00    -0.084 Cl
HETATM   17  C   UNL     1      -2.444   4.185 -33.229  1.00  0.00     0.024 A 
HETATM   18  C   UNL     1      -3.663   3.849 -32.633  1.00  0.00     0.009 A 
ENDBRANCH  11  12
BRANCH   1  19
HETATM   19  C   UNL     1      -7.939   2.207 -33.214  1.00  0.00     0.267 C 
HETATM   20  O   UNL     1      -8.834   2.980 -32.891  1.00  0.00    -0.265 OA
BRANCH  19  21
HETATM   21  O   UNL     1      -8.078   1.173 -34.082  1.00  0.00    -0.321 OA
BRANCH  21  22
HETATM   22  C   UNL     1      -6.968   0.932 -34.961  1.00  0.00     0.174 C 
HETATM   23  C   UNL     1      -6.689  -0.555 -35.039  1.00  0.00     0.034 C 
ENDBRANCH  21  22
ENDBRANCH  19  21
ENDBRANCH   1  19
BRANCH   2  24
HETATM   24  O   UNL     1      -7.083   0.161 -31.614  1.00  0.00    -0.389 OA
HETATM   25  H   UNL     1      -7.017  -0.104 -32.550  1.00  0.00     0.210 HD
ENDBRANCH   2  24
BRANCH   7  26
HETATM   26  O   UNL     1      -5.396   6.638 -30.951  1.00  0.00    -0.343 OA
HETATM   27  H   UNL     1      -4.489   6.840 -30.677  1.00  0.00     0.219 HD
ENDBRANCH   7  26
TORSDOF 6
ENDMDL
MODEL 9
REMARK VINA RESULT:      -6.3      4.113      7.105
REMARK  6 active torsions:
REMARK  status: ('A' for Active; 'I' for Inactive)
REMARK    1  A    between atoms: C_2  and  O_3 
REMARK    2  A    between atoms: O_3  and  C_4 
REMARK    3  A    between atoms: C_4  and  C_5 
REMARK    4  A    between atoms: C_6  and  O_7 
REMARK    5  A    between atoms: C_12  and  O_13 
REMARK    6  A    between atoms: C_17  and  C_18 
ROOT
HETATM    1  C   UNL     1      -3.035   6.536 -30.865  1.00  0.00     0.133 C 
HETATM    2  C   UNL     1      -1.597   6.526 -31.482  1.00  0.00     0.073 C 
HETATM    3  C   UNL     1      -0.922   5.156 -31.291  1.00  0.00     0.047 C 
HETATM    4  C   UNL     1      -1.570   6.917 -32.984  1.00  0.00     0.097 C 
HETATM    5  C   UNL     1      -2.665   6.226 -33.701  1.00  0.00     0.042 A 
HETATM    6  C   UNL     1      -3.842   5.757 -33.155  1.00  0.00     0.030 A 
HETATM    7  C   UNL     1      -4.521   5.238 -34.270  1.00  0.00     0.190 A 
HETATM    8  N   UNL     1      -3.841   5.336 -35.405  1.00  0.00    -0.149 NA
HETATM    9  N   UNL     1      -2.705   5.954 -35.036  1.00  0.00    -0.279 N 
HETATM   10  H   UNL     1      -2.015   6.161 -35.751  1.00  0.00     0.189 HD
HETATM   11  C   UNL     1      -4.192   5.920 -31.715  1.00  0.00     0.074 C 
ENDROOT
BRANCH  11  12
HETATM   12  C   UNL     1      -4.693   4.588 -31.169  1.00  0.00    -0.048 A 
HETATM   13  C   UNL     1      -5.895   4.428 -30.462  1.00  0.00     0.009 A 
HETATM   14  C   UNL     1      -6.295   3.169 -30.001  1.00  0.00     0.024 A 
HETATM   15  C   UNL     1      -5.501   2.053 -30.247  1.00  0.00     0.034 A 
HETATM   16 CL   UNL     1      -5.991   0.507 -29.675  1.00  0.00    -0.084 Cl
HETATM   17  C   UNL     1      -4.311   2.183 -30.953  1.00  0.00     0.024 A 
HETATM   18  C   UNL     1      -3.913   3.440 -31.415  1.00  0.00     0.009 A 
ENDBRANCH  11  12
BRANCH   1  19
HETATM   19  C   UNL     1      -3.420   7.946 -30.459  1.00  0.00     0.267 C 
HETATM   20  O   UNL     1      -3.924   8.742 -31.242  1.00  0.00    -0.265 OA
BRANCH  19  21
HETATM   21  O   UNL     1      -3.145   8.204 -29.154  1.00  0.00    -0.321 OA
BRANCH  21  22
HETATM   22  C   UNL     1      -3.667   7.265 -28.202  1.00  0.00     0.174 C 
HETATM   23  C   UNL     1      -5.159   7.475 -28.040  1.00  0.00     0.034 C 
ENDBRANCH  21  22
ENDBRANCH  19  21
ENDBRANCH   1  19
BRANCH   2  24
HETATM   24  O   UNL     1      -0.749   7.459 -30.787  1.00  0.00    -0.389 OA
HETATM   25  H   UNL     1      -1.290   7.974 -30.161  1.00  0.00     0.210 HD
ENDBRANCH   2  24
BRANCH   7  26
HETATM   26  O   UNL     1      -5.722   4.660 -34.347  1.00  0.00    -0.343 OA
HETATM   27  H   UNL     1      -5.622   3.733 -34.611  1.00  0.00     0.219 HD
ENDBRANCH   7  26
TORSDOF 6
ENDMDL
MODEL 10
REMARK VINA RESULT:      -6.3      4.056      5.913
REMARK  6 active torsions:
REMARK  status: ('A' for Active; 'I' for Inactive)
REMARK    1  A    between atoms: C_2  and  O_3 
REMARK    2  A    between atoms: O_3  and  C_4 
REMARK    3  A    between atoms: C_4  and  C_5 
REMARK    4  A    between atoms: C_6  and  O_7 
REMARK    5  A    between atoms: C_12  and  O_13 
REMARK    6  A    between atoms: C_17  and  C_18 
ROOT
HETATM    1  C   UNL     1     -11.603   2.194 -34.838  1.00  0.00     0.133 C 
HETATM    2  C   UNL     1     -12.930   1.849 -34.084  1.00  0.00     0.073 C 
HETATM    3  C   UNL     1     -12.881   0.425 -33.500  1.00  0.00     0.047 C 
HETATM    4  C   UNL     1     -13.278   2.862 -32.960  1.00  0.00     0.097 C 
HETATM    5  C   UNL     1     -12.064   3.176 -32.175  1.00  0.00     0.042 A 
HETATM    6  C   UNL     1     -10.756   3.079 -32.602  1.00  0.00     0.030 A 
HETATM    7  C   UNL     1     -10.027   3.532 -31.491  1.00  0.00     0.190 A 
HETATM    8  N   UNL     1     -10.783   3.856 -30.450  1.00  0.00    -0.149 NA
HETATM    9  N   UNL     1     -12.034   3.639 -30.893  1.00  0.00    -0.279 N 
HETATM   10  H   UNL     1     -12.808   3.836 -30.266  1.00  0.00     0.189 HD
HETATM   11  C   UNL     1     -10.382   2.656 -33.983  1.00  0.00     0.074 C 
ENDROOT
BRANCH  11  12
HETATM   12  C   UNL     1      -9.276   1.610 -33.901  1.00  0.00    -0.048 A 
HETATM   13  C   UNL     1      -9.411   0.369 -33.259  1.00  0.00     0.009 A 
HETATM   14  C   UNL     1      -8.354  -0.547 -33.234  1.00  0.00     0.024 A 
HETATM   15  C   UNL     1      -7.149  -0.235 -33.857  1.00  0.00     0.034 A 
HETATM   16 CL   UNL     1      -5.848  -1.359 -33.822  1.00  0.00    -0.084 Cl
HETATM   17  C   UNL     1      -6.992   0.983 -34.508  1.00  0.00     0.024 A 
HETATM   18  C   UNL     1      -8.050   1.896 -34.533  1.00  0.00     0.009 A 
ENDBRANCH  11  12
BRANCH   1  19
HETATM   19  C   UNL     1     -11.869   3.228 -35.916  1.00  0.00     0.267 C 
HETATM   20  O   UNL     1     -12.466   2.959 -36.953  1.00  0.00    -0.265 OA
BRANCH  19  21
HETATM   21  O   UNL     1     -11.380   4.452 -35.594  1.00  0.00    -0.321 OA
BRANCH  21  22
HETATM   22  C   UNL     1     -12.354   5.481 -35.362  1.00  0.00     0.174 C 
HETATM   23  C   UNL     1     -11.778   6.533 -34.435  1.00  0.00     0.034 C 
ENDBRANCH  21  22
ENDBRANCH  19  21
ENDBRANCH   1  19
BRANCH   2  24
HETATM   24  O   UNL     1     -14.039   1.836 -35.001  1.00  0.00    -0.389 OA
HETATM   25  H   UNL     1     -14.661   1.134 -34.735  1.00  0.00     0.210 HD
ENDBRANCH   2  24
BRANCH   7  26
HETATM   26  O   UNL     1      -8.708   3.666 -31.330  1.00  0.00    -0.343 OA
HETATM   27  H   UNL     1      -8.525   4.425 -30.756  1.00  0.00     0.219 HD
ENDBRANCH   7  26
TORSDOF 6
ENDMDL
