MODEL 1
REMARK VINA RESULT:      -9.8      0.000      0.000
REMARK  8 active torsions:
REMARK  status: ('A' for Active; 'I' for Inactive)
REMARK    1  A    between atoms: N_2  and  C_4 
REMARK    2  A    between atoms: N_2  and  C_32 
REMARK    3  A    between atoms: C_4  and  C_5 
REMARK    4  A    between atoms: N_8  and  C_9 
REMARK    5  A    between atoms: C_12  and  N_13 
REMARK       I    between atoms: N_13  and  C_14 
REMARK       I    between atoms: C_14  and  N_15 
REMARK    6  A    between atoms: N_15  and  C_16 
REMARK    7  A    between atoms: C_18  and  C_19 
REMARK    8  A    between atoms: C_32  and  C_33 
ROOT
HETATM    1  C   UNL     1      -2.957   6.581 -32.147  1.00  0.00     0.161 C 
HETATM    2  C   UNL     1      -3.090   5.523 -31.064  1.00  0.00     0.179 C 
HETATM    3  C   UNL     1      -2.658   4.233 -31.744  1.00  0.00     0.177 C 
HETATM    4  C   UNL     1      -3.958   3.463 -31.921  1.00  0.00     0.141 C 
HETATM    5  C   UNL     1      -4.824   4.012 -30.789  1.00  0.00     0.196 C 
HETATM    6  O   UNL     1      -4.456   5.397 -30.641  1.00  0.00    -0.379 OA
HETATM    7  O   UNL     1      -2.070   4.576 -33.011  1.00  0.00    -0.379 OA
HETATM    8  C   UNL     1      -1.847   5.998 -33.004  1.00  0.00     0.198 C 
ENDROOT
BRANCH   1   9
HETATM    9  N   UNL     1      -2.727   7.903 -31.614  1.00  0.00    -0.274 N 
HETATM   10  N   UNL     1      -1.977   8.812 -32.263  1.00  0.00     0.005 NA
HETATM   11  N   UNL     1      -1.947   9.914 -31.530  1.00  0.00    -0.161 NA
HETATM   12  C   UNL     1      -2.696   9.699 -30.404  1.00  0.00     0.095 A 
HETATM   13  C   UNL     1      -3.216   8.426 -30.447  1.00  0.00     0.139 A 
BRANCH  12  14
HETATM   14  C   UNL     1      -2.794  10.756 -29.369  1.00  0.00     0.296 C 
BRANCH  14  15
HETATM   15  N   UNL     1      -2.446  10.245 -27.985  1.00  0.00    -0.066 N 
HETATM   16  C   UNL     1      -3.583  10.399 -27.014  1.00  0.00     0.270 C 
HETATM   17  H   UNL     1      -2.311   9.230 -28.104  1.00  0.00     0.280 HD
BRANCH  15  18
HETATM   18  C   UNL     1      -1.149  10.818 -27.483  1.00  0.00     0.273 C 
BRANCH  18  19
HETATM   19  C   UNL     1      -0.109   9.774 -27.182  1.00  0.00    -0.033 A 
HETATM   20  C   UNL     1      -0.089   8.564 -27.892  1.00  0.00     0.009 A 
HETATM   21  C   UNL     1       0.857   7.583 -27.590  1.00  0.00     0.001 A 
HETATM   22  C   UNL     1       1.791   7.802 -26.579  1.00  0.00     0.000 A 
HETATM   23  C   UNL     1       1.783   9.000 -25.870  1.00  0.00     0.001 A 
HETATM   24  C   UNL     1       0.839   9.984 -26.169  1.00  0.00     0.009 A 
ENDBRANCH  18  19
ENDBRANCH  15  18
ENDBRANCH  14  15
ENDBRANCH  12  14
ENDBRANCH   1   9
BRANCH   4  25
HETATM   25  N   UNL     1      -3.821   2.014 -31.980  1.00  0.00    -0.334 N 
HETATM   26  C   UNL     1      -4.682   1.219 -32.712  1.00  0.00     0.321 C 
HETATM   27  N   UNL     1      -4.304  -0.103 -32.648  1.00  0.00    -0.309 N 
HETATM   28  O   UNL     1      -5.614   1.690 -33.348  1.00  0.00    -0.247 OA
HETATM   29  H   UNL     1      -3.487  -0.302 -32.092  1.00  0.00     0.170 HD
HETATM   30  H   UNL     1      -3.423   1.582 -31.158  1.00  0.00     0.164 HD
BRANCH  27  31
HETATM   31  C   UNL     1      -4.857  -1.194 -33.349  1.00  0.00     0.037 A 
HETATM   32  C   UNL     1      -4.256  -2.452 -33.438  1.00  0.00     0.045 A 
HETATM   33  C   UNL     1      -4.889  -3.509 -34.119  1.00  0.00     0.050 A 
HETATM   34  C   UNL     1      -6.126  -3.280 -34.738  1.00  0.00     0.016 A 
HETATM   35  C   UNL     1      -6.726  -2.026 -34.662  1.00  0.00     0.003 A 
HETATM   36  C   UNL     1      -6.096  -0.991 -33.969  1.00  0.00     0.029 A 
BRANCH  33  37
HETATM   37  C   UNL     1      -4.234  -4.866 -34.209  1.00  0.00     0.417 C 
HETATM   38  F   UNL     1      -4.225  -5.545 -33.029  1.00  0.00    -0.166 F 
HETATM   39  F   UNL     1      -4.848  -5.690 -35.104  1.00  0.00    -0.166 F 
HETATM   40  F   UNL     1      -2.934  -4.788 -34.605  1.00  0.00    -0.166 F 
ENDBRANCH  33  37
ENDBRANCH  27  31
ENDBRANCH   4  25
TORSDOF 8
ENDMDL
MODEL 2
REMARK VINA RESULT:      -9.7      1.956      2.912
REMARK  8 active torsions:
REMARK  status: ('A' for Active; 'I' for Inactive)
REMARK    1  A    between atoms: N_2  and  C_4 
REMARK    2  A    between atoms: N_2  and  C_32 
REMARK    3  A    between atoms: C_4  and  C_5 
REMARK    4  A    between atoms: N_8  and  C_9 
REMARK    5  A    between atoms: C_12  and  N_13 
REMARK       I    between atoms: N_13  and  C_14 
REMARK       I    between atoms: C_14  and  N_15 
REMARK    6  A    between atoms: N_15  and  C_16 
REMARK    7  A    between atoms: C_18  and  C_19 
REMARK    8  A    between atoms: C_32  and  C_33 
ROOT
HETATM    1  C   UNL     1      -5.065   5.480 -29.902  1.00  0.00     0.161 C 
HETATM    2  C   UNL     1      -4.491   5.180 -31.277  1.00  0.00     0.179 C 
HETATM    3  C   UNL     1      -5.500   4.232 -31.907  1.00  0.00     0.177 C 
HETATM    4  C   UNL     1      -4.790   2.886 -31.896  1.00  0.00     0.141 C 
HETATM    5  C   UNL     1      -3.317   3.289 -31.921  1.00  0.00     0.196 C 
HETATM    6  O   UNL     1      -3.225   4.512 -31.165  1.00  0.00    -0.379 OA
HETATM    7  O   UNL     1      -6.673   4.218 -31.076  1.00  0.00    -0.379 OA
HETATM    8  C   UNL     1      -6.554   5.318 -30.155  1.00  0.00     0.198 C 
ENDROOT
BRANCH   1   9
HETATM    9  N   UNL     1      -4.639   6.757 -29.383  1.00  0.00    -0.274 N 
HETATM   10  N   UNL     1      -5.363   7.877 -29.561  1.00  0.00     0.005 NA
HETATM   11  N   UNL     1      -4.719   8.877 -28.981  1.00  0.00    -0.161 NA
HETATM   12  C   UNL     1      -3.573   8.378 -28.421  1.00  0.00     0.095 A 
HETATM   13  C   UNL     1      -3.511   7.024 -28.652  1.00  0.00     0.139 A 
BRANCH  12  14
HETATM   14  C   UNL     1      -2.621   9.295 -27.746  1.00  0.00     0.296 C 
BRANCH  14  15
HETATM   15  N   UNL     1      -1.397   8.573 -27.220  1.00  0.00    -0.066 N 
HETATM   16  C   UNL     1      -1.077   8.945 -25.800  1.00  0.00     0.270 C 
HETATM   17  H   UNL     1      -1.664   7.578 -27.199  1.00  0.00     0.280 HD
BRANCH  15  18
HETATM   18  C   UNL     1      -0.223   8.706 -28.151  1.00  0.00     0.273 C 
BRANCH  18  19
HETATM   19  C   UNL     1       0.079   7.448 -28.918  1.00  0.00    -0.033 A 
HETATM   20  C   UNL     1       0.571   6.312 -28.258  1.00  0.00     0.009 A 
HETATM   21  C   UNL     1       0.880   5.156 -28.976  1.00  0.00     0.001 A 
HETATM   22  C   UNL     1       0.700   5.122 -30.357  1.00  0.00     0.000 A 
HETATM   23  C   UNL     1       0.209   6.242 -31.023  1.00  0.00     0.001 A 
HETATM   24  C   UNL     1      -0.102   7.401 -30.310  1.00  0.00     0.009 A 
ENDBRANCH  18  19
ENDBRANCH  15  18
ENDBRANCH  14  15
ENDBRANCH  12  14
ENDBRANCH   1   9
BRANCH   4  25
HETATM   25  N   UNL     1      -5.218   1.948 -32.926  1.00  0.00    -0.334 N 
HETATM   26  C   UNL     1      -4.970   0.592 -32.838  1.00  0.00     0.321 C 
HETATM   27  N   UNL     1      -5.523  -0.078 -33.906  1.00  0.00    -0.309 N 
HETATM   28  O   UNL     1      -4.371   0.103 -31.891  1.00  0.00    -0.247 OA
HETATM   29  H   UNL     1      -6.008   0.492 -34.581  1.00  0.00     0.170 HD
HETATM   30  H   UNL     1      -5.261   2.323 -33.863  1.00  0.00     0.164 HD
BRANCH  27  31
HETATM   31  C   UNL     1      -5.584  -1.471 -34.113  1.00  0.00     0.037 A 
HETATM   32  C   UNL     1      -4.566  -2.360 -33.762  1.00  0.00     0.045 A 
HETATM   33  C   UNL     1      -4.715  -3.746 -33.958  1.00  0.00     0.050 A 
HETATM   34  C   UNL     1      -5.895  -4.229 -34.542  1.00  0.00     0.016 A 
HETATM   35  C   UNL     1      -6.911  -3.348 -34.904  1.00  0.00     0.003 A 
HETATM   36  C   UNL     1      -6.757  -1.978 -34.687  1.00  0.00     0.029 A 
BRANCH  33  37
HETATM   37  C   UNL     1      -3.611  -4.700 -33.575  1.00  0.00     0.417 C 
HETATM   38  F   UNL     1      -2.742  -4.962 -34.590  1.00  0.00    -0.166 F 
HETATM   39  F   UNL     1      -2.848  -4.237 -32.546  1.00  0.00    -0.166 F 
HETATM   40  F   UNL     1      -4.089  -5.908 -33.170  1.00  0.00    -0.166 F 
ENDBRANCH  33  37
ENDBRANCH  27  31
ENDBRANCH   4  25
TORSDOF 8
ENDMDL
MODEL 3
REMARK VINA RESULT:      -9.7      2.153      2.905
REMARK  8 active torsions:
REMARK  status: ('A' for Active; 'I' for Inactive)
REMARK    1  A    between atoms: N_2  and  C_4 
REMARK    2  A    between atoms: N_2  and  C_32 
REMARK    3  A    between atoms: C_4  and  C_5 
REMARK    4  A    between atoms: N_8  and  C_9 
REMARK    5  A    between atoms: C_12  and  N_13 
REMARK       I    between atoms: N_13  and  C_14 
REMARK       I    between atoms: C_14  and  N_15 
REMARK    6  A    between atoms: N_15  and  C_16 
REMARK    7  A    between atoms: C_18  and  C_19 
REMARK    8  A    between atoms: C_32  and  C_33 
ROOT
HETATM    1  C   UNL     1      -4.832   5.477 -31.209  1.00  0.00     0.161 C 
HETATM    2  C   UNL     1      -4.926   3.974 -31.002  1.00  0.00     0.179 C 
HETATM    3  C   UNL     1      -4.728   3.390 -32.393  1.00  0.00     0.177 C 
HETATM    4  C   UNL     1      -6.113   2.893 -32.778  1.00  0.00     0.141 C 
HETATM    5  C   UNL     1      -6.754   2.614 -31.421  1.00  0.00     0.196 C 
HETATM    6  O   UNL     1      -6.227   3.607 -30.519  1.00  0.00    -0.379 OA
HETATM    7  O   UNL     1      -4.286   4.450 -33.259  1.00  0.00    -0.379 OA
HETATM    8  C   UNL     1      -3.917   5.559 -32.418  1.00  0.00     0.198 C 
ENDROOT
BRANCH   1   9
HETATM    9  N   UNL     1      -4.395   6.180 -30.027  1.00  0.00    -0.274 N 
HETATM   10  N   UNL     1      -4.973   5.986 -28.828  1.00  0.00     0.005 NA
HETATM   11  N   UNL     1      -4.364   6.767 -27.950  1.00  0.00    -0.161 NA
HETATM   12  C   UNL     1      -3.381   7.461 -28.605  1.00  0.00     0.095 A 
HETATM   13  C   UNL     1      -3.374   7.088 -29.929  1.00  0.00     0.139 A 
BRANCH  12  14
HETATM   14  C   UNL     1      -2.568   8.460 -27.871  1.00  0.00     0.296 C 
BRANCH  14  15
HETATM   15  N   UNL     1      -1.413   7.828 -27.120  1.00  0.00    -0.066 N 
HETATM   16  C   UNL     1      -1.422   8.173 -25.657  1.00  0.00     0.270 C 
HETATM   17  H   UNL     1      -1.586   6.814 -27.173  1.00  0.00     0.280 HD
BRANCH  15  18
HETATM   18  C   UNL     1      -0.093   8.097 -27.789  1.00  0.00     0.273 C 
BRANCH  18  19
HETATM   19  C   UNL     1       0.254   7.094 -28.855  1.00  0.00    -0.033 A 
HETATM   20  C   UNL     1       0.262   7.467 -30.208  1.00  0.00     0.009 A 
HETATM   21  C   UNL     1       0.553   6.527 -31.197  1.00  0.00     0.001 A 
HETATM   22  C   UNL     1       0.840   5.210 -30.846  1.00  0.00     0.000 A 
HETATM   23  C   UNL     1       0.839   4.829 -29.507  1.00  0.00     0.001 A 
HETATM   24  C   UNL     1       0.549   5.765 -28.513  1.00  0.00     0.009 A 
ENDBRANCH  18  19
ENDBRANCH  15  18
ENDBRANCH  14  15
ENDBRANCH  12  14
ENDBRANCH   1   9
BRANCH   4  25
HETATM   25  N   UNL     1      -6.136   1.797 -33.738  1.00  0.00    -0.334 N 
HETATM   26  C   UNL     1      -5.840   0.496 -33.380  1.00  0.00     0.321 C 
HETATM   27  N   UNL     1      -5.987  -0.354 -34.453  1.00  0.00    -0.309 N 
HETATM   28  O   UNL     1      -5.535   0.193 -32.236  1.00  0.00    -0.247 OA
HETATM   29  H   UNL     1      -6.274   0.075 -35.319  1.00  0.00     0.170 HD
HETATM   30  H   UNL     1      -5.909   2.049 -34.690  1.00  0.00     0.164 HD
BRANCH  27  31
HETATM   31  C   UNL     1      -5.890  -1.760 -34.460  1.00  0.00     0.037 A 
HETATM   32  C   UNL     1      -4.768  -2.469 -34.023  1.00  0.00     0.045 A 
HETATM   33  C   UNL     1      -4.759  -3.877 -34.018  1.00  0.00     0.050 A 
HETATM   34  C   UNL     1      -5.885  -4.569 -34.486  1.00  0.00     0.016 A 
HETATM   35  C   UNL     1      -7.003  -3.869 -34.933  1.00  0.00     0.003 A 
HETATM   36  C   UNL     1      -7.006  -2.473 -34.916  1.00  0.00     0.029 A 
BRANCH  33  37
HETATM   37  C   UNL     1      -3.543  -4.635 -33.544  1.00  0.00     0.417 C 
HETATM   38  F   UNL     1      -2.841  -3.985 -32.575  1.00  0.00    -0.166 F 
HETATM   39  F   UNL     1      -3.855  -5.854 -33.019  1.00  0.00    -0.166 F 
HETATM   40  F   UNL     1      -2.659  -4.877 -34.549  1.00  0.00    -0.166 F 
ENDBRANCH  33  37
ENDBRANCH  27  31
ENDBRANCH   4  25
TORSDOF 8
ENDMDL
MODEL 4
REMARK VINA RESULT:      -9.6      2.164      3.027
REMARK  8 active torsions:
REMARK  status: ('A' for Active; 'I' for Inactive)
REMARK    1  A    between atoms: N_2  and  C_4 
REMARK    2  A    between atoms: N_2  and  C_32 
REMARK    3  A    between atoms: C_4  and  C_5 
REMARK    4  A    between atoms: N_8  and  C_9 
REMARK    5  A    between atoms: C_12  and  N_13 
REMARK       I    between atoms: N_13  and  C_14 
REMARK       I    between atoms: C_14  and  N_15 
REMARK    6  A    between atoms: N_15  and  C_16 
REMARK    7  A    between atoms: C_18  and  C_19 
REMARK    8  A    between atoms: C_32  and  C_33 
ROOT
HETATM    1  C   UNL     1      -5.943   4.970 -29.139  1.00  0.00     0.161 C 
HETATM    2  C   UNL     1      -5.533   5.105 -30.596  1.00  0.00     0.179 C 
HETATM    3  C   UNL     1      -6.180   3.911 -31.281  1.00  0.00     0.177 C 
HETATM    4  C   UNL     1      -5.010   2.987 -31.583  1.00  0.00     0.141 C 
HETATM    5  C   UNL     1      -3.838   3.961 -31.684  1.00  0.00     0.196 C 
HETATM    6  O   UNL     1      -4.107   5.010 -30.734  1.00  0.00    -0.379 OA
HETATM    7  O   UNL     1      -7.100   3.312 -30.351  1.00  0.00    -0.379 OA
HETATM    8  C   UNL     1      -7.270   4.242 -29.265  1.00  0.00     0.198 C 
ENDROOT
BRANCH   1   9
HETATM    9  N   UNL     1      -5.971   6.235 -28.445  1.00  0.00    -0.274 N 
HETATM   10  N   UNL     1      -7.108   6.745 -27.938  1.00  0.00     0.005 NA
HETATM   11  N   UNL     1      -6.818   7.905 -27.370  1.00  0.00    -0.161 NA
HETATM   12  C   UNL     1      -5.474   8.127 -27.516  1.00  0.00     0.095 A 
HETATM   13  C   UNL     1      -4.912   7.065 -28.184  1.00  0.00     0.139 A 
BRANCH  12  14
HETATM   14  C   UNL     1      -4.876   9.390 -27.018  1.00  0.00     0.296 C 
BRANCH  14  15
HETATM   15  N   UNL     1      -3.432   9.218 -26.591  1.00  0.00    -0.066 N 
HETATM   16  C   UNL     1      -3.241   9.430 -25.116  1.00  0.00     0.270 C 
HETATM   17  H   UNL     1      -3.222   8.224 -26.764  1.00  0.00     0.280 HD
BRANCH  15  18
HETATM   18  C   UNL     1      -2.494  10.033 -27.439  1.00  0.00     0.273 C 
BRANCH  18  19
HETATM   19  C   UNL     1      -1.268   9.277 -27.872  1.00  0.00    -0.033 A 
HETATM   20  C   UNL     1      -1.337   8.350 -28.923  1.00  0.00     0.009 A 
HETATM   21  C   UNL     1      -0.205   7.627 -29.302  1.00  0.00     0.001 A 
HETATM   22  C   UNL     1       1.004   7.823 -28.637  1.00  0.00     0.000 A 
HETATM   23  C   UNL     1       1.085   8.743 -27.595  1.00  0.00     0.001 A 
HETATM   24  C   UNL     1      -0.043   9.469 -27.213  1.00  0.00     0.009 A 
ENDBRANCH  18  19
ENDBRANCH  15  18
ENDBRANCH  14  15
ENDBRANCH  12  14
ENDBRANCH   1   9
BRANCH   4  25
HETATM   25  N   UNL     1      -5.200   2.091 -32.716  1.00  0.00    -0.334 N 
HETATM   26  C   UNL     1      -5.084   0.719 -32.599  1.00  0.00     0.321 C 
HETATM   27  N   UNL     1      -5.364   0.100 -33.796  1.00  0.00    -0.309 N 
HETATM   28  O   UNL     1      -4.807   0.180 -31.537  1.00  0.00    -0.247 OA
HETATM   29  H   UNL     1      -5.601   0.709 -34.564  1.00  0.00     0.170 HD
HETATM   30  H   UNL     1      -4.955   2.473 -33.618  1.00  0.00     0.164 HD
BRANCH  27  31
HETATM   31  C   UNL     1      -5.465  -1.283 -34.050  1.00  0.00     0.037 A 
HETATM   32  C   UNL     1      -4.498  -2.220 -33.676  1.00  0.00     0.045 A 
HETATM   33  C   UNL     1      -4.686  -3.593 -33.923  1.00  0.00     0.050 A 
HETATM   34  C   UNL     1      -5.851  -4.015 -34.579  1.00  0.00     0.016 A 
HETATM   35  C   UNL     1      -6.815  -3.086 -34.964  1.00  0.00     0.003 A 
HETATM   36  C   UNL     1      -6.624  -1.730 -34.697  1.00  0.00     0.029 A 
BRANCH  33  37
HETATM   37  C   UNL     1      -3.637  -4.598 -33.515  1.00  0.00     0.417 C 
HETATM   38  F   UNL     1      -4.155  -5.795 -33.123  1.00  0.00    -0.166 F 
HETATM   39  F   UNL     1      -2.763  -4.886 -34.520  1.00  0.00    -0.166 F 
HETATM   40  F   UNL     1      -2.878  -4.160 -32.475  1.00  0.00    -0.166 F 
ENDBRANCH  33  37
ENDBRANCH  27  31
ENDBRANCH   4  25
TORSDOF 8
ENDMDL
MODEL 5
REMARK VINA RESULT:      -9.5      8.951     11.695
REMARK  8 active torsions:
REMARK  status: ('A' for Active; 'I' for Inactive)
REMARK    1  A    between atoms: N_2  and  C_4 
REMARK    2  A    between atoms: N_2  and  C_32 
REMARK    3  A    between atoms: C_4  and  C_5 
REMARK    4  A    between atoms: N_8  and  C_9 
REMARK    5  A    between atoms: C_12  and  N_13 
REMARK       I    between atoms: N_13  and  C_14 
REMARK       I    between atoms: C_14  and  N_15 
REMARK    6  A    between atoms: N_15  and  C_16 
REMARK    7  A    between atoms: C_18  and  C_19 
REMARK    8  A    between atoms: C_32  and  C_33 
ROOT
HETATM    1  C   UNL     1     -14.352   1.990 -32.684  1.00  0.00     0.161 C 
HETATM    2  C   UNL     1     -13.268   2.818 -33.352  1.00  0.00     0.179 C 
HETATM    3  C   UNL     1     -12.427   1.799 -34.105  1.00  0.00     0.177 C 
HETATM    4  C   UNL     1     -11.138   1.724 -33.300  1.00  0.00     0.141 C 
HETATM    5  C   UNL     1     -11.082   3.100 -32.639  1.00  0.00     0.196 C 
HETATM    6  O   UNL     1     -12.448   3.471 -32.370  1.00  0.00    -0.379 OA
HETATM    7  O   UNL     1     -13.133   0.546 -34.092  1.00  0.00    -0.379 OA
HETATM    8  C   UNL     1     -14.473   0.819 -33.644  1.00  0.00     0.198 C 
ENDROOT
BRANCH   1   9
HETATM    9  N   UNL     1     -15.559   2.741 -32.435  1.00  0.00    -0.274 N 
HETATM   10  N   UNL     1     -16.780   2.221 -32.653  1.00  0.00     0.005 NA
HETATM   11  N   UNL     1     -17.678   3.142 -32.341  1.00  0.00    -0.161 NA
HETATM   12  C   UNL     1     -17.012   4.259 -31.913  1.00  0.00     0.095 A 
HETATM   13  C   UNL     1     -15.659   4.018 -31.949  1.00  0.00     0.139 A 
BRANCH  12  14
HETATM   14  C   UNL     1     -17.774   5.478 -31.547  1.00  0.00     0.296 C 
BRANCH  14  15
HETATM   15  N   UNL     1     -18.039   5.570 -30.058  1.00  0.00    -0.066 N 
HETATM   16  C   UNL     1     -19.491   5.376 -29.720  1.00  0.00     0.270 C 
HETATM   17  H   UNL     1     -17.543   4.765 -29.650  1.00  0.00     0.280 HD
BRANCH  15  18
HETATM   18  C   UNL     1     -17.447   6.817 -29.457  1.00  0.00     0.273 C 
BRANCH  18  19
HETATM   19  C   UNL     1     -16.745   6.576 -28.149  1.00  0.00    -0.033 A 
HETATM   20  C   UNL     1     -15.345   6.637 -28.071  1.00  0.00     0.009 A 
HETATM   21  C   UNL     1     -14.694   6.382 -26.864  1.00  0.00     0.001 A 
HETATM   22  C   UNL     1     -15.432   6.066 -25.725  1.00  0.00     0.000 A 
HETATM   23  C   UNL     1     -16.821   6.005 -25.790  1.00  0.00     0.001 A 
HETATM   24  C   UNL     1     -17.478   6.260 -26.995  1.00  0.00     0.009 A 
ENDBRANCH  18  19
ENDBRANCH  15  18
ENDBRANCH  14  15
ENDBRANCH  12  14
ENDBRANCH   1   9
BRANCH   4  25
HETATM   25  N   UNL     1      -9.957   1.322 -34.051  1.00  0.00    -0.334 N 
HETATM   26  C   UNL     1      -8.978   0.512 -33.509  1.00  0.00     0.321 C 
HETATM   27  N   UNL     1      -8.000   0.236 -34.437  1.00  0.00    -0.309 N 
HETATM   28  O   UNL     1      -9.046   0.091 -32.363  1.00  0.00    -0.247 OA
HETATM   29  H   UNL     1      -8.125   0.651 -35.347  1.00  0.00     0.170 HD
HETATM   30  H   UNL     1      -9.639   1.983 -34.746  1.00  0.00     0.164 HD
BRANCH  27  31
HETATM   31  C   UNL     1      -6.904  -0.641 -34.303  1.00  0.00     0.037 A 
HETATM   32  C   UNL     1      -6.945  -2.000 -34.627  1.00  0.00     0.045 A 
HETATM   33  C   UNL     1      -5.798  -2.807 -34.510  1.00  0.00     0.050 A 
HETATM   34  C   UNL     1      -4.608  -2.237 -34.032  1.00  0.00     0.016 A 
HETATM   35  C   UNL     1      -4.563  -0.886 -33.697  1.00  0.00     0.003 A 
HETATM   36  C   UNL     1      -5.703  -0.094 -33.835  1.00  0.00     0.029 A 
BRANCH  33  37
HETATM   37  C   UNL     1      -5.850  -4.273 -34.864  1.00  0.00     0.417 C 
HETATM   38  F   UNL     1      -6.003  -4.505 -36.197  1.00  0.00    -0.166 F 
HETATM   39  F   UNL     1      -4.720  -4.943 -34.500  1.00  0.00    -0.166 F 
HETATM   40  F   UNL     1      -6.880  -4.917 -34.250  1.00  0.00    -0.166 F 
ENDBRANCH  33  37
ENDBRANCH  27  31
ENDBRANCH   4  25
TORSDOF 8
ENDMDL
MODEL 6
REMARK VINA RESULT:      -9.3      6.507     12.371
REMARK  8 active torsions:
REMARK  status: ('A' for Active; 'I' for Inactive)
REMARK    1  A    between atoms: N_2  and  C_4 
REMARK    2  A    between atoms: N_2  and  C_32 
REMARK    3  A    between atoms: C_4  and  C_5 
REMARK    4  A    between atoms: N_8  and  C_9 
REMARK    5  A    between atoms: C_12  and  N_13 
REMARK       I    between atoms: N_13  and  C_14 
REMARK       I    between atoms: C_14  and  N_15 
REMARK    6  A    between atoms: N_15  and  C_16 
REMARK    7  A    between atoms: C_18  and  C_19 
REMARK    8  A    between atoms: C_32  and  C_33 
ROOT
HETATM    1  C   UNL     1      -1.670   6.666 -31.867  1.00  0.00     0.161 C 
HETATM    2  C   UNL     1      -1.482   5.659 -30.745  1.00  0.00     0.179 C 
HETATM    3  C   UNL     1      -1.193   6.511 -29.518  1.00  0.00     0.177 C 
HETATM    4  C   UNL     1       0.289   6.285 -29.260  1.00  0.00     0.141 C 
HETATM    5  C   UNL     1       0.523   4.902 -29.864  1.00  0.00     0.196 C 
HETATM    6  O   UNL     1      -0.352   4.812 -31.005  1.00  0.00    -0.379 OA
HETATM    7  O   UNL     1      -1.468   7.881 -29.857  1.00  0.00    -0.379 OA
HETATM    8  C   UNL     1      -2.187   7.874 -31.104  1.00  0.00     0.198 C 
ENDROOT
BRANCH   1   9
HETATM    9  N   UNL     1      -2.511   6.172 -32.930  1.00  0.00    -0.274 N 
HETATM   10  N   UNL     1      -2.541   6.752 -34.143  1.00  0.00     0.005 NA
HETATM   11  N   UNL     1      -3.403   6.083 -34.894  1.00  0.00    -0.161 NA
HETATM   12  C   UNL     1      -3.919   5.060 -34.144  1.00  0.00     0.095 A 
HETATM   13  C   UNL     1      -3.350   5.090 -32.891  1.00  0.00     0.139 A 
BRANCH  12  14
HETATM   14  C   UNL     1      -4.959   4.174 -34.719  1.00  0.00     0.296 C 
BRANCH  14  15
HETATM   15  N   UNL     1      -6.223   4.146 -33.883  1.00  0.00    -0.066 N 
HETATM   16  C   UNL     1      -6.515   5.472 -33.239  1.00  0.00     0.270 C 
HETATM   17  H   UNL     1      -6.984   3.985 -34.558  1.00  0.00     0.280 HD
BRANCH  15  18
HETATM   18  C   UNL     1      -6.230   2.996 -32.913  1.00  0.00     0.273 C 
BRANCH  18  19
HETATM   19  C   UNL     1      -6.404   1.656 -33.572  1.00  0.00    -0.033 A 
HETATM   20  C   UNL     1      -5.554   0.588 -33.251  1.00  0.00     0.009 A 
HETATM   21  C   UNL     1      -5.698  -0.646 -33.887  1.00  0.00     0.001 A 
HETATM   22  C   UNL     1      -6.691  -0.824 -34.848  1.00  0.00     0.000 A 
HETATM   23  C   UNL     1      -7.543   0.227 -35.173  1.00  0.00     0.001 A 
HETATM   24  C   UNL     1      -7.404   1.463 -34.539  1.00  0.00     0.009 A 
ENDBRANCH  18  19
ENDBRANCH  15  18
ENDBRANCH  14  15
ENDBRANCH  12  14
ENDBRANCH   1   9
BRANCH   4  25
HETATM   25  N   UNL     1       0.714   6.463 -27.878  1.00  0.00    -0.334 N 
HETATM   26  C   UNL     1       1.261   7.646 -27.420  1.00  0.00     0.321 C 
HETATM   27  N   UNL     1       1.526   7.575 -26.071  1.00  0.00    -0.309 N 
HETATM   28  O   UNL     1       1.425   8.610 -28.153  1.00  0.00    -0.247 OA
HETATM   29  H   UNL     1       1.299   6.701 -25.622  1.00  0.00     0.170 HD
HETATM   30  H   UNL     1       1.035   5.626 -27.411  1.00  0.00     0.164 HD
BRANCH  27  31
HETATM   31  C   UNL     1       1.975   8.608 -25.223  1.00  0.00     0.037 A 
HETATM   32  C   UNL     1       3.280   8.707 -24.735  1.00  0.00     0.045 A 
HETATM   33  C   UNL     1       3.670   9.792 -23.927  1.00  0.00     0.050 A 
HETATM   34  C   UNL     1       2.721  10.768 -23.590  1.00  0.00     0.016 A 
HETATM   35  C   UNL     1       1.415  10.670 -24.065  1.00  0.00     0.003 A 
HETATM   36  C   UNL     1       1.047   9.599 -24.879  1.00  0.00     0.029 A 
BRANCH  33  37
HETATM   37  C   UNL     1       5.082   9.893 -23.404  1.00  0.00     0.417 C 
HETATM   38  F   UNL     1       5.369  11.100 -22.842  1.00  0.00    -0.166 F 
HETATM   39  F   UNL     1       5.357   8.964 -22.446  1.00  0.00    -0.166 F 
HETATM   40  F   UNL     1       6.010   9.706 -24.382  1.00  0.00    -0.166 F 
ENDBRANCH  33  37
ENDBRANCH  27  31
ENDBRANCH   4  25
TORSDOF 8
ENDMDL
MODEL 7
REMARK VINA RESULT:      -9.2      5.993     12.599
REMARK  8 active torsions:
REMARK  status: ('A' for Active; 'I' for Inactive)
REMARK    1  A    between atoms: N_2  and  C_4 
REMARK    2  A    between atoms: N_2  and  C_32 
REMARK    3  A    between atoms: C_4  and  C_5 
REMARK    4  A    between atoms: N_8  and  C_9 
REMARK    5  A    between atoms: C_12  and  N_13 
REMARK       I    between atoms: N_13  and  C_14 
REMARK       I    between atoms: C_14  and  N_15 
REMARK    6  A    between atoms: N_15  and  C_16 
REMARK    7  A    between atoms: C_18  and  C_19 
REMARK    8  A    between atoms: C_32  and  C_33 
ROOT
HETATM    1  C   UNL     1      -2.244   5.288 -31.848  1.00  0.00     0.161 C 
HETATM    2  C   UNL     1      -1.631   5.197 -30.460  1.00  0.00     0.179 C 
HETATM    3  C   UNL     1      -1.295   6.637 -30.102  1.00  0.00     0.177 C 
HETATM    4  C   UNL     1       0.222   6.690 -30.195  1.00  0.00     0.141 C 
HETATM    5  C   UNL     1       0.621   5.242 -29.919  1.00  0.00     0.196 C 
HETATM    6  O   UNL     1      -0.420   4.425 -30.488  1.00  0.00    -0.379 OA
HETATM    7  O   UNL     1      -1.916   7.492 -31.079  1.00  0.00    -0.379 OA
HETATM    8  C   UNL     1      -2.846   6.682 -31.821  1.00  0.00     0.198 C 
ENDROOT
BRANCH   1   9
HETATM    9  N   UNL     1      -3.153   4.204 -32.132  1.00  0.00    -0.274 N 
HETATM   10  N   UNL     1      -2.720   2.949 -32.351  1.00  0.00     0.005 NA
HETATM   11  N   UNL     1      -3.777   2.187 -32.586  1.00  0.00    -0.161 NA
HETATM   12  C   UNL     1      -4.895   2.973 -32.507  1.00  0.00     0.095 A 
HETATM   13  C   UNL     1      -4.520   4.261 -32.201  1.00  0.00     0.139 A 
BRANCH  12  14
HETATM   14  C   UNL     1      -6.230   2.388 -32.783  1.00  0.00     0.296 C 
BRANCH  14  15
HETATM   15  N   UNL     1      -6.149   1.145 -33.646  1.00  0.00    -0.066 N 
HETATM   16  C   UNL     1      -6.925   1.283 -34.926  1.00  0.00     0.270 C 
HETATM   17  H   UNL     1      -5.159   1.077 -33.921  1.00  0.00     0.280 HD
BRANCH  15  18
HETATM   18  C   UNL     1      -6.489  -0.100 -32.872  1.00  0.00     0.273 C 
BRANCH  18  19
HETATM   19  C   UNL     1      -6.117  -1.370 -33.587  1.00  0.00    -0.033 A 
HETATM   20  C   UNL     1      -4.769  -1.723 -33.756  1.00  0.00     0.009 A 
HETATM   21  C   UNL     1      -4.425  -2.885 -34.447  1.00  0.00     0.001 A 
HETATM   22  C   UNL     1      -5.421  -3.705 -34.974  1.00  0.00     0.000 A 
HETATM   23  C   UNL     1      -6.762  -3.367 -34.809  1.00  0.00     0.001 A 
HETATM   24  C   UNL     1      -7.111  -2.206 -34.119  1.00  0.00     0.009 A 
ENDBRANCH  18  19
ENDBRANCH  15  18
ENDBRANCH  14  15
ENDBRANCH  12  14
ENDBRANCH   1   9
BRANCH   4  25
HETATM   25  N   UNL     1       0.862   7.703 -29.366  1.00  0.00    -0.334 N 
HETATM   26  C   UNL     1       0.585   7.837 -28.019  1.00  0.00     0.321 C 
HETATM   27  N   UNL     1       1.358   8.827 -27.455  1.00  0.00    -0.309 N 
HETATM   28  O   UNL     1      -0.219   7.115 -27.448  1.00  0.00    -0.247 OA
HETATM   29  H   UNL     1       1.990   9.303 -28.080  1.00  0.00     0.170 HD
HETATM   30  H   UNL     1       1.121   8.555 -29.844  1.00  0.00     0.164 HD
BRANCH  27  31
HETATM   31  C   UNL     1       1.449   9.181 -26.094  1.00  0.00     0.037 A 
HETATM   32  C   UNL     1       2.514   8.826 -25.263  1.00  0.00     0.045 A 
HETATM   33  C   UNL     1       2.560   9.254 -23.922  1.00  0.00     0.050 A 
HETATM   34  C   UNL     1       1.503  10.024 -23.415  1.00  0.00     0.016 A 
HETATM   35  C   UNL     1       0.433  10.373 -24.235  1.00  0.00     0.003 A 
HETATM   36  C   UNL     1       0.409   9.957 -25.567  1.00  0.00     0.029 A 
BRANCH  33  37
HETATM   37  C   UNL     1       3.715   8.867 -23.031  1.00  0.00     0.417 C 
HETATM   38  F   UNL     1       3.515   7.700 -22.359  1.00  0.00    -0.166 F 
HETATM   39  F   UNL     1       4.879   8.703 -23.719  1.00  0.00    -0.166 F 
HETATM   40  F   UNL     1       3.972   9.807 -22.081  1.00  0.00    -0.166 F 
ENDBRANCH  33  37
ENDBRANCH  27  31
ENDBRANCH   4  25
TORSDOF 8
ENDMDL
MODEL 8
REMARK VINA RESULT:      -9.1      1.980      2.753
REMARK  8 active torsions:
REMARK  status: ('A' for Active; 'I' for Inactive)
REMARK    1  A    between atoms: N_2  and  C_4 
REMARK    2  A    between atoms: N_2  and  C_32 
REMARK    3  A    between atoms: C_4  and  C_5 
REMARK    4  A    between atoms: N_8  and  C_9 
REMARK    5  A    between atoms: C_12  and  N_13 
REMARK       I    between atoms: N_13  and  C_14 
REMARK       I    between atoms: C_14  and  N_15 
REMARK    6  A    between atoms: N_15  and  C_16 
REMARK    7  A    between atoms: C_18  and  C_19 
REMARK    8  A    between atoms: C_32  and  C_33 
ROOT
HETATM    1  C   UNL     1      -4.471   6.821 -31.918  1.00  0.00     0.161 C 
HETATM    2  C   UNL     1      -4.825   5.462 -31.335  1.00  0.00     0.179 C 
HETATM    3  C   UNL     1      -4.805   4.523 -32.532  1.00  0.00     0.177 C 
HETATM    4  C   UNL     1      -6.274   4.215 -32.777  1.00  0.00     0.141 C 
HETATM    5  C   UNL     1      -6.888   4.409 -31.392  1.00  0.00     0.196 C 
HETATM    6  O   UNL     1      -6.146   5.478 -30.773  1.00  0.00    -0.379 OA
HETATM    7  O   UNL     1      -4.221   5.231 -33.640  1.00  0.00    -0.379 OA
HETATM    8  C   UNL     1      -3.617   6.425 -33.109  1.00  0.00     0.198 C 
ENDROOT
BRANCH   1   9
HETATM    9  N   UNL     1      -3.857   7.701 -30.954  1.00  0.00    -0.274 N 
HETATM   10  N   UNL     1      -3.373   8.908 -31.297  1.00  0.00     0.005 NA
HETATM   11  N   UNL     1      -2.872   9.473 -30.209  1.00  0.00    -0.161 NA
HETATM   12  C   UNL     1      -3.049   8.610 -29.161  1.00  0.00     0.095 A 
HETATM   13  C   UNL     1      -3.691   7.480 -29.612  1.00  0.00     0.139 A 
BRANCH  12  14
HETATM   14  C   UNL     1      -2.529   8.963 -27.818  1.00  0.00     0.296 C 
BRANCH  14  15
HETATM   15  N   UNL     1      -1.390   8.063 -27.383  1.00  0.00    -0.066 N 
HETATM   16  C   UNL     1      -1.158   8.107 -25.899  1.00  0.00     0.270 C 
HETATM   17  H   UNL     1      -1.713   7.107 -27.592  1.00  0.00     0.280 HD
BRANCH  15  18
HETATM   18  C   UNL     1      -0.143   8.304 -28.190  1.00  0.00     0.273 C 
BRANCH  18  19
HETATM   19  C   UNL     1       0.245   7.138 -29.056  1.00  0.00    -0.033 A 
HETATM   20  C   UNL     1       0.206   7.246 -30.455  1.00  0.00     0.009 A 
HETATM   21  C   UNL     1       0.536   6.153 -31.257  1.00  0.00     0.001 A 
HETATM   22  C   UNL     1       0.908   4.945 -30.672  1.00  0.00     0.000 A 
HETATM   23  C   UNL     1       0.954   4.827 -29.285  1.00  0.00     0.001 A 
HETATM   24  C   UNL     1       0.626   5.917 -28.478  1.00  0.00     0.009 A 
ENDBRANCH  18  19
ENDBRANCH  15  18
ENDBRANCH  14  15
ENDBRANCH  12  14
ENDBRANCH   1   9
BRANCH   4  25
HETATM   25  N   UNL     1      -6.543   2.939 -33.426  1.00  0.00    -0.334 N 
HETATM   26  C   UNL     1      -5.708   1.848 -33.285  1.00  0.00     0.321 C 
HETATM   27  N   UNL     1      -6.212   0.754 -33.950  1.00  0.00    -0.309 N 
HETATM   28  O   UNL     1      -4.690   1.895 -32.609  1.00  0.00    -0.247 OA
HETATM   29  H   UNL     1      -7.084   0.895 -34.435  1.00  0.00     0.170 HD
HETATM   30  H   UNL     1      -7.041   2.995 -34.304  1.00  0.00     0.164 HD
BRANCH  27  31
HETATM   31  C   UNL     1      -5.713  -0.565 -33.947  1.00  0.00     0.037 A 
HETATM   32  C   UNL     1      -6.438  -1.677 -34.380  1.00  0.00     0.045 A 
HETATM   33  C   UNL     1      -5.859  -2.960 -34.390  1.00  0.00     0.050 A 
HETATM   34  C   UNL     1      -4.544  -3.119 -33.931  1.00  0.00     0.016 A 
HETATM   35  C   UNL     1      -3.817  -2.016 -33.489  1.00  0.00     0.003 A 
HETATM   36  C   UNL     1      -4.398  -0.747 -33.501  1.00  0.00     0.029 A 
BRANCH  33  37
HETATM   37  C   UNL     1      -6.650  -4.157 -34.860  1.00  0.00     0.417 C 
HETATM   38  F   UNL     1      -5.898  -5.283 -35.004  1.00  0.00    -0.166 F 
HETATM   39  F   UNL     1      -7.657  -4.492 -34.005  1.00  0.00    -0.166 F 
HETATM   40  F   UNL     1      -7.241  -3.944 -36.067  1.00  0.00    -0.166 F 
ENDBRANCH  33  37
ENDBRANCH  27  31
ENDBRANCH   4  25
TORSDOF 8
ENDMDL
MODEL 9
REMARK VINA RESULT:      -9.1      8.970     12.099
REMARK  8 active torsions:
REMARK  status: ('A' for Active; 'I' for Inactive)
REMARK    1  A    between atoms: N_2  and  C_4 
REMARK    2  A    between atoms: N_2  and  C_32 
REMARK    3  A    between atoms: C_4  and  C_5 
REMARK    4  A    between atoms: N_8  and  C_9 
REMARK    5  A    between atoms: C_12  and  N_13 
REMARK       I    between atoms: N_13  and  C_14 
REMARK       I    between atoms: C_14  and  N_15 
REMARK    6  A    between atoms: N_15  and  C_16 
REMARK    7  A    between atoms: C_18  and  C_19 
REMARK    8  A    between atoms: C_32  and  C_33 
ROOT
HETATM    1  C   UNL     1     -14.472   1.970 -32.684  1.00  0.00     0.161 C 
HETATM    2  C   UNL     1     -13.411   2.800 -33.387  1.00  0.00     0.179 C 
HETATM    3  C   UNL     1     -12.553   1.776 -34.115  1.00  0.00     0.177 C 
HETATM    4  C   UNL     1     -11.258   1.755 -33.317  1.00  0.00     0.141 C 
HETATM    5  C   UNL     1     -11.226   3.152 -32.701  1.00  0.00     0.196 C 
HETATM    6  O   UNL     1     -12.598   3.501 -32.433  1.00  0.00    -0.379 OA
HETATM    7  O   UNL     1     -13.231   0.509 -34.057  1.00  0.00    -0.379 OA
HETATM    8  C   UNL     1     -14.574   0.767 -33.606  1.00  0.00     0.198 C 
ENDROOT
BRANCH   1   9
HETATM    9  N   UNL     1     -15.693   2.702 -32.450  1.00  0.00    -0.274 N 
HETATM   10  N   UNL     1     -16.903   2.163 -32.683  1.00  0.00     0.005 NA
HETATM   11  N   UNL     1     -17.819   3.070 -32.381  1.00  0.00    -0.161 NA
HETATM   12  C   UNL     1     -17.176   4.197 -31.943  1.00  0.00     0.095 A 
HETATM   13  C   UNL     1     -15.819   3.977 -31.964  1.00  0.00     0.139 A 
BRANCH  12  14
HETATM   14  C   UNL     1     -17.961   5.403 -31.585  1.00  0.00     0.296 C 
BRANCH  14  15
HETATM   15  N   UNL     1     -17.279   6.686 -32.015  1.00  0.00    -0.066 N 
HETATM   16  C   UNL     1     -17.314   7.741 -30.945  1.00  0.00     0.270 C 
HETATM   17  H   UNL     1     -16.287   6.433 -32.131  1.00  0.00     0.280 HD
BRANCH  15  18
HETATM   18  C   UNL     1     -17.779   7.170 -33.349  1.00  0.00     0.273 C 
BRANCH  18  19
HETATM   19  C   UNL     1     -16.721   7.186 -34.417  1.00  0.00    -0.033 A 
HETATM   20  C   UNL     1     -15.367   7.038 -34.079  1.00  0.00     0.009 A 
HETATM   21  C   UNL     1     -14.383   7.084 -35.068  1.00  0.00     0.001 A 
HETATM   22  C   UNL     1     -14.742   7.276 -36.401  1.00  0.00     0.000 A 
HETATM   23  C   UNL     1     -16.082   7.420 -36.748  1.00  0.00     0.001 A 
HETATM   24  C   UNL     1     -17.070   7.374 -35.763  1.00  0.00     0.009 A 
ENDBRANCH  18  19
ENDBRANCH  15  18
ENDBRANCH  14  15
ENDBRANCH  12  14
ENDBRANCH   1   9
BRANCH   4  25
HETATM   25  N   UNL     1     -10.073   1.355 -34.065  1.00  0.00    -0.334 N 
HETATM   26  C   UNL     1      -9.101   0.534 -33.526  1.00  0.00     0.321 C 
HETATM   27  N   UNL     1      -8.118   0.264 -34.451  1.00  0.00    -0.309 N 
HETATM   28  O   UNL     1      -9.180   0.101 -32.385  1.00  0.00    -0.247 OA
HETATM   29  H   UNL     1      -8.235   0.691 -35.357  1.00  0.00     0.170 HD
HETATM   30  H   UNL     1      -9.747   2.022 -34.751  1.00  0.00     0.164 HD
BRANCH  27  31
HETATM   31  C   UNL     1      -7.028  -0.620 -34.319  1.00  0.00     0.037 A 
HETATM   32  C   UNL     1      -7.077  -1.977 -34.646  1.00  0.00     0.045 A 
HETATM   33  C   UNL     1      -5.935  -2.792 -34.531  1.00  0.00     0.050 A 
HETATM   34  C   UNL     1      -4.742  -2.230 -34.053  1.00  0.00     0.016 A 
HETATM   35  C   UNL     1      -4.688  -0.880 -33.716  1.00  0.00     0.003 A 
HETATM   36  C   UNL     1      -5.823  -0.081 -33.852  1.00  0.00     0.029 A 
BRANCH  33  37
HETATM   37  C   UNL     1      -5.996  -4.257 -34.887  1.00  0.00     0.417 C 
HETATM   38  F   UNL     1      -6.073  -4.488 -36.227  1.00  0.00    -0.166 F 
HETATM   39  F   UNL     1      -4.906  -4.950 -34.455  1.00  0.00    -0.166 F 
HETATM   40  F   UNL     1      -7.076  -4.878 -34.338  1.00  0.00    -0.166 F 
ENDBRANCH  33  37
ENDBRANCH  27  31
ENDBRANCH   4  25
TORSDOF 8
ENDMDL
MODEL 10
REMARK VINA RESULT:      -9.1      6.041     11.670
REMARK  8 active torsions:
REMARK  status: ('A' for Active; 'I' for Inactive)
REMARK    1  A    between atoms: N_2  and  C_4 
REMARK    2  A    between atoms: N_2  and  C_32 
REMARK    3  A    between atoms: C_4  and  C_5 
REMARK    4  A    between atoms: N_8  and  C_9 
REMARK    5  A    between atoms: C_12  and  N_13 
REMARK       I    between atoms: N_13  and  C_14 
REMARK       I    between atoms: C_14  and  N_15 
REMARK    6  A    between atoms: N_15  and  C_16 
REMARK    7  A    between atoms: C_18  and  C_19 
REMARK    8  A    between atoms: C_32  and  C_33 
ROOT
HETATM    1  C   UNL     1      -6.615   5.562 -32.292  1.00  0.00     0.161 C 
HETATM    2  C   UNL     1      -5.538   4.539 -31.973  1.00  0.00     0.179 C 
HETATM    3  C   UNL     1      -4.789   5.138 -30.792  1.00  0.00     0.177 C 
HETATM    4  C   UNL     1      -3.459   5.574 -31.389  1.00  0.00     0.141 C 
HETATM    5  C   UNL     1      -3.302   4.625 -32.576  1.00  0.00     0.196 C 
HETATM    6  O   UNL     1      -4.633   4.391 -33.078  1.00  0.00    -0.379 OA
HETATM    7  O   UNL     1      -5.547   6.261 -30.311  1.00  0.00    -0.379 OA
HETATM    8  C   UNL     1      -6.844   6.194 -30.930  1.00  0.00     0.198 C 
ENDROOT
BRANCH   1   9
HETATM    9  N   UNL     1      -7.771   4.979 -32.930  1.00  0.00    -0.274 N 
HETATM   10  N   UNL     1      -8.042   5.177 -34.233  1.00  0.00     0.005 NA
HETATM   11  N   UNL     1      -9.158   4.525 -34.521  1.00  0.00    -0.161 NA
HETATM   12  C   UNL     1      -9.594   3.901 -33.383  1.00  0.00     0.095 A 
HETATM   13  C   UNL     1      -8.714   4.165 -32.360  1.00  0.00     0.139 A 
BRANCH  12  14
HETATM   14  C   UNL     1     -10.865   3.136 -33.401  1.00  0.00     0.296 C 
BRANCH  14  15
HETATM   15  N   UNL     1     -10.788   1.907 -34.283  1.00  0.00    -0.066 N 
HETATM   16  C   UNL     1     -12.059   1.669 -35.049  1.00  0.00     0.270 C 
HETATM   17  H   UNL     1     -10.070   2.130 -34.987  1.00  0.00     0.280 HD
BRANCH  15  18
HETATM   18  C   UNL     1     -10.314   0.698 -33.523  1.00  0.00     0.273 C 
BRANCH  18  19
HETATM   19  C   UNL     1      -8.853   0.400 -33.722  1.00  0.00    -0.033 A 
HETATM   20  C   UNL     1      -8.319   0.288 -35.015  1.00  0.00     0.009 A 
HETATM   21  C   UNL     1      -6.970  -0.019 -35.197  1.00  0.00     0.001 A 
HETATM   22  C   UNL     1      -6.144  -0.218 -34.093  1.00  0.00     0.000 A 
HETATM   23  C   UNL     1      -6.662  -0.106 -32.806  1.00  0.00     0.001 A 
HETATM   24  C   UNL     1      -8.010   0.202 -32.617  1.00  0.00     0.009 A 
ENDBRANCH  18  19
ENDBRANCH  15  18
ENDBRANCH  14  15
ENDBRANCH  12  14
ENDBRANCH   1   9
BRANCH   4  25
HETATM   25  N   UNL     1      -2.343   5.622 -30.454  1.00  0.00    -0.334 N 
HETATM   26  C   UNL     1      -1.948   6.793 -29.836  1.00  0.00     0.321 C 
HETATM   27  N   UNL     1      -0.910   6.561 -28.962  1.00  0.00    -0.309 N 
HETATM   28  O   UNL     1      -2.511   7.858 -30.045  1.00  0.00    -0.247 OA
HETATM   29  H   UNL     1      -0.591   5.607 -28.899  1.00  0.00     0.170 HD
HETATM   30  H   UNL     1      -1.608   4.948 -30.619  1.00  0.00     0.164 HD
BRANCH  27  31
HETATM   31  C   UNL     1      -0.314   7.473 -28.067  1.00  0.00     0.037 A 
HETATM   32  C   UNL     1      -0.958   8.002 -26.945  1.00  0.00     0.045 A 
HETATM   33  C   UNL     1      -0.285   8.875 -26.070  1.00  0.00     0.050 A 
HETATM   34  C   UNL     1       1.041   9.235 -26.350  1.00  0.00     0.016 A 
HETATM   35  C   UNL     1       1.686   8.719 -27.471  1.00  0.00     0.003 A 
HETATM   36  C   UNL     1       1.013   7.841 -28.321  1.00  0.00     0.029 A 
BRANCH  33  37
HETATM   37  C   UNL     1      -0.986   9.442 -24.860  1.00  0.00     0.417 C 
HETATM   38  F   UNL     1      -1.919   8.603 -24.329  1.00  0.00    -0.166 F 
HETATM   39  F   UNL     1      -0.129   9.732 -23.841  1.00  0.00    -0.166 F 
HETATM   40  F   UNL     1      -1.641  10.602 -25.138  1.00  0.00    -0.166 F 
ENDBRANCH  33  37
ENDBRANCH  27  31
ENDBRANCH   4  25
TORSDOF 8
ENDMDL
