MODEL 1
REMARK VINA RESULT:      -8.3      0.000      0.000
REMARK  2 active torsions:
REMARK  status: ('A' for Active; 'I' for Inactive)
REMARK    1  A    between atoms: C_2  and  C_3 
REMARK    2  A    between atoms: C_7  and  C_8 
REMARK       I    between atoms: C_8  and  N_9 
ROOT
HETATM    1  C   UNL     1      -6.652   1.615 -30.806  1.00  0.00     0.271 C 
HETATM    2  N   UNL     1      -5.577   2.281 -31.424  1.00  0.00    -0.346 N 
HETATM    3  C   UNL     1      -4.247   1.763 -31.112  1.00  0.00     0.130 C 
HETATM    4  C   UNL     1      -3.209   2.199 -32.139  1.00  0.00     0.068 C 
HETATM    5  C   UNL     1      -3.212   3.718 -32.378  1.00  0.00     0.094 C 
HETATM    6  N   UNL     1      -2.344   4.015 -33.498  1.00  0.00    -0.334 N 
HETATM    7  C   UNL     1      -1.886   5.277 -33.765  1.00  0.00     0.255 C 
HETATM    8  O   UNL     1      -1.500   5.593 -34.883  1.00  0.00    -0.268 OA
HETATM    9  C   UNL     1      -1.871   6.216 -32.628  1.00  0.00     0.053 A 
HETATM   10  C   UNL     1      -2.266   5.728 -31.376  1.00  0.00     0.026 A 
HETATM   11  N   UNL     1      -2.649   4.390 -31.207  1.00  0.00    -0.265 NA
HETATM   12  C   UNL     1      -1.448   7.538 -32.798  1.00  0.00     0.019 A 
HETATM   13  C   UNL     1      -1.390   8.386 -31.694  1.00  0.00     0.001 A 
HETATM   14  C   UNL     1      -1.734   7.903 -30.432  1.00  0.00     0.002 A 
HETATM   15  C   UNL     1      -2.154   6.578 -30.271  1.00  0.00     0.024 A 
HETATM   16  C   UNL     1      -4.646   4.197 -32.674  1.00  0.00     0.068 C 
HETATM   17  C   UNL     1      -5.636   3.732 -31.618  1.00  0.00     0.130 C 
HETATM   18  O   UNL     1      -6.466   0.743 -29.960  1.00  0.00    -0.266 OA
HETATM   19  H   UNL     1      -2.400   3.435 -34.324  1.00  0.00     0.164 HD
HETATM   20  H   UNL     1      -3.152   4.236 -30.339  1.00  0.00     0.130 HD
ENDROOT
BRANCH   1  21
HETATM   21  C   UNL     1      -7.978   1.979 -31.235  1.00  0.00     0.119 A 
HETATM   22  N   UNL     1      -8.891   2.658 -30.479  1.00  0.00    -0.273 N 
HETATM   23  N   UNL     1     -10.068   2.855 -31.087  1.00  0.00    -0.178 NA
HETATM   24  H   UNL     1      -8.776   2.999 -29.530  1.00  0.00     0.189 HD
HETATM   25  C   UNL     1      -9.888   2.369 -32.325  1.00  0.00     0.064 A 
HETATM   26  C   UNL     1      -8.580   1.838 -32.468  1.00  0.00     0.066 A 
BRANCH  25  27
HETATM   27  C   UNL     1     -11.014   2.442 -33.344  1.00  0.00    -0.005 C 
HETATM   28  C   UNL     1     -11.492   1.022 -33.704  1.00  0.00     0.021 C 
HETATM   29  C   UNL     1     -10.525   3.147 -34.627  1.00  0.00     0.021 C 
HETATM   30  C   UNL     1     -12.225   3.231 -32.805  1.00  0.00     0.021 C 
ENDBRANCH  25  27
ENDBRANCH   1  21
TORSDOF 2
ENDMDL
MODEL 2
REMARK VINA RESULT:      -8.3      3.156      7.832
REMARK  2 active torsions:
REMARK  status: ('A' for Active; 'I' for Inactive)
REMARK    1  A    between atoms: C_2  and  C_3 
REMARK    2  A    between atoms: C_7  and  C_8 
REMARK       I    between atoms: C_8  and  N_9 
ROOT
HETATM    1  C   UNL     1      -5.322   4.299 -30.176  1.00  0.00     0.271 C 
HETATM    2  N   UNL     1      -5.830   3.261 -30.980  1.00  0.00    -0.346 N 
HETATM    3  C   UNL     1      -6.725   2.321 -30.310  1.00  0.00     0.130 C 
HETATM    4  C   UNL     1      -7.580   1.541 -31.301  1.00  0.00     0.068 C 
HETATM    5  C   UNL     1      -6.747   0.878 -32.411  1.00  0.00     0.094 C 
HETATM    6  N   UNL     1      -7.647   0.332 -33.405  1.00  0.00    -0.334 N 
HETATM    7  C   UNL     1      -7.246  -0.581 -34.343  1.00  0.00     0.255 C 
HETATM    8  O   UNL     1      -7.866  -0.737 -35.387  1.00  0.00    -0.268 OA
HETATM    9  C   UNL     1      -6.044  -1.368 -34.011  1.00  0.00     0.053 A 
HETATM   10  C   UNL     1      -5.456  -1.160 -32.757  1.00  0.00     0.026 A 
HETATM   11  N   UNL     1      -5.999  -0.244 -31.844  1.00  0.00    -0.265 NA
HETATM   12  C   UNL     1      -5.535  -2.309 -34.912  1.00  0.00     0.019 A 
HETATM   13  C   UNL     1      -4.432  -3.079 -34.547  1.00  0.00     0.001 A 
HETATM   14  C   UNL     1      -3.863  -2.918 -33.283  1.00  0.00     0.002 A 
HETATM   15  C   UNL     1      -4.382  -1.976 -32.388  1.00  0.00     0.024 A 
HETATM   16  C   UNL     1      -5.810   1.919 -33.053  1.00  0.00     0.068 C 
HETATM   17  C   UNL     1      -4.985   2.665 -32.017  1.00  0.00     0.130 C 
HETATM   18  O   UNL     1      -5.518   4.326 -28.963  1.00  0.00    -0.266 OA
HETATM   19  H   UNL     1      -8.430   0.893 -33.712  1.00  0.00     0.164 HD
HETATM   20  H   UNL     1      -5.348   0.001 -31.105  1.00  0.00     0.130 HD
ENDROOT
BRANCH   1  21
HETATM   21  C   UNL     1      -4.590   5.343 -30.846  1.00  0.00     0.119 A 
HETATM   22  N   UNL     1      -5.150   6.358 -31.569  1.00  0.00    -0.273 N 
HETATM   23  N   UNL     1      -4.260   7.192 -32.123  1.00  0.00    -0.178 NA
HETATM   24  H   UNL     1      -6.136   6.525 -31.738  1.00  0.00     0.189 HD
HETATM   25  C   UNL     1      -3.073   6.763 -31.667  1.00  0.00     0.064 A 
HETATM   26  C   UNL     1      -3.239   5.623 -30.838  1.00  0.00     0.066 A 
BRANCH  25  27
HETATM   27  C   UNL     1      -1.797   7.491 -32.058  1.00  0.00    -0.005 C 
HETATM   28  C   UNL     1      -1.866   8.960 -31.596  1.00  0.00     0.021 C 
HETATM   29  C   UNL     1      -1.612   7.455 -33.590  1.00  0.00     0.021 C 
HETATM   30  C   UNL     1      -0.550   6.847 -31.418  1.00  0.00     0.021 C 
ENDBRANCH  25  27
ENDBRANCH   1  21
TORSDOF 2
ENDMDL
MODEL 3
REMARK VINA RESULT:      -8.1      3.394      5.781
REMARK  2 active torsions:
REMARK  status: ('A' for Active; 'I' for Inactive)
REMARK    1  A    between atoms: C_2  and  C_3 
REMARK    2  A    between atoms: C_7  and  C_8 
REMARK       I    between atoms: C_8  and  N_9 
ROOT
HETATM    1  C   UNL     1      -2.587   4.610 -33.127  1.00  0.00     0.271 C 
HETATM    2  N   UNL     1      -2.457   5.730 -32.284  1.00  0.00    -0.346 N 
HETATM    3  C   UNL     1      -1.626   6.817 -32.797  1.00  0.00     0.130 C 
HETATM    4  C   UNL     1      -1.904   8.135 -32.085  1.00  0.00     0.068 C 
HETATM    5  C   UNL     1      -1.833   8.008 -30.554  1.00  0.00     0.094 C 
HETATM    6  N   UNL     1      -2.299   9.244 -29.962  1.00  0.00    -0.334 N 
HETATM    7  C   UNL     1      -2.070   9.569 -28.652  1.00  0.00     0.255 C 
HETATM    8  O   UNL     1      -2.771  10.384 -28.065  1.00  0.00    -0.268 OA
HETATM    9  C   UNL     1      -0.927   8.897 -28.006  1.00  0.00     0.053 A 
HETATM   10  C   UNL     1      -0.149   8.038 -28.793  1.00  0.00     0.026 A 
HETATM   11  N   UNL     1      -0.438   7.836 -30.150  1.00  0.00    -0.265 NA
HETATM   12  C   UNL     1      -0.623   9.138 -26.663  1.00  0.00     0.019 A 
HETATM   13  C   UNL     1       0.497   8.533 -26.096  1.00  0.00     0.001 A 
HETATM   14  C   UNL     1       1.311   7.713 -26.878  1.00  0.00     0.002 A 
HETATM   15  C   UNL     1       0.999   7.480 -28.222  1.00  0.00     0.024 A 
HETATM   16  C   UNL     1      -2.709   6.829 -30.087  1.00  0.00     0.068 C 
HETATM   17  C   UNL     1      -2.389   5.544 -30.833  1.00  0.00     0.130 C 
HETATM   18  O   UNL     1      -1.934   4.508 -34.163  1.00  0.00    -0.266 OA
HETATM   19  H   UNL     1      -3.134   9.677 -30.334  1.00  0.00     0.164 HD
HETATM   20  H   UNL     1       0.022   7.013 -30.526  1.00  0.00     0.130 HD
ENDROOT
BRANCH   1  21
HETATM   21  C   UNL     1      -3.543   3.607 -32.735  1.00  0.00     0.119 A 
HETATM   22  N   UNL     1      -4.894   3.695 -32.915  1.00  0.00    -0.273 N 
HETATM   23  N   UNL     1      -5.579   2.647 -32.440  1.00  0.00    -0.178 NA
HETATM   24  H   UNL     1      -5.412   4.456 -33.341  1.00  0.00     0.189 HD
HETATM   25  C   UNL     1      -4.633   1.795 -32.016  1.00  0.00     0.064 A 
HETATM   26  C   UNL     1      -3.340   2.347 -32.211  1.00  0.00     0.066 A 
BRANCH  25  27
HETATM   27  C   UNL     1      -5.025   0.449 -31.429  1.00  0.00    -0.005 C 
HETATM   28  C   UNL     1      -5.696   0.649 -30.055  1.00  0.00     0.021 C 
HETATM   29  C   UNL     1      -3.776  -0.440 -31.252  1.00  0.00     0.021 C 
HETATM   30  C   UNL     1      -6.017  -0.307 -32.338  1.00  0.00     0.021 C 
ENDBRANCH  25  27
ENDBRANCH   1  21
TORSDOF 2
ENDMDL
MODEL 4
REMARK VINA RESULT:      -8.1      1.233      1.519
REMARK  2 active torsions:
REMARK  status: ('A' for Active; 'I' for Inactive)
REMARK    1  A    between atoms: C_2  and  C_3 
REMARK    2  A    between atoms: C_7  and  C_8 
REMARK       I    between atoms: C_8  and  N_9 
ROOT
HETATM    1  C   UNL     1      -6.955   1.373 -31.697  1.00  0.00     0.271 C 
HETATM    2  N   UNL     1      -5.795   2.101 -32.027  1.00  0.00    -0.346 N 
HETATM    3  C   UNL     1      -4.593   1.756 -31.271  1.00  0.00     0.130 C 
HETATM    4  C   UNL     1      -3.324   2.218 -31.974  1.00  0.00     0.068 C 
HETATM    5  C   UNL     1      -3.370   3.704 -32.367  1.00  0.00     0.094 C 
HETATM    6  N   UNL     1      -2.221   4.003 -33.194  1.00  0.00    -0.334 N 
HETATM    7  C   UNL     1      -1.802   5.282 -33.445  1.00  0.00     0.255 C 
HETATM    8  O   UNL     1      -1.111   5.548 -34.421  1.00  0.00    -0.268 OA
HETATM    9  C   UNL     1      -2.218   6.305 -32.467  1.00  0.00     0.053 A 
HETATM   10  C   UNL     1      -2.946   5.878 -31.350  1.00  0.00     0.026 A 
HETATM   11  N   UNL     1      -3.257   4.523 -31.161  1.00  0.00    -0.265 NA
HETATM   12  C   UNL     1      -1.867   7.647 -32.644  1.00  0.00     0.019 A 
HETATM   13  C   UNL     1      -2.225   8.581 -31.675  1.00  0.00     0.001 A 
HETATM   14  C   UNL     1      -2.908   8.166 -30.532  1.00  0.00     0.002 A 
HETATM   15  C   UNL     1      -3.253   6.820 -30.363  1.00  0.00     0.024 A 
HETATM   16  C   UNL     1      -4.672   4.000 -33.135  1.00  0.00     0.068 C 
HETATM   17  C   UNL     1      -5.904   3.516 -32.387  1.00  0.00     0.130 C 
HETATM   18  O   UNL     1      -6.975   0.596 -30.744  1.00  0.00    -0.266 OA
HETATM   19  H   UNL     1      -1.969   3.356 -33.930  1.00  0.00     0.164 HD
HETATM   20  H   UNL     1      -3.993   4.386 -30.475  1.00  0.00     0.130 HD
ENDROOT
BRANCH   1  21
HETATM   21  C   UNL     1      -8.103   1.557 -32.546  1.00  0.00     0.119 A 
HETATM   22  N   UNL     1      -8.148   1.274 -33.882  1.00  0.00    -0.273 N 
HETATM   23  N   UNL     1      -9.320   1.558 -34.463  1.00  0.00    -0.178 NA
HETATM   24  H   UNL     1      -7.402   0.901 -34.459  1.00  0.00     0.189 HD
HETATM   25  C   UNL     1     -10.107   1.954 -33.450  1.00  0.00     0.064 A 
HETATM   26  C   UNL     1      -9.389   1.939 -32.226  1.00  0.00     0.066 A 
BRANCH  25  27
HETATM   27  C   UNL     1     -11.554   2.338 -33.713  1.00  0.00    -0.005 C 
HETATM   28  C   UNL     1     -12.034   3.344 -32.648  1.00  0.00     0.021 C 
HETATM   29  C   UNL     1     -12.455   1.085 -33.662  1.00  0.00     0.021 C 
HETATM   30  C   UNL     1     -11.732   2.989 -35.100  1.00  0.00     0.021 C 
ENDBRANCH  25  27
ENDBRANCH   1  21
TORSDOF 2
ENDMDL
MODEL 5
REMARK VINA RESULT:      -8.1      1.691      8.247
REMARK  2 active torsions:
REMARK  status: ('A' for Active; 'I' for Inactive)
REMARK    1  A    between atoms: C_2  and  C_3 
REMARK    2  A    between atoms: C_7  and  C_8 
REMARK       I    between atoms: C_8  and  N_9 
ROOT
HETATM    1  C   UNL     1      -3.446   2.375 -31.419  1.00  0.00     0.271 C 
HETATM    2  N   UNL     1      -4.831   2.473 -31.190  1.00  0.00    -0.346 N 
HETATM    3  C   UNL     1      -5.458   1.304 -30.577  1.00  0.00     0.130 C 
HETATM    4  C   UNL     1      -6.802   1.642 -29.945  1.00  0.00     0.068 C 
HETATM    5  C   UNL     1      -7.743   2.381 -30.910  1.00  0.00     0.094 C 
HETATM    6  N   UNL     1      -8.906   2.831 -30.174  1.00  0.00    -0.334 N 
HETATM    7  C   UNL     1     -10.060   3.237 -30.789  1.00  0.00     0.255 C 
HETATM    8  O   UNL     1     -10.864   3.964 -30.221  1.00  0.00    -0.268 OA
HETATM    9  C   UNL     1     -10.278   2.733 -32.158  1.00  0.00     0.053 A 
HETATM   10  C   UNL     1      -9.328   1.848 -32.684  1.00  0.00     0.026 A 
HETATM   11  N   UNL     1      -8.216   1.445 -31.930  1.00  0.00    -0.265 NA
HETATM   12  C   UNL     1     -11.412   3.108 -32.885  1.00  0.00     0.019 A 
HETATM   13  C   UNL     1     -11.620   2.571 -34.154  1.00  0.00     0.001 A 
HETATM   14  C   UNL     1     -10.709   1.650 -34.674  1.00  0.00     0.002 A 
HETATM   15  C   UNL     1      -9.579   1.279 -33.937  1.00  0.00     0.024 A 
HETATM   16  C   UNL     1      -7.011   3.582 -31.538  1.00  0.00     0.068 C 
HETATM   17  C   UNL     1      -5.678   3.185 -32.151  1.00  0.00     0.130 C 
HETATM   18  O   UNL     1      -2.838   1.322 -31.234  1.00  0.00    -0.266 OA
HETATM   19  H   UNL     1      -8.772   3.261 -29.269  1.00  0.00     0.164 HD
HETATM   20  H   UNL     1      -7.490   1.027 -32.503  1.00  0.00     0.130 HD
ENDROOT
BRANCH   1  21
HETATM   21  C   UNL     1      -2.769   3.571 -31.847  1.00  0.00     0.119 A 
HETATM   22  N   UNL     1      -2.363   3.831 -33.126  1.00  0.00    -0.273 N 
HETATM   23  N   UNL     1      -1.727   5.001 -33.272  1.00  0.00    -0.178 NA
HETATM   24  H   UNL     1      -2.475   3.239 -33.942  1.00  0.00     0.189 HD
HETATM   25  C   UNL     1      -1.802   5.574 -32.060  1.00  0.00     0.064 A 
HETATM   26  C   UNL     1      -2.475   4.722 -31.146  1.00  0.00     0.066 A 
BRANCH  25  27
HETATM   27  C   UNL     1      -1.209   6.954 -31.831  1.00  0.00    -0.005 C 
HETATM   28  C   UNL     1      -1.449   7.843 -33.068  1.00  0.00     0.021 C 
HETATM   29  C   UNL     1       0.310   6.846 -31.579  1.00  0.00     0.021 C 
HETATM   30  C   UNL     1      -1.840   7.654 -30.610  1.00  0.00     0.021 C 
ENDBRANCH  25  27
ENDBRANCH   1  21
TORSDOF 2
ENDMDL
MODEL 6
REMARK VINA RESULT:      -8.0      2.608      8.670
REMARK  2 active torsions:
REMARK  status: ('A' for Active; 'I' for Inactive)
REMARK    1  A    between atoms: C_2  and  C_3 
REMARK    2  A    between atoms: C_7  and  C_8 
REMARK       I    between atoms: C_8  and  N_9 
ROOT
HETATM    1  C   UNL     1      -1.797   7.546 -32.035  1.00  0.00     0.271 C 
HETATM    2  N   UNL     1      -2.247   6.218 -32.159  1.00  0.00    -0.346 N 
HETATM    3  C   UNL     1      -2.414   5.730 -33.526  1.00  0.00     0.130 C 
HETATM    4  C   UNL     1      -2.440   4.208 -33.590  1.00  0.00     0.068 C 
HETATM    5  C   UNL     1      -3.453   3.590 -32.612  1.00  0.00     0.094 C 
HETATM    6  N   UNL     1      -3.270   2.154 -32.599  1.00  0.00    -0.334 N 
HETATM    7  C   UNL     1      -4.203   1.294 -32.084  1.00  0.00     0.255 C 
HETATM    8  O   UNL     1      -3.899   0.166 -31.719  1.00  0.00    -0.268 OA
HETATM    9  C   UNL     1      -5.586   1.802 -32.015  1.00  0.00     0.053 A 
HETATM   10  C   UNL     1      -5.835   3.082 -32.527  1.00  0.00     0.026 A 
HETATM   11  N   UNL     1      -4.808   3.847 -33.099  1.00  0.00    -0.265 NA
HETATM   12  C   UNL     1      -6.611   1.015 -31.481  1.00  0.00     0.019 A 
HETATM   13  C   UNL     1      -7.917   1.500 -31.481  1.00  0.00     0.001 A 
HETATM   14  C   UNL     1      -8.191   2.752 -32.031  1.00  0.00     0.002 A 
HETATM   15  C   UNL     1      -7.159   3.531 -32.566  1.00  0.00     0.024 A 
HETATM   16  C   UNL     1      -3.237   4.168 -31.201  1.00  0.00     0.068 C 
HETATM   17  C   UNL     1      -3.219   5.688 -31.199  1.00  0.00     0.130 C 
HETATM   18  O   UNL     1      -1.682   8.279 -33.015  1.00  0.00    -0.266 OA
HETATM   19  H   UNL     1      -2.331   1.783 -32.558  1.00  0.00     0.164 HD
HETATM   20  H   UNL     1      -5.056   4.827 -33.186  1.00  0.00     0.130 HD
ENDROOT
BRANCH   1  21
HETATM   21  C   UNL     1      -1.446   7.995 -30.712  1.00  0.00     0.119 A 
HETATM   22  N   UNL     1      -2.089   8.981 -30.020  1.00  0.00    -0.273 N 
HETATM   23  N   UNL     1      -1.559   9.242 -28.818  1.00  0.00    -0.178 NA
HETATM   24  H   UNL     1      -2.887   9.530 -30.323  1.00  0.00     0.189 HD
HETATM   25  C   UNL     1      -0.589   8.325 -28.676  1.00  0.00     0.064 A 
HETATM   26  C   UNL     1      -0.506   7.504 -29.830  1.00  0.00     0.066 A 
BRANCH  25  27
HETATM   27  C   UNL     1       0.235   8.278 -27.400  1.00  0.00    -0.005 C 
HETATM   28  C   UNL     1      -0.377   9.217 -26.341  1.00  0.00     0.021 C 
HETATM   29  C   UNL     1       1.685   8.723 -27.686  1.00  0.00     0.021 C 
HETATM   30  C   UNL     1       0.288   6.856 -26.804  1.00  0.00     0.021 C 
ENDBRANCH  25  27
ENDBRANCH   1  21
TORSDOF 2
ENDMDL
MODEL 7
REMARK VINA RESULT:      -7.7      1.960      8.150
REMARK  2 active torsions:
REMARK  status: ('A' for Active; 'I' for Inactive)
REMARK    1  A    between atoms: C_2  and  C_3 
REMARK    2  A    between atoms: C_7  and  C_8 
REMARK       I    between atoms: C_8  and  N_9 
ROOT
HETATM    1  C   UNL     1      -4.641   1.764 -32.418  1.00  0.00     0.271 C 
HETATM    2  N   UNL     1      -5.987   2.059 -32.132  1.00  0.00    -0.346 N 
HETATM    3  C   UNL     1      -6.893   0.914 -32.089  1.00  0.00     0.130 C 
HETATM    4  C   UNL     1      -8.179   1.229 -31.336  1.00  0.00     0.068 C 
HETATM    5  C   UNL     1      -8.865   2.508 -31.844  1.00  0.00     0.094 C 
HETATM    6  N   UNL     1      -9.958   2.836 -30.952  1.00  0.00    -0.334 N 
HETATM    7  C   UNL     1     -10.949   3.719 -31.290  1.00  0.00     0.255 C 
HETATM    8  O   UNL     1     -11.621   4.281 -30.434  1.00  0.00    -0.268 OA
HETATM    9  C   UNL     1     -11.164   3.933 -32.733  1.00  0.00     0.053 A 
HETATM   10  C   UNL     1     -10.387   3.183 -33.624  1.00  0.00     0.026 A 
HETATM   11  N   UNL     1      -9.447   2.251 -33.161  1.00  0.00    -0.265 NA
HETATM   12  C   UNL     1     -12.133   4.834 -33.185  1.00  0.00     0.019 A 
HETATM   13  C   UNL     1     -12.352   4.973 -34.554  1.00  0.00     0.001 A 
HETATM   14  C   UNL     1     -11.621   4.199 -35.454  1.00  0.00     0.002 A 
HETATM   15  C   UNL     1     -10.656   3.297 -34.992  1.00  0.00     0.024 A 
HETATM   16  C   UNL     1      -7.848   3.665 -31.888  1.00  0.00     0.068 C 
HETATM   17  C   UNL     1      -6.587   3.291 -32.650  1.00  0.00     0.130 C 
HETATM   18  O   UNL     1      -4.287   0.631 -32.740  1.00  0.00    -0.266 OA
HETATM   19  H   UNL     1      -9.805   2.780 -29.954  1.00  0.00     0.164 HD
HETATM   20  H   UNL     1      -8.784   1.978 -33.879  1.00  0.00     0.130 HD
ENDROOT
BRANCH   1  21
HETATM   21  C   UNL     1      -3.695   2.841 -32.285  1.00  0.00     0.119 A 
HETATM   22  N   UNL     1      -2.937   3.090 -31.176  1.00  0.00    -0.273 N 
HETATM   23  N   UNL     1      -2.150   4.168 -31.281  1.00  0.00    -0.178 NA
HETATM   24  H   UNL     1      -2.926   2.569 -30.306  1.00  0.00     0.189 HD
HETATM   25  C   UNL     1      -2.328   4.588 -32.544  1.00  0.00     0.064 A 
HETATM   26  C   UNL     1      -3.267   3.764 -33.216  1.00  0.00     0.066 A 
BRANCH  25  27
HETATM   27  C   UNL     1      -1.563   5.796 -33.061  1.00  0.00    -0.005 C 
HETATM   28  C   UNL     1      -0.322   6.050 -32.182  1.00  0.00     0.021 C 
HETATM   29  C   UNL     1      -2.464   7.050 -33.029  1.00  0.00     0.021 C 
HETATM   30  C   UNL     1      -1.087   5.594 -34.514  1.00  0.00     0.021 C 
ENDBRANCH  25  27
ENDBRANCH   1  21
TORSDOF 2
ENDMDL
MODEL 8
REMARK VINA RESULT:      -7.6      3.148      4.357
REMARK  2 active torsions:
REMARK  status: ('A' for Active; 'I' for Inactive)
REMARK    1  A    between atoms: C_2  and  C_3 
REMARK    2  A    between atoms: C_7  and  C_8 
REMARK       I    between atoms: C_8  and  N_9 
ROOT
HETATM    1  C   UNL     1      -6.877   4.649 -33.321  1.00  0.00     0.271 C 
HETATM    2  N   UNL     1      -6.109   5.306 -32.342  1.00  0.00    -0.346 N 
HETATM    3  C   UNL     1      -6.092   6.765 -32.422  1.00  0.00     0.130 C 
HETATM    4  C   UNL     1      -5.658   7.405 -31.110  1.00  0.00     0.068 C 
HETATM    5  C   UNL     1      -4.337   6.826 -30.576  1.00  0.00     0.094 C 
HETATM    6  N   UNL     1      -4.106   7.344 -29.244  1.00  0.00    -0.334 N 
HETATM    7  C   UNL     1      -2.887   7.277 -28.625  1.00  0.00     0.255 C 
HETATM    8  O   UNL     1      -2.785   7.344 -27.407  1.00  0.00    -0.268 OA
HETATM    9  C   UNL     1      -1.716   7.137 -29.511  1.00  0.00     0.053 A 
HETATM   10  C   UNL     1      -1.941   7.144 -30.893  1.00  0.00     0.026 A 
HETATM   11  N   UNL     1      -3.234   7.292 -31.416  1.00  0.00    -0.265 NA
HETATM   12  C   UNL     1      -0.426   7.032 -28.980  1.00  0.00     0.019 A 
HETATM   13  C   UNL     1       0.665   6.959 -29.842  1.00  0.00     0.001 A 
HETATM   14  C   UNL     1       0.463   7.013 -31.221  1.00  0.00     0.002 A 
HETATM   15  C   UNL     1      -0.831   7.121 -31.743  1.00  0.00     0.024 A 
HETATM   16  C   UNL     1      -4.416   5.288 -30.544  1.00  0.00     0.068 C 
HETATM   17  C   UNL     1      -4.856   4.707 -31.878  1.00  0.00     0.130 C 
HETATM   18  O   UNL     1      -7.387   5.264 -34.256  1.00  0.00    -0.266 OA
HETATM   19  H   UNL     1      -4.877   7.368 -28.590  1.00  0.00     0.164 HD
HETATM   20  H   UNL     1      -3.291   7.020 -32.393  1.00  0.00     0.130 HD
ENDROOT
BRANCH   1  21
HETATM   21  C   UNL     1      -7.064   3.231 -33.160  1.00  0.00     0.119 A 
HETATM   22  N   UNL     1      -7.856   2.644 -32.214  1.00  0.00    -0.273 N 
HETATM   23  N   UNL     1      -7.846   1.305 -32.243  1.00  0.00    -0.178 NA
HETATM   24  H   UNL     1      -8.416   3.106 -31.504  1.00  0.00     0.189 HD
HETATM   25  C   UNL     1      -7.091   1.002 -33.311  1.00  0.00     0.064 A 
HETATM   26  C   UNL     1      -6.607   2.183 -33.932  1.00  0.00     0.066 A 
BRANCH  25  27
HETATM   27  C   UNL     1      -6.867  -0.450 -33.699  1.00  0.00    -0.005 C 
HETATM   28  C   UNL     1      -6.679  -0.566 -35.225  1.00  0.00     0.021 C 
HETATM   29  C   UNL     1      -8.079  -1.308 -33.277  1.00  0.00     0.021 C 
HETATM   30  C   UNL     1      -5.613  -1.038 -33.018  1.00  0.00     0.021 C 
ENDBRANCH  25  27
ENDBRANCH   1  21
TORSDOF 2
ENDMDL
MODEL 9
REMARK VINA RESULT:      -7.6      2.260      8.321
REMARK  2 active torsions:
REMARK  status: ('A' for Active; 'I' for Inactive)
REMARK    1  A    between atoms: C_2  and  C_3 
REMARK    2  A    between atoms: C_7  and  C_8 
REMARK       I    between atoms: C_8  and  N_9 
ROOT
HETATM    1  C   UNL     1      -5.554   2.836 -30.642  1.00  0.00     0.271 C 
HETATM    2  N   UNL     1      -6.828   3.318 -30.995  1.00  0.00    -0.346 N 
HETATM    3  C   UNL     1      -7.912   2.982 -30.076  1.00  0.00     0.130 C 
HETATM    4  C   UNL     1      -9.118   3.895 -30.253  1.00  0.00     0.068 C 
HETATM    5  C   UNL     1      -9.587   3.981 -31.715  1.00  0.00     0.094 C 
HETATM    6  N   UNL     1     -10.598   5.011 -31.820  1.00  0.00    -0.334 N 
HETATM    7  C   UNL     1     -11.431   5.123 -32.901  1.00  0.00     0.255 C 
HETATM    8  O   UNL     1     -11.990   6.179 -33.170  1.00  0.00    -0.268 OA
HETATM    9  C   UNL     1     -11.625   3.899 -33.700  1.00  0.00     0.053 A 
HETATM   10  C   UNL     1     -10.996   2.728 -33.260  1.00  0.00     0.026 A 
HETATM   11  N   UNL     1     -10.219   2.717 -32.092  1.00  0.00    -0.265 NA
HETATM   12  C   UNL     1     -12.436   3.910 -34.840  1.00  0.00     0.019 A 
HETATM   13  C   UNL     1     -12.646   2.726 -35.542  1.00  0.00     0.001 A 
HETATM   14  C   UNL     1     -12.065   1.540 -35.090  1.00  0.00     0.002 A 
HETATM   15  C   UNL     1     -11.258   1.539 -33.947  1.00  0.00     0.024 A 
HETATM   16  C   UNL     1      -8.391   4.312 -32.629  1.00  0.00     0.068 C 
HETATM   17  C   UNL     1      -7.219   3.370 -32.406  1.00  0.00     0.130 C 
HETATM   18  O   UNL     1      -5.398   2.072 -29.691  1.00  0.00    -0.266 OA
HETATM   19  H   UNL     1     -10.445   5.894 -31.351  1.00  0.00     0.164 HD
HETATM   20  H   UNL     1      -9.620   1.900 -32.031  1.00  0.00     0.130 HD
ENDROOT
BRANCH   1  21
HETATM   21  C   UNL     1      -4.439   3.305 -31.423  1.00  0.00     0.119 A 
HETATM   22  N   UNL     1      -3.677   2.530 -32.251  1.00  0.00    -0.273 N 
HETATM   23  N   UNL     1      -2.676   3.188 -32.850  1.00  0.00    -0.178 NA
HETATM   24  H   UNL     1      -3.779   1.537 -32.435  1.00  0.00     0.189 HD
HETATM   25  C   UNL     1      -2.845   4.465 -32.474  1.00  0.00     0.064 A 
HETATM   26  C   UNL     1      -3.959   4.585 -31.603  1.00  0.00     0.066 A 
BRANCH  25  27
HETATM   27  C   UNL     1      -1.903   5.542 -32.986  1.00  0.00    -0.005 C 
HETATM   28  C   UNL     1      -1.528   5.259 -34.454  1.00  0.00     0.021 C 
HETATM   29  C   UNL     1      -0.615   5.572 -32.136  1.00  0.00     0.021 C 
HETATM   30  C   UNL     1      -2.544   6.944 -32.919  1.00  0.00     0.021 C 
ENDBRANCH  25  27
ENDBRANCH   1  21
TORSDOF 2
ENDMDL
MODEL 10
REMARK VINA RESULT:      -7.6      3.065      7.983
REMARK  2 active torsions:
REMARK  status: ('A' for Active; 'I' for Inactive)
REMARK    1  A    between atoms: C_2  and  C_3 
REMARK    2  A    between atoms: C_7  and  C_8 
REMARK       I    between atoms: C_8  and  N_9 
ROOT
HETATM    1  C   UNL     1      -5.976   5.397 -29.178  1.00  0.00     0.271 C 
HETATM    2  N   UNL     1      -6.747   4.620 -30.063  1.00  0.00    -0.346 N 
HETATM    3  C   UNL     1      -7.690   3.695 -29.437  1.00  0.00     0.130 C 
HETATM    4  C   UNL     1      -8.782   3.253 -30.402  1.00  0.00     0.068 C 
HETATM    5  C   UNL     1      -8.221   2.719 -31.730  1.00  0.00     0.094 C 
HETATM    6  N   UNL     1      -9.319   2.511 -32.650  1.00  0.00    -0.334 N 
HETATM    7  C   UNL     1      -9.199   1.758 -33.788  1.00  0.00     0.255 C 
HETATM    8  O   UNL     1      -9.967   1.901 -34.731  1.00  0.00    -0.268 OA
HETATM    9  C   UNL     1      -8.110   0.765 -33.797  1.00  0.00     0.053 A 
HETATM   10  C   UNL     1      -7.337   0.636 -32.636  1.00  0.00     0.026 A 
HETATM   11  N   UNL     1      -7.600   1.415 -31.500  1.00  0.00    -0.265 NA
HETATM   12  C   UNL     1      -7.883  -0.037 -34.920  1.00  0.00     0.019 A 
HETATM   13  C   UNL     1      -6.883  -1.006 -34.879  1.00  0.00     0.001 A 
HETATM   14  C   UNL     1      -6.136  -1.181 -33.713  1.00  0.00     0.002 A 
HETATM   15  C   UNL     1      -6.373  -0.376 -32.594  1.00  0.00     0.024 A 
HETATM   16  C   UNL     1      -7.218   3.730 -32.318  1.00  0.00     0.068 C 
HETATM   17  C   UNL     1      -6.154   4.135 -31.310  1.00  0.00     0.130 C 
HETATM   18  O   UNL     1      -6.005   5.207 -27.964  1.00  0.00    -0.266 OA
HETATM   19  H   UNL     1     -10.034   3.222 -32.724  1.00  0.00     0.164 HD
HETATM   20  H   UNL     1      -6.826   1.416 -30.842  1.00  0.00     0.130 HD
ENDROOT
BRANCH   1  21
HETATM   21  C   UNL     1      -5.176   6.445 -29.758  1.00  0.00     0.119 A 
HETATM   22  N   UNL     1      -5.667   7.529 -30.429  1.00  0.00    -0.273 N 
HETATM   23  N   UNL     1      -4.723   8.353 -30.904  1.00  0.00    -0.178 NA
HETATM   24  H   UNL     1      -6.639   7.754 -30.614  1.00  0.00     0.189 HD
HETATM   25  C   UNL     1      -3.571   7.839 -30.444  1.00  0.00     0.064 A 
HETATM   26  C   UNL     1      -3.815   6.658 -29.696  1.00  0.00     0.066 A 
BRANCH  25  27
HETATM   27  C   UNL     1      -2.252   8.528 -30.753  1.00  0.00    -0.005 C 
HETATM   28  C   UNL     1      -2.414  10.056 -30.632  1.00  0.00     0.021 C 
HETATM   29  C   UNL     1      -1.795   8.184 -32.187  1.00  0.00     0.021 C 
HETATM   30  C   UNL     1      -1.135   8.088 -29.785  1.00  0.00     0.021 C 
ENDBRANCH  25  27
ENDBRANCH   1  21
TORSDOF 2
ENDMDL
