MODEL 1
REMARK VINA RESULT:      -7.6      0.000      0.000
REMARK  8 active torsions:
REMARK  status: ('A' for Active; 'I' for Inactive)
REMARK    1  A    between atoms: C_2  and  C_3 
REMARK    2  A    between atoms: C_3  and  N_4 
REMARK    3  A    between atoms: C_7  and  C_8 
REMARK       I    between atoms: C_8  and  N_9 
REMARK    4  A    between atoms: N_9  and  N_10 
REMARK       I    between atoms: N_10  and  C_11 
REMARK    5  A    between atoms: C_11  and  C_12 
REMARK    6  A    between atoms: C_15  and  O_16 
REMARK    7  A    between atoms: O_16  and  C_17 
REMARK    8  A    between atoms: C_23  and  C_24 
ROOT
HETATM    1  C   UNL     1      -4.783   3.144 -31.235  1.00  0.00     0.273 C 
HETATM    2  N   UNL     1      -3.629   3.677 -31.767  1.00  0.00    -0.263 N 
HETATM    3  O   UNL     1      -5.097   3.335 -30.060  1.00  0.00    -0.266 OA
HETATM    4  H   UNL     1      -3.281   3.469 -32.697  1.00  0.00     0.190 HD
ENDROOT
BRANCH   2   5
HETATM    5  N   UNL     1      -2.808   4.415 -30.898  1.00  0.00    -0.263 N 
HETATM    6  C   UNL     1      -1.783   5.169 -31.440  1.00  0.00     0.270 C 
HETATM    7  O   UNL     1      -1.367   5.035 -32.585  1.00  0.00    -0.266 OA
HETATM    8  H   UNL     1      -3.310   4.782 -30.087  1.00  0.00     0.190 HD
BRANCH   6   9
HETATM    9  C   UNL     1      -1.241   6.223 -30.534  1.00  0.00     0.033 A 
HETATM   10  C   UNL     1       0.137   6.417 -30.381  1.00  0.00     0.020 A 
HETATM   11  C   UNL     1       0.611   7.336 -29.444  1.00  0.00     0.038 A 
HETATM   12  C   UNL     1      -0.276   8.072 -28.655  1.00  0.00     0.068 A 
HETATM   13  C   UNL     1      -1.650   7.927 -28.853  1.00  0.00     0.038 A 
HETATM   14  C   UNL     1      -2.133   7.005 -29.790  1.00  0.00     0.020 A 
BRANCH  12  15
HETATM   15  O   UNL     1       0.325   8.891 -27.743  1.00  0.00    -0.352 OA
BRANCH  15  16
HETATM   16  C   UNL     1       1.729   8.725 -27.549  1.00  0.00     0.171 C 
HETATM   17  C   UNL     1       1.948   8.267 -26.117  1.00  0.00     0.034 C 
ENDBRANCH  15  16
ENDBRANCH  12  15
ENDBRANCH   6   9
ENDBRANCH   2   5
BRANCH   1  18
HETATM   18  C   UNL     1      -5.520   2.245 -32.089  1.00  0.00     0.077 A 
HETATM   19  C   UNL     1      -6.800   2.557 -32.599  1.00  0.00     0.158 A 
HETATM   20  N   UNL     1      -7.269   1.633 -33.429  1.00  0.00    -0.183 NA
HETATM   21  N   UNL     1      -6.280   0.721 -33.490  1.00  0.00    -0.268 N 
HETATM   22  C   UNL     1      -5.184   1.047 -32.707  1.00  0.00     0.052 A 
BRANCH  21  23
HETATM   23  C   UNL     1      -6.410  -0.395 -34.430  1.00  0.00     0.106 C 
HETATM   24  C   UNL     1      -7.189   0.062 -35.666  1.00  0.00     0.034 C 
BRANCH  23  25
HETATM   25  C   UNL     1      -7.066  -1.656 -33.827  1.00  0.00     0.022 C 
HETATM   26  C   UNL     1      -6.726  -2.931 -34.587  1.00  0.00     0.007 C 
ENDBRANCH  23  25
ENDBRANCH  21  23
BRANCH  22  27
HETATM   27  C   UNL     1      -3.878   0.249 -32.703  1.00  0.00     0.038 A 
HETATM   28  C   UNL     1      -3.225  -0.123 -31.390  1.00  0.00     0.011 A 
HETATM   29  C   UNL     1      -3.814  -1.189 -32.250  1.00  0.00     0.011 A 
ENDBRANCH  22  27
ENDBRANCH   1  18
TORSDOF 8
ENDMDL
MODEL 2
REMARK VINA RESULT:      -7.4      1.476      2.319
REMARK  8 active torsions:
REMARK  status: ('A' for Active; 'I' for Inactive)
REMARK    1  A    between atoms: C_2  and  C_3 
REMARK    2  A    between atoms: C_3  and  N_4 
REMARK    3  A    between atoms: C_7  and  C_8 
REMARK       I    between atoms: C_8  and  N_9 
REMARK    4  A    between atoms: N_9  and  N_10 
REMARK       I    between atoms: N_10  and  C_11 
REMARK    5  A    between atoms: C_11  and  C_12 
REMARK    6  A    between atoms: C_15  and  O_16 
REMARK    7  A    between atoms: O_16  and  C_17 
REMARK    8  A    between atoms: C_23  and  C_24 
ROOT
HETATM    1  C   UNL     1      -3.337   1.254 -31.637  1.00  0.00     0.273 C 
HETATM    2  N   UNL     1      -3.479   2.602 -31.886  1.00  0.00    -0.263 N 
HETATM    3  O   UNL     1      -2.505   0.833 -30.834  1.00  0.00    -0.266 OA
HETATM    4  H   UNL     1      -4.081   2.988 -32.605  1.00  0.00     0.190 HD
ENDROOT
BRANCH   2   5
HETATM    5  N   UNL     1      -2.604   3.470 -31.212  1.00  0.00    -0.263 N 
HETATM    6  C   UNL     1      -1.989   4.477 -31.934  1.00  0.00     0.270 C 
HETATM    7  O   UNL     1      -1.936   4.507 -33.158  1.00  0.00    -0.266 OA
HETATM    8  H   UNL     1      -2.892   3.663 -30.250  1.00  0.00     0.190 HD
BRANCH   6   9
HETATM    9  C   UNL     1      -1.428   5.582 -31.103  1.00  0.00     0.033 A 
HETATM   10  C   UNL     1      -0.048   5.803 -31.017  1.00  0.00     0.020 A 
HETATM   11  C   UNL     1       0.448   6.775 -30.147  1.00  0.00     0.038 A 
HETATM   12  C   UNL     1      -0.418   7.536 -29.360  1.00  0.00     0.068 A 
HETATM   13  C   UNL     1      -1.797   7.362 -29.494  1.00  0.00     0.038 A 
HETATM   14  C   UNL     1      -2.302   6.387 -30.364  1.00  0.00     0.020 A 
BRANCH  12  15
HETATM   15  O   UNL     1       0.205   8.408 -28.514  1.00  0.00    -0.352 OA
BRANCH  15  16
HETATM   16  C   UNL     1       0.868   7.850 -27.380  1.00  0.00     0.171 C 
HETATM   17  C   UNL     1       1.898   8.859 -26.902  1.00  0.00     0.034 C 
ENDBRANCH  15  16
ENDBRANCH  12  15
ENDBRANCH   6   9
ENDBRANCH   2   5
BRANCH   1  18
HETATM   18  C   UNL     1      -4.119   0.369 -32.467  1.00  0.00     0.077 A 
HETATM   19  C   UNL     1      -3.531  -0.543 -33.371  1.00  0.00     0.158 A 
HETATM   20  N   UNL     1      -4.421  -1.320 -33.978  1.00  0.00    -0.183 NA
HETATM   21  N   UNL     1      -5.598  -0.939 -33.448  1.00  0.00    -0.268 N 
HETATM   22  C   UNL     1      -5.476   0.076 -32.512  1.00  0.00     0.052 A 
BRANCH  21  23
HETATM   23  C   UNL     1      -6.805  -1.687 -33.805  1.00  0.00     0.106 C 
HETATM   24  C   UNL     1      -6.426  -2.896 -34.665  1.00  0.00     0.034 C 
BRANCH  23  25
HETATM   25  C   UNL     1      -7.883  -0.845 -34.522  1.00  0.00     0.022 C 
HETATM   26  C   UNL     1      -7.300   0.206 -35.456  1.00  0.00     0.007 C 
ENDBRANCH  23  25
ENDBRANCH  21  23
BRANCH  22  27
HETATM   27  C   UNL     1      -6.643   0.596 -31.668  1.00  0.00     0.038 A 
HETATM   28  C   UNL     1      -6.914  -0.003 -30.306  1.00  0.00     0.011 A 
HETATM   29  C   UNL     1      -6.430   1.404 -30.412  1.00  0.00     0.011 A 
ENDBRANCH  22  27
ENDBRANCH   1  18
TORSDOF 8
ENDMDL
MODEL 3
REMARK VINA RESULT:      -7.3      2.289      9.813
REMARK  8 active torsions:
REMARK  status: ('A' for Active; 'I' for Inactive)
REMARK    1  A    between atoms: C_2  and  C_3 
REMARK    2  A    between atoms: C_3  and  N_4 
REMARK    3  A    between atoms: C_7  and  C_8 
REMARK       I    between atoms: C_8  and  N_9 
REMARK    4  A    between atoms: N_9  and  N_10 
REMARK       I    between atoms: N_10  and  C_11 
REMARK    5  A    between atoms: C_11  and  C_12 
REMARK    6  A    between atoms: C_15  and  O_16 
REMARK    7  A    between atoms: O_16  and  C_17 
REMARK    8  A    between atoms: C_23  and  C_24 
ROOT
HETATM    1  C   UNL     1      -3.736   5.365 -31.395  1.00  0.00     0.273 C 
HETATM    2  N   UNL     1      -3.811   4.062 -30.953  1.00  0.00    -0.263 N 
HETATM    3  O   UNL     1      -4.039   5.672 -32.548  1.00  0.00    -0.266 OA
HETATM    4  H   UNL     1      -3.482   3.748 -30.047  1.00  0.00     0.190 HD
ENDROOT
BRANCH   2   5
HETATM    5  N   UNL     1      -4.208   3.093 -31.890  1.00  0.00    -0.263 N 
HETATM    6  C   UNL     1      -3.695   1.815 -31.774  1.00  0.00     0.270 C 
HETATM    7  O   UNL     1      -2.719   1.528 -31.089  1.00  0.00    -0.266 OA
HETATM    8  H   UNL     1      -5.177   3.206 -32.196  1.00  0.00     0.190 HD
BRANCH   6   9
HETATM    9  C   UNL     1      -4.460   0.768 -32.514  1.00  0.00     0.033 A 
HETATM   10  C   UNL     1      -3.987  -0.545 -32.619  1.00  0.00     0.020 A 
HETATM   11  C   UNL     1      -4.670  -1.470 -33.409  1.00  0.00     0.038 A 
HETATM   12  C   UNL     1      -5.828  -1.102 -34.097  1.00  0.00     0.068 A 
HETATM   13  C   UNL     1      -6.337   0.189 -33.940  1.00  0.00     0.038 A 
HETATM   14  C   UNL     1      -5.654   1.123 -33.150  1.00  0.00     0.020 A 
BRANCH  12  15
HETATM   15  O   UNL     1      -6.362  -2.089 -34.876  1.00  0.00    -0.352 OA
BRANCH  15  16
HETATM   16  C   UNL     1      -5.608  -3.294 -35.001  1.00  0.00     0.171 C 
HETATM   17  C   UNL     1      -6.591  -4.436 -35.201  1.00  0.00     0.034 C 
ENDBRANCH  15  16
ENDBRANCH  12  15
ENDBRANCH   6   9
ENDBRANCH   2   5
BRANCH   1  18
HETATM   18  C   UNL     1      -3.158   6.315 -30.476  1.00  0.00     0.077 A 
HETATM   19  C   UNL     1      -3.844   6.786 -29.335  1.00  0.00     0.158 A 
HETATM   20  N   UNL     1      -3.107   7.591 -28.579  1.00  0.00    -0.183 NA
HETATM   21  N   UNL     1      -1.917   7.626 -29.209  1.00  0.00    -0.268 N 
HETATM   22  C   UNL     1      -1.884   6.858 -30.362  1.00  0.00     0.052 A 
BRANCH  21  23
HETATM   23  C   UNL     1      -0.804   8.333 -28.571  1.00  0.00     0.106 C 
HETATM   24  C   UNL     1      -0.162   7.432 -27.512  1.00  0.00     0.034 C 
BRANCH  23  25
HETATM   25  C   UNL     1      -1.192   9.691 -27.947  1.00  0.00     0.022 C 
HETATM   26  C   UNL     1      -0.216  10.159 -26.877  1.00  0.00     0.007 C 
ENDBRANCH  23  25
ENDBRANCH  21  23
BRANCH  22  27
HETATM   27  C   UNL     1      -0.616   6.621 -31.187  1.00  0.00     0.038 A 
HETATM   28  C   UNL     1       0.396   5.591 -30.736  1.00  0.00     0.011 A 
HETATM   29  C   UNL     1      -0.395   5.357 -31.979  1.00  0.00     0.011 A 
ENDBRANCH  22  27
ENDBRANCH   1  18
TORSDOF 8
ENDMDL
MODEL 4
REMARK VINA RESULT:      -7.3      1.455      1.735
REMARK  8 active torsions:
REMARK  status: ('A' for Active; 'I' for Inactive)
REMARK    1  A    between atoms: C_2  and  C_3 
REMARK    2  A    between atoms: C_3  and  N_4 
REMARK    3  A    between atoms: C_7  and  C_8 
REMARK       I    between atoms: C_8  and  N_9 
REMARK    4  A    between atoms: N_9  and  N_10 
REMARK       I    between atoms: N_10  and  C_11 
REMARK    5  A    between atoms: C_11  and  C_12 
REMARK    6  A    between atoms: C_15  and  O_16 
REMARK    7  A    between atoms: O_16  and  C_17 
REMARK    8  A    between atoms: C_23  and  C_24 
ROOT
HETATM    1  C   UNL     1      -4.462   3.610 -31.643  1.00  0.00     0.273 C 
HETATM    2  N   UNL     1      -3.132   3.413 -31.948  1.00  0.00    -0.263 N 
HETATM    3  O   UNL     1      -4.806   4.322 -30.700  1.00  0.00    -0.266 OA
HETATM    4  H   UNL     1      -2.800   2.762 -32.652  1.00  0.00     0.190 HD
ENDROOT
BRANCH   2   5
HETATM    5  N   UNL     1      -2.188   4.028 -31.110  1.00  0.00    -0.263 N 
HETATM    6  C   UNL     1      -1.323   4.955 -31.661  1.00  0.00     0.270 C 
HETATM    7  O   UNL     1      -1.134   5.084 -32.865  1.00  0.00    -0.266 OA
HETATM    8  H   UNL     1      -2.536   4.186 -30.162  1.00  0.00     0.190 HD
BRANCH   6   9
HETATM    9  C   UNL     1      -0.657   5.850 -30.669  1.00  0.00     0.033 A 
HETATM   10  C   UNL     1       0.274   5.355 -29.748  1.00  0.00     0.020 A 
HETATM   11  C   UNL     1       0.794   6.197 -28.764  1.00  0.00     0.038 A 
HETATM   12  C   UNL     1       0.399   7.534 -28.688  1.00  0.00     0.068 A 
HETATM   13  C   UNL     1      -0.478   8.045 -29.646  1.00  0.00     0.038 A 
HETATM   14  C   UNL     1      -1.006   7.205 -30.635  1.00  0.00     0.020 A 
BRANCH  12  15
HETATM   15  O   UNL     1       0.943   8.226 -27.644  1.00  0.00    -0.352 OA
BRANCH  15  16
HETATM   16  C   UNL     1       1.406   7.462 -26.531  1.00  0.00     0.171 C 
HETATM   17  C   UNL     1       2.137   8.406 -25.592  1.00  0.00     0.034 C 
ENDBRANCH  15  16
ENDBRANCH  12  15
ENDBRANCH   6   9
ENDBRANCH   2   5
BRANCH   1  18
HETATM   18  C   UNL     1      -5.410   2.831 -32.402  1.00  0.00     0.077 A 
HETATM   19  C   UNL     1      -5.938   3.266 -33.637  1.00  0.00     0.158 A 
HETATM   20  N   UNL     1      -6.730   2.368 -34.210  1.00  0.00    -0.183 NA
HETATM   21  N   UNL     1      -6.699   1.322 -33.362  1.00  0.00    -0.268 N 
HETATM   22  C   UNL     1      -5.901   1.540 -32.251  1.00  0.00     0.052 A 
BRANCH  21  23
HETATM   23  C   UNL     1      -7.375   0.082 -33.750  1.00  0.00     0.106 C 
HETATM   24  C   UNL     1      -6.772  -0.446 -35.055  1.00  0.00     0.034 C 
BRANCH  23  25
HETATM   25  C   UNL     1      -8.907   0.214 -33.891  1.00  0.00     0.022 C 
HETATM   26  C   UNL     1      -9.634   0.225 -32.554  1.00  0.00     0.007 C 
ENDBRANCH  23  25
ENDBRANCH  21  23
BRANCH  22  27
HETATM   27  C   UNL     1      -5.591   0.465 -31.206  1.00  0.00     0.038 A 
HETATM   28  C   UNL     1      -5.784   0.765 -29.735  1.00  0.00     0.011 A 
HETATM   29  C   UNL     1      -6.674  -0.222 -30.412  1.00  0.00     0.011 A 
ENDBRANCH  22  27
ENDBRANCH   1  18
TORSDOF 8
ENDMDL
MODEL 5
REMARK VINA RESULT:      -7.2      1.498      2.476
REMARK  8 active torsions:
REMARK  status: ('A' for Active; 'I' for Inactive)
REMARK    1  A    between atoms: C_2  and  C_3 
REMARK    2  A    between atoms: C_3  and  N_4 
REMARK    3  A    between atoms: C_7  and  C_8 
REMARK       I    between atoms: C_8  and  N_9 
REMARK    4  A    between atoms: N_9  and  N_10 
REMARK       I    between atoms: N_10  and  C_11 
REMARK    5  A    between atoms: C_11  and  C_12 
REMARK    6  A    between atoms: C_15  and  O_16 
REMARK    7  A    between atoms: O_16  and  C_17 
REMARK    8  A    between atoms: C_23  and  C_24 
ROOT
HETATM    1  C   UNL     1      -4.798   2.977 -31.083  1.00  0.00     0.273 C 
HETATM    2  N   UNL     1      -3.567   2.941 -31.700  1.00  0.00    -0.263 N 
HETATM    3  O   UNL     1      -4.974   3.599 -30.036  1.00  0.00    -0.266 OA
HETATM    4  H   UNL     1      -3.351   2.367 -32.508  1.00  0.00     0.190 HD
ENDROOT
BRANCH   2   5
HETATM    5  N   UNL     1      -2.513   3.614 -31.060  1.00  0.00    -0.263 N 
HETATM    6  C   UNL     1      -1.835   4.595 -31.760  1.00  0.00     0.270 C 
HETATM    7  O   UNL     1      -1.901   4.738 -32.976  1.00  0.00    -0.266 OA
HETATM    8  H   UNL     1      -2.672   3.748 -30.059  1.00  0.00     0.190 HD
BRANCH   6   9
HETATM    9  C   UNL     1      -1.040   5.529 -30.909  1.00  0.00     0.033 A 
HETATM   10  C   UNL     1       0.028   5.074 -30.127  1.00  0.00     0.020 A 
HETATM   11  C   UNL     1       0.680   5.953 -29.260  1.00  0.00     0.038 A 
HETATM   12  C   UNL     1       0.279   7.287 -29.165  1.00  0.00     0.068 A 
HETATM   13  C   UNL     1      -0.743   7.757 -29.992  1.00  0.00     0.038 A 
HETATM   14  C   UNL     1      -1.402   6.880 -30.863  1.00  0.00     0.020 A 
BRANCH  12  15
HETATM   15  O   UNL     1       0.965   8.018 -28.237  1.00  0.00    -0.352 OA
BRANCH  15  16
HETATM   16  C   UNL     1       1.051   7.477 -26.920  1.00  0.00     0.171 C 
HETATM   17  C   UNL     1       2.042   8.322 -26.136  1.00  0.00     0.034 C 
ENDBRANCH  15  16
ENDBRANCH  12  15
ENDBRANCH   6   9
ENDBRANCH   2   5
BRANCH   1  18
HETATM   18  C   UNL     1      -5.821   2.137 -31.657  1.00  0.00     0.077 A 
HETATM   19  C   UNL     1      -6.384   1.041 -30.965  1.00  0.00     0.158 A 
HETATM   20  N   UNL     1      -7.364   0.449 -31.636  1.00  0.00    -0.183 NA
HETATM   21  N   UNL     1      -7.469   1.178 -32.764  1.00  0.00    -0.268 N 
HETATM   22  C   UNL     1      -6.565   2.226 -32.826  1.00  0.00     0.052 A 
BRANCH  21  23
HETATM   23  C   UNL     1      -8.557   0.876 -33.697  1.00  0.00     0.106 C 
HETATM   24  C   UNL     1      -9.608   0.008 -32.999  1.00  0.00     0.034 C 
BRANCH  23  25
HETATM   25  C   UNL     1      -8.098   0.199 -35.007  1.00  0.00     0.022 C 
HETATM   26  C   UNL     1      -7.143  -0.964 -34.778  1.00  0.00     0.007 C 
ENDBRANCH  23  25
ENDBRANCH  21  23
BRANCH  22  27
HETATM   27  C   UNL     1      -6.566   3.281 -33.936  1.00  0.00     0.038 A 
HETATM   28  C   UNL     1      -7.480   4.482 -33.834  1.00  0.00     0.011 A 
HETATM   29  C   UNL     1      -6.004   4.666 -33.731  1.00  0.00     0.011 A 
ENDBRANCH  22  27
ENDBRANCH   1  18
TORSDOF 8
ENDMDL
MODEL 6
REMARK VINA RESULT:      -7.2      2.581      3.050
REMARK  8 active torsions:
REMARK  status: ('A' for Active; 'I' for Inactive)
REMARK    1  A    between atoms: C_2  and  C_3 
REMARK    2  A    between atoms: C_3  and  N_4 
REMARK    3  A    between atoms: C_7  and  C_8 
REMARK       I    between atoms: C_8  and  N_9 
REMARK    4  A    between atoms: N_9  and  N_10 
REMARK       I    between atoms: N_10  and  C_11 
REMARK    5  A    between atoms: C_11  and  C_12 
REMARK    6  A    between atoms: C_15  and  O_16 
REMARK    7  A    between atoms: O_16  and  C_17 
REMARK    8  A    between atoms: C_23  and  C_24 
ROOT
HETATM    1  C   UNL     1      -5.905   2.278 -32.840  1.00  0.00     0.273 C 
HETATM    2  N   UNL     1      -4.848   3.001 -33.349  1.00  0.00    -0.263 N 
HETATM    3  O   UNL     1      -6.580   2.700 -31.902  1.00  0.00    -0.266 OA
HETATM    4  H   UNL     1      -4.207   2.654 -34.054  1.00  0.00     0.190 HD
ENDROOT
BRANCH   2   5
HETATM    5  N   UNL     1      -4.551   4.223 -32.723  1.00  0.00    -0.263 N 
HETATM    6  C   UNL     1      -3.313   4.373 -32.125  1.00  0.00     0.270 C 
HETATM    7  O   UNL     1      -2.562   3.440 -31.863  1.00  0.00    -0.266 OA
HETATM    8  H   UNL     1      -4.966   5.028 -33.196  1.00  0.00     0.190 HD
BRANCH   6   9
HETATM    9  C   UNL     1      -2.917   5.788 -31.862  1.00  0.00     0.033 A 
HETATM   10  C   UNL     1      -3.228   6.420 -30.652  1.00  0.00     0.020 A 
HETATM   11  C   UNL     1      -2.940   7.776 -30.482  1.00  0.00     0.038 A 
HETATM   12  C   UNL     1      -2.341   8.511 -31.506  1.00  0.00     0.068 A 
HETATM   13  C   UNL     1      -1.972   7.866 -32.688  1.00  0.00     0.038 A 
HETATM   14  C   UNL     1      -2.259   6.507 -32.866  1.00  0.00     0.020 A 
BRANCH  12  15
HETATM   15  O   UNL     1      -2.170   9.837 -31.225  1.00  0.00    -0.352 OA
BRANCH  15  16
HETATM   16  C   UNL     1      -3.113  10.438 -30.339  1.00  0.00     0.171 C 
HETATM   17  C   UNL     1      -2.346  11.347 -29.393  1.00  0.00     0.034 C 
ENDBRANCH  15  16
ENDBRANCH  12  15
ENDBRANCH   6   9
ENDBRANCH   2   5
BRANCH   1  18
HETATM   18  C   UNL     1      -6.083   0.951 -33.376  1.00  0.00     0.077 A 
HETATM   19  C   UNL     1      -6.642   0.714 -34.652  1.00  0.00     0.158 A 
HETATM   20  N   UNL     1      -6.644  -0.570 -34.989  1.00  0.00    -0.183 NA
HETATM   21  N   UNL     1      -6.054  -1.180 -33.944  1.00  0.00    -0.268 N 
HETATM   22  C   UNL     1      -5.679  -0.304 -32.938  1.00  0.00     0.052 A 
BRANCH  21  23
HETATM   23  C   UNL     1      -5.771  -2.614 -34.033  1.00  0.00     0.106 C 
HETATM   24  C   UNL     1      -4.430  -2.831 -34.740  1.00  0.00     0.034 C 
BRANCH  23  25
HETATM   25  C   UNL     1      -6.877  -3.434 -34.734  1.00  0.00     0.022 C 
HETATM   26  C   UNL     1      -6.342  -4.654 -35.471  1.00  0.00     0.007 C 
ENDBRANCH  23  25
ENDBRANCH  21  23
BRANCH  22  27
HETATM   27  C   UNL     1      -4.873  -0.723 -31.705  1.00  0.00     0.038 A 
HETATM   28  C   UNL     1      -3.369  -0.859 -31.798  1.00  0.00     0.011 A 
HETATM   29  C   UNL     1      -3.964   0.233 -30.974  1.00  0.00     0.011 A 
ENDBRANCH  22  27
ENDBRANCH   1  18
TORSDOF 8
ENDMDL
MODEL 7
REMARK VINA RESULT:      -7.1      3.115      4.425
REMARK  8 active torsions:
REMARK  status: ('A' for Active; 'I' for Inactive)
REMARK    1  A    between atoms: C_2  and  C_3 
REMARK    2  A    between atoms: C_3  and  N_4 
REMARK    3  A    between atoms: C_7  and  C_8 
REMARK       I    between atoms: C_8  and  N_9 
REMARK    4  A    between atoms: N_9  and  N_10 
REMARK       I    between atoms: N_10  and  C_11 
REMARK    5  A    between atoms: C_11  and  C_12 
REMARK    6  A    between atoms: C_15  and  O_16 
REMARK    7  A    between atoms: O_16  and  C_17 
REMARK    8  A    between atoms: C_23  and  C_24 
ROOT
HETATM    1  C   UNL     1      -7.272   2.818 -32.575  1.00  0.00     0.273 C 
HETATM    2  N   UNL     1      -6.550   3.677 -33.374  1.00  0.00    -0.263 N 
HETATM    3  O   UNL     1      -6.740   2.195 -31.656  1.00  0.00    -0.266 OA
HETATM    4  H   UNL     1      -6.922   4.136 -34.199  1.00  0.00     0.190 HD
ENDROOT
BRANCH   2   5
HETATM    5  N   UNL     1      -5.172   3.779 -33.119  1.00  0.00    -0.263 N 
HETATM    6  C   UNL     1      -4.433   4.692 -33.848  1.00  0.00     0.270 C 
HETATM    7  O   UNL     1      -4.827   5.225 -34.879  1.00  0.00    -0.266 OA
HETATM    8  H   UNL     1      -4.934   3.629 -32.136  1.00  0.00     0.190 HD
BRANCH   6   9
HETATM    9  C   UNL     1      -3.110   5.038 -33.251  1.00  0.00     0.033 A 
HETATM   10  C   UNL     1      -2.648   4.413 -32.086  1.00  0.00     0.020 A 
HETATM   11  C   UNL     1      -1.458   4.837 -31.493  1.00  0.00     0.038 A 
HETATM   12  C   UNL     1      -0.716   5.880 -32.051  1.00  0.00     0.068 A 
HETATM   13  C   UNL     1      -1.141   6.459 -33.248  1.00  0.00     0.038 A 
HETATM   14  C   UNL     1      -2.336   6.040 -33.847  1.00  0.00     0.020 A 
BRANCH  12  15
HETATM   15  O   UNL     1       0.395   6.229 -31.338  1.00  0.00    -0.352 OA
BRANCH  15  16
HETATM   16  C   UNL     1       0.353   6.013 -29.928  1.00  0.00     0.171 C 
HETATM   17  C   UNL     1       0.430   7.370 -29.249  1.00  0.00     0.034 C 
ENDBRANCH  15  16
ENDBRANCH  12  15
ENDBRANCH   6   9
ENDBRANCH   2   5
BRANCH   1  18
HETATM   18  C   UNL     1      -8.643   2.590 -32.963  1.00  0.00     0.077 A 
HETATM   19  C   UNL     1      -9.676   3.513 -32.684  1.00  0.00     0.158 A 
HETATM   20  N   UNL     1     -10.847   3.153 -33.196  1.00  0.00    -0.183 NA
HETATM   21  N   UNL     1     -10.578   2.003 -33.842  1.00  0.00    -0.268 N 
HETATM   22  C   UNL     1      -9.250   1.618 -33.747  1.00  0.00     0.052 A 
BRANCH  21  23
HETATM   23  C   UNL     1     -11.636   1.381 -34.642  1.00  0.00     0.106 C 
HETATM   24  C   UNL     1     -12.329   2.447 -35.495  1.00  0.00     0.034 C 
BRANCH  23  25
HETATM   25  C   UNL     1     -12.682   0.604 -33.813  1.00  0.00     0.022 C 
HETATM   26  C   UNL     1     -14.112   0.843 -34.277  1.00  0.00     0.007 C 
ENDBRANCH  23  25
ENDBRANCH  21  23
BRANCH  22  27
HETATM   27  C   UNL     1      -8.658   0.424 -34.500  1.00  0.00     0.038 A 
HETATM   28  C   UNL     1      -7.329   0.564 -35.209  1.00  0.00     0.011 A 
HETATM   29  C   UNL     1      -7.437  -0.313 -34.008  1.00  0.00     0.011 A 
ENDBRANCH  22  27
ENDBRANCH   1  18
TORSDOF 8
ENDMDL
MODEL 8
REMARK VINA RESULT:      -6.9      2.299      9.927
REMARK  8 active torsions:
REMARK  status: ('A' for Active; 'I' for Inactive)
REMARK    1  A    between atoms: C_2  and  C_3 
REMARK    2  A    between atoms: C_3  and  N_4 
REMARK    3  A    between atoms: C_7  and  C_8 
REMARK       I    between atoms: C_8  and  N_9 
REMARK    4  A    between atoms: N_9  and  N_10 
REMARK       I    between atoms: N_10  and  C_11 
REMARK    5  A    between atoms: C_11  and  C_12 
REMARK    6  A    between atoms: C_15  and  O_16 
REMARK    7  A    between atoms: O_16  and  C_17 
REMARK    8  A    between atoms: C_23  and  C_24 
ROOT
HETATM    1  C   UNL     1      -2.915   7.000 -30.341  1.00  0.00     0.273 C 
HETATM    2  N   UNL     1      -3.269   5.711 -30.005  1.00  0.00    -0.263 N 
HETATM    3  O   UNL     1      -3.178   7.470 -31.448  1.00  0.00    -0.266 OA
HETATM    4  H   UNL     1      -2.991   5.250 -29.145  1.00  0.00     0.190 HD
ENDROOT
BRANCH   2   5
HETATM    5  N   UNL     1      -3.906   4.945 -30.995  1.00  0.00    -0.263 N 
HETATM    6  C   UNL     1      -3.219   3.880 -31.548  1.00  0.00     0.270 C 
HETATM    7  O   UNL     1      -2.009   3.715 -31.439  1.00  0.00    -0.266 OA
HETATM    8  H   UNL     1      -4.913   4.854 -30.846  1.00  0.00     0.190 HD
BRANCH   6   9
HETATM    9  C   UNL     1      -4.079   2.888 -32.258  1.00  0.00     0.033 A 
HETATM   10  C   UNL     1      -5.213   3.286 -32.976  1.00  0.00     0.020 A 
HETATM   11  C   UNL     1      -6.055   2.324 -33.536  1.00  0.00     0.038 A 
HETATM   12  C   UNL     1      -5.778   0.963 -33.391  1.00  0.00     0.068 A 
HETATM   13  C   UNL     1      -4.613   0.568 -32.732  1.00  0.00     0.038 A 
HETATM   14  C   UNL     1      -3.764   1.528 -32.166  1.00  0.00     0.020 A 
BRANCH  12  15
HETATM   15  O   UNL     1      -6.715   0.134 -33.939  1.00  0.00    -0.352 OA
BRANCH  15  16
HETATM   16  C   UNL     1      -6.757  -1.207 -33.453  1.00  0.00     0.171 C 
HETATM   17  C   UNL     1      -6.481  -2.133 -34.625  1.00  0.00     0.034 C 
ENDBRANCH  15  16
ENDBRANCH  12  15
ENDBRANCH   6   9
ENDBRANCH   2   5
BRANCH   1  18
HETATM   18  C   UNL     1      -2.107   7.709 -29.379  1.00  0.00     0.077 A 
HETATM   19  C   UNL     1      -2.658   8.354 -28.250  1.00  0.00     0.158 A 
HETATM   20  N   UNL     1      -1.738   8.877 -27.448  1.00  0.00    -0.183 NA
HETATM   21  N   UNL     1      -0.572   8.548 -28.036  1.00  0.00    -0.268 N 
HETATM   22  C   UNL     1      -0.734   7.824 -29.207  1.00  0.00     0.052 A 
BRANCH  21  23
HETATM   23  C   UNL     1       0.679   8.863 -27.343  1.00  0.00     0.106 C 
HETATM   24  C   UNL     1       1.298   7.577 -26.790  1.00  0.00     0.034 C 
BRANCH  23  25
HETATM   25  C   UNL     1       0.531   9.907 -26.215  1.00  0.00     0.022 C 
HETATM   26  C   UNL     1       0.981  11.302 -26.626  1.00  0.00     0.007 C 
ENDBRANCH  23  25
ENDBRANCH  21  23
BRANCH  22  27
HETATM   27  C   UNL     1       0.430   7.215 -29.994  1.00  0.00     0.038 A 
HETATM   28  C   UNL     1       0.561   5.712 -30.104  1.00  0.00     0.011 A 
HETATM   29  C   UNL     1       0.229   6.516 -31.315  1.00  0.00     0.011 A 
ENDBRANCH  22  27
ENDBRANCH   1  18
TORSDOF 8
ENDMDL
MODEL 9
REMARK VINA RESULT:      -6.9      1.534      2.850
REMARK  8 active torsions:
REMARK  status: ('A' for Active; 'I' for Inactive)
REMARK    1  A    between atoms: C_2  and  C_3 
REMARK    2  A    between atoms: C_3  and  N_4 
REMARK    3  A    between atoms: C_7  and  C_8 
REMARK       I    between atoms: C_8  and  N_9 
REMARK    4  A    between atoms: N_9  and  N_10 
REMARK       I    between atoms: N_10  and  C_11 
REMARK    5  A    between atoms: C_11  and  C_12 
REMARK    6  A    between atoms: C_15  and  O_16 
REMARK    7  A    between atoms: O_16  and  C_17 
REMARK    8  A    between atoms: C_23  and  C_24 
ROOT
HETATM    1  C   UNL     1      -2.918   3.555 -32.255  1.00  0.00     0.273 C 
HETATM    2  N   UNL     1      -2.777   3.940 -30.939  1.00  0.00    -0.263 N 
HETATM    3  O   UNL     1      -2.280   4.099 -33.156  1.00  0.00    -0.266 OA
HETATM    4  H   UNL     1      -3.348   3.588 -30.178  1.00  0.00     0.190 HD
ENDROOT
BRANCH   2   5
HETATM    5  N   UNL     1      -1.903   5.009 -30.678  1.00  0.00    -0.263 N 
HETATM    6  C   UNL     1      -2.431   6.182 -30.172  1.00  0.00     0.270 C 
HETATM    7  O   UNL     1      -3.625   6.458 -30.186  1.00  0.00    -0.266 OA
HETATM    8  H   UNL     1      -0.984   4.705 -30.351  1.00  0.00     0.190 HD
BRANCH   6   9
HETATM    9  C   UNL     1      -1.431   7.091 -29.539  1.00  0.00     0.033 A 
HETATM   10  C   UNL     1      -0.081   6.734 -29.438  1.00  0.00     0.020 A 
HETATM   11  C   UNL     1       0.807   7.557 -28.744  1.00  0.00     0.038 A 
HETATM   12  C   UNL     1       0.365   8.740 -28.148  1.00  0.00     0.068 A 
HETATM   13  C   UNL     1      -0.967   9.130 -28.304  1.00  0.00     0.038 A 
HETATM   14  C   UNL     1      -1.863   8.307 -28.998  1.00  0.00     0.020 A 
BRANCH  12  15
HETATM   15  O   UNL     1       1.326   9.418 -27.454  1.00  0.00    -0.352 OA
BRANCH  15  16
HETATM   16  C   UNL     1       1.198   9.450 -26.034  1.00  0.00     0.171 C 
HETATM   17  C   UNL     1       2.289   8.568 -25.450  1.00  0.00     0.034 C 
ENDBRANCH  15  16
ENDBRANCH  12  15
ENDBRANCH   6   9
ENDBRANCH   2   5
BRANCH   1  18
HETATM   18  C   UNL     1      -3.947   2.581 -32.525  1.00  0.00     0.077 A 
HETATM   19  C   UNL     1      -3.714   1.189 -32.460  1.00  0.00     0.158 A 
HETATM   20  N   UNL     1      -4.810   0.467 -32.663  1.00  0.00    -0.183 NA
HETATM   21  N   UNL     1      -5.777   1.389 -32.832  1.00  0.00    -0.268 N 
HETATM   22  C   UNL     1      -5.314   2.693 -32.744  1.00  0.00     0.052 A 
BRANCH  21  23
HETATM   23  C   UNL     1      -7.165   0.938 -32.956  1.00  0.00     0.106 C 
HETATM   24  C   UNL     1      -7.662   0.426 -31.601  1.00  0.00     0.034 C 
BRANCH  23  25
HETATM   25  C   UNL     1      -7.386  -0.138 -34.041  1.00  0.00     0.022 C 
HETATM   26  C   UNL     1      -7.180   0.386 -35.456  1.00  0.00     0.007 C 
ENDBRANCH  23  25
ENDBRANCH  21  23
BRANCH  22  27
HETATM   27  C   UNL     1      -6.229   3.920 -32.767  1.00  0.00     0.038 A 
HETATM   28  C   UNL     1      -5.978   5.028 -33.766  1.00  0.00     0.011 A 
HETATM   29  C   UNL     1      -7.199   4.181 -33.893  1.00  0.00     0.011 A 
ENDBRANCH  22  27
ENDBRANCH   1  18
TORSDOF 8
ENDMDL
MODEL 10
REMARK VINA RESULT:      -6.8      4.146     10.187
REMARK  8 active torsions:
REMARK  status: ('A' for Active; 'I' for Inactive)
REMARK    1  A    between atoms: C_2  and  C_3 
REMARK    2  A    between atoms: C_3  and  N_4 
REMARK    3  A    between atoms: C_7  and  C_8 
REMARK       I    between atoms: C_8  and  N_9 
REMARK    4  A    between atoms: N_9  and  N_10 
REMARK       I    between atoms: N_10  and  C_11 
REMARK    5  A    between atoms: C_11  and  C_12 
REMARK    6  A    between atoms: C_15  and  O_16 
REMARK    7  A    between atoms: O_16  and  C_17 
REMARK    8  A    between atoms: C_23  and  C_24 
ROOT
HETATM    1  C   UNL     1      -5.696   4.777 -33.732  1.00  0.00     0.273 C 
HETATM    2  N   UNL     1      -6.891   4.608 -33.065  1.00  0.00    -0.263 N 
HETATM    3  O   UNL     1      -5.548   4.393 -34.891  1.00  0.00    -0.266 OA
HETATM    4  H   UNL     1      -7.030   4.820 -32.083  1.00  0.00     0.190 HD
ENDROOT
BRANCH   2   5
HETATM    5  N   UNL     1      -7.917   3.942 -33.756  1.00  0.00    -0.263 N 
HETATM    6  C   UNL     1      -8.458   2.801 -33.191  1.00  0.00     0.270 C 
HETATM    7  O   UNL     1      -7.936   2.176 -32.276  1.00  0.00    -0.266 OA
HETATM    8  H   UNL     1      -8.535   4.576 -34.265  1.00  0.00     0.190 HD
BRANCH   6   9
HETATM    9  C   UNL     1      -9.785   2.402 -33.747  1.00  0.00     0.033 A 
HETATM   10  C   UNL     1     -10.480   3.227 -34.640  1.00  0.00     0.020 A 
HETATM   11  C   UNL     1     -11.766   2.875 -35.055  1.00  0.00     0.038 A 
HETATM   12  C   UNL     1     -12.369   1.705 -34.591  1.00  0.00     0.068 A 
HETATM   13  C   UNL     1     -11.651   0.849 -33.753  1.00  0.00     0.038 A 
HETATM   14  C   UNL     1     -10.361   1.197 -33.331  1.00  0.00     0.020 A 
BRANCH  12  15
HETATM   15  O   UNL     1     -13.647   1.514 -35.033  1.00  0.00    -0.352 OA
BRANCH  15  16
HETATM   16  C   UNL     1     -14.496   0.699 -34.226  1.00  0.00     0.171 C 
HETATM   17  C   UNL     1     -15.124   1.589 -33.167  1.00  0.00     0.034 C 
ENDBRANCH  15  16
ENDBRANCH  12  15
ENDBRANCH   6   9
ENDBRANCH   2   5
BRANCH   1  18
HETATM   18  C   UNL     1      -4.602   5.300 -32.951  1.00  0.00     0.077 A 
HETATM   19  C   UNL     1      -4.574   6.629 -32.474  1.00  0.00     0.158 A 
HETATM   20  N   UNL     1      -3.519   6.886 -31.709  1.00  0.00    -0.183 NA
HETATM   21  N   UNL     1      -2.865   5.710 -31.656  1.00  0.00    -0.268 N 
HETATM   22  C   UNL     1      -3.484   4.704 -32.381  1.00  0.00     0.052 A 
BRANCH  21  23
HETATM   23  C   UNL     1      -1.698   5.594 -30.779  1.00  0.00     0.106 C 
HETATM   24  C   UNL     1      -1.693   6.750 -29.774  1.00  0.00     0.034 C 
BRANCH  23  25
HETATM   25  C   UNL     1      -0.348   5.536 -31.526  1.00  0.00     0.022 C 
HETATM   26  C   UNL     1       0.547   6.734 -31.240  1.00  0.00     0.007 C 
ENDBRANCH  23  25
ENDBRANCH  21  23
BRANCH  22  27
HETATM   27  C   UNL     1      -3.018   3.246 -32.376  1.00  0.00     0.038 A 
HETATM   28  C   UNL     1      -3.367   2.347 -31.210  1.00  0.00     0.011 A 
HETATM   29  C   UNL     1      -3.976   2.094 -32.547  1.00  0.00     0.011 A 
ENDBRANCH  22  27
ENDBRANCH   1  18
TORSDOF 8
ENDMDL
