MODEL 1
REMARK VINA RESULT:      -9.7      0.000      0.000
REMARK  6 active torsions:
REMARK  status: ('A' for Active; 'I' for Inactive)
REMARK    1  A    between atoms: C_4  and  C_5 
REMARK    2  A    between atoms: C_8  and  C_9 
REMARK    3  A    between atoms: C_9  and  C_10 
REMARK       I    between atoms: C_10  and  N_11 
REMARK    4  A    between atoms: N_11  and  C_12 
REMARK    5  A    between atoms: N_13  and  C_14 
REMARK    6  A    between atoms: C_25  and  C_26 
ROOT
HETATM    1  C   UNL     1      -5.485   5.189 -32.515  1.00  0.00     0.152 A 
HETATM    2  N   UNL     1      -4.553   4.449 -31.800  1.00  0.00    -0.044 N 
HETATM    3  N   UNL     1      -3.638   5.240 -31.161  1.00  0.00    -0.148 NA
HETATM    4  C   UNL     1      -4.011   6.486 -31.481  1.00  0.00     0.115 A 
HETATM    5  C   UNL     1      -5.126   6.506 -32.342  1.00  0.00     0.087 A 
ENDROOT
BRANCH   1   6
HETATM    6  N   UNL     1      -6.542   4.600 -33.196  1.00  0.00    -0.311 N 
HETATM    7  C   UNL     1      -7.605   3.991 -32.552  1.00  0.00     0.227 C 
HETATM    8  O   UNL     1      -7.849   4.060 -31.349  1.00  0.00    -0.273 OA
HETATM    9  H   UNL     1      -6.498   4.595 -34.216  1.00  0.00     0.170 HD
BRANCH   7  10
HETATM   10  C   UNL     1      -8.458   3.138 -33.481  1.00  0.00     0.141 C 
BRANCH  10  11
HETATM   11  C   UNL     1      -7.880   1.757 -33.693  1.00  0.00    -0.049 A 
HETATM   12  C   UNL     1      -7.122   1.460 -34.833  1.00  0.00     0.008 A 
HETATM   13  C   UNL     1      -6.600   0.180 -35.033  1.00  0.00     0.013 A 
HETATM   14  C   UNL     1      -6.794  -0.842 -34.090  1.00  0.00    -0.026 A 
HETATM   15  C   UNL     1      -7.524  -0.525 -32.932  1.00  0.00     0.013 A 
HETATM   16  C   UNL     1      -8.058   0.755 -32.733  1.00  0.00     0.008 A 
BRANCH  14  17
HETATM   17  C   UNL     1      -6.254  -2.197 -34.319  1.00  0.00    -0.026 A 
HETATM   18  C   UNL     1      -4.868  -2.434 -34.351  1.00  0.00     0.012 A 
HETATM   19  C   UNL     1      -4.354  -3.711 -34.594  1.00  0.00     0.001 A 
HETATM   20  C   UNL     1      -5.219  -4.780 -34.807  1.00  0.00     0.000 A 
HETATM   21  C   UNL     1      -6.595  -4.573 -34.775  1.00  0.00     0.001 A 
HETATM   22  C   UNL     1      -7.106  -3.294 -34.534  1.00  0.00     0.012 A 
ENDBRANCH  14  17
ENDBRANCH  10  11
ENDBRANCH   7  10
ENDBRANCH   1   6
BRANCH   2  23
HETATM   23  C   UNL     1      -4.460   3.048 -31.687  1.00  0.00     0.732 A 
HETATM   24  N   UNL     1      -3.688   2.317 -32.437  1.00  0.00    -0.067 NA
HETATM   25  C   UNL     1      -3.735   0.982 -32.146  1.00  0.00     0.065 A 
HETATM   26  C   UNL     1      -4.475   0.410 -31.194  1.00  0.00     0.036 A 
HETATM   27  C   UNL     1      -2.925  -0.035 -32.879  1.00  0.00     0.061 C 
HETATM   28  C   UNL     1      -4.297  -1.056 -31.105  1.00  0.00     0.047 C 
HETATM   29  C   UNL     1      -5.337   1.247 -30.362  1.00  0.00     0.268 A 
HETATM   30  C   UNL     1      -3.050  -1.268 -31.973  1.00  0.00     0.011 C 
HETATM   31  O   UNL     1      -6.037   0.792 -29.469  1.00  0.00    -0.267 OA
HETATM   32  N   UNL     1      -5.276   2.573 -30.684  1.00  0.00    -0.152 N 
HETATM   33  H   UNL     1      -5.838   3.232 -30.154  1.00  0.00     0.188 HD
ENDBRANCH   2  23
BRANCH   4  34
HETATM   34  C   UNL     1      -3.323   7.700 -30.954  1.00  0.00     0.105 A 
HETATM   35  O   UNL     1      -3.488   8.961 -31.460  1.00  0.00    -0.320 OA
HETATM   36  C   UNL     1      -2.726   9.799 -30.713  1.00  0.00     0.142 A 
HETATM   37  C   UNL     1      -2.066   9.104 -29.729  1.00  0.00     0.027 A 
HETATM   38  C   UNL     1      -2.448   7.748 -29.885  1.00  0.00     0.041 A 
ENDBRANCH   4  34
TORSDOF 6
ENDMDL
MODEL 2
REMARK VINA RESULT:      -9.5      2.939      4.077
REMARK  6 active torsions:
REMARK  status: ('A' for Active; 'I' for Inactive)
REMARK    1  A    between atoms: C_4  and  C_5 
REMARK    2  A    between atoms: C_8  and  C_9 
REMARK    3  A    between atoms: C_9  and  C_10 
REMARK       I    between atoms: C_10  and  N_11 
REMARK    4  A    between atoms: N_11  and  C_12 
REMARK    5  A    between atoms: N_13  and  C_14 
REMARK    6  A    between atoms: C_25  and  C_26 
ROOT
HETATM    1  C   UNL     1      -5.945   6.312 -29.204  1.00  0.00     0.152 A 
HETATM    2  N   UNL     1      -4.595   6.353 -29.524  1.00  0.00    -0.044 N 
HETATM    3  N   UNL     1      -3.839   6.910 -28.529  1.00  0.00    -0.148 NA
HETATM    4  C   UNL     1      -4.732   7.214 -27.579  1.00  0.00     0.115 A 
HETATM    5  C   UNL     1      -6.050   6.894 -27.961  1.00  0.00     0.087 A 
ENDROOT
BRANCH   1   6
HETATM    6  N   UNL     1      -6.893   5.738 -30.040  1.00  0.00    -0.311 N 
HETATM    7  C   UNL     1      -7.100   4.372 -30.116  1.00  0.00     0.227 C 
HETATM    8  O   UNL     1      -6.637   3.533 -29.346  1.00  0.00    -0.273 OA
HETATM    9  H   UNL     1      -7.427   6.365 -30.644  1.00  0.00     0.170 HD
BRANCH   7  10
HETATM   10  C   UNL     1      -7.937   3.959 -31.319  1.00  0.00     0.141 C 
BRANCH  10  11
HETATM   11  C   UNL     1      -7.478   2.652 -31.923  1.00  0.00    -0.049 A 
HETATM   12  C   UNL     1      -6.326   2.592 -32.719  1.00  0.00     0.008 A 
HETATM   13  C   UNL     1      -5.911   1.385 -33.287  1.00  0.00     0.013 A 
HETATM   14  C   UNL     1      -6.614   0.192 -33.061  1.00  0.00    -0.026 A 
HETATM   15  C   UNL     1      -7.747   0.255 -32.232  1.00  0.00     0.013 A 
HETATM   16  C   UNL     1      -8.173   1.466 -31.668  1.00  0.00     0.008 A 
BRANCH  14  17
HETATM   17  C   UNL     1      -6.178  -1.075 -33.682  1.00  0.00    -0.026 A 
HETATM   18  C   UNL     1      -7.110  -1.993 -34.199  1.00  0.00     0.012 A 
HETATM   19  C   UNL     1      -6.700  -3.205 -34.763  1.00  0.00     0.001 A 
HETATM   20  C   UNL     1      -5.347  -3.521 -34.825  1.00  0.00     0.000 A 
HETATM   21  C   UNL     1      -4.404  -2.626 -34.326  1.00  0.00     0.001 A 
HETATM   22  C   UNL     1      -4.817  -1.417 -33.760  1.00  0.00     0.012 A 
ENDBRANCH  14  17
ENDBRANCH  10  11
ENDBRANCH   7  10
ENDBRANCH   1   6
BRANCH   2  23
HETATM   23  C   UNL     1      -3.970   5.914 -30.708  1.00  0.00     0.732 A 
HETATM   24  N   UNL     1      -4.548   5.932 -31.874  1.00  0.00    -0.067 NA
HETATM   25  C   UNL     1      -3.755   5.479 -32.892  1.00  0.00     0.065 A 
HETATM   26  C   UNL     1      -2.497   5.049 -32.777  1.00  0.00     0.036 A 
HETATM   27  C   UNL     1      -4.215   5.420 -34.311  1.00  0.00     0.061 C 
HETATM   28  C   UNL     1      -1.890   4.641 -34.064  1.00  0.00     0.047 C 
HETATM   29  C   UNL     1      -1.865   5.035 -31.460  1.00  0.00     0.268 A 
HETATM   30  C   UNL     1      -2.899   5.204 -35.072  1.00  0.00     0.011 C 
HETATM   31  O   UNL     1      -0.716   4.659 -31.282  1.00  0.00    -0.267 OA
HETATM   32  N   UNL     1      -2.685   5.482 -30.463  1.00  0.00    -0.152 N 
HETATM   33  H   UNL     1      -2.329   5.513 -29.513  1.00  0.00     0.188 HD
ENDBRANCH   2  23
BRANCH   4  34
HETATM   34  C   UNL     1      -4.350   7.800 -26.262  1.00  0.00     0.105 A 
HETATM   35  O   UNL     1      -5.197   8.517 -25.462  1.00  0.00    -0.320 OA
HETATM   36  C   UNL     1      -4.505   8.862 -24.346  1.00  0.00     0.142 A 
HETATM   37  C   UNL     1      -3.219   8.381 -24.408  1.00  0.00     0.027 A 
HETATM   38  C   UNL     1      -3.117   7.698 -25.646  1.00  0.00     0.041 A 
ENDBRANCH   4  34
TORSDOF 6
ENDMDL
MODEL 3
REMARK VINA RESULT:      -9.4      2.812      8.461
REMARK  6 active torsions:
REMARK  status: ('A' for Active; 'I' for Inactive)
REMARK    1  A    between atoms: C_4  and  C_5 
REMARK    2  A    between atoms: C_8  and  C_9 
REMARK    3  A    between atoms: C_9  and  C_10 
REMARK       I    between atoms: C_10  and  N_11 
REMARK    4  A    between atoms: N_11  and  C_12 
REMARK    5  A    between atoms: N_13  and  C_14 
REMARK    6  A    between atoms: C_25  and  C_26 
ROOT
HETATM    1  C   UNL     1      -5.708   4.379 -33.358  1.00  0.00     0.152 A 
HETATM    2  N   UNL     1      -6.306   3.133 -33.495  1.00  0.00    -0.044 N 
HETATM    3  N   UNL     1      -7.643   3.223 -33.774  1.00  0.00    -0.148 NA
HETATM    4  C   UNL     1      -7.874   4.542 -33.814  1.00  0.00     0.115 A 
HETATM    5  C   UNL     1      -6.719   5.297 -33.531  1.00  0.00     0.087 A 
ENDROOT
BRANCH   1   6
HETATM    6  N   UNL     1      -4.347   4.532 -33.130  1.00  0.00    -0.311 N 
HETATM    7  C   UNL     1      -3.483   5.065 -34.071  1.00  0.00     0.227 C 
HETATM    8  O   UNL     1      -3.815   5.634 -35.109  1.00  0.00    -0.273 OA
HETATM    9  H   UNL     1      -3.981   4.198 -32.238  1.00  0.00     0.170 HD
BRANCH   7  10
HETATM   10  C   UNL     1      -2.017   4.831 -33.736  1.00  0.00     0.141 C 
BRANCH  10  11
HETATM   11  C   UNL     1      -1.559   5.642 -32.545  1.00  0.00    -0.049 A 
HETATM   12  C   UNL     1      -2.005   6.957 -32.354  1.00  0.00     0.008 A 
HETATM   13  C   UNL     1      -1.570   7.709 -31.260  1.00  0.00     0.013 A 
HETATM   14  C   UNL     1      -0.696   7.169 -30.304  1.00  0.00    -0.026 A 
HETATM   15  C   UNL     1      -0.283   5.838 -30.483  1.00  0.00     0.013 A 
HETATM   16  C   UNL     1      -0.709   5.083 -31.585  1.00  0.00     0.008 A 
BRANCH  14  17
HETATM   17  C   UNL     1      -0.228   7.978 -29.162  1.00  0.00    -0.026 A 
HETATM   18  C   UNL     1      -1.056   8.947 -28.567  1.00  0.00     0.012 A 
HETATM   19  C   UNL     1      -0.606   9.734 -27.502  1.00  0.00     0.001 A 
HETATM   20  C   UNL     1       0.683   9.562 -27.007  1.00  0.00     0.000 A 
HETATM   21  C   UNL     1       1.520   8.606 -27.575  1.00  0.00     0.001 A 
HETATM   22  C   UNL     1       1.068   7.823 -28.642  1.00  0.00     0.012 A 
ENDBRANCH  14  17
ENDBRANCH  10  11
ENDBRANCH   7  10
ENDBRANCH   1   6
BRANCH   2  23
HETATM   23  C   UNL     1      -5.707   1.864 -33.372  1.00  0.00     0.732 A 
HETATM   24  N   UNL     1      -4.698   1.621 -32.587  1.00  0.00    -0.067 NA
HETATM   25  C   UNL     1      -4.284   0.318 -32.604  1.00  0.00     0.065 A 
HETATM   26  C   UNL     1      -4.819  -0.668 -33.328  1.00  0.00     0.036 A 
HETATM   27  C   UNL     1      -3.147  -0.182 -31.776  1.00  0.00     0.061 C 
HETATM   28  C   UNL     1      -4.166  -1.979 -33.119  1.00  0.00     0.047 C 
HETATM   29  C   UNL     1      -5.951  -0.375 -34.205  1.00  0.00     0.268 A 
HETATM   30  C   UNL     1      -3.317  -1.705 -31.872  1.00  0.00     0.011 C 
HETATM   31  O   UNL     1      -6.493  -1.229 -34.891  1.00  0.00    -0.267 OA
HETATM   32  N   UNL     1      -6.333   0.936 -34.173  1.00  0.00    -0.152 N 
HETATM   33  H   UNL     1      -7.117   1.232 -34.747  1.00  0.00     0.188 HD
ENDBRANCH   2  23
BRANCH   4  34
HETATM   34  C   UNL     1      -9.207   5.122 -34.147  1.00  0.00     0.105 A 
HETATM   35  O   UNL     1      -9.500   5.755 -35.324  1.00  0.00    -0.320 OA
HETATM   36  C   UNL     1     -10.806   6.123 -35.272  1.00  0.00     0.142 A 
HETATM   37  C   UNL     1     -11.367   5.740 -34.078  1.00  0.00     0.027 A 
HETATM   38  C   UNL     1     -10.336   5.097 -33.349  1.00  0.00     0.041 A 
ENDBRANCH   4  34
TORSDOF 6
ENDMDL
MODEL 4
REMARK VINA RESULT:      -9.4      2.648      9.062
REMARK  6 active torsions:
REMARK  status: ('A' for Active; 'I' for Inactive)
REMARK    1  A    between atoms: C_4  and  C_5 
REMARK    2  A    between atoms: C_8  and  C_9 
REMARK    3  A    between atoms: C_9  and  C_10 
REMARK       I    between atoms: C_10  and  N_11 
REMARK    4  A    between atoms: N_11  and  C_12 
REMARK    5  A    between atoms: N_13  and  C_14 
REMARK    6  A    between atoms: C_25  and  C_26 
ROOT
HETATM    1  C   UNL     1      -5.830   4.104 -31.790  1.00  0.00     0.152 A 
HETATM    2  N   UNL     1      -4.588   3.872 -32.364  1.00  0.00    -0.044 N 
HETATM    3  N   UNL     1      -4.585   2.773 -33.178  1.00  0.00    -0.148 NA
HETATM    4  C   UNL     1      -5.843   2.319 -33.110  1.00  0.00     0.115 A 
HETATM    5  C   UNL     1      -6.642   3.088 -32.240  1.00  0.00     0.087 A 
ENDROOT
BRANCH   1   6
HETATM    6  N   UNL     1      -6.083   5.197 -30.973  1.00  0.00    -0.311 N 
HETATM    7  C   UNL     1      -6.171   6.492 -31.455  1.00  0.00     0.227 C 
HETATM    8  O   UNL     1      -6.237   6.812 -32.640  1.00  0.00    -0.273 OA
HETATM    9  H   UNL     1      -6.168   5.024 -29.971  1.00  0.00     0.170 HD
BRANCH   7  10
HETATM   10  C   UNL     1      -6.121   7.544 -30.356  1.00  0.00     0.141 C 
BRANCH  10  11
HETATM   11  C   UNL     1      -4.762   7.632 -29.701  1.00  0.00    -0.049 A 
HETATM   12  C   UNL     1      -3.713   8.333 -30.309  1.00  0.00     0.008 A 
HETATM   13  C   UNL     1      -2.453   8.402 -29.708  1.00  0.00     0.013 A 
HETATM   14  C   UNL     1      -2.203   7.795 -28.467  1.00  0.00    -0.026 A 
HETATM   15  C   UNL     1      -3.271   7.125 -27.847  1.00  0.00     0.013 A 
HETATM   16  C   UNL     1      -4.533   7.045 -28.452  1.00  0.00     0.008 A 
BRANCH  14  17
HETATM   17  C   UNL     1      -0.864   7.858 -27.850  1.00  0.00    -0.026 A 
HETATM   18  C   UNL     1       0.195   8.544 -28.471  1.00  0.00     0.012 A 
HETATM   19  C   UNL     1       1.471   8.583 -27.902  1.00  0.00     0.001 A 
HETATM   20  C   UNL     1       1.713   7.937 -26.693  1.00  0.00     0.000 A 
HETATM   21  C   UNL     1       0.680   7.256 -26.055  1.00  0.00     0.001 A 
HETATM   22  C   UNL     1      -0.594   7.217 -26.629  1.00  0.00     0.012 A 
ENDBRANCH  14  17
ENDBRANCH  10  11
ENDBRANCH   7  10
ENDBRANCH   1   6
BRANCH   2  23
HETATM   23  C   UNL     1      -3.400   4.611 -32.191  1.00  0.00     0.732 A 
HETATM   24  N   UNL     1      -2.543   4.378 -31.240  1.00  0.00    -0.067 NA
HETATM   25  C   UNL     1      -1.450   5.198 -31.266  1.00  0.00     0.065 A 
HETATM   26  C   UNL     1      -1.213   6.165 -32.155  1.00  0.00     0.036 A 
HETATM   27  C   UNL     1      -0.341   5.101 -30.272  1.00  0.00     0.061 C 
HETATM   28  C   UNL     1       0.068   6.871 -31.937  1.00  0.00     0.047 C 
HETATM   29  C   UNL     1      -2.188   6.413 -33.216  1.00  0.00     0.268 A 
HETATM   30  C   UNL     1       0.760   5.948 -30.926  1.00  0.00     0.011 C 
HETATM   31  O   UNL     1      -2.034   7.278 -34.066  1.00  0.00    -0.267 OA
HETATM   32  N   UNL     1      -3.273   5.585 -33.156  1.00  0.00    -0.152 N 
HETATM   33  H   UNL     1      -4.001   5.680 -33.857  1.00  0.00     0.188 HD
ENDBRANCH   2  23
BRANCH   4  34
HETATM   34  C   UNL     1      -6.328   1.147 -33.894  1.00  0.00     0.105 A 
HETATM   35  O   UNL     1      -5.709  -0.073 -33.919  1.00  0.00    -0.320 OA
HETATM   36  C   UNL     1      -6.448  -0.886 -34.716  1.00  0.00     0.142 A 
HETATM   37  C   UNL     1      -7.539  -0.213 -35.212  1.00  0.00     0.027 A 
HETATM   38  C   UNL     1      -7.461   1.100 -34.684  1.00  0.00     0.041 A 
ENDBRANCH   4  34
TORSDOF 6
ENDMDL
MODEL 5
REMARK VINA RESULT:      -9.3      2.708      5.506
REMARK  6 active torsions:
REMARK  status: ('A' for Active; 'I' for Inactive)
REMARK    1  A    between atoms: C_4  and  C_5 
REMARK    2  A    between atoms: C_8  and  C_9 
REMARK    3  A    between atoms: C_9  and  C_10 
REMARK       I    between atoms: C_10  and  N_11 
REMARK    4  A    between atoms: N_11  and  C_12 
REMARK    5  A    between atoms: N_13  and  C_14 
REMARK    6  A    between atoms: C_25  and  C_26 
ROOT
HETATM    1  C   UNL     1      -4.345   2.408 -31.936  1.00  0.00     0.152 A 
HETATM    2  N   UNL     1      -5.032   3.613 -31.882  1.00  0.00    -0.044 N 
HETATM    3  N   UNL     1      -4.199   4.681 -31.685  1.00  0.00    -0.148 NA
HETATM    4  C   UNL     1      -2.980   4.130 -31.619  1.00  0.00     0.115 A 
HETATM    5  C   UNL     1      -3.021   2.726 -31.736  1.00  0.00     0.087 A 
ENDROOT
BRANCH   1   6
HETATM    6  N   UNL     1      -4.979   1.199 -32.185  1.00  0.00    -0.311 N 
HETATM    7  C   UNL     1      -4.348   0.133 -32.804  1.00  0.00     0.227 C 
HETATM    8  O   UNL     1      -3.142   0.044 -33.024  1.00  0.00    -0.273 OA
HETATM    9  H   UNL     1      -5.963   1.123 -31.926  1.00  0.00     0.170 HD
BRANCH   7  10
HETATM   10  C   UNL     1      -5.315  -0.948 -33.265  1.00  0.00     0.141 C 
BRANCH  10  11
HETATM   11  C   UNL     1      -6.713  -0.418 -33.487  1.00  0.00    -0.049 A 
HETATM   12  C   UNL     1      -7.167  -0.100 -34.773  1.00  0.00     0.008 A 
HETATM   13  C   UNL     1      -8.455   0.403 -34.975  1.00  0.00     0.013 A 
HETATM   14  C   UNL     1      -9.344   0.582 -33.903  1.00  0.00    -0.026 A 
HETATM   15  C   UNL     1      -8.893   0.225 -32.621  1.00  0.00     0.013 A 
HETATM   16  C   UNL     1      -7.598  -0.270 -32.414  1.00  0.00     0.008 A 
BRANCH  14  17
HETATM   17  C   UNL     1     -10.697   1.131 -34.124  1.00  0.00    -0.026 A 
HETATM   18  C   UNL     1     -10.911   2.211 -34.999  1.00  0.00     0.012 A 
HETATM   19  C   UNL     1     -12.186   2.751 -35.190  1.00  0.00     0.001 A 
HETATM   20  C   UNL     1     -13.277   2.215 -34.512  1.00  0.00     0.000 A 
HETATM   21  C   UNL     1     -13.092   1.142 -33.644  1.00  0.00     0.001 A 
HETATM   22  C   UNL     1     -11.814   0.607 -33.453  1.00  0.00     0.012 A 
ENDBRANCH  14  17
ENDBRANCH  10  11
ENDBRANCH   7  10
ENDBRANCH   1   6
BRANCH   2  23
HETATM   23  C   UNL     1      -6.420   3.827 -31.994  1.00  0.00     0.732 A 
HETATM   24  N   UNL     1      -7.286   3.385 -31.130  1.00  0.00    -0.067 NA
HETATM   25  C   UNL     1      -8.579   3.722 -31.419  1.00  0.00     0.065 A 
HETATM   26  C   UNL     1      -8.990   4.438 -32.468  1.00  0.00     0.036 A 
HETATM   27  C   UNL     1      -9.732   3.323 -30.558  1.00  0.00     0.061 C 
HETATM   28  C   UNL     1     -10.453   4.657 -32.500  1.00  0.00     0.047 C 
HETATM   29  C   UNL     1      -8.003   4.925 -33.429  1.00  0.00     0.268 A 
HETATM   30  C   UNL     1     -10.862   4.217 -31.089  1.00  0.00     0.011 C 
HETATM   31  O   UNL     1      -8.307   5.590 -34.408  1.00  0.00    -0.267 OA
HETATM   32  N   UNL     1      -6.723   4.564 -33.118  1.00  0.00    -0.152 N 
HETATM   33  H   UNL     1      -5.967   4.862 -33.728  1.00  0.00     0.188 HD
ENDBRANCH   2  23
BRANCH   4  34
HETATM   34  C   UNL     1      -1.733   4.933 -31.465  1.00  0.00     0.105 A 
HETATM   35  O   UNL     1      -0.624   4.512 -30.782  1.00  0.00    -0.320 OA
HETATM   36  C   UNL     1       0.308   5.494 -30.880  1.00  0.00     0.142 A 
HETATM   37  C   UNL     1      -0.178   6.548 -31.614  1.00  0.00     0.027 A 
HETATM   38  C   UNL     1      -1.496   6.189 -31.990  1.00  0.00     0.041 A 
ENDBRANCH   4  34
TORSDOF 6
ENDMDL
MODEL 6
REMARK VINA RESULT:      -9.0      3.875      9.097
REMARK  6 active torsions:
REMARK  status: ('A' for Active; 'I' for Inactive)
REMARK    1  A    between atoms: C_4  and  C_5 
REMARK    2  A    between atoms: C_8  and  C_9 
REMARK    3  A    between atoms: C_9  and  C_10 
REMARK       I    between atoms: C_10  and  N_11 
REMARK    4  A    between atoms: N_11  and  C_12 
REMARK    5  A    between atoms: N_13  and  C_14 
REMARK    6  A    between atoms: C_25  and  C_26 
ROOT
HETATM    1  C   UNL     1      -6.766   0.895 -32.904  1.00  0.00     0.152 A 
HETATM    2  N   UNL     1      -7.907   0.558 -33.619  1.00  0.00    -0.044 N 
HETATM    3  N   UNL     1      -7.808  -0.671 -34.212  1.00  0.00    -0.148 NA
HETATM    4  C   UNL     1      -6.591  -1.103 -33.856  1.00  0.00     0.115 A 
HETATM    5  C   UNL     1      -5.896  -0.158 -33.076  1.00  0.00     0.087 A 
ENDROOT
BRANCH   1   6
HETATM    6  N   UNL     1      -6.662   2.071 -32.174  1.00  0.00    -0.311 N 
HETATM    7  C   UNL     1      -6.574   2.093 -30.793  1.00  0.00     0.227 C 
HETATM    8  O   UNL     1      -6.380   1.117 -30.071  1.00  0.00    -0.273 OA
HETATM    9  H   UNL     1      -6.691   2.949 -32.693  1.00  0.00     0.170 HD
BRANCH   7  10
HETATM   10  C   UNL     1      -6.803   3.477 -30.201  1.00  0.00     0.141 C 
BRANCH  10  11
HETATM   11  C   UNL     1      -8.193   4.003 -30.480  1.00  0.00    -0.049 A 
HETATM   12  C   UNL     1      -9.315   3.172 -30.361  1.00  0.00     0.008 A 
HETATM   13  C   UNL     1     -10.597   3.657 -30.634  1.00  0.00     0.013 A 
HETATM   14  C   UNL     1     -10.807   4.993 -31.008  1.00  0.00    -0.026 A 
HETATM   15  C   UNL     1      -9.680   5.828 -31.089  1.00  0.00     0.013 A 
HETATM   16  C   UNL     1      -8.391   5.343 -30.827  1.00  0.00     0.008 A 
BRANCH  14  17
HETATM   17  C   UNL     1     -12.163   5.491 -31.312  1.00  0.00    -0.026 A 
HETATM   18  C   UNL     1     -13.308   4.802 -30.872  1.00  0.00     0.012 A 
HETATM   19  C   UNL     1     -14.594   5.256 -31.180  1.00  0.00     0.001 A 
HETATM   20  C   UNL     1     -14.760   6.414 -31.932  1.00  0.00     0.000 A 
HETATM   21  C   UNL     1     -13.643   7.118 -32.375  1.00  0.00     0.001 A 
HETATM   22  C   UNL     1     -12.359   6.659 -32.067  1.00  0.00     0.012 A 
ENDBRANCH  14  17
ENDBRANCH  10  11
ENDBRANCH   7  10
ENDBRANCH   1   6
BRANCH   2  23
HETATM   23  C   UNL     1      -9.080   1.319 -33.790  1.00  0.00     0.732 A 
HETATM   24  N   UNL     1      -9.077   2.572 -34.140  1.00  0.00    -0.067 NA
HETATM   25  C   UNL     1     -10.326   3.115 -34.269  1.00  0.00     0.065 A 
HETATM   26  C   UNL     1     -11.483   2.478 -34.075  1.00  0.00     0.036 A 
HETATM   27  C   UNL     1     -10.555   4.535 -34.666  1.00  0.00     0.061 C 
HETATM   28  C   UNL     1     -12.673   3.326 -34.311  1.00  0.00     0.047 C 
HETATM   29  C   UNL     1     -11.466   1.071 -33.682  1.00  0.00     0.268 A 
HETATM   30  C   UNL     1     -12.051   4.541 -35.011  1.00  0.00     0.011 C 
HETATM   31  O   UNL     1     -12.487   0.425 -33.493  1.00  0.00    -0.267 OA
HETATM   32  N   UNL     1     -10.205   0.562 -33.551  1.00  0.00    -0.152 N 
HETATM   33  H   UNL     1     -10.095  -0.412 -33.286  1.00  0.00     0.188 HD
ENDBRANCH   2  23
BRANCH   4  34
HETATM   34  C   UNL     1      -6.063  -2.445 -34.233  1.00  0.00     0.105 A 
HETATM   35  O   UNL     1      -4.763  -2.838 -34.064  1.00  0.00    -0.320 OA
HETATM   36  C   UNL     1      -4.668  -4.121 -34.498  1.00  0.00     0.142 A 
HETATM   37  C   UNL     1      -5.886  -4.569 -34.948  1.00  0.00     0.027 A 
HETATM   38  C   UNL     1      -6.787  -3.488 -34.780  1.00  0.00     0.041 A 
ENDBRANCH   4  34
TORSDOF 6
ENDMDL
MODEL 7
REMARK VINA RESULT:      -8.9      2.125      8.754
REMARK  6 active torsions:
REMARK  status: ('A' for Active; 'I' for Inactive)
REMARK    1  A    between atoms: C_4  and  C_5 
REMARK    2  A    between atoms: C_8  and  C_9 
REMARK    3  A    between atoms: C_9  and  C_10 
REMARK       I    between atoms: C_10  and  N_11 
REMARK    4  A    between atoms: N_11  and  C_12 
REMARK    5  A    between atoms: N_13  and  C_14 
REMARK    6  A    between atoms: C_25  and  C_26 
ROOT
HETATM    1  C   UNL     1      -5.428   1.538 -31.917  1.00  0.00     0.152 A 
HETATM    2  N   UNL     1      -4.120   1.796 -32.303  1.00  0.00    -0.044 N 
HETATM    3  N   UNL     1      -3.461   0.667 -32.705  1.00  0.00    -0.148 NA
HETATM    4  C   UNL     1      -4.375  -0.304 -32.569  1.00  0.00     0.115 A 
HETATM    5  C   UNL     1      -5.595   0.179 -32.055  1.00  0.00     0.087 A 
ENDROOT
BRANCH   1   6
HETATM    6  N   UNL     1      -6.303   2.542 -31.525  1.00  0.00    -0.311 N 
HETATM    7  C   UNL     1      -6.999   3.327 -32.428  1.00  0.00     0.227 C 
HETATM    8  O   UNL     1      -7.089   3.121 -33.636  1.00  0.00    -0.273 OA
HETATM    9  H   UNL     1      -6.396   2.718 -30.524  1.00  0.00     0.170 HD
BRANCH   7  10
HETATM   10  C   UNL     1      -7.627   4.558 -31.789  1.00  0.00     0.141 C 
BRANCH  10  11
HETATM   11  C   UNL     1      -6.595   5.565 -31.334  1.00  0.00    -0.049 A 
HETATM   12  C   UNL     1      -5.786   5.312 -30.218  1.00  0.00     0.008 A 
HETATM   13  C   UNL     1      -4.842   6.249 -29.791  1.00  0.00     0.013 A 
HETATM   14  C   UNL     1      -4.654   7.460 -30.477  1.00  0.00    -0.026 A 
HETATM   15  C   UNL     1      -5.444   7.688 -31.616  1.00  0.00     0.013 A 
HETATM   16  C   UNL     1      -6.399   6.755 -32.042  1.00  0.00     0.008 A 
BRANCH  14  17
HETATM   17  C   UNL     1      -3.667   8.452 -30.006  1.00  0.00    -0.026 A 
HETATM   18  C   UNL     1      -2.734   8.132 -29.004  1.00  0.00     0.012 A 
HETATM   19  C   UNL     1      -1.815   9.078 -28.537  1.00  0.00     0.001 A 
HETATM   20  C   UNL     1      -1.809  10.363 -29.070  1.00  0.00     0.000 A 
HETATM   21  C   UNL     1      -2.718  10.702 -30.068  1.00  0.00     0.001 A 
HETATM   22  C   UNL     1      -3.638   9.755 -30.529  1.00  0.00     0.012 A 
ENDBRANCH  14  17
ENDBRANCH  10  11
ENDBRANCH   7  10
ENDBRANCH   1   6
BRANCH   2  23
HETATM   23  C   UNL     1      -3.445   3.033 -32.309  1.00  0.00     0.732 A 
HETATM   24  N   UNL     1      -2.514   3.347 -31.457  1.00  0.00    -0.067 NA
HETATM   25  C   UNL     1      -1.977   4.588 -31.654  1.00  0.00     0.065 A 
HETATM   26  C   UNL     1      -2.321   5.451 -32.613  1.00  0.00     0.036 A 
HETATM   27  C   UNL     1      -0.892   5.147 -30.795  1.00  0.00     0.061 C 
HETATM   28  C   UNL     1      -1.545   6.710 -32.585  1.00  0.00     0.047 C 
HETATM   29  C   UNL     1      -3.370   5.081 -33.562  1.00  0.00     0.268 A 
HETATM   30  C   UNL     1      -0.410   6.351 -31.618  1.00  0.00     0.011 C 
HETATM   31  O   UNL     1      -3.732   5.819 -34.467  1.00  0.00    -0.267 OA
HETATM   32  N   UNL     1      -3.893   3.841 -33.331  1.00  0.00    -0.152 N 
HETATM   33  H   UNL     1      -4.626   3.496 -33.945  1.00  0.00     0.188 HD
ENDBRANCH   2  23
BRANCH   4  34
HETATM   34  C   UNL     1      -4.116  -1.722 -32.950  1.00  0.00     0.105 A 
HETATM   35  O   UNL     1      -3.399  -2.606 -32.190  1.00  0.00    -0.320 OA
HETATM   36  C   UNL     1      -3.398  -3.795 -32.845  1.00  0.00     0.142 A 
HETATM   37  C   UNL     1      -4.101  -3.698 -34.021  1.00  0.00     0.027 A 
HETATM   38  C   UNL     1      -4.563  -2.360 -34.092  1.00  0.00     0.041 A 
ENDBRANCH   4  34
TORSDOF 6
ENDMDL
MODEL 8
REMARK VINA RESULT:      -8.9      3.336      5.191
REMARK  6 active torsions:
REMARK  status: ('A' for Active; 'I' for Inactive)
REMARK    1  A    between atoms: C_4  and  C_5 
REMARK    2  A    between atoms: C_8  and  C_9 
REMARK    3  A    between atoms: C_9  and  C_10 
REMARK       I    between atoms: C_10  and  N_11 
REMARK    4  A    between atoms: N_11  and  C_12 
REMARK    5  A    between atoms: N_13  and  C_14 
REMARK    6  A    between atoms: C_25  and  C_26 
ROOT
HETATM    1  C   UNL     1      -4.091   7.688 -28.908  1.00  0.00     0.152 A 
HETATM    2  N   UNL     1      -3.384   6.859 -29.768  1.00  0.00    -0.044 N 
HETATM    3  N   UNL     1      -2.030   7.023 -29.658  1.00  0.00    -0.148 NA
HETATM    4  C   UNL     1      -1.897   7.965 -28.715  1.00  0.00     0.115 A 
HETATM    5  C   UNL     1      -3.141   8.431 -28.245  1.00  0.00     0.087 A 
ENDROOT
BRANCH   1   6
HETATM    6  N   UNL     1      -5.475   7.654 -28.807  1.00  0.00    -0.311 N 
HETATM    7  C   UNL     1      -6.139   6.933 -27.830  1.00  0.00     0.227 C 
HETATM    8  O   UNL     1      -5.619   6.414 -26.844  1.00  0.00    -0.273 OA
HETATM    9  H   UNL     1      -6.009   8.158 -29.515  1.00  0.00     0.170 HD
BRANCH   7  10
HETATM   10  C   UNL     1      -7.627   6.774 -28.112  1.00  0.00     0.141 C 
BRANCH  10  11
HETATM   11  C   UNL     1      -7.913   5.670 -29.105  1.00  0.00    -0.049 A 
HETATM   12  C   UNL     1      -7.163   4.487 -29.103  1.00  0.00     0.008 A 
HETATM   13  C   UNL     1      -7.420   3.474 -30.030  1.00  0.00     0.013 A 
HETATM   14  C   UNL     1      -8.451   3.595 -30.975  1.00  0.00    -0.026 A 
HETATM   15  C   UNL     1      -9.222   4.770 -30.946  1.00  0.00     0.013 A 
HETATM   16  C   UNL     1      -8.960   5.793 -30.024  1.00  0.00     0.008 A 
BRANCH  14  17
HETATM   17  C   UNL     1      -8.702   2.527 -31.963  1.00  0.00    -0.026 A 
HETATM   18  C   UNL     1      -8.253   1.212 -31.745  1.00  0.00     0.012 A 
HETATM   19  C   UNL     1      -8.467   0.205 -32.691  1.00  0.00     0.001 A 
HETATM   20  C   UNL     1      -9.140   0.493 -33.874  1.00  0.00     0.000 A 
HETATM   21  C   UNL     1      -9.600   1.785 -34.110  1.00  0.00     0.001 A 
HETATM   22  C   UNL     1      -9.382   2.791 -33.164  1.00  0.00     0.012 A 
ENDBRANCH  14  17
ENDBRANCH  10  11
ENDBRANCH   7  10
ENDBRANCH   1   6
BRANCH   2  23
HETATM   23  C   UNL     1      -3.897   5.928 -30.693  1.00  0.00     0.732 A 
HETATM   24  N   UNL     1      -4.897   6.182 -31.486  1.00  0.00    -0.067 NA
HETATM   25  C   UNL     1      -5.221   5.146 -32.318  1.00  0.00     0.065 A 
HETATM   26  C   UNL     1      -4.611   3.960 -32.373  1.00  0.00     0.036 A 
HETATM   27  C   UNL     1      -6.332   5.223 -33.312  1.00  0.00     0.061 C 
HETATM   28  C   UNL     1      -5.175   3.049 -33.393  1.00  0.00     0.047 C 
HETATM   29  C   UNL     1      -3.490   3.693 -31.474  1.00  0.00     0.268 A 
HETATM   30  C   UNL     1      -6.057   4.005 -34.205  1.00  0.00     0.011 C 
HETATM   31  O   UNL     1      -2.882   2.633 -31.473  1.00  0.00    -0.267 OA
HETATM   32  N   UNL     1      -3.198   4.742 -30.649  1.00  0.00    -0.152 N 
HETATM   33  H   UNL     1      -2.429   4.650 -29.992  1.00  0.00     0.188 HD
ENDBRANCH   2  23
BRANCH   4  34
HETATM   34  C   UNL     1      -0.572   8.433 -28.217  1.00  0.00     0.105 A 
HETATM   35  O   UNL     1      -0.402   9.445 -27.310  1.00  0.00    -0.320 OA
HETATM   36  C   UNL     1       0.931   9.567 -27.085  1.00  0.00     0.142 A 
HETATM   37  C   UNL     1       1.632   8.651 -27.832  1.00  0.00     0.027 A 
HETATM   38  C   UNL     1       0.664   7.920 -28.565  1.00  0.00     0.041 A 
ENDBRANCH   4  34
TORSDOF 6
ENDMDL
MODEL 9
REMARK VINA RESULT:      -8.8      3.506      9.653
REMARK  6 active torsions:
REMARK  status: ('A' for Active; 'I' for Inactive)
REMARK    1  A    between atoms: C_4  and  C_5 
REMARK    2  A    between atoms: C_8  and  C_9 
REMARK    3  A    between atoms: C_9  and  C_10 
REMARK       I    between atoms: C_10  and  N_11 
REMARK    4  A    between atoms: N_11  and  C_12 
REMARK    5  A    between atoms: N_13  and  C_14 
REMARK    6  A    between atoms: C_25  and  C_26 
ROOT
HETATM    1  C   UNL     1      -4.927   4.048 -32.589  1.00  0.00     0.152 A 
HETATM    2  N   UNL     1      -5.640   4.593 -31.531  1.00  0.00    -0.044 N 
HETATM    3  N   UNL     1      -6.851   3.984 -31.347  1.00  0.00    -0.148 NA
HETATM    4  C   UNL     1      -6.887   3.047 -32.303  1.00  0.00     0.115 A 
HETATM    5  C   UNL     1      -5.737   3.068 -33.116  1.00  0.00     0.087 A 
ENDROOT
BRANCH   1   6
HETATM    6  N   UNL     1      -3.648   4.471 -32.924  1.00  0.00    -0.311 N 
HETATM    7  C   UNL     1      -2.516   4.051 -32.246  1.00  0.00     0.227 C 
HETATM    8  O   UNL     1      -2.470   3.137 -31.426  1.00  0.00    -0.273 OA
HETATM    9  H   UNL     1      -3.562   5.148 -33.683  1.00  0.00     0.170 HD
BRANCH   7  10
HETATM   10  C   UNL     1      -1.284   4.886 -32.566  1.00  0.00     0.141 C 
BRANCH  10  11
HETATM   11  C   UNL     1      -0.799   5.681 -31.375  1.00  0.00    -0.049 A 
HETATM   12  C   UNL     1       0.172   5.161 -30.509  1.00  0.00     0.008 A 
HETATM   13  C   UNL     1       0.609   5.892 -29.402  1.00  0.00     0.013 A 
HETATM   14  C   UNL     1       0.112   7.177 -29.133  1.00  0.00    -0.026 A 
HETATM   15  C   UNL     1      -0.834   7.705 -30.027  1.00  0.00     0.013 A 
HETATM   16  C   UNL     1      -1.283   6.971 -31.134  1.00  0.00     0.008 A 
BRANCH  14  17
HETATM   17  C   UNL     1       0.567   7.933 -27.949  1.00  0.00    -0.026 A 
HETATM   18  C   UNL     1       1.468   7.371 -27.027  1.00  0.00     0.012 A 
HETATM   19  C   UNL     1       1.879   8.075 -25.891  1.00  0.00     0.001 A 
HETATM   20  C   UNL     1       1.401   9.360 -25.658  1.00  0.00     0.000 A 
HETATM   21  C   UNL     1       0.513   9.941 -26.559  1.00  0.00     0.001 A 
HETATM   22  C   UNL     1       0.101   9.233 -27.692  1.00  0.00     0.012 A 
ENDBRANCH  14  17
ENDBRANCH  10  11
ENDBRANCH   7  10
ENDBRANCH   1   6
BRANCH   2  23
HETATM   23  C   UNL     1      -5.262   5.656 -30.686  1.00  0.00     0.732 A 
HETATM   24  N   UNL     1      -4.959   6.844 -31.120  1.00  0.00    -0.067 NA
HETATM   25  C   UNL     1      -4.640   7.732 -30.129  1.00  0.00     0.065 A 
HETATM   26  C   UNL     1      -4.625   7.476 -28.820  1.00  0.00     0.036 A 
HETATM   27  C   UNL     1      -4.266   9.151 -30.403  1.00  0.00     0.061 C 
HETATM   28  C   UNL     1      -4.259   8.646 -27.991  1.00  0.00     0.047 C 
HETATM   29  C   UNL     1      -4.968   6.135 -28.351  1.00  0.00     0.268 A 
HETATM   30  C   UNL     1      -4.361   9.788 -29.009  1.00  0.00     0.011 C 
HETATM   31  O   UNL     1      -4.980   5.832 -27.166  1.00  0.00    -0.267 OA
HETATM   32  N   UNL     1      -5.271   5.270 -29.364  1.00  0.00    -0.152 N 
HETATM   33  H   UNL     1      -5.527   4.315 -29.132  1.00  0.00     0.188 HD
ENDBRANCH   2  23
BRANCH   4  34
HETATM   34  C   UNL     1      -8.016   2.084 -32.454  1.00  0.00     0.105 A 
HETATM   35  O   UNL     1      -9.027   2.219 -33.366  1.00  0.00    -0.320 OA
HETATM   36  C   UNL     1      -9.848   1.147 -33.222  1.00  0.00     0.142 A 
HETATM   37  C   UNL     1      -9.386   0.317 -32.229  1.00  0.00     0.027 A 
HETATM   38  C   UNL     1      -8.206   0.922 -31.731  1.00  0.00     0.041 A 
ENDBRANCH   4  34
TORSDOF 6
ENDMDL
MODEL 10
REMARK VINA RESULT:      -8.8      3.805      6.213
REMARK  6 active torsions:
REMARK  status: ('A' for Active; 'I' for Inactive)
REMARK    1  A    between atoms: C_4  and  C_5 
REMARK    2  A    between atoms: C_8  and  C_9 
REMARK    3  A    between atoms: C_9  and  C_10 
REMARK       I    between atoms: C_10  and  N_11 
REMARK    4  A    between atoms: N_11  and  C_12 
REMARK    5  A    between atoms: N_13  and  C_14 
REMARK    6  A    between atoms: C_25  and  C_26 
ROOT
HETATM    1  C   UNL     1     -11.227   4.429 -35.015  1.00  0.00     0.152 A 
HETATM    2  N   UNL     1     -10.228   5.209 -34.451  1.00  0.00    -0.044 N 
HETATM    3  N   UNL     1     -10.415   6.544 -34.680  1.00  0.00    -0.148 NA
HETATM    4  C   UNL     1     -11.547   6.592 -35.394  1.00  0.00     0.115 A 
HETATM    5  C   UNL     1     -12.070   5.310 -35.654  1.00  0.00     0.087 A 
ENDROOT
BRANCH   1   6
HETATM    6  N   UNL     1     -11.274   3.050 -34.862  1.00  0.00    -0.311 N 
HETATM    7  C   UNL     1     -11.620   2.437 -33.670  1.00  0.00     0.227 C 
HETATM    8  O   UNL     1     -12.105   2.999 -32.690  1.00  0.00    -0.273 OA
HETATM    9  H   UNL     1     -11.004   2.479 -35.664  1.00  0.00     0.170 HD
BRANCH   7  10
HETATM   10  C   UNL     1     -11.285   0.953 -33.641  1.00  0.00     0.141 C 
BRANCH  10  11
HETATM   11  C   UNL     1      -9.827   0.694 -33.335  1.00  0.00    -0.049 A 
HETATM   12  C   UNL     1      -8.882   0.592 -34.365  1.00  0.00     0.008 A 
HETATM   13  C   UNL     1      -7.538   0.340 -34.081  1.00  0.00     0.013 A 
HETATM   14  C   UNL     1      -7.083   0.208 -32.760  1.00  0.00    -0.026 A 
HETATM   15  C   UNL     1      -8.031   0.349 -31.732  1.00  0.00     0.013 A 
HETATM   16  C   UNL     1      -9.383   0.591 -32.013  1.00  0.00     0.008 A 
BRANCH  14  17
HETATM   17  C   UNL     1      -5.664  -0.077 -32.472  1.00  0.00    -0.026 A 
HETATM   18  C   UNL     1      -5.113   0.176 -31.202  1.00  0.00     0.012 A 
HETATM   19  C   UNL     1      -3.762  -0.068 -30.934  1.00  0.00     0.001 A 
HETATM   20  C   UNL     1      -2.935  -0.575 -31.932  1.00  0.00     0.000 A 
HETATM   21  C   UNL     1      -3.458  -0.838 -33.195  1.00  0.00     0.001 A 
HETATM   22  C   UNL     1      -4.808  -0.591 -33.461  1.00  0.00     0.012 A 
ENDBRANCH  14  17
ENDBRANCH  10  11
ENDBRANCH   7  10
ENDBRANCH   1   6
BRANCH   2  23
HETATM   23  C   UNL     1      -9.103   4.781 -33.718  1.00  0.00     0.732 A 
HETATM   24  N   UNL     1      -7.978   4.432 -34.270  1.00  0.00    -0.067 NA
HETATM   25  C   UNL     1      -7.010   4.070 -33.374  1.00  0.00     0.065 A 
HETATM   26  C   UNL     1      -7.134   4.055 -32.045  1.00  0.00     0.036 A 
HETATM   27  C   UNL     1      -5.642   3.640 -33.789  1.00  0.00     0.061 C 
HETATM   28  C   UNL     1      -5.903   3.636 -31.339  1.00  0.00     0.047 C 
HETATM   29  C   UNL     1      -8.406   4.450 -31.443  1.00  0.00     0.268 A 
HETATM   30  C   UNL     1      -4.865   3.697 -32.466  1.00  0.00     0.011 C 
HETATM   31  O   UNL     1      -8.588   4.466 -30.235  1.00  0.00    -0.267 OA
HETATM   32  N   UNL     1      -9.354   4.796 -32.364  1.00  0.00    -0.152 N 
HETATM   33  H   UNL     1     -10.270   5.090 -32.037  1.00  0.00     0.188 HD
ENDBRANCH   2  23
BRANCH   4  34
HETATM   34  C   UNL     1     -12.179   7.871 -35.830  1.00  0.00     0.105 A 
HETATM   35  O   UNL     1     -13.076   8.582 -35.080  1.00  0.00    -0.320 OA
HETATM   36  C   UNL     1     -13.408   9.690 -35.791  1.00  0.00     0.142 A 
HETATM   37  C   UNL     1     -12.742   9.710 -36.992  1.00  0.00     0.027 A 
HETATM   38  C   UNL     1     -11.950   8.535 -37.020  1.00  0.00     0.041 A 
ENDBRANCH   4  34
TORSDOF 6
ENDMDL
