MODEL 1
REMARK VINA RESULT:      -8.3      0.000      0.000
REMARK  6 active torsions:
REMARK  status: ('A' for Active; 'I' for Inactive)
REMARK    1  A    between atoms: C_3  and  C_4 
REMARK    2  A    between atoms: C_14  and  N_15 
REMARK       I    between atoms: N_15  and  C_16 
REMARK    3  A    between atoms: C_16  and  C_17 
REMARK    4  A    between atoms: N_21  and  C_22 
REMARK    5  A    between atoms: C_22  and  C_23 
REMARK    6  A    between atoms: C_26  and  O_27 
ROOT
HETATM    1  C   UNL     1      -7.161  -1.556 -34.045  1.00  0.00     0.051 C 
HETATM    2  C   UNL     1      -7.096  -0.486 -33.008  1.00  0.00    -0.022 A 
HETATM    3  C   UNL     1      -8.087   0.489 -32.703  1.00  0.00     0.062 A 
HETATM    4  C   UNL     1      -7.584   1.353 -31.739  1.00  0.00     0.125 A 
HETATM    5  N   UNL     1      -6.335   0.883 -31.378  1.00  0.00    -0.332 N 
HETATM    6  C   UNL     1      -6.025  -0.233 -32.160  1.00  0.00     0.017 A 
HETATM    7  C   UNL     1      -4.709  -0.942 -32.067  1.00  0.00     0.069 C 
ENDROOT
BRANCH   3   8
HETATM    8  C   UNL     1      -9.469   0.636 -33.269  1.00  0.00     0.143 A 
HETATM    9  N   UNL     1      -9.779   1.545 -34.181  1.00  0.00    -0.228 NA
HETATM   10  C   UNL     1     -11.146   1.454 -34.334  1.00  0.00     0.086 A 
HETATM   11  C   UNL     1     -11.667   0.440 -33.541  1.00  0.00     0.062 A 
HETATM   12  C   UNL     1     -12.017   2.219 -35.123  1.00  0.00     0.034 A 
HETATM   13  N   UNL     1     -10.577  -0.079 -32.896  1.00  0.00    -0.338 N 
HETATM   14  C   UNL     1     -13.027   0.127 -33.484  1.00  0.00     0.032 A 
HETATM   15  H   UNL     1     -10.607  -0.813 -32.206  1.00  0.00     0.167 HD
HETATM   16  C   UNL     1     -13.882   0.904 -34.272  1.00  0.00     0.002 A 
HETATM   17  C   UNL     1     -13.389   1.934 -35.077  1.00  0.00     0.002 A 
ENDBRANCH   3   8
BRANCH   4  18
HETATM   18  N   UNL     1      -8.304   2.495 -31.396  1.00  0.00    -0.312 N 
HETATM   19  C   UNL     1      -8.360   3.746 -32.066  1.00  0.00     0.226 C 
HETATM   20  O   UNL     1      -7.432   4.127 -32.760  1.00  0.00    -0.273 OA
HETATM   21  H   UNL     1      -8.763   2.423 -30.484  1.00  0.00     0.170 HD
BRANCH  19  22
HETATM   22  C   UNL     1      -9.622   4.559 -31.848  1.00  0.00     0.070 C 
HETATM   23  C   UNL     1     -10.026   5.204 -33.169  1.00  0.00     0.019 C 
HETATM   24  C   UNL     1     -10.759   3.742 -31.249  1.00  0.00     0.019 C 
ENDBRANCH  19  22
ENDBRANCH   4  18
BRANCH   5  25
HETATM   25  C   UNL     1      -5.399   1.446 -30.407  1.00  0.00     0.169 C 
BRANCH  25  26
HETATM   26  C   UNL     1      -4.608   2.645 -30.873  1.00  0.00    -0.040 A 
HETATM   27  C   UNL     1      -3.460   2.578 -31.673  1.00  0.00     0.011 A 
HETATM   28  C   UNL     1      -2.754   3.741 -32.001  1.00  0.00     0.037 A 
HETATM   29  C   UNL     1      -3.171   4.989 -31.540  1.00  0.00     0.068 A 
HETATM   30  C   UNL     1      -4.317   5.071 -30.754  1.00  0.00     0.037 A 
HETATM   31  C   UNL     1      -5.027   3.911 -30.428  1.00  0.00     0.011 A 
BRANCH  29  32
HETATM   32  O   UNL     1      -2.379   6.037 -31.919  1.00  0.00    -0.356 OA
HETATM   33  C   UNL     1      -1.170   5.717 -32.599  1.00  0.00     0.210 C 
ENDBRANCH  29  32
ENDBRANCH  25  26
ENDBRANCH   5  25
TORSDOF 6
ENDMDL
MODEL 2
REMARK VINA RESULT:      -8.2      1.720      3.568
REMARK  6 active torsions:
REMARK  status: ('A' for Active; 'I' for Inactive)
REMARK    1  A    between atoms: C_3  and  C_4 
REMARK    2  A    between atoms: C_14  and  N_15 
REMARK       I    between atoms: N_15  and  C_16 
REMARK    3  A    between atoms: C_16  and  C_17 
REMARK    4  A    between atoms: N_21  and  C_22 
REMARK    5  A    between atoms: C_22  and  C_23 
REMARK    6  A    between atoms: C_26  and  O_27 
ROOT
HETATM    1  C   UNL     1      -9.247   4.164 -30.113  1.00  0.00     0.051 C 
HETATM    2  C   UNL     1      -8.125   3.480 -30.819  1.00  0.00    -0.022 A 
HETATM    3  C   UNL     1      -8.209   2.615 -31.947  1.00  0.00     0.062 A 
HETATM    4  C   UNL     1      -6.942   2.120 -32.226  1.00  0.00     0.125 A 
HETATM    5  N   UNL     1      -6.061   2.727 -31.350  1.00  0.00    -0.332 N 
HETATM    6  C   UNL     1      -6.780   3.549 -30.479  1.00  0.00     0.017 A 
HETATM    7  C   UNL     1      -6.129   4.299 -29.358  1.00  0.00     0.069 C 
ENDROOT
BRANCH   3   8
HETATM    8  C   UNL     1      -9.412   2.245 -32.763  1.00  0.00     0.143 A 
HETATM    9  N   UNL     1      -9.857   2.987 -33.765  1.00  0.00    -0.228 NA
HETATM   10  C   UNL     1     -11.037   2.395 -34.160  1.00  0.00     0.086 A 
HETATM   11  C   UNL     1     -11.286   1.245 -33.421  1.00  0.00     0.062 A 
HETATM   12  C   UNL     1     -11.963   2.792 -35.136  1.00  0.00     0.034 A 
HETATM   13  N   UNL     1     -10.225   1.161 -32.559  1.00  0.00    -0.338 N 
HETATM   14  C   UNL     1     -12.418   0.446 -33.596  1.00  0.00     0.032 A 
HETATM   15  H   UNL     1     -10.113   0.457 -31.847  1.00  0.00     0.167 HD
HETATM   16  C   UNL     1     -13.333   0.860 -34.568  1.00  0.00     0.002 A 
HETATM   17  C   UNL     1     -13.113   2.014 -35.326  1.00  0.00     0.002 A 
ENDBRANCH   3   8
BRANCH   4  18
HETATM   18  N   UNL     1      -6.790   1.119 -33.183  1.00  0.00    -0.312 N 
HETATM   19  C   UNL     1      -6.711  -0.287 -32.995  1.00  0.00     0.226 C 
HETATM   20  O   UNL     1      -6.302  -0.756 -31.946  1.00  0.00    -0.273 OA
HETATM   21  H   UNL     1      -6.616   1.483 -34.124  1.00  0.00     0.170 HD
BRANCH  19  22
HETATM   22  C   UNL     1      -7.149  -1.138 -34.171  1.00  0.00     0.070 C 
HETATM   23  C   UNL     1      -7.794  -0.237 -35.218  1.00  0.00     0.019 C 
HETATM   24  C   UNL     1      -6.015  -1.965 -34.762  1.00  0.00     0.019 C 
ENDBRANCH  19  22
ENDBRANCH   4  18
BRANCH   5  25
HETATM   25  C   UNL     1      -4.617   2.535 -31.238  1.00  0.00     0.169 C 
BRANCH  25  26
HETATM   26  C   UNL     1      -3.761   3.505 -32.018  1.00  0.00    -0.040 A 
HETATM   27  C   UNL     1      -2.501   3.960 -31.610  1.00  0.00     0.011 A 
HETATM   28  C   UNL     1      -1.809   4.912 -32.368  1.00  0.00     0.037 A 
HETATM   29  C   UNL     1      -2.357   5.432 -33.541  1.00  0.00     0.068 A 
HETATM   30  C   UNL     1      -3.603   4.980 -33.963  1.00  0.00     0.037 A 
HETATM   31  C   UNL     1      -4.295   4.026 -33.210  1.00  0.00     0.011 A 
BRANCH  29  32
HETATM   32  O   UNL     1      -1.584   6.368 -34.171  1.00  0.00    -0.356 OA
HETATM   33  C   UNL     1      -0.762   7.186 -33.346  1.00  0.00     0.210 C 
ENDBRANCH  29  32
ENDBRANCH  25  26
ENDBRANCH   5  25
TORSDOF 6
ENDMDL
MODEL 3
REMARK VINA RESULT:      -7.9      3.389      5.946
REMARK  6 active torsions:
REMARK  status: ('A' for Active; 'I' for Inactive)
REMARK    1  A    between atoms: C_3  and  C_4 
REMARK    2  A    between atoms: C_14  and  N_15 
REMARK       I    between atoms: N_15  and  C_16 
REMARK    3  A    between atoms: C_16  and  C_17 
REMARK    4  A    between atoms: N_21  and  C_22 
REMARK    5  A    between atoms: C_22  and  C_23 
REMARK    6  A    between atoms: C_26  and  O_27 
ROOT
HETATM    1  C   UNL     1      -8.559   3.260 -30.519  1.00  0.00     0.051 C 
HETATM    2  C   UNL     1      -7.418   4.022 -31.104  1.00  0.00    -0.022 A 
HETATM    3  C   UNL     1      -6.331   3.507 -31.866  1.00  0.00     0.062 A 
HETATM    4  C   UNL     1      -5.441   4.540 -32.131  1.00  0.00     0.125 A 
HETATM    5  N   UNL     1      -5.996   5.701 -31.625  1.00  0.00    -0.332 N 
HETATM    6  C   UNL     1      -7.198   5.388 -30.984  1.00  0.00     0.017 A 
HETATM    7  C   UNL     1      -8.018   6.415 -30.266  1.00  0.00     0.069 C 
ENDROOT
BRANCH   3   8
HETATM    8  C   UNL     1      -6.100   2.106 -32.351  1.00  0.00     0.143 A 
HETATM    9  N   UNL     1      -4.995   1.426 -32.084  1.00  0.00    -0.228 NA
HETATM   10  C   UNL     1      -5.103   0.259 -32.809  1.00  0.00     0.086 A 
HETATM   11  C   UNL     1      -6.316   0.206 -33.486  1.00  0.00     0.062 A 
HETATM   12  C   UNL     1      -4.195  -0.800 -32.954  1.00  0.00     0.034 A 
HETATM   13  N   UNL     1      -6.938   1.380 -33.156  1.00  0.00    -0.338 N 
HETATM   14  C   UNL     1      -6.694  -0.856 -34.310  1.00  0.00     0.032 A 
HETATM   15  H   UNL     1      -7.830   1.683 -33.513  1.00  0.00     0.167 HD
HETATM   16  C   UNL     1      -5.774  -1.900 -34.447  1.00  0.00     0.002 A 
HETATM   17  C   UNL     1      -4.544  -1.875 -33.783  1.00  0.00     0.002 A 
ENDBRANCH   3   8
BRANCH   4  18
HETATM   18  N   UNL     1      -4.211   4.254 -32.719  1.00  0.00    -0.312 N 
HETATM   19  C   UNL     1      -3.546   4.940 -33.770  1.00  0.00     0.226 C 
HETATM   20  O   UNL     1      -4.175   5.579 -34.596  1.00  0.00    -0.273 OA
HETATM   21  H   UNL     1      -3.805   3.371 -32.395  1.00  0.00     0.170 HD
BRANCH  19  22
HETATM   22  C   UNL     1      -2.035   4.809 -33.795  1.00  0.00     0.070 C 
HETATM   23  C   UNL     1      -1.457   5.940 -34.639  1.00  0.00     0.019 C 
HETATM   24  C   UNL     1      -1.418   4.773 -32.403  1.00  0.00     0.019 C 
ENDBRANCH  19  22
ENDBRANCH   4  18
BRANCH   5  25
HETATM   25  C   UNL     1      -5.446   7.054 -31.646  1.00  0.00     0.169 C 
BRANCH  25  26
HETATM   26  C   UNL     1      -4.082   7.220 -31.019  1.00  0.00    -0.040 A 
HETATM   27  C   UNL     1      -3.714   6.707 -29.769  1.00  0.00     0.011 A 
HETATM   28  C   UNL     1      -2.445   6.969 -29.239  1.00  0.00     0.037 A 
HETATM   29  C   UNL     1      -1.521   7.745 -29.937  1.00  0.00     0.068 A 
HETATM   30  C   UNL     1      -1.870   8.252 -31.186  1.00  0.00     0.037 A 
HETATM   31  C   UNL     1      -3.135   7.988 -31.720  1.00  0.00     0.011 A 
BRANCH  29  32
HETATM   32  O   UNL     1      -0.329   7.938 -29.295  1.00  0.00    -0.356 OA
HETATM   33  C   UNL     1       0.258   6.801 -28.671  1.00  0.00     0.210 C 
ENDBRANCH  29  32
ENDBRANCH  25  26
ENDBRANCH   5  25
TORSDOF 6
ENDMDL
MODEL 4
REMARK VINA RESULT:      -7.8      4.125      8.847
REMARK  6 active torsions:
REMARK  status: ('A' for Active; 'I' for Inactive)
REMARK    1  A    between atoms: C_3  and  C_4 
REMARK    2  A    between atoms: C_14  and  N_15 
REMARK       I    between atoms: N_15  and  C_16 
REMARK    3  A    between atoms: C_16  and  C_17 
REMARK    4  A    between atoms: N_21  and  C_22 
REMARK    5  A    between atoms: C_22  and  C_23 
REMARK    6  A    between atoms: C_26  and  O_27 
ROOT
HETATM    1  C   UNL     1      -6.850   5.246 -28.471  1.00  0.00     0.051 C 
HETATM    2  C   UNL     1      -5.977   4.881 -29.624  1.00  0.00    -0.022 A 
HETATM    3  C   UNL     1      -4.782   5.530 -30.048  1.00  0.00     0.062 A 
HETATM    4  C   UNL     1      -4.338   4.930 -31.218  1.00  0.00     0.125 A 
HETATM    5  N   UNL     1      -5.183   3.868 -31.482  1.00  0.00    -0.332 N 
HETATM    6  C   UNL     1      -6.194   3.841 -30.519  1.00  0.00     0.017 A 
HETATM    7  C   UNL     1      -7.317   2.851 -30.557  1.00  0.00     0.069 C 
ENDROOT
BRANCH   3   8
HETATM    8  C   UNL     1      -4.051   6.670 -29.404  1.00  0.00     0.143 A 
HETATM    9  N   UNL     1      -3.729   7.778 -30.056  1.00  0.00    -0.228 NA
HETATM   10  C   UNL     1      -2.958   8.506 -29.176  1.00  0.00     0.086 A 
HETATM   11  C   UNL     1      -2.853   7.856 -27.953  1.00  0.00     0.062 A 
HETATM   12  C   UNL     1      -2.296   9.729 -29.357  1.00  0.00     0.034 A 
HETATM   13  N   UNL     1      -3.577   6.706 -28.118  1.00  0.00    -0.338 N 
HETATM   14  C   UNL     1      -2.120   8.355 -26.874  1.00  0.00     0.032 A 
HETATM   15  H   UNL     1      -3.674   5.979 -27.428  1.00  0.00     0.167 HD
HETATM   16  C   UNL     1      -1.462   9.573 -27.074  1.00  0.00     0.002 A 
HETATM   17  C   UNL     1      -1.545  10.250 -28.294  1.00  0.00     0.002 A 
ENDBRANCH   3   8
BRANCH   4  18
HETATM   18  N   UNL     1      -3.278   5.496 -31.922  1.00  0.00    -0.312 N 
HETATM   19  C   UNL     1      -1.980   4.968 -32.155  1.00  0.00     0.226 C 
HETATM   20  O   UNL     1      -1.483   4.166 -31.382  1.00  0.00    -0.273 OA
HETATM   21  H   UNL     1      -3.456   6.462 -32.211  1.00  0.00     0.170 HD
BRANCH  19  22
HETATM   22  C   UNL     1      -1.273   5.472 -33.399  1.00  0.00     0.070 C 
HETATM   23  C   UNL     1      -2.007   4.949 -34.628  1.00  0.00     0.019 C 
HETATM   24  C   UNL     1      -1.131   6.987 -33.429  1.00  0.00     0.019 C 
ENDBRANCH  19  22
ENDBRANCH   4  18
BRANCH   5  25
HETATM   25  C   UNL     1      -5.140   2.930 -32.602  1.00  0.00     0.169 C 
BRANCH  25  26
HETATM   26  C   UNL     1      -4.564   1.567 -32.298  1.00  0.00    -0.040 A 
HETATM   27  C   UNL     1      -3.513   1.329 -31.405  1.00  0.00     0.011 A 
HETATM   28  C   UNL     1      -3.001   0.037 -31.237  1.00  0.00     0.037 A 
HETATM   29  C   UNL     1      -3.521  -1.040 -31.955  1.00  0.00     0.068 A 
HETATM   30  C   UNL     1      -4.574  -0.819 -32.837  1.00  0.00     0.037 A 
HETATM   31  C   UNL     1      -5.090   0.470 -33.004  1.00  0.00     0.011 A 
BRANCH  29  32
HETATM   32  O   UNL     1      -2.915  -2.241 -31.709  1.00  0.00    -0.356 OA
HETATM   33  C   UNL     1      -3.378  -3.361 -32.454  1.00  0.00     0.210 C 
ENDBRANCH  29  32
ENDBRANCH  25  26
ENDBRANCH   5  25
TORSDOF 6
ENDMDL
MODEL 5
REMARK VINA RESULT:      -7.8      3.609      6.452
REMARK  6 active torsions:
REMARK  status: ('A' for Active; 'I' for Inactive)
REMARK    1  A    between atoms: C_3  and  C_4 
REMARK    2  A    between atoms: C_14  and  N_15 
REMARK       I    between atoms: N_15  and  C_16 
REMARK    3  A    between atoms: C_16  and  C_17 
REMARK    4  A    between atoms: N_21  and  C_22 
REMARK    5  A    between atoms: C_22  and  C_23 
REMARK    6  A    between atoms: C_26  and  O_27 
ROOT
HETATM    1  C   UNL     1      -1.914   4.833 -34.574  1.00  0.00     0.051 C 
HETATM    2  C   UNL     1      -2.376   5.193 -33.203  1.00  0.00    -0.022 A 
HETATM    3  C   UNL     1      -3.277   4.469 -32.373  1.00  0.00     0.062 A 
HETATM    4  C   UNL     1      -3.511   5.204 -31.218  1.00  0.00     0.125 A 
HETATM    5  N   UNL     1      -2.707   6.328 -31.275  1.00  0.00    -0.332 N 
HETATM    6  C   UNL     1      -2.021   6.334 -32.493  1.00  0.00     0.017 A 
HETATM    7  C   UNL     1      -1.115   7.454 -32.902  1.00  0.00     0.069 C 
ENDROOT
BRANCH   3   8
HETATM    8  C   UNL     1      -3.914   3.133 -32.615  1.00  0.00     0.143 A 
HETATM    9  N   UNL     1      -5.141   2.998 -33.097  1.00  0.00    -0.228 NA
HETATM   10  C   UNL     1      -5.407   1.647 -33.041  1.00  0.00     0.086 A 
HETATM   11  C   UNL     1      -4.306   0.945 -32.567  1.00  0.00     0.062 A 
HETATM   12  C   UNL     1      -6.576   0.944 -33.364  1.00  0.00     0.034 A 
HETATM   13  N   UNL     1      -3.365   1.911 -32.329  1.00  0.00    -0.338 N 
HETATM   14  C   UNL     1      -4.291  -0.441 -32.393  1.00  0.00     0.032 A 
HETATM   15  H   UNL     1      -2.452   1.745 -31.936  1.00  0.00     0.167 HD
HETATM   16  C   UNL     1      -5.468  -1.124 -32.714  1.00  0.00     0.002 A 
HETATM   17  C   UNL     1      -6.593  -0.447 -33.190  1.00  0.00     0.002 A 
ENDBRANCH   3   8
BRANCH   4  18
HETATM   18  N   UNL     1      -4.491   4.785 -30.322  1.00  0.00    -0.312 N 
HETATM   19  C   UNL     1      -5.857   5.167 -30.254  1.00  0.00     0.226 C 
HETATM   20  O   UNL     1      -6.226   6.250 -30.676  1.00  0.00    -0.273 OA
HETATM   21  H   UNL     1      -4.123   4.201 -29.565  1.00  0.00     0.170 HD
BRANCH  19  22
HETATM   22  C   UNL     1      -6.797   4.158 -29.622  1.00  0.00     0.070 C 
HETATM   23  C   UNL     1      -8.179   4.314 -30.248  1.00  0.00     0.019 C 
HETATM   24  C   UNL     1      -6.290   2.726 -29.726  1.00  0.00     0.019 C 
ENDBRANCH  19  22
ENDBRANCH   4  18
BRANCH   5  25
HETATM   25  C   UNL     1      -2.593   7.414 -30.304  1.00  0.00     0.169 C 
BRANCH  25  26
HETATM   26  C   UNL     1      -1.373   7.377 -29.415  1.00  0.00    -0.040 A 
HETATM   27  C   UNL     1      -0.557   6.254 -29.230  1.00  0.00     0.011 A 
HETATM   28  C   UNL     1       0.516   6.295 -28.333  1.00  0.00     0.037 A 
HETATM   29  C   UNL     1       0.798   7.449 -27.602  1.00  0.00     0.068 A 
HETATM   30  C   UNL     1       0.002   8.576 -27.785  1.00  0.00     0.037 A 
HETATM   31  C   UNL     1      -1.069   8.539 -28.684  1.00  0.00     0.011 A 
BRANCH  29  32
HETATM   32  O   UNL     1       1.861   7.344 -26.749  1.00  0.00    -0.356 OA
HETATM   33  C   UNL     1       1.886   8.232 -25.637  1.00  0.00     0.210 C 
ENDBRANCH  29  32
ENDBRANCH  25  26
ENDBRANCH   5  25
TORSDOF 6
ENDMDL
MODEL 6
REMARK VINA RESULT:      -7.8      2.153      7.608
REMARK  6 active torsions:
REMARK  status: ('A' for Active; 'I' for Inactive)
REMARK    1  A    between atoms: C_3  and  C_4 
REMARK    2  A    between atoms: C_14  and  N_15 
REMARK       I    between atoms: N_15  and  C_16 
REMARK    3  A    between atoms: C_16  and  C_17 
REMARK    4  A    between atoms: N_21  and  C_22 
REMARK    5  A    between atoms: C_22  and  C_23 
REMARK    6  A    between atoms: C_26  and  O_27 
ROOT
HETATM    1  C   UNL     1      -3.001   0.162 -33.121  1.00  0.00     0.051 C 
HETATM    2  C   UNL     1      -4.165   0.836 -32.476  1.00  0.00    -0.022 A 
HETATM    3  C   UNL     1      -4.266   2.199 -32.076  1.00  0.00     0.062 A 
HETATM    4  C   UNL     1      -5.480   2.387 -31.429  1.00  0.00     0.125 A 
HETATM    5  N   UNL     1      -6.171   1.190 -31.496  1.00  0.00    -0.332 N 
HETATM    6  C   UNL     1      -5.367   0.235 -32.122  1.00  0.00     0.017 A 
HETATM    7  C   UNL     1      -5.792  -1.191 -32.291  1.00  0.00     0.069 C 
ENDROOT
BRANCH   3   8
HETATM    8  C   UNL     1      -3.285   3.315 -32.279  1.00  0.00     0.143 A 
HETATM    9  N   UNL     1      -2.339   3.610 -31.400  1.00  0.00    -0.228 NA
HETATM   10  C   UNL     1      -1.748   4.761 -31.873  1.00  0.00     0.086 A 
HETATM   11  C   UNL     1      -2.309   5.143 -33.086  1.00  0.00     0.062 A 
HETATM   12  C   UNL     1      -0.734   5.551 -31.312  1.00  0.00     0.034 A 
HETATM   13  N   UNL     1      -3.264   4.193 -33.331  1.00  0.00    -0.338 N 
HETATM   14  C   UNL     1      -1.915   6.281 -33.793  1.00  0.00     0.032 A 
HETATM   15  H   UNL     1      -3.892   4.194 -34.119  1.00  0.00     0.167 HD
HETATM   16  C   UNL     1      -0.907   7.059 -33.216  1.00  0.00     0.002 A 
HETATM   17  C   UNL     1      -0.326   6.704 -31.996  1.00  0.00     0.002 A 
ENDBRANCH   3   8
BRANCH   4  18
HETATM   18  N   UNL     1      -5.742   3.599 -30.795  1.00  0.00    -0.312 N 
HETATM   19  C   UNL     1      -6.349   4.768 -31.324  1.00  0.00     0.226 C 
HETATM   20  O   UNL     1      -6.295   5.016 -32.517  1.00  0.00    -0.273 OA
HETATM   21  H   UNL     1      -5.342   3.655 -29.854  1.00  0.00     0.170 HD
BRANCH  19  22
HETATM   22  C   UNL     1      -7.041   5.669 -30.319  1.00  0.00     0.070 C 
HETATM   23  C   UNL     1      -8.338   6.185 -30.932  1.00  0.00     0.019 C 
HETATM   24  C   UNL     1      -7.282   4.990 -28.978  1.00  0.00     0.019 C 
ENDBRANCH  19  22
ENDBRANCH   4  18
BRANCH   5  25
HETATM   25  C   UNL     1      -7.492   0.874 -30.957  1.00  0.00     0.169 C 
BRANCH  25  26
HETATM   26  C   UNL     1      -8.668   1.313 -31.797  1.00  0.00    -0.040 A 
HETATM   27  C   UNL     1      -9.220   2.600 -31.782  1.00  0.00     0.011 A 
HETATM   28  C   UNL     1     -10.354   2.896 -32.547  1.00  0.00     0.037 A 
HETATM   29  C   UNL     1     -10.961   1.921 -33.338  1.00  0.00     0.068 A 
HETATM   30  C   UNL     1     -10.416   0.641 -33.372  1.00  0.00     0.037 A 
HETATM   31  C   UNL     1      -9.281   0.344 -32.611  1.00  0.00     0.011 A 
BRANCH  29  32
HETATM   32  O   UNL     1     -12.071   2.341 -34.017  1.00  0.00    -0.356 OA
HETATM   33  C   UNL     1     -12.710   1.390 -34.861  1.00  0.00     0.210 C 
ENDBRANCH  29  32
ENDBRANCH  25  26
ENDBRANCH   5  25
TORSDOF 6
ENDMDL
MODEL 7
REMARK VINA RESULT:      -7.7     16.806     17.928
REMARK  6 active torsions:
REMARK  status: ('A' for Active; 'I' for Inactive)
REMARK    1  A    between atoms: C_3  and  C_4 
REMARK    2  A    between atoms: C_14  and  N_15 
REMARK       I    between atoms: N_15  and  C_16 
REMARK    3  A    between atoms: C_16  and  C_17 
REMARK    4  A    between atoms: N_21  and  C_22 
REMARK    5  A    between atoms: C_22  and  C_23 
REMARK    6  A    between atoms: C_26  and  O_27 
ROOT
HETATM    1  C   UNL     1      -7.247 -16.335 -35.216  1.00  0.00     0.051 C 
HETATM    2  C   UNL     1      -6.310 -15.340 -35.813  1.00  0.00    -0.022 A 
HETATM    3  C   UNL     1      -6.490 -14.585 -37.007  1.00  0.00     0.062 A 
HETATM    4  C   UNL     1      -5.336 -13.852 -37.251  1.00  0.00     0.125 A 
HETATM    5  N   UNL     1      -4.478 -14.070 -36.189  1.00  0.00    -0.332 N 
HETATM    6  C   UNL     1      -5.062 -14.989 -35.314  1.00  0.00     0.017 A 
HETATM    7  C   UNL     1      -4.360 -15.496 -34.092  1.00  0.00     0.069 C 
ENDROOT
BRANCH   3   8
HETATM    8  C   UNL     1      -7.686 -14.522 -37.910  1.00  0.00     0.143 A 
HETATM    9  N   UNL     1      -7.914 -15.413 -38.863  1.00  0.00    -0.228 NA
HETATM   10  C   UNL     1      -9.011 -14.938 -39.549  1.00  0.00     0.086 A 
HETATM   11  C   UNL     1      -9.488 -13.768 -38.971  1.00  0.00     0.062 A 
HETATM   12  C   UNL     1      -9.650 -15.445 -40.690  1.00  0.00     0.034 A 
HETATM   13  N   UNL     1      -8.643 -13.542 -37.918  1.00  0.00    -0.338 N 
HETATM   14  C   UNL     1     -10.585 -13.057 -39.462  1.00  0.00     0.032 A 
HETATM   15  H   UNL     1      -8.683 -12.743 -37.305  1.00  0.00     0.167 HD
HETATM   16  C   UNL     1     -11.206 -13.573 -40.604  1.00  0.00     0.002 A 
HETATM   17  C   UNL     1     -10.748 -14.746 -41.211  1.00  0.00     0.002 A 
ENDBRANCH   3   8
BRANCH   4  18
HETATM   18  N   UNL     1      -5.202 -13.161 -38.453  1.00  0.00    -0.312 N 
HETATM   19  C   UNL     1      -4.793 -13.653 -39.721  1.00  0.00     0.226 C 
HETATM   20  O   UNL     1      -4.068 -14.630 -39.809  1.00  0.00    -0.273 OA
HETATM   21  H   UNL     1      -5.325 -12.149 -38.353  1.00  0.00     0.170 HD
BRANCH  19  22
HETATM   22  C   UNL     1      -5.300 -12.883 -40.925  1.00  0.00     0.070 C 
HETATM   23  C   UNL     1      -5.412 -13.839 -42.108  1.00  0.00     0.019 C 
HETATM   24  C   UNL     1      -6.613 -12.160 -40.659  1.00  0.00     0.019 C 
ENDBRANCH  19  22
ENDBRANCH   4  18
BRANCH   5  25
HETATM   25  C   UNL     1      -3.137 -13.529 -35.980  1.00  0.00     0.169 C 
BRANCH  25  26
HETATM   26  C   UNL     1      -2.116 -13.871 -37.040  1.00  0.00    -0.040 A 
HETATM   27  C   UNL     1      -1.505 -15.124 -37.179  1.00  0.00     0.011 A 
HETATM   28  C   UNL     1      -0.519 -15.329 -38.151  1.00  0.00     0.037 A 
HETATM   29  C   UNL     1      -0.122 -14.296 -39.001  1.00  0.00     0.068 A 
HETATM   30  C   UNL     1      -0.730 -13.050 -38.880  1.00  0.00     0.037 A 
HETATM   31  C   UNL     1      -1.718 -12.843 -37.912  1.00  0.00     0.011 A 
BRANCH  29  32
HETATM   32  O   UNL     1       0.863 -14.629 -39.889  1.00  0.00    -0.356 OA
HETATM   33  C   UNL     1       1.930 -15.432 -39.398  1.00  0.00     0.210 C 
ENDBRANCH  29  32
ENDBRANCH  25  26
ENDBRANCH   5  25
TORSDOF 6
ENDMDL
MODEL 8
REMARK VINA RESULT:      -7.6      3.524      6.191
REMARK  6 active torsions:
REMARK  status: ('A' for Active; 'I' for Inactive)
REMARK    1  A    between atoms: C_3  and  C_4 
REMARK    2  A    between atoms: C_14  and  N_15 
REMARK       I    between atoms: N_15  and  C_16 
REMARK    3  A    between atoms: C_16  and  C_17 
REMARK    4  A    between atoms: N_21  and  C_22 
REMARK    5  A    between atoms: C_22  and  C_23 
REMARK    6  A    between atoms: C_26  and  O_27 
ROOT
HETATM    1  C   UNL     1      -7.794   3.750 -29.459  1.00  0.00     0.051 C 
HETATM    2  C   UNL     1      -6.634   4.524 -29.987  1.00  0.00    -0.022 A 
HETATM    3  C   UNL     1      -5.737   4.144 -31.026  1.00  0.00     0.062 A 
HETATM    4  C   UNL     1      -4.744   5.108 -31.134  1.00  0.00     0.125 A 
HETATM    5  N   UNL     1      -5.054   6.120 -30.244  1.00  0.00    -0.332 N 
HETATM    6  C   UNL     1      -6.200   5.762 -29.530  1.00  0.00     0.017 A 
HETATM    7  C   UNL     1      -6.764   6.612 -28.434  1.00  0.00     0.069 C 
ENDROOT
BRANCH   3   8
HETATM    8  C   UNL     1      -5.779   2.933 -31.909  1.00  0.00     0.143 A 
HETATM    9  N   UNL     1      -6.294   2.951 -33.129  1.00  0.00    -0.228 NA
HETATM   10  C   UNL     1      -6.273   1.639 -33.552  1.00  0.00     0.086 A 
HETATM   11  C   UNL     1      -5.688   0.820 -32.595  1.00  0.00     0.062 A 
HETATM   12  C   UNL     1      -6.753   1.067 -34.739  1.00  0.00     0.034 A 
HETATM   13  N   UNL     1      -5.361   1.672 -31.574  1.00  0.00    -0.338 N 
HETATM   14  C   UNL     1      -5.542  -0.561 -32.746  1.00  0.00     0.032 A 
HETATM   15  H   UNL     1      -4.952   1.394 -30.697  1.00  0.00     0.167 HD
HETATM   16  C   UNL     1      -6.031  -1.116 -33.933  1.00  0.00     0.002 A 
HETATM   17  C   UNL     1      -6.628  -0.319 -34.914  1.00  0.00     0.002 A 
ENDBRANCH   3   8
BRANCH   4  18
HETATM   18  N   UNL     1      -3.651   4.880 -31.968  1.00  0.00    -0.312 N 
HETATM   19  C   UNL     1      -3.304   5.534 -33.179  1.00  0.00     0.226 C 
HETATM   20  O   UNL     1      -4.158   6.055 -33.877  1.00  0.00    -0.273 OA
HETATM   21  H   UNL     1      -3.101   4.060 -31.695  1.00  0.00     0.170 HD
BRANCH  19  22
HETATM   22  C   UNL     1      -1.830   5.526 -33.538  1.00  0.00     0.070 C 
HETATM   23  C   UNL     1      -1.678   5.053 -34.979  1.00  0.00     0.019 C 
HETATM   24  C   UNL     1      -1.155   6.872 -33.312  1.00  0.00     0.019 C 
ENDBRANCH  19  22
ENDBRANCH   4  18
BRANCH   5  25
HETATM   25  C   UNL     1      -4.315   7.353 -29.978  1.00  0.00     0.169 C 
BRANCH  25  26
HETATM   26  C   UNL     1      -3.097   7.213 -29.097  1.00  0.00    -0.040 A 
HETATM   27  C   UNL     1      -1.797   6.991 -29.568  1.00  0.00     0.011 A 
HETATM   28  C   UNL     1      -0.738   6.808 -28.670  1.00  0.00     0.037 A 
HETATM   29  C   UNL     1      -0.950   6.839 -27.292  1.00  0.00     0.068 A 
HETATM   30  C   UNL     1      -2.236   7.071 -26.811  1.00  0.00     0.037 A 
HETATM   31  C   UNL     1      -3.295   7.258 -27.706  1.00  0.00     0.011 A 
BRANCH  29  32
HETATM   32  O   UNL     1       0.167   6.626 -26.533  1.00  0.00    -0.356 OA
HETATM   33  C   UNL     1       1.335   7.359 -26.885  1.00  0.00     0.210 C 
ENDBRANCH  29  32
ENDBRANCH  25  26
ENDBRANCH   5  25
TORSDOF 6
ENDMDL
MODEL 9
REMARK VINA RESULT:      -7.0      4.102      7.650
REMARK  6 active torsions:
REMARK  status: ('A' for Active; 'I' for Inactive)
REMARK    1  A    between atoms: C_3  and  C_4 
REMARK    2  A    between atoms: C_14  and  N_15 
REMARK       I    between atoms: N_15  and  C_16 
REMARK    3  A    between atoms: C_16  and  C_17 
REMARK    4  A    between atoms: N_21  and  C_22 
REMARK    5  A    between atoms: C_22  and  C_23 
REMARK    6  A    between atoms: C_26  and  O_27 
ROOT
HETATM    1  C   UNL     1      -7.273   4.851 -32.031  1.00  0.00     0.051 C 
HETATM    2  C   UNL     1      -5.894   5.345 -31.750  1.00  0.00    -0.022 A 
HETATM    3  C   UNL     1      -4.711   4.570 -31.586  1.00  0.00     0.062 A 
HETATM    4  C   UNL     1      -3.666   5.417 -31.242  1.00  0.00     0.125 A 
HETATM    5  N   UNL     1      -4.156   6.709 -31.273  1.00  0.00    -0.332 N 
HETATM    6  C   UNL     1      -5.520   6.671 -31.570  1.00  0.00     0.017 A 
HETATM    7  C   UNL     1      -6.371   7.904 -31.612  1.00  0.00     0.069 C 
ENDROOT
BRANCH   3   8
HETATM    8  C   UNL     1      -4.526   3.090 -31.742  1.00  0.00     0.143 A 
HETATM    9  N   UNL     1      -3.699   2.385 -30.985  1.00  0.00    -0.228 NA
HETATM   10  C   UNL     1      -3.706   1.116 -31.522  1.00  0.00     0.086 A 
HETATM   11  C   UNL     1      -4.592   1.035 -32.589  1.00  0.00     0.062 A 
HETATM   12  C   UNL     1      -2.968  -0.020 -31.160  1.00  0.00     0.034 A 
HETATM   13  N   UNL     1      -5.116   2.296 -32.690  1.00  0.00    -0.338 N 
HETATM   14  C   UNL     1      -4.799  -0.128 -33.334  1.00  0.00     0.032 A 
HETATM   15  H   UNL     1      -5.769   2.597 -33.396  1.00  0.00     0.167 HD
HETATM   16  C   UNL     1      -4.050  -1.249 -32.963  1.00  0.00     0.002 A 
HETATM   17  C   UNL     1      -3.148  -1.200 -31.897  1.00  0.00     0.002 A 
ENDBRANCH   3   8
BRANCH   4  18
HETATM   18  N   UNL     1      -2.440   4.876 -30.861  1.00  0.00    -0.312 N 
HETATM   19  C   UNL     1      -1.133   5.268 -31.256  1.00  0.00     0.226 C 
HETATM   20  O   UNL     1      -0.942   5.820 -32.327  1.00  0.00    -0.273 OA
HETATM   21  H   UNL     1      -2.531   4.023 -30.302  1.00  0.00     0.170 HD
BRANCH  19  22
HETATM   22  C   UNL     1      -0.020   4.946 -30.277  1.00  0.00     0.070 C 
HETATM   23  C   UNL     1       1.301   4.891 -31.036  1.00  0.00     0.019 C 
HETATM   24  C   UNL     1       0.042   5.918 -29.106  1.00  0.00     0.019 C 
ENDBRANCH  19  22
ENDBRANCH   4  18
BRANCH   5  25
HETATM   25  C   UNL     1      -3.450   7.955 -30.981  1.00  0.00     0.169 C 
BRANCH  25  26
HETATM   26  C   UNL     1      -2.916   8.095 -29.575  1.00  0.00    -0.040 A 
HETATM   27  C   UNL     1      -3.421   7.413 -28.461  1.00  0.00     0.011 A 
HETATM   28  C   UNL     1      -2.905   7.658 -27.184  1.00  0.00     0.037 A 
HETATM   29  C   UNL     1      -1.881   8.585 -26.988  1.00  0.00     0.068 A 
HETATM   30  C   UNL     1      -1.363   9.262 -28.088  1.00  0.00     0.037 A 
HETATM   31  C   UNL     1      -1.874   9.016 -29.366  1.00  0.00     0.011 A 
BRANCH  29  32
HETATM   32  O   UNL     1      -1.486   8.740 -25.688  1.00  0.00    -0.356 OA
HETATM   33  C   UNL     1      -2.505   8.699 -24.695  1.00  0.00     0.210 C 
ENDBRANCH  29  32
ENDBRANCH  25  26
ENDBRANCH   5  25
TORSDOF 6
ENDMDL
MODEL 10
REMARK VINA RESULT:      -6.9      3.178      8.106
REMARK  6 active torsions:
REMARK  status: ('A' for Active; 'I' for Inactive)
REMARK    1  A    between atoms: C_3  and  C_4 
REMARK    2  A    between atoms: C_14  and  N_15 
REMARK       I    between atoms: N_15  and  C_16 
REMARK    3  A    between atoms: C_16  and  C_17 
REMARK    4  A    between atoms: N_21  and  C_22 
REMARK    5  A    between atoms: C_22  and  C_23 
REMARK    6  A    between atoms: C_26  and  O_27 
ROOT
HETATM    1  C   UNL     1      -8.070   6.340 -29.050  1.00  0.00     0.051 C 
HETATM    2  C   UNL     1      -7.533   5.331 -30.009  1.00  0.00    -0.022 A 
HETATM    3  C   UNL     1      -6.206   5.239 -30.518  1.00  0.00     0.062 A 
HETATM    4  C   UNL     1      -6.158   4.216 -31.456  1.00  0.00     0.125 A 
HETATM    5  N   UNL     1      -7.404   3.616 -31.476  1.00  0.00    -0.332 N 
HETATM    6  C   UNL     1      -8.252   4.303 -30.604  1.00  0.00     0.017 A 
HETATM    7  C   UNL     1      -9.699   3.949 -30.442  1.00  0.00     0.069 C 
ENDROOT
BRANCH   3   8
HETATM    8  C   UNL     1      -5.001   6.056 -30.161  1.00  0.00     0.143 A 
HETATM    9  N   UNL     1      -4.313   6.751 -31.055  1.00  0.00    -0.228 NA
HETATM   10  C   UNL     1      -3.220   7.240 -30.372  1.00  0.00     0.086 A 
HETATM   11  C   UNL     1      -3.272   6.879 -29.032  1.00  0.00     0.062 A 
HETATM   12  C   UNL     1      -2.128   7.988 -30.836  1.00  0.00     0.034 A 
HETATM   13  N   UNL     1      -4.425   6.151 -28.921  1.00  0.00    -0.338 N 
HETATM   14  C   UNL     1      -2.289   7.226 -28.101  1.00  0.00     0.032 A 
HETATM   15  H   UNL     1      -4.747   5.699 -28.080  1.00  0.00     0.167 HD
HETATM   16  C   UNL     1      -1.205   7.966 -28.582  1.00  0.00     0.002 A 
HETATM   17  C   UNL     1      -1.122   8.341 -29.926  1.00  0.00     0.002 A 
ENDBRANCH   3   8
BRANCH   4  18
HETATM   18  N   UNL     1      -5.008   4.038 -32.222  1.00  0.00    -0.312 N 
HETATM   19  C   UNL     1      -4.739   4.487 -33.542  1.00  0.00     0.226 C 
HETATM   20  O   UNL     1      -5.645   4.681 -34.334  1.00  0.00    -0.273 OA
HETATM   21  H   UNL     1      -4.325   3.412 -31.784  1.00  0.00     0.170 HD
BRANCH  19  22
HETATM   22  C   UNL     1      -3.276   4.690 -33.887  1.00  0.00     0.070 C 
HETATM   23  C   UNL     1      -3.067   6.140 -34.312  1.00  0.00     0.019 C 
HETATM   24  C   UNL     1      -2.337   4.294 -32.756  1.00  0.00     0.019 C 
ENDBRANCH  19  22
ENDBRANCH   4  18
BRANCH   5  25
HETATM   25  C   UNL     1      -7.861   2.499 -32.300  1.00  0.00     0.169 C 
BRANCH  25  26
HETATM   26  C   UNL     1      -6.925   1.317 -32.383  1.00  0.00    -0.040 A 
HETATM   27  C   UNL     1      -6.520   0.544 -31.287  1.00  0.00     0.011 A 
HETATM   28  C   UNL     1      -5.595  -0.493 -31.452  1.00  0.00     0.037 A 
HETATM   29  C   UNL     1      -5.053  -0.781 -32.705  1.00  0.00     0.068 A 
HETATM   30  C   UNL     1      -5.456  -0.028 -33.804  1.00  0.00     0.037 A 
HETATM   31  C   UNL     1      -6.383   1.007 -33.643  1.00  0.00     0.011 A 
BRANCH  29  32
HETATM   32  O   UNL     1      -4.148  -1.805 -32.719  1.00  0.00    -0.356 OA
HETATM   33  C   UNL     1      -4.314  -2.798 -33.725  1.00  0.00     0.210 C 
ENDBRANCH  29  32
ENDBRANCH  25  26
ENDBRANCH   5  25
TORSDOF 6
ENDMDL
