MODEL 1
REMARK VINA RESULT:      -6.8      0.000      0.000
REMARK  2 active torsions:
REMARK  status: ('A' for Active; 'I' for Inactive)
REMARK    1  A    between atoms: N_6  and  C_7 
REMARK    2  A    between atoms: C_11  and  N_12 
ROOT
HETATM    1  C   UNL     1      -5.972  -0.560 -33.688  1.00  0.00     0.048 A 
HETATM    2  C   UNL     1      -4.749  -1.267 -33.575  1.00  0.00     0.040 A 
HETATM    3 BR   UNL     1      -3.200  -0.451 -32.815  1.00  0.00    -0.049 Br
HETATM    4  C   UNL     1      -4.633  -2.606 -33.962  1.00  0.00     0.057 A 
HETATM    5  C   UNL     1      -5.753  -3.266 -34.473  1.00  0.00     0.104 A 
HETATM    6  C   UNL     1      -6.975  -2.597 -34.597  1.00  0.00     0.038 A 
HETATM    7  C   UNL     1      -7.077  -1.255 -34.208  1.00  0.00     0.033 A 
ENDROOT
BRANCH   1   8
HETATM    8  N   UNL     1      -6.065   0.784 -33.297  1.00  0.00    -0.377 N 
HETATM    9  C   UNL     1      -6.628   1.670 -34.338  1.00  0.00     0.150 C 
HETATM   10  C   UNL     1      -6.259   3.134 -34.017  1.00  0.00     0.254 C 
HETATM   11  N   UNL     1      -6.718   3.511 -32.604  1.00  0.00    -0.072 N 
HETATM   12  C   UNL     1      -6.360   4.928 -32.266  1.00  0.00     0.269 C 
HETATM   13  H   UNL     1      -7.742   3.435 -32.588  1.00  0.00     0.279 HD
HETATM   14  C   UNL     1      -6.172   2.527 -31.563  1.00  0.00     0.254 C 
HETATM   15  C   UNL     1      -6.545   1.074 -31.935  1.00  0.00     0.150 C 
ENDBRANCH   1   8
BRANCH   5  16
HETATM   16  N   UNL     1      -5.648  -4.674 -34.877  1.00  0.00    -0.116 N 
HETATM   17  O   UNL     1      -4.779  -5.365 -34.328  1.00  0.00    -0.532 OA
HETATM   18  O   UNL     1      -6.434  -5.080 -35.744  1.00  0.00    -0.532 OA
ENDBRANCH   5  16
TORSDOF 2
ENDMDL
MODEL 2
REMARK VINA RESULT:      -6.5      1.778      2.298
REMARK  2 active torsions:
REMARK  status: ('A' for Active; 'I' for Inactive)
REMARK    1  A    between atoms: N_6  and  C_7 
REMARK    2  A    between atoms: C_11  and  N_12 
ROOT
HETATM    1  C   UNL     1      -5.089  -0.695 -33.358  1.00  0.00     0.048 A 
HETATM    2  C   UNL     1      -6.112  -0.967 -34.300  1.00  0.00     0.040 A 
HETATM    3 BR   UNL     1      -7.244   0.419 -34.960  1.00  0.00    -0.049 Br
HETATM    4  C   UNL     1      -6.306  -2.248 -34.827  1.00  0.00     0.057 A 
HETATM    5  C   UNL     1      -5.468  -3.287 -34.418  1.00  0.00     0.104 A 
HETATM    6  C   UNL     1      -4.447  -3.051 -33.490  1.00  0.00     0.038 A 
HETATM    7  C   UNL     1      -4.265  -1.765 -32.968  1.00  0.00     0.033 A 
ENDROOT
BRANCH   1   8
HETATM    8  N   UNL     1      -4.914   0.597 -32.839  1.00  0.00    -0.377 N 
HETATM    9  C   UNL     1      -5.917   0.968 -31.818  1.00  0.00     0.150 C 
HETATM   10  C   UNL     1      -5.943   2.503 -31.663  1.00  0.00     0.254 C 
HETATM   11  N   UNL     1      -4.542   3.040 -31.344  1.00  0.00    -0.072 N 
HETATM   12  C   UNL     1      -4.542   4.533 -31.200  1.00  0.00     0.269 C 
HETATM   13  H   UNL     1      -4.263   2.638 -30.441  1.00  0.00     0.279 HD
HETATM   14  C   UNL     1      -3.520   2.573 -32.386  1.00  0.00     0.254 C 
HETATM   15  C   UNL     1      -3.544   1.034 -32.524  1.00  0.00     0.150 C 
ENDBRANCH   1   8
BRANCH   5  16
HETATM   16  N   UNL     1      -5.656  -4.635 -34.969  1.00  0.00    -0.116 N 
HETATM   17  O   UNL     1      -4.859  -5.515 -34.618  1.00  0.00    -0.532 OA
HETATM   18  O   UNL     1      -6.600  -4.806 -35.754  1.00  0.00    -0.532 OA
ENDBRANCH   5  16
TORSDOF 2
ENDMDL
MODEL 3
REMARK VINA RESULT:      -6.3      3.724      4.573
REMARK  2 active torsions:
REMARK  status: ('A' for Active; 'I' for Inactive)
REMARK    1  A    between atoms: N_6  and  C_7 
REMARK    2  A    between atoms: C_11  and  N_12 
ROOT
HETATM    1  C   UNL     1      -7.353   0.655 -32.327  1.00  0.00     0.048 A 
HETATM    2  C   UNL     1      -6.514   0.180 -33.365  1.00  0.00     0.040 A 
HETATM    3 BR   UNL     1      -7.072   0.226 -35.189  1.00  0.00    -0.049 Br
HETATM    4  C   UNL     1      -5.223  -0.295 -33.110  1.00  0.00     0.057 A 
HETATM    5  C   UNL     1      -4.746  -0.299 -31.798  1.00  0.00     0.104 A 
HETATM    6  C   UNL     1      -5.549   0.166 -30.750  1.00  0.00     0.038 A 
HETATM    7  C   UNL     1      -6.841   0.636 -31.019  1.00  0.00     0.033 A 
ENDROOT
BRANCH   1   8
HETATM    8  N   UNL     1      -8.646   1.124 -32.605  1.00  0.00    -0.377 N 
HETATM    9  C   UNL     1      -9.677   0.064 -32.598  1.00  0.00     0.150 C 
HETATM   10  C   UNL     1     -10.927   0.562 -33.355  1.00  0.00     0.254 C 
HETATM   11  N   UNL     1     -11.428   1.884 -32.762  1.00  0.00    -0.072 N 
HETATM   12  C   UNL     1     -12.637   2.393 -33.490  1.00  0.00     0.269 C 
HETATM   13  H   UNL     1     -11.705   1.695 -31.791  1.00  0.00     0.279 HD
HETATM   14  C   UNL     1     -10.311   2.932 -32.721  1.00  0.00     0.254 C 
HETATM   15  C   UNL     1      -9.073   2.384 -31.975  1.00  0.00     0.150 C 
ENDBRANCH   1   8
BRANCH   5  16
HETATM   16  N   UNL     1      -3.390  -0.787 -31.517  1.00  0.00    -0.116 N 
HETATM   17  O   UNL     1      -2.566   0.027 -31.080  1.00  0.00    -0.532 OA
HETATM   18  O   UNL     1      -3.157  -1.984 -31.736  1.00  0.00    -0.532 OA
ENDBRANCH   5  16
TORSDOF 2
ENDMDL
MODEL 4
REMARK VINA RESULT:      -6.0      2.346      3.222
REMARK  2 active torsions:
REMARK  status: ('A' for Active; 'I' for Inactive)
REMARK    1  A    between atoms: N_6  and  C_7 
REMARK    2  A    between atoms: C_11  and  N_12 
ROOT
HETATM    1  C   UNL     1      -4.389   0.482 -32.102  1.00  0.00     0.048 A 
HETATM    2  C   UNL     1      -5.204   0.029 -33.169  1.00  0.00     0.040 A 
HETATM    3 BR   UNL     1      -6.458   1.190 -34.018  1.00  0.00    -0.049 Br
HETATM    4  C   UNL     1      -5.092  -1.266 -33.684  1.00  0.00     0.057 A 
HETATM    5  C   UNL     1      -4.150  -2.138 -33.134  1.00  0.00     0.104 A 
HETATM    6  C   UNL     1      -3.329  -1.722 -32.081  1.00  0.00     0.038 A 
HETATM    7  C   UNL     1      -3.453  -0.423 -31.572  1.00  0.00     0.033 A 
ENDROOT
BRANCH   1   8
HETATM    8  N   UNL     1      -4.521   1.785 -31.599  1.00  0.00    -0.377 N 
HETATM    9  C   UNL     1      -5.337   1.868 -30.369  1.00  0.00     0.150 C 
HETATM   10  C   UNL     1      -5.812   3.323 -30.168  1.00  0.00     0.254 C 
HETATM   11  N   UNL     1      -4.618   4.285 -30.156  1.00  0.00    -0.072 N 
HETATM   12  C   UNL     1      -5.058   5.707 -29.973  1.00  0.00     0.269 C 
HETATM   13  H   UNL     1      -4.034   4.032 -29.350  1.00  0.00     0.279 HD
HETATM   14  C   UNL     1      -3.758   4.117 -31.413  1.00  0.00     0.254 C 
HETATM   15  C   UNL     1      -3.324   2.643 -31.586  1.00  0.00     0.150 C 
ENDBRANCH   1   8
BRANCH   5  16
HETATM   16  N   UNL     1      -4.016  -3.499 -33.670  1.00  0.00    -0.116 N 
HETATM   17  O   UNL     1      -4.677  -3.787 -34.677  1.00  0.00    -0.532 OA
HETATM   18  O   UNL     1      -3.252  -4.274 -33.079  1.00  0.00    -0.532 OA
ENDBRANCH   5  16
TORSDOF 2
ENDMDL
MODEL 5
REMARK VINA RESULT:      -5.8      2.280      3.077
REMARK  2 active torsions:
REMARK  status: ('A' for Active; 'I' for Inactive)
REMARK    1  A    between atoms: N_6  and  C_7 
REMARK    2  A    between atoms: C_11  and  N_12 
ROOT
HETATM    1  C   UNL     1      -4.582   0.735 -32.558  1.00  0.00     0.048 A 
HETATM    2  C   UNL     1      -5.221  -0.254 -33.348  1.00  0.00     0.040 A 
HETATM    3 BR   UNL     1      -6.629   0.199 -34.553  1.00  0.00    -0.049 Br
HETATM    4  C   UNL     1      -4.817  -1.592 -33.322  1.00  0.00     0.057 A 
HETATM    5  C   UNL     1      -3.753  -1.966 -32.498  1.00  0.00     0.104 A 
HETATM    6  C   UNL     1      -3.101  -1.015 -31.706  1.00  0.00     0.038 A 
HETATM    7  C   UNL     1      -3.517   0.322 -31.740  1.00  0.00     0.033 A 
ENDROOT
BRANCH   1   8
HETATM    8  N   UNL     1      -5.007   2.072 -32.597  1.00  0.00    -0.377 N 
HETATM    9  C   UNL     1      -6.154   2.357 -31.710  1.00  0.00     0.150 C 
HETATM   10  C   UNL     1      -6.832   3.669 -32.158  1.00  0.00     0.254 C 
HETATM   11  N   UNL     1      -5.815   4.816 -32.204  1.00  0.00    -0.072 N 
HETATM   12  C   UNL     1      -6.450   6.100 -32.648  1.00  0.00     0.269 C 
HETATM   13  H   UNL     1      -5.470   4.953 -31.246  1.00  0.00     0.279 HD
HETATM   14  C   UNL     1      -4.608   4.452 -33.075  1.00  0.00     0.254 C 
HETATM   15  C   UNL     1      -3.975   3.122 -32.605  1.00  0.00     0.150 C 
ENDBRANCH   1   8
BRANCH   5  16
HETATM   16  N   UNL     1      -3.313  -3.367 -32.466  1.00  0.00    -0.116 N 
HETATM   17  O   UNL     1      -2.745  -3.767 -31.442  1.00  0.00    -0.532 OA
HETATM   18  O   UNL     1      -3.538  -4.059 -33.469  1.00  0.00    -0.532 OA
ENDBRANCH   5  16
TORSDOF 2
ENDMDL
MODEL 6
REMARK VINA RESULT:      -5.8      1.892      2.142
REMARK  2 active torsions:
REMARK  status: ('A' for Active; 'I' for Inactive)
REMARK    1  A    between atoms: N_6  and  C_7 
REMARK    2  A    between atoms: C_11  and  N_12 
ROOT
HETATM    1  C   UNL     1      -6.972   0.267 -32.994  1.00  0.00     0.048 A 
HETATM    2  C   UNL     1      -5.785  -0.305 -32.471  1.00  0.00     0.040 A 
HETATM    3 BR   UNL     1      -4.942   0.410 -30.917  1.00  0.00    -0.049 Br
HETATM    4  C   UNL     1      -5.207  -1.447 -33.036  1.00  0.00     0.057 A 
HETATM    5  C   UNL     1      -5.816  -2.042 -34.142  1.00  0.00     0.104 A 
HETATM    6  C   UNL     1      -6.989  -1.503 -34.681  1.00  0.00     0.038 A 
HETATM    7  C   UNL     1      -7.556  -0.358 -34.109  1.00  0.00     0.033 A 
ENDROOT
BRANCH   1   8
HETATM    8  N   UNL     1      -7.533   1.415 -32.414  1.00  0.00    -0.377 N 
HETATM    9  C   UNL     1      -7.240   2.659 -33.157  1.00  0.00     0.150 C 
HETATM   10  C   UNL     1      -7.472   3.873 -32.231  1.00  0.00     0.254 C 
HETATM   11  N   UNL     1      -8.890   3.846 -31.649  1.00  0.00    -0.072 N 
HETATM   12  C   UNL     1      -9.134   5.012 -30.737  1.00  0.00     0.269 C 
HETATM   13  H   UNL     1      -9.543   3.925 -32.438  1.00  0.00     0.279 HD
HETATM   14  C   UNL     1      -9.178   2.512 -30.950  1.00  0.00     0.254 C 
HETATM   15  C   UNL     1      -8.912   1.327 -31.905  1.00  0.00     0.150 C 
ENDBRANCH   1   8
BRANCH   5  16
HETATM   16  N   UNL     1      -5.224  -3.246 -34.740  1.00  0.00    -0.116 N 
HETATM   17  O   UNL     1      -5.958  -3.964 -35.432  1.00  0.00    -0.532 OA
HETATM   18  O   UNL     1      -4.026  -3.468 -34.512  1.00  0.00    -0.532 OA
ENDBRANCH   5  16
TORSDOF 2
ENDMDL
MODEL 7
REMARK VINA RESULT:      -5.8      2.820      3.077
REMARK  2 active torsions:
REMARK  status: ('A' for Active; 'I' for Inactive)
REMARK    1  A    between atoms: N_6  and  C_7 
REMARK    2  A    between atoms: C_11  and  N_12 
ROOT
HETATM    1  C   UNL     1      -7.394   0.236 -33.508  1.00  0.00     0.048 A 
HETATM    2  C   UNL     1      -6.486   0.051 -32.436  1.00  0.00     0.040 A 
HETATM    3 BR   UNL     1      -6.642   1.052 -30.820  1.00  0.00    -0.049 Br
HETATM    4  C   UNL     1      -5.468  -0.908 -32.491  1.00  0.00     0.057 A 
HETATM    5  C   UNL     1      -5.345  -1.706 -33.630  1.00  0.00     0.104 A 
HETATM    6  C   UNL     1      -6.227  -1.548 -34.705  1.00  0.00     0.038 A 
HETATM    7  C   UNL     1      -7.240  -0.583 -34.639  1.00  0.00     0.033 A 
ENDROOT
BRANCH   1   8
HETATM    8  N   UNL     1      -8.405   1.206 -33.433  1.00  0.00    -0.377 N 
HETATM    9  C   UNL     1      -7.997   2.532 -33.946  1.00  0.00     0.150 C 
HETATM   10  C   UNL     1      -8.961   3.608 -33.404  1.00  0.00     0.254 C 
HETATM   11  N   UNL     1     -10.413   3.258 -33.750  1.00  0.00    -0.072 N 
HETATM   12  C   UNL     1     -11.370   4.286 -33.223  1.00  0.00     0.269 C 
HETATM   13  H   UNL     1     -10.489   3.257 -34.774  1.00  0.00     0.279 HD
HETATM   14  C   UNL     1     -10.774   1.849 -33.265  1.00  0.00     0.254 C 
HETATM   15  C   UNL     1      -9.771   0.809 -33.813  1.00  0.00     0.150 C 
ENDBRANCH   1   8
BRANCH   5  16
HETATM   16  N   UNL     1      -4.286  -2.721 -33.698  1.00  0.00    -0.116 N 
HETATM   17  O   UNL     1      -3.540  -2.838 -32.717  1.00  0.00    -0.532 OA
HETATM   18  O   UNL     1      -4.205  -3.395 -34.734  1.00  0.00    -0.532 OA
ENDBRANCH   5  16
TORSDOF 2
ENDMDL
MODEL 8
REMARK VINA RESULT:      -5.6      8.576     10.308
REMARK  2 active torsions:
REMARK  status: ('A' for Active; 'I' for Inactive)
REMARK    1  A    between atoms: N_6  and  C_7 
REMARK    2  A    between atoms: C_11  and  N_12 
ROOT
HETATM    1  C   UNL     1      -0.988   7.158 -30.644  1.00  0.00     0.048 A 
HETATM    2  C   UNL     1      -1.871   7.915 -31.453  1.00  0.00     0.040 A 
HETATM    3 BR   UNL     1      -2.524   9.616 -30.886  1.00  0.00    -0.049 Br
HETATM    4  C   UNL     1      -2.263   7.479 -32.723  1.00  0.00     0.057 A 
HETATM    5  C   UNL     1      -1.769   6.266 -33.209  1.00  0.00     0.104 A 
HETATM    6  C   UNL     1      -0.895   5.496 -32.435  1.00  0.00     0.038 A 
HETATM    7  C   UNL     1      -0.513   5.942 -31.163  1.00  0.00     0.033 A 
ENDROOT
BRANCH   1   8
HETATM    8  N   UNL     1      -0.612   7.613 -29.370  1.00  0.00    -0.377 N 
HETATM    9  C   UNL     1      -1.527   7.186 -28.291  1.00  0.00     0.150 C 
HETATM   10  C   UNL     1      -1.320   8.090 -27.058  1.00  0.00     0.254 C 
HETATM   11  N   UNL     1       0.151   8.088 -26.626  1.00  0.00    -0.072 N 
HETATM   12  C   UNL     1       0.378   8.969 -25.434  1.00  0.00     0.269 C 
HETATM   13  H   UNL     1       0.385   7.125 -26.352  1.00  0.00     0.279 HD
HETATM   14  C   UNL     1       1.072   8.465 -27.792  1.00  0.00     0.254 C 
HETATM   15  C   UNL     1       0.815   7.550 -29.010  1.00  0.00     0.150 C 
ENDBRANCH   1   8
BRANCH   5  16
HETATM   16  N   UNL     1      -2.166   5.800 -34.544  1.00  0.00    -0.116 N 
HETATM   17  O   UNL     1      -1.295   5.279 -35.252  1.00  0.00    -0.532 OA
HETATM   18  O   UNL     1      -3.348   5.961 -34.877  1.00  0.00    -0.532 OA
ENDBRANCH   5  16
TORSDOF 2
ENDMDL
MODEL 9
REMARK VINA RESULT:      -5.6      4.014      6.255
REMARK  2 active torsions:
REMARK  status: ('A' for Active; 'I' for Inactive)
REMARK    1  A    between atoms: N_6  and  C_7 
REMARK    2  A    between atoms: C_11  and  N_12 
ROOT
HETATM    1  C   UNL     1      -7.221  -0.360 -33.596  1.00  0.00     0.048 A 
HETATM    2  C   UNL     1      -7.457   0.313 -32.371  1.00  0.00     0.040 A 
HETATM    3 BR   UNL     1      -6.450  -0.100 -30.804  1.00  0.00    -0.049 Br
HETATM    4  C   UNL     1      -8.396   1.344 -32.266  1.00  0.00     0.057 A 
HETATM    5  C   UNL     1      -9.121   1.723 -33.398  1.00  0.00     0.104 A 
HETATM    6  C   UNL     1      -8.911   1.078 -34.623  1.00  0.00     0.038 A 
HETATM    7  C   UNL     1      -7.970   0.046 -34.714  1.00  0.00     0.033 A 
ENDROOT
BRANCH   1   8
HETATM    8  N   UNL     1      -6.276  -1.395 -33.677  1.00  0.00    -0.377 N 
HETATM    9  C   UNL     1      -6.598  -2.415 -34.698  1.00  0.00     0.150 C 
HETATM   10  C   UNL     1      -5.804  -3.704 -34.399  1.00  0.00     0.254 C 
HETATM   11  N   UNL     1      -4.302  -3.406 -34.308  1.00  0.00    -0.072 N 
HETATM   12  C   UNL     1      -3.511  -4.644 -34.008  1.00  0.00     0.269 C 
HETATM   13  H   UNL     1      -4.006  -3.061 -35.229  1.00  0.00     0.279 HD
HETATM   14  C   UNL     1      -4.019  -2.294 -33.293  1.00  0.00     0.254 C 
HETATM   15  C   UNL     1      -4.851  -1.032 -33.617  1.00  0.00     0.150 C 
ENDBRANCH   1   8
BRANCH   5  16
HETATM   16  N   UNL     1     -10.105   2.809 -33.304  1.00  0.00    -0.116 N 
HETATM   17  O   UNL     1      -9.690   3.970 -33.414  1.00  0.00    -0.532 OA
HETATM   18  O   UNL     1     -11.288   2.493 -33.118  1.00  0.00    -0.532 OA
ENDBRANCH   5  16
TORSDOF 2
ENDMDL
MODEL 10
REMARK VINA RESULT:      -5.5      9.146     11.449
REMARK  2 active torsions:
REMARK  status: ('A' for Active; 'I' for Inactive)
REMARK    1  A    between atoms: N_6  and  C_7 
REMARK    2  A    between atoms: C_11  and  N_12 
ROOT
HETATM    1  C   UNL     1      -0.865   7.019 -29.843  1.00  0.00     0.048 A 
HETATM    2  C   UNL     1      -1.822   7.351 -28.852  1.00  0.00     0.040 A 
HETATM    3 BR   UNL     1      -3.688   7.086 -29.149  1.00  0.00    -0.049 Br
HETATM    4  C   UNL     1      -1.444   7.836 -27.596  1.00  0.00     0.057 A 
HETATM    5  C   UNL     1      -0.086   7.996 -27.309  1.00  0.00     0.104 A 
HETATM    6  C   UNL     1       0.884   7.676 -28.265  1.00  0.00     0.038 A 
HETATM    7  C   UNL     1       0.492   7.193 -29.520  1.00  0.00     0.033 A 
ENDROOT
BRANCH   1   8
HETATM    8  N   UNL     1      -1.266   6.537 -31.099  1.00  0.00    -0.377 N 
HETATM    9  C   UNL     1      -1.017   7.483 -32.207  1.00  0.00     0.150 C 
HETATM   10  C   UNL     1      -1.890   7.092 -33.418  1.00  0.00     0.254 C 
HETATM   11  N   UNL     1      -1.643   5.632 -33.815  1.00  0.00    -0.072 N 
HETATM   12  C   UNL     1      -2.490   5.227 -34.985  1.00  0.00     0.269 C 
HETATM   13  H   UNL     1      -0.659   5.558 -34.101  1.00  0.00     0.279 HD
HETATM   14  C   UNL     1      -1.842   4.691 -32.621  1.00  0.00     0.254 C 
HETATM   15  C   UNL     1      -0.967   5.133 -31.426  1.00  0.00     0.150 C 
ENDBRANCH   1   8
BRANCH   5  16
HETATM   16  N   UNL     1       0.325   8.498 -25.991  1.00  0.00    -0.116 N 
HETATM   17  O   UNL     1       1.467   8.220 -25.602  1.00  0.00    -0.532 OA
HETATM   18  O   UNL     1      -0.499   9.165 -25.351  1.00  0.00    -0.532 OA
ENDBRANCH   5  16
TORSDOF 2
ENDMDL
