MODEL 1
REMARK VINA RESULT:      -8.9      0.000      0.000
REMARK  5 active torsions:
REMARK  status: ('A' for Active; 'I' for Inactive)
REMARK    1  A    between atoms: O_2  and  C_3 
REMARK    2  A    between atoms: C_4  and  C_5 
REMARK    3  A    between atoms: C_9  and  N_10 
REMARK       I    between atoms: N_10  and  C_11 
REMARK    4  A    between atoms: C_11  and  C_12 
REMARK    5  A    between atoms: C_12  and  C_13 
ROOT
HETATM    1  C   UNL     1      -4.442   1.587 -31.985  1.00  0.00     0.093 A 
HETATM    2  N   UNL     1      -5.070   2.075 -30.904  1.00  0.00    -0.172 NA
HETATM    3  N   UNL     1      -4.312   3.118 -30.520  1.00  0.00    -0.262 N 
HETATM    4  H   UNL     1      -4.583   3.665 -29.707  1.00  0.00     0.191 HD
HETATM    5  C   UNL     1      -3.245   3.353 -31.346  1.00  0.00     0.126 A 
HETATM    6  C   UNL     1      -3.282   2.356 -32.288  1.00  0.00     0.084 A 
ENDROOT
BRANCH   5   7
HETATM    7  N   UNL     1      -2.376   4.415 -31.221  1.00  0.00    -0.311 N 
HETATM    8  C   UNL     1      -2.797   5.722 -31.372  1.00  0.00     0.236 C 
HETATM    9  O   UNL     1      -3.959   6.091 -31.504  1.00  0.00    -0.272 OA
HETATM   10  H   UNL     1      -1.388   4.222 -31.122  1.00  0.00     0.170 HD
BRANCH   8  11
HETATM   11  C   UNL     1      -1.663   6.715 -31.422  1.00  0.00     0.068 A 
HETATM   12  C   UNL     1      -0.871   6.813 -32.724  1.00  0.00     0.026 A 
HETATM   13  C   UNL     1      -1.802   7.921 -32.349  1.00  0.00     0.026 A 
BRANCH  11  14
HETATM   14  C   UNL     1      -0.885   6.870 -30.117  1.00  0.00    -0.040 A 
HETATM   15  C   UNL     1      -1.003   8.041 -29.346  1.00  0.00     0.010 A 
HETATM   16  C   UNL     1      -0.260   8.224 -28.175  1.00  0.00     0.024 A 
HETATM   17  C   UNL     1       0.620   7.232 -27.757  1.00  0.00     0.034 A 
HETATM   18 CL   UNL     1       1.546   7.456 -26.325  1.00  0.00    -0.084 Cl
HETATM   19  C   UNL     1       0.760   6.062 -28.496  1.00  0.00     0.024 A 
HETATM   20  C   UNL     1       0.013   5.885 -29.665  1.00  0.00     0.010 A 
ENDBRANCH  11  14
ENDBRANCH   8  11
ENDBRANCH   5   7
BRANCH   1  21
HETATM   21  C   UNL     1      -4.976   0.470 -32.762  1.00  0.00     0.029 A 
HETATM   22  C   UNL     1      -4.423  -0.820 -32.716  1.00  0.00     0.081 A 
HETATM   23  C   UNL     1      -4.955  -1.853 -33.496  1.00  0.00     0.039 A 
HETATM   24  C   UNL     1      -6.066  -1.615 -34.306  1.00  0.00     0.026 A 
HETATM   25  C   UNL     1      -6.630  -0.343 -34.343  1.00  0.00     0.035 A 
HETATM   26  C   UNL     1      -6.093   0.696 -33.583  1.00  0.00     0.040 A 
HETATM   27 CL   UNL     1      -7.997  -0.045 -35.346  1.00  0.00    -0.084 Cl
BRANCH  22  28
HETATM   28  O   UNL     1      -3.290  -1.080 -31.988  1.00  0.00    -0.355 OA
HETATM   29  C   UNL     1      -3.025  -2.484 -31.971  1.00  0.00     0.210 C 
ENDBRANCH  22  28
ENDBRANCH   1  21
TORSDOF 5
ENDMDL
MODEL 2
REMARK VINA RESULT:      -8.8      1.534      2.087
REMARK  5 active torsions:
REMARK  status: ('A' for Active; 'I' for Inactive)
REMARK    1  A    between atoms: O_2  and  C_3 
REMARK    2  A    between atoms: C_4  and  C_5 
REMARK    3  A    between atoms: C_9  and  N_10 
REMARK       I    between atoms: N_10  and  C_11 
REMARK    4  A    between atoms: C_11  and  C_12 
REMARK    5  A    between atoms: C_12  and  C_13 
ROOT
HETATM    1  C   UNL     1      -4.798   1.491 -31.997  1.00  0.00     0.093 A 
HETATM    2  N   UNL     1      -5.276   1.958 -30.832  1.00  0.00    -0.172 NA
HETATM    3  N   UNL     1      -4.426   2.945 -30.495  1.00  0.00    -0.262 N 
HETATM    4  H   UNL     1      -4.577   3.468 -29.636  1.00  0.00     0.191 HD
HETATM    5  C   UNL     1      -3.447   3.167 -31.426  1.00  0.00     0.126 A 
HETATM    6  C   UNL     1      -3.640   2.217 -32.397  1.00  0.00     0.084 A 
ENDROOT
BRANCH   5   7
HETATM    7  N   UNL     1      -2.514   4.179 -31.357  1.00  0.00    -0.311 N 
HETATM    8  C   UNL     1      -2.880   5.510 -31.408  1.00  0.00     0.236 C 
HETATM    9  O   UNL     1      -4.028   5.940 -31.396  1.00  0.00    -0.272 OA
HETATM   10  H   UNL     1      -1.533   3.935 -31.377  1.00  0.00     0.170 HD
BRANCH   8  11
HETATM   11  C   UNL     1      -1.707   6.449 -31.546  1.00  0.00     0.068 A 
HETATM   12  C   UNL     1      -0.930   6.416 -32.860  1.00  0.00     0.026 A 
HETATM   13  C   UNL     1      -1.811   7.586 -32.559  1.00  0.00     0.026 A 
BRANCH  11  14
HETATM   14  C   UNL     1      -0.906   6.669 -30.264  1.00  0.00    -0.040 A 
HETATM   15  C   UNL     1      -0.916   7.919 -29.618  1.00  0.00     0.010 A 
HETATM   16  C   UNL     1      -0.148   8.157 -28.474  1.00  0.00     0.024 A 
HETATM   17  C   UNL     1       0.648   7.141 -27.956  1.00  0.00     0.034 A 
HETATM   18 CL   UNL     1       1.604   7.430 -26.555  1.00  0.00    -0.084 Cl
HETATM   19  C   UNL     1       0.679   5.893 -28.571  1.00  0.00     0.024 A 
HETATM   20  C   UNL     1      -0.091   5.663 -29.714  1.00  0.00     0.010 A 
ENDBRANCH  11  14
ENDBRANCH   8  11
ENDBRANCH   5   7
BRANCH   1  21
HETATM   21  C   UNL     1      -5.472   0.437 -32.752  1.00  0.00     0.029 A 
HETATM   22  C   UNL     1      -6.847   0.466 -33.036  1.00  0.00     0.081 A 
HETATM   23  C   UNL     1      -7.452  -0.580 -33.743  1.00  0.00     0.039 A 
HETATM   24  C   UNL     1      -6.683  -1.650 -34.202  1.00  0.00     0.026 A 
HETATM   25  C   UNL     1      -5.316  -1.676 -33.939  1.00  0.00     0.035 A 
HETATM   26  C   UNL     1      -4.709  -0.647 -33.219  1.00  0.00     0.040 A 
HETATM   27 CL   UNL     1      -4.365  -2.998 -34.499  1.00  0.00    -0.084 Cl
BRANCH  22  28
HETATM   28  O   UNL     1      -7.651   1.462 -32.544  1.00  0.00    -0.355 OA
HETATM   29  C   UNL     1      -8.721   0.902 -31.781  1.00  0.00     0.210 C 
ENDBRANCH  22  28
ENDBRANCH   1  21
TORSDOF 5
ENDMDL
MODEL 3
REMARK VINA RESULT:      -8.4      2.460      9.142
REMARK  5 active torsions:
REMARK  status: ('A' for Active; 'I' for Inactive)
REMARK    1  A    between atoms: O_2  and  C_3 
REMARK    2  A    between atoms: C_4  and  C_5 
REMARK    3  A    between atoms: C_9  and  N_10 
REMARK       I    between atoms: N_10  and  C_11 
REMARK    4  A    between atoms: C_11  and  C_12 
REMARK    5  A    between atoms: C_12  and  C_13 
ROOT
HETATM    1  C   UNL     1      -3.797   4.840 -32.264  1.00  0.00     0.093 A 
HETATM    2  N   UNL     1      -5.059   5.297 -32.255  1.00  0.00    -0.172 NA
HETATM    3  N   UNL     1      -5.812   4.197 -32.442  1.00  0.00    -0.262 N 
HETATM    4  H   UNL     1      -6.825   4.280 -32.472  1.00  0.00     0.191 HD
HETATM    5  C   UNL     1      -5.084   3.040 -32.519  1.00  0.00     0.126 A 
HETATM    6  C   UNL     1      -3.770   3.427 -32.441  1.00  0.00     0.084 A 
ENDROOT
BRANCH   5   7
HETATM    7  N   UNL     1      -5.626   1.777 -32.615  1.00  0.00    -0.311 N 
HETATM    8  C   UNL     1      -6.371   1.387 -33.711  1.00  0.00     0.236 C 
HETATM    9  O   UNL     1      -6.530   2.036 -34.739  1.00  0.00    -0.272 OA
HETATM   10  H   UNL     1      -5.565   1.162 -31.814  1.00  0.00     0.170 HD
BRANCH   8  11
HETATM   11  C   UNL     1      -7.061   0.058 -33.525  1.00  0.00     0.068 A 
HETATM   12  C   UNL     1      -8.127  -0.034 -32.436  1.00  0.00     0.026 A 
HETATM   13  C   UNL     1      -8.545  -0.037 -33.871  1.00  0.00     0.026 A 
BRANCH  11  14
HETATM   14  C   UNL     1      -6.170  -1.164 -33.737  1.00  0.00    -0.040 A 
HETATM   15  C   UNL     1      -6.621  -2.256 -34.500  1.00  0.00     0.010 A 
HETATM   16  C   UNL     1      -5.842  -3.407 -34.663  1.00  0.00     0.024 A 
HETATM   17  C   UNL     1      -4.592  -3.482 -34.058  1.00  0.00     0.034 A 
HETATM   18 CL   UNL     1      -3.633  -4.898 -34.244  1.00  0.00    -0.084 Cl
HETATM   19  C   UNL     1      -4.116  -2.419 -33.297  1.00  0.00     0.024 A 
HETATM   20  C   UNL     1      -4.900  -1.272 -33.139  1.00  0.00     0.010 A 
ENDBRANCH  11  14
ENDBRANCH   8  11
ENDBRANCH   5   7
BRANCH   1  21
HETATM   21  C   UNL     1      -2.648   5.712 -32.027  1.00  0.00     0.029 A 
HETATM   22  C   UNL     1      -1.981   6.387 -33.062  1.00  0.00     0.081 A 
HETATM   23  C   UNL     1      -0.870   7.194 -32.788  1.00  0.00     0.039 A 
HETATM   24  C   UNL     1      -0.435   7.360 -31.472  1.00  0.00     0.026 A 
HETATM   25  C   UNL     1      -1.103   6.707 -30.440  1.00  0.00     0.035 A 
HETATM   26  C   UNL     1      -2.199   5.887 -30.707  1.00  0.00     0.040 A 
HETATM   27 CL   UNL     1      -0.565   6.905 -28.817  1.00  0.00    -0.084 Cl
BRANCH  22  28
HETATM   28  O   UNL     1      -2.331   6.197 -34.374  1.00  0.00    -0.355 OA
HETATM   29  C   UNL     1      -1.494   5.205 -34.971  1.00  0.00     0.210 C 
ENDBRANCH  22  28
ENDBRANCH   1  21
TORSDOF 5
ENDMDL
MODEL 4
REMARK VINA RESULT:      -8.2      2.065      2.991
REMARK  5 active torsions:
REMARK  status: ('A' for Active; 'I' for Inactive)
REMARK    1  A    between atoms: O_2  and  C_3 
REMARK    2  A    between atoms: C_4  and  C_5 
REMARK    3  A    between atoms: C_9  and  N_10 
REMARK       I    between atoms: N_10  and  C_11 
REMARK    4  A    between atoms: C_11  and  C_12 
REMARK    5  A    between atoms: C_12  and  C_13 
ROOT
HETATM    1  C   UNL     1      -5.797   2.516 -31.813  1.00  0.00     0.093 A 
HETATM    2  N   UNL     1      -5.344   2.423 -30.553  1.00  0.00    -0.172 NA
HETATM    3  N   UNL     1      -4.428   3.404 -30.456  1.00  0.00    -0.262 N 
HETATM    4  H   UNL     1      -3.932   3.545 -29.579  1.00  0.00     0.191 HD
HETATM    5  C   UNL     1      -4.311   4.160 -31.592  1.00  0.00     0.126 A 
HETATM    6  C   UNL     1      -5.162   3.588 -32.503  1.00  0.00     0.084 A 
ENDROOT
BRANCH   5   7
HETATM    7  N   UNL     1      -3.512   5.276 -31.712  1.00  0.00    -0.311 N 
HETATM    8  C   UNL     1      -2.134   5.188 -31.703  1.00  0.00     0.236 C 
HETATM    9  O   UNL     1      -1.480   4.150 -31.713  1.00  0.00    -0.272 OA
HETATM   10  H   UNL     1      -3.949   6.188 -31.698  1.00  0.00     0.170 HD
BRANCH   8  11
HETATM   11  C   UNL     1      -1.448   6.529 -31.617  1.00  0.00     0.068 A 
HETATM   12  C   UNL     1      -0.822   7.081 -32.896  1.00  0.00     0.026 A 
HETATM   13  C   UNL     1      -2.071   7.706 -32.364  1.00  0.00     0.026 A 
BRANCH  11  14
HETATM   14  C   UNL     1      -0.708   6.790 -30.307  1.00  0.00    -0.040 A 
HETATM   15  C   UNL     1       0.111   5.798 -29.736  1.00  0.00     0.010 A 
HETATM   16  C   UNL     1       0.756   5.998 -28.511  1.00  0.00     0.024 A 
HETATM   17  C   UNL     1       0.588   7.200 -27.833  1.00  0.00     0.034 A 
HETATM   18 CL   UNL     1       1.368   7.448 -26.320  1.00  0.00    -0.084 Cl
HETATM   19  C   UNL     1      -0.215   8.202 -28.371  1.00  0.00     0.024 A 
HETATM   20  C   UNL     1      -0.855   7.995 -29.596  1.00  0.00     0.010 A 
ENDBRANCH  11  14
ENDBRANCH   8  11
ENDBRANCH   5   7
BRANCH   1  21
HETATM   21  C   UNL     1      -6.867   1.661 -32.323  1.00  0.00     0.029 A 
HETATM   22  C   UNL     1      -8.218   2.044 -32.310  1.00  0.00     0.081 A 
HETATM   23  C   UNL     1      -9.210   1.180 -32.789  1.00  0.00     0.039 A 
HETATM   24  C   UNL     1      -8.858  -0.063 -33.317  1.00  0.00     0.026 A 
HETATM   25  C   UNL     1      -7.519  -0.442 -33.348  1.00  0.00     0.035 A 
HETATM   26  C   UNL     1      -6.527   0.405 -32.855  1.00  0.00     0.040 A 
HETATM   27 CL   UNL     1      -7.083  -1.978 -33.992  1.00  0.00    -0.084 Cl
BRANCH  22  28
HETATM   28  O   UNL     1      -8.613   3.226 -31.738  1.00  0.00    -0.355 OA
HETATM   29  C   UNL     1      -9.340   2.974 -30.534  1.00  0.00     0.210 C 
ENDBRANCH  22  28
ENDBRANCH   1  21
TORSDOF 5
ENDMDL
MODEL 5
REMARK VINA RESULT:      -8.1      2.701      3.366
REMARK  5 active torsions:
REMARK  status: ('A' for Active; 'I' for Inactive)
REMARK    1  A    between atoms: O_2  and  C_3 
REMARK    2  A    between atoms: C_4  and  C_5 
REMARK    3  A    between atoms: C_9  and  N_10 
REMARK       I    between atoms: N_10  and  C_11 
REMARK    4  A    between atoms: C_11  and  C_12 
REMARK    5  A    between atoms: C_12  and  C_13 
ROOT
HETATM    1  C   UNL     1      -7.055   2.584 -32.416  1.00  0.00     0.093 A 
HETATM    2  N   UNL     1      -6.596   2.795 -31.172  1.00  0.00    -0.172 NA
HETATM    3  N   UNL     1      -5.484   3.532 -31.347  1.00  0.00    -0.262 N 
HETATM    4  H   UNL     1      -4.944   3.829 -30.538  1.00  0.00     0.191 HD
HETATM    5  C   UNL     1      -5.237   3.848 -32.656  1.00  0.00     0.126 A 
HETATM    6  C   UNL     1      -6.219   3.219 -33.379  1.00  0.00     0.084 A 
ENDROOT
BRANCH   5   7
HETATM    7  N   UNL     1      -4.214   4.667 -33.085  1.00  0.00    -0.311 N 
HETATM    8  C   UNL     1      -2.896   4.417 -32.758  1.00  0.00     0.236 C 
HETATM    9  O   UNL     1      -2.476   3.420 -32.182  1.00  0.00    -0.272 OA
HETATM   10  H   UNL     1      -4.452   5.528 -33.560  1.00  0.00     0.170 HD
BRANCH   8  11
HETATM   11  C   UNL     1      -1.963   5.543 -33.128  1.00  0.00     0.068 A 
HETATM   12  C   UNL     1      -1.230   5.439 -34.464  1.00  0.00     0.026 A 
HETATM   13  C   UNL     1      -2.339   6.431 -34.312  1.00  0.00     0.026 A 
BRANCH  11  14
HETATM   14  C   UNL     1      -1.198   6.155 -31.956  1.00  0.00    -0.040 A 
HETATM   15  C   UNL     1      -0.016   5.556 -31.481  1.00  0.00     0.010 A 
HETATM   16  C   UNL     1       0.671   6.070 -30.376  1.00  0.00     0.024 A 
HETATM   17  C   UNL     1       0.182   7.197 -29.725  1.00  0.00     0.034 A 
HETATM   18 CL   UNL     1       1.015   7.827 -28.359  1.00  0.00    -0.084 Cl
HETATM   19  C   UNL     1      -0.983   7.813 -30.171  1.00  0.00     0.024 A 
HETATM   20  C   UNL     1      -1.664   7.294 -31.276  1.00  0.00     0.010 A 
ENDBRANCH  11  14
ENDBRANCH   8  11
ENDBRANCH   5   7
BRANCH   1  21
HETATM   21  C   UNL     1      -8.301   1.868 -32.679  1.00  0.00     0.029 A 
HETATM   22  C   UNL     1      -8.377   0.467 -32.724  1.00  0.00     0.081 A 
HETATM   23  C   UNL     1      -9.590  -0.174 -33.002  1.00  0.00     0.039 A 
HETATM   24  C   UNL     1     -10.747   0.579 -33.207  1.00  0.00     0.026 A 
HETATM   25  C   UNL     1     -10.682   1.969 -33.147  1.00  0.00     0.035 A 
HETATM   26  C   UNL     1      -9.473   2.614 -32.889  1.00  0.00     0.040 A 
HETATM   27 CL   UNL     1     -12.106   2.901 -33.406  1.00  0.00    -0.084 Cl
BRANCH  22  28
HETATM   28  O   UNL     1      -7.253  -0.308 -32.597  1.00  0.00    -0.355 OA
HETATM   29  C   UNL     1      -7.123  -1.178 -33.724  1.00  0.00     0.210 C 
ENDBRANCH  22  28
ENDBRANCH   1  21
TORSDOF 5
ENDMDL
MODEL 6
REMARK VINA RESULT:      -8.1      2.029      2.719
REMARK  5 active torsions:
REMARK  status: ('A' for Active; 'I' for Inactive)
REMARK    1  A    between atoms: O_2  and  C_3 
REMARK    2  A    between atoms: C_4  and  C_5 
REMARK    3  A    between atoms: C_9  and  N_10 
REMARK       I    between atoms: N_10  and  C_11 
REMARK    4  A    between atoms: C_11  and  C_12 
REMARK    5  A    between atoms: C_12  and  C_13 
ROOT
HETATM    1  C   UNL     1      -4.377   0.390 -32.364  1.00  0.00     0.093 A 
HETATM    2  N   UNL     1      -3.998   0.303 -31.079  1.00  0.00    -0.172 NA
HETATM    3  N   UNL     1      -3.803   1.579 -30.702  1.00  0.00    -0.262 N 
HETATM    4  H   UNL     1      -3.507   1.783 -29.750  1.00  0.00     0.191 HD
HETATM    5  C   UNL     1      -4.092   2.491 -31.681  1.00  0.00     0.126 A 
HETATM    6  C   UNL     1      -4.435   1.750 -32.784  1.00  0.00     0.084 A 
ENDROOT
BRANCH   5   7
HETATM    7  N   UNL     1      -4.061   3.859 -31.513  1.00  0.00    -0.311 N 
HETATM    8  C   UNL     1      -2.898   4.585 -31.671  1.00  0.00     0.236 C 
HETATM    9  O   UNL     1      -1.829   4.148 -32.083  1.00  0.00    -0.272 OA
HETATM   10  H   UNL     1      -4.890   4.321 -31.161  1.00  0.00     0.170 HD
BRANCH   8  11
HETATM   11  C   UNL     1      -3.022   6.021 -31.225  1.00  0.00     0.068 A 
HETATM   12  C   UNL     1      -3.672   7.005 -32.196  1.00  0.00     0.026 A 
HETATM   13  C   UNL     1      -4.421   6.579 -30.973  1.00  0.00     0.026 A 
BRANCH  11  14
HETATM   14  C   UNL     1      -1.856   6.536 -30.384  1.00  0.00    -0.040 A 
HETATM   15  C   UNL     1      -2.055   6.928 -29.047  1.00  0.00     0.010 A 
HETATM   16  C   UNL     1      -1.012   7.451 -28.276  1.00  0.00     0.024 A 
HETATM   17  C   UNL     1       0.254   7.593 -28.835  1.00  0.00     0.034 A 
HETATM   18 CL   UNL     1       1.538   8.247 -27.896  1.00  0.00    -0.084 Cl
HETATM   19  C   UNL     1       0.483   7.214 -30.154  1.00  0.00     0.024 A 
HETATM   20  C   UNL     1      -0.564   6.691 -30.919  1.00  0.00     0.010 A 
ENDBRANCH  11  14
ENDBRANCH   8  11
ENDBRANCH   5   7
BRANCH   1  21
HETATM   21  C   UNL     1      -4.754  -0.783 -33.149  1.00  0.00     0.029 A 
HETATM   22  C   UNL     1      -5.841  -0.785 -34.038  1.00  0.00     0.081 A 
HETATM   23  C   UNL     1      -6.179  -1.941 -34.752  1.00  0.00     0.039 A 
HETATM   24  C   UNL     1      -5.413  -3.098 -34.608  1.00  0.00     0.026 A 
HETATM   25  C   UNL     1      -4.323  -3.098 -33.741  1.00  0.00     0.035 A 
HETATM   26  C   UNL     1      -3.993  -1.956 -33.012  1.00  0.00     0.040 A 
HETATM   27 CL   UNL     1      -3.381  -4.527 -33.556  1.00  0.00    -0.084 Cl
BRANCH  22  28
HETATM   28  O   UNL     1      -6.661   0.309 -34.157  1.00  0.00    -0.355 OA
HETATM   29  C   UNL     1      -7.509   0.168 -35.298  1.00  0.00     0.210 C 
ENDBRANCH  22  28
ENDBRANCH   1  21
TORSDOF 5
ENDMDL
MODEL 7
REMARK VINA RESULT:      -8.1      1.518      1.823
REMARK  5 active torsions:
REMARK  status: ('A' for Active; 'I' for Inactive)
REMARK    1  A    between atoms: O_2  and  C_3 
REMARK    2  A    between atoms: C_4  and  C_5 
REMARK    3  A    between atoms: C_9  and  N_10 
REMARK       I    between atoms: N_10  and  C_11 
REMARK    4  A    between atoms: C_11  and  C_12 
REMARK    5  A    between atoms: C_12  and  C_13 
ROOT
HETATM    1  C   UNL     1      -4.438   1.579 -32.055  1.00  0.00     0.093 A 
HETATM    2  N   UNL     1      -5.020   1.944 -30.902  1.00  0.00    -0.172 NA
HETATM    3  N   UNL     1      -4.316   3.018 -30.500  1.00  0.00    -0.262 N 
HETATM    4  H   UNL     1      -4.568   3.490 -29.635  1.00  0.00     0.191 HD
HETATM    5  C   UNL     1      -3.334   3.391 -31.378  1.00  0.00     0.126 A 
HETATM    6  C   UNL     1      -3.364   2.456 -32.382  1.00  0.00     0.084 A 
ENDROOT
BRANCH   5   7
HETATM    7  N   UNL     1      -2.541   4.509 -31.239  1.00  0.00    -0.311 N 
HETATM    8  C   UNL     1      -2.802   5.677 -31.928  1.00  0.00     0.236 C 
HETATM    9  O   UNL     1      -3.792   5.898 -32.618  1.00  0.00    -0.272 OA
HETATM   10  H   UNL     1      -1.688   4.433 -30.700  1.00  0.00     0.170 HD
BRANCH   8  11
HETATM   11  C   UNL     1      -1.699   6.700 -31.815  1.00  0.00     0.068 A 
HETATM   12  C   UNL     1      -0.267   6.218 -32.038  1.00  0.00     0.026 A 
HETATM   13  C   UNL     1      -0.925   7.068 -33.078  1.00  0.00     0.026 A 
BRANCH  11  14
HETATM   14  C   UNL     1      -1.919   7.767 -30.744  1.00  0.00    -0.040 A 
HETATM   15  C   UNL     1      -2.274   9.080 -31.103  1.00  0.00     0.010 A 
HETATM   16  C   UNL     1      -2.429  10.084 -30.141  1.00  0.00     0.024 A 
HETATM   17  C   UNL     1      -2.228   9.787 -28.797  1.00  0.00     0.034 A 
HETATM   18 CL   UNL     1      -2.405  11.020 -27.611  1.00  0.00    -0.084 Cl
HETATM   19  C   UNL     1      -1.876   8.498 -28.410  1.00  0.00     0.024 A 
HETATM   20  C   UNL     1      -1.724   7.500 -29.376  1.00  0.00     0.010 A 
ENDBRANCH  11  14
ENDBRANCH   8  11
ENDBRANCH   5   7
BRANCH   1  21
HETATM   21  C   UNL     1      -4.941   0.474 -32.869  1.00  0.00     0.029 A 
HETATM   22  C   UNL     1      -4.339  -0.795 -32.883  1.00  0.00     0.081 A 
HETATM   23  C   UNL     1      -4.844  -1.816 -33.697  1.00  0.00     0.039 A 
HETATM   24  C   UNL     1      -5.975  -1.588 -34.482  1.00  0.00     0.026 A 
HETATM   25  C   UNL     1      -6.586  -0.337 -34.460  1.00  0.00     0.035 A 
HETATM   26  C   UNL     1      -6.078   0.690 -33.666  1.00  0.00     0.040 A 
HETATM   27 CL   UNL     1      -7.978  -0.051 -35.433  1.00  0.00    -0.084 Cl
BRANCH  22  28
HETATM   28  O   UNL     1      -3.187  -1.040 -32.181  1.00  0.00    -0.355 OA
HETATM   29  C   UNL     1      -3.070  -2.436 -31.895  1.00  0.00     0.210 C 
ENDBRANCH  22  28
ENDBRANCH   1  21
TORSDOF 5
ENDMDL
MODEL 8
REMARK VINA RESULT:      -8.0      2.175      9.141
REMARK  5 active torsions:
REMARK  status: ('A' for Active; 'I' for Inactive)
REMARK    1  A    between atoms: O_2  and  C_3 
REMARK    2  A    between atoms: C_4  and  C_5 
REMARK    3  A    between atoms: C_9  and  N_10 
REMARK       I    between atoms: N_10  and  C_11 
REMARK    4  A    between atoms: C_11  and  C_12 
REMARK    5  A    between atoms: C_12  and  C_13 
ROOT
HETATM    1  C   UNL     1      -2.572   4.873 -31.705  1.00  0.00     0.093 A 
HETATM    2  N   UNL     1      -2.183   4.579 -32.956  1.00  0.00    -0.172 NA
HETATM    3  N   UNL     1      -2.707   3.362 -33.190  1.00  0.00    -0.262 N 
HETATM    4  H   UNL     1      -2.553   2.913 -34.089  1.00  0.00     0.191 HD
HETATM    5  C   UNL     1      -3.464   2.883 -32.155  1.00  0.00     0.126 A 
HETATM    6  C   UNL     1      -3.368   3.824 -31.162  1.00  0.00     0.084 A 
ENDROOT
BRANCH   5   7
HETATM    7  N   UNL     1      -4.180   1.705 -32.187  1.00  0.00    -0.311 N 
HETATM    8  C   UNL     1      -5.376   1.598 -32.868  1.00  0.00     0.236 C 
HETATM    9  O   UNL     1      -5.865   2.454 -33.598  1.00  0.00    -0.272 OA
HETATM   10  H   UNL     1      -3.870   0.936 -31.607  1.00  0.00     0.170 HD
BRANCH   8  11
HETATM   11  C   UNL     1      -6.109   0.309 -32.596  1.00  0.00     0.068 A 
HETATM   12  C   UNL     1      -6.980   0.246 -31.344  1.00  0.00     0.026 A 
HETATM   13  C   UNL     1      -7.633   0.314 -32.687  1.00  0.00     0.026 A 
BRANCH  11  14
HETATM   14  C   UNL     1      -5.347  -0.958 -32.981  1.00  0.00    -0.040 A 
HETATM   15  C   UNL     1      -5.723  -1.704 -34.114  1.00  0.00     0.010 A 
HETATM   16  C   UNL     1      -5.073  -2.894 -34.454  1.00  0.00     0.024 A 
HETATM   17  C   UNL     1      -4.030  -3.360 -33.661  1.00  0.00     0.034 A 
HETATM   18 CL   UNL     1      -3.233  -4.829 -34.067  1.00  0.00    -0.084 Cl
HETATM   19  C   UNL     1      -3.633  -2.645 -32.535  1.00  0.00     0.024 A 
HETATM   20  C   UNL     1      -4.288  -1.456 -32.201  1.00  0.00     0.010 A 
ENDBRANCH  11  14
ENDBRANCH   8  11
ENDBRANCH   5   7
BRANCH   1  21
HETATM   21  C   UNL     1      -2.264   6.153 -31.071  1.00  0.00     0.029 A 
HETATM   22  C   UNL     1      -3.140   7.250 -31.111  1.00  0.00     0.081 A 
HETATM   23  C   UNL     1      -2.790   8.465 -30.508  1.00  0.00     0.039 A 
HETATM   24  C   UNL     1      -1.576   8.585 -29.832  1.00  0.00     0.026 A 
HETATM   25  C   UNL     1      -0.710   7.496 -29.775  1.00  0.00     0.035 A 
HETATM   26  C   UNL     1      -1.043   6.289 -30.389  1.00  0.00     0.040 A 
HETATM   27 CL   UNL     1       0.792   7.643 -28.947  1.00  0.00    -0.084 Cl
BRANCH  22  28
HETATM   28  O   UNL     1      -4.311   7.197 -31.822  1.00  0.00    -0.355 OA
HETATM   29  C   UNL     1      -5.424   7.072 -30.935  1.00  0.00     0.210 C 
ENDBRANCH  22  28
ENDBRANCH   1  21
TORSDOF 5
ENDMDL
MODEL 9
REMARK VINA RESULT:      -8.0      6.524      9.294
REMARK  5 active torsions:
REMARK  status: ('A' for Active; 'I' for Inactive)
REMARK    1  A    between atoms: O_2  and  C_3 
REMARK    2  A    between atoms: C_4  and  C_5 
REMARK    3  A    between atoms: C_9  and  N_10 
REMARK       I    between atoms: N_10  and  C_11 
REMARK    4  A    between atoms: C_11  and  C_12 
REMARK    5  A    between atoms: C_12  and  C_13 
ROOT
HETATM    1  C   UNL     1      -7.529  -0.243 -33.718  1.00  0.00     0.093 A 
HETATM    2  N   UNL     1      -7.894   0.137 -32.483  1.00  0.00    -0.172 NA
HETATM    3  N   UNL     1      -8.938   0.961 -32.684  1.00  0.00    -0.262 N 
HETATM    4  H   UNL     1      -9.403   1.388 -31.886  1.00  0.00     0.191 HD
HETATM    5  C   UNL     1      -9.293   1.086 -34.000  1.00  0.00     0.126 A 
HETATM    6  C   UNL     1      -8.376   0.343 -34.700  1.00  0.00     0.084 A 
ENDROOT
BRANCH   5   7
HETATM    7  N   UNL     1     -10.383   1.797 -34.455  1.00  0.00    -0.311 N 
HETATM    8  C   UNL     1     -10.651   3.078 -34.014  1.00  0.00     0.236 C 
HETATM    9  O   UNL     1      -9.924   3.758 -33.298  1.00  0.00    -0.272 OA
HETATM   10  H   UNL     1     -11.058   1.324 -35.042  1.00  0.00     0.170 HD
BRANCH   8  11
HETATM   11  C   UNL     1     -12.000   3.593 -34.452  1.00  0.00     0.068 A 
HETATM   12  C   UNL     1     -12.096   4.220 -35.841  1.00  0.00     0.026 A 
HETATM   13  C   UNL     1     -12.706   2.876 -35.601  1.00  0.00     0.026 A 
BRANCH  11  14
HETATM   14  C   UNL     1     -12.840   4.220 -33.341  1.00  0.00    -0.040 A 
HETATM   15  C   UNL     1     -12.754   5.598 -33.069  1.00  0.00     0.010 A 
HETATM   16  C   UNL     1     -13.474   6.183 -32.023  1.00  0.00     0.024 A 
HETATM   17  C   UNL     1     -14.296   5.392 -31.226  1.00  0.00     0.034 A 
HETATM   18 CL   UNL     1     -15.176   6.103 -29.930  1.00  0.00    -0.084 Cl
HETATM   19  C   UNL     1     -14.403   4.027 -31.470  1.00  0.00     0.024 A 
HETATM   20  C   UNL     1     -13.681   3.449 -32.518  1.00  0.00     0.010 A 
ENDBRANCH  11  14
ENDBRANCH   8  11
ENDBRANCH   5   7
BRANCH   1  21
HETATM   21  C   UNL     1      -6.454  -1.205 -33.953  1.00  0.00     0.029 A 
HETATM   22  C   UNL     1      -5.122  -0.962 -33.581  1.00  0.00     0.081 A 
HETATM   23  C   UNL     1      -4.123  -1.905 -33.849  1.00  0.00     0.039 A 
HETATM   24  C   UNL     1      -4.450  -3.114 -34.463  1.00  0.00     0.026 A 
HETATM   25  C   UNL     1      -5.772  -3.369 -34.820  1.00  0.00     0.035 A 
HETATM   26  C   UNL     1      -6.769  -2.426 -34.573  1.00  0.00     0.040 A 
HETATM   27 CL   UNL     1      -6.178  -4.857 -35.584  1.00  0.00    -0.084 Cl
BRANCH  22  28
HETATM   28  O   UNL     1      -4.746   0.240 -33.039  1.00  0.00    -0.355 OA
HETATM   29  C   UNL     1      -4.123   0.036 -31.769  1.00  0.00     0.210 C 
ENDBRANCH  22  28
ENDBRANCH   1  21
TORSDOF 5
ENDMDL
MODEL 10
REMARK VINA RESULT:      -7.9      3.118      4.356
REMARK  5 active torsions:
REMARK  status: ('A' for Active; 'I' for Inactive)
REMARK    1  A    between atoms: O_2  and  C_3 
REMARK    2  A    between atoms: C_4  and  C_5 
REMARK    3  A    between atoms: C_9  and  N_10 
REMARK       I    between atoms: N_10  and  C_11 
REMARK    4  A    between atoms: C_11  and  C_12 
REMARK    5  A    between atoms: C_12  and  C_13 
ROOT
HETATM    1  C   UNL     1      -5.915   0.306 -31.415  1.00  0.00     0.093 A 
HETATM    2  N   UNL     1      -6.501   0.006 -30.244  1.00  0.00    -0.172 NA
HETATM    3  N   UNL     1      -6.237   1.066 -29.459  1.00  0.00    -0.262 N 
HETATM    4  H   UNL     1      -6.582   1.082 -28.502  1.00  0.00     0.191 HD
HETATM    5  C   UNL     1      -5.547   2.062 -30.096  1.00  0.00     0.126 A 
HETATM    6  C   UNL     1      -5.293   1.585 -31.357  1.00  0.00     0.084 A 
ENDROOT
BRANCH   5   7
HETATM    7  N   UNL     1      -5.238   3.283 -29.537  1.00  0.00    -0.311 N 
HETATM    8  C   UNL     1      -6.205   4.237 -29.291  1.00  0.00     0.236 C 
HETATM    9  O   UNL     1      -7.416   4.080 -29.415  1.00  0.00    -0.272 OA
HETATM   10  H   UNL     1      -4.263   3.521 -29.404  1.00  0.00     0.170 HD
BRANCH   8  11
HETATM   11  C   UNL     1      -5.640   5.577 -28.891  1.00  0.00     0.068 A 
HETATM   12  C   UNL     1      -6.577   6.553 -28.184  1.00  0.00     0.026 A 
HETATM   13  C   UNL     1      -5.493   5.882 -27.402  1.00  0.00     0.026 A 
BRANCH  11  14
HETATM   14  C   UNL     1      -4.627   6.165 -29.871  1.00  0.00    -0.040 A 
HETATM   15  C   UNL     1      -3.415   6.711 -29.409  1.00  0.00     0.010 A 
HETATM   16  C   UNL     1      -2.498   7.302 -30.284  1.00  0.00     0.024 A 
HETATM   17  C   UNL     1      -2.783   7.358 -31.644  1.00  0.00     0.034 A 
HETATM   18 CL   UNL     1      -1.665   8.094 -32.725  1.00  0.00    -0.084 Cl
HETATM   19  C   UNL     1      -3.972   6.827 -32.134  1.00  0.00     0.024 A 
HETATM   20  C   UNL     1      -4.884   6.238 -31.253  1.00  0.00     0.010 A 
ENDBRANCH  11  14
ENDBRANCH   8  11
ENDBRANCH   5   7
BRANCH   1  21
HETATM   21  C   UNL     1      -6.016  -0.565 -32.585  1.00  0.00     0.029 A 
HETATM   22  C   UNL     1      -7.074  -0.484 -33.503  1.00  0.00     0.081 A 
HETATM   23  C   UNL     1      -7.139  -1.356 -34.596  1.00  0.00     0.039 A 
HETATM   24  C   UNL     1      -6.129  -2.296 -34.801  1.00  0.00     0.026 A 
HETATM   25  C   UNL     1      -5.067  -2.370 -33.903  1.00  0.00     0.035 A 
HETATM   26  C   UNL     1      -5.006  -1.518 -32.801  1.00  0.00     0.040 A 
HETATM   27 CL   UNL     1      -3.822  -3.534 -34.149  1.00  0.00    -0.084 Cl
BRANCH  22  28
HETATM   28  O   UNL     1      -8.123   0.377 -33.302  1.00  0.00    -0.355 OA
HETATM   29  C   UNL     1      -8.082   1.437 -34.260  1.00  0.00     0.210 C 
ENDBRANCH  22  28
ENDBRANCH   1  21
TORSDOF 5
ENDMDL
