MODEL 1
REMARK VINA RESULT:      -8.9      0.000      0.000
REMARK  4 active torsions:
REMARK  status: ('A' for Active; 'I' for Inactive)
REMARK    1  A    between atoms: C_3  and  C_4 
REMARK       I    between atoms: C_4  and  N_5 
REMARK    2  A    between atoms: N_5  and  C_6 
REMARK    3  A    between atoms: C_13  and  C_14 
REMARK       I    between atoms: C_14  and  N_15 
REMARK    4  A    between atoms: C_23  and  O_24 
ROOT
HETATM    1  C   UNL     1      -5.206   2.050 -32.450  1.00  0.00     0.280 C 
HETATM    2  N   UNL     1      -4.054   2.683 -32.884  1.00  0.00    -0.321 N 
HETATM    3  O   UNL     1      -5.996   2.506 -31.631  1.00  0.00    -0.265 OA
HETATM    4  H   UNL     1      -3.538   2.170 -33.592  1.00  0.00     0.169 HD
ENDROOT
BRANCH   2   5
HETATM    5  C   UNL     1      -3.536   3.930 -32.484  1.00  0.00     0.036 A 
HETATM    6  C   UNL     1      -2.408   4.080 -31.666  1.00  0.00     0.046 A 
HETATM    7  C   UNL     1      -1.960   5.375 -31.324  1.00  0.00     0.030 A 
HETATM    8  C   UNL     1      -2.659   6.475 -31.803  1.00  0.00     0.063 A 
HETATM    9  C   UNL     1      -0.889   5.925 -30.555  1.00  0.00     0.156 A 
HETATM   10  N   UNL     1      -2.004   7.566 -31.307  1.00  0.00    -0.277 N 
HETATM   11  C   UNL     1      -3.786   6.365 -32.619  1.00  0.00     0.034 A 
HETATM   12  H   UNL     1      -2.239   8.542 -31.451  1.00  0.00     0.189 HD
HETATM   13  N   UNL     1      -0.931   7.277 -30.553  1.00  0.00    -0.168 NA
HETATM   14  C   UNL     1      -4.205   5.069 -32.953  1.00  0.00     0.032 A 
BRANCH   9  15
HETATM   15  C   UNL     1       0.165   5.194 -29.836  1.00  0.00     0.270 C 
HETATM   16  N   UNL     1       0.220   5.470 -28.496  1.00  0.00    -0.365 N 
HETATM   17  H   UNL     1      -0.437   6.138 -28.112  1.00  0.00     0.159 HD
HETATM   18  H   UNL     1       0.920   5.026 -27.925  1.00  0.00     0.159 HD
HETATM   19  O   UNL     1       0.947   4.404 -30.352  1.00  0.00    -0.266 OA
ENDBRANCH   9  15
ENDBRANCH   2   5
BRANCH   1  20
HETATM   20  C   UNL     1      -5.405   0.756 -33.089  1.00  0.00     0.150 A 
HETATM   21  C   UNL     1      -6.377   0.284 -33.962  1.00  0.00    -0.009 A 
HETATM   22  C   UNL     1      -7.539   1.023 -34.523  1.00  0.00     0.052 C 
HETATM   23  C   UNL     1      -6.047  -1.083 -34.221  1.00  0.00     0.009 A 
HETATM   24  C   UNL     1      -4.893  -1.355 -33.499  1.00  0.00     0.120 A 
HETATM   25  C   UNL     1      -6.613  -2.115 -34.992  1.00  0.00     0.015 A 
HETATM   26  O   UNL     1      -4.500  -0.240 -32.821  1.00  0.00    -0.301 OA
HETATM   27  C   UNL     1      -4.242  -2.596 -33.472  1.00  0.00     0.102 A 
HETATM   28  C   UNL     1      -4.829  -3.603 -34.252  1.00  0.00     0.040 A 
HETATM   29  C   UNL     1      -5.991  -3.369 -34.997  1.00  0.00     0.004 A 
BRANCH  27  30
HETATM   30  O   UNL     1      -3.114  -2.720 -32.712  1.00  0.00    -0.353 OA
HETATM   31  C   UNL     1      -3.083  -3.794 -31.782  1.00  0.00     0.210 C 
ENDBRANCH  27  30
ENDBRANCH   1  20
TORSDOF 4
ENDMDL
MODEL 2
REMARK VINA RESULT:      -8.8      4.977      7.631
REMARK  4 active torsions:
REMARK  status: ('A' for Active; 'I' for Inactive)
REMARK    1  A    between atoms: C_3  and  C_4 
REMARK       I    between atoms: C_4  and  N_5 
REMARK    2  A    between atoms: N_5  and  C_6 
REMARK    3  A    between atoms: C_13  and  C_14 
REMARK       I    between atoms: C_14  and  N_15 
REMARK    4  A    between atoms: C_23  and  O_24 
ROOT
HETATM    1  C   UNL     1      -6.531   0.897 -33.067  1.00  0.00     0.280 C 
HETATM    2  N   UNL     1      -7.787   0.706 -32.517  1.00  0.00    -0.321 N 
HETATM    3  O   UNL     1      -6.140   1.935 -33.589  1.00  0.00    -0.265 OA
HETATM    4  H   UNL     1      -7.924  -0.208 -32.097  1.00  0.00     0.169 HD
ENDROOT
BRANCH   2   5
HETATM    5  C   UNL     1      -8.863   1.613 -32.454  1.00  0.00     0.036 A 
HETATM    6  C   UNL     1      -9.880   1.684 -33.416  1.00  0.00     0.046 A 
HETATM    7  C   UNL     1     -10.923   2.624 -33.262  1.00  0.00     0.030 A 
HETATM    8  C   UNL     1     -10.908   3.467 -32.158  1.00  0.00     0.063 A 
HETATM    9  C   UNL     1     -12.099   2.985 -33.987  1.00  0.00     0.156 A 
HETATM   10  N   UNL     1     -12.018   4.253 -32.286  1.00  0.00    -0.277 N 
HETATM   11  C   UNL     1      -9.913   3.425 -31.180  1.00  0.00     0.034 A 
HETATM   12  H   UNL     1     -12.327   4.988 -31.661  1.00  0.00     0.189 HD
HETATM   13  N   UNL     1     -12.763   3.992 -33.374  1.00  0.00    -0.168 NA
HETATM   14  C   UNL     1      -8.895   2.476 -31.350  1.00  0.00     0.032 A 
BRANCH   9  15
HETATM   15  C   UNL     1     -12.600   2.392 -35.234  1.00  0.00     0.270 C 
HETATM   16  N   UNL     1     -12.057   2.936 -36.368  1.00  0.00    -0.365 N 
HETATM   17  H   UNL     1     -11.382   3.685 -36.271  1.00  0.00     0.159 HD
HETATM   18  H   UNL     1     -12.351   2.601 -37.271  1.00  0.00     0.159 HD
HETATM   19  O   UNL     1     -13.431   1.493 -35.299  1.00  0.00    -0.266 OA
ENDBRANCH   9  15
ENDBRANCH   2   5
BRANCH   1  20
HETATM   20  C   UNL     1      -5.687  -0.285 -32.952  1.00  0.00     0.150 A 
HETATM   21  C   UNL     1      -4.705  -0.646 -32.039  1.00  0.00    -0.009 A 
HETATM   22  C   UNL     1      -4.231   0.118 -30.855  1.00  0.00     0.052 C 
HETATM   23  C   UNL     1      -4.215  -1.920 -32.467  1.00  0.00     0.009 A 
HETATM   24  C   UNL     1      -4.934  -2.258 -33.605  1.00  0.00     0.120 A 
HETATM   25  C   UNL     1      -3.234  -2.816 -32.005  1.00  0.00     0.015 A 
HETATM   26  O   UNL     1      -5.831  -1.273 -33.894  1.00  0.00    -0.301 OA
HETATM   27  C   UNL     1      -4.753  -3.435 -34.344  1.00  0.00     0.102 A 
HETATM   28  C   UNL     1      -3.770  -4.308 -33.857  1.00  0.00     0.040 A 
HETATM   29  C   UNL     1      -3.024  -4.006 -32.711  1.00  0.00     0.004 A 
BRANCH  27  30
HETATM   30  O   UNL     1      -5.533  -3.634 -35.448  1.00  0.00    -0.353 OA
HETATM   31  C   UNL     1      -6.653  -4.496 -35.294  1.00  0.00     0.210 C 
ENDBRANCH  27  30
ENDBRANCH   1  20
TORSDOF 4
ENDMDL
MODEL 3
REMARK VINA RESULT:      -8.8      3.578      4.083
REMARK  4 active torsions:
REMARK  status: ('A' for Active; 'I' for Inactive)
REMARK    1  A    between atoms: C_3  and  C_4 
REMARK       I    between atoms: C_4  and  N_5 
REMARK    2  A    between atoms: N_5  and  C_6 
REMARK    3  A    between atoms: C_13  and  C_14 
REMARK       I    between atoms: C_14  and  N_15 
REMARK    4  A    between atoms: C_23  and  O_24 
ROOT
HETATM    1  C   UNL     1      -6.229   1.992 -32.754  1.00  0.00     0.280 C 
HETATM    2  N   UNL     1      -7.045   1.979 -31.636  1.00  0.00    -0.321 N 
HETATM    3  O   UNL     1      -5.726   2.993 -33.249  1.00  0.00    -0.265 OA
HETATM    4  H   UNL     1      -7.343   1.052 -31.347  1.00  0.00     0.169 HD
ENDROOT
BRANCH   2   5
HETATM    5  C   UNL     1      -7.483   3.069 -30.858  1.00  0.00     0.036 A 
HETATM    6  C   UNL     1      -6.648   3.803 -30.006  1.00  0.00     0.046 A 
HETATM    7  C   UNL     1      -7.179   4.886 -29.270  1.00  0.00     0.030 A 
HETATM    8  C   UNL     1      -8.527   5.191 -29.405  1.00  0.00     0.063 A 
HETATM    9  C   UNL     1      -6.674   5.848 -28.342  1.00  0.00     0.156 A 
HETATM   10  N   UNL     1      -8.742   6.259 -28.580  1.00  0.00    -0.277 N 
HETATM   11  C   UNL     1      -9.389   4.483 -30.244  1.00  0.00     0.034 A 
HETATM   12  H   UNL     1      -9.616   6.748 -28.422  1.00  0.00     0.189 HD
HETATM   13  N   UNL     1      -7.649   6.686 -27.924  1.00  0.00    -0.168 NA
HETATM   14  C   UNL     1      -8.836   3.419 -30.970  1.00  0.00     0.032 A 
BRANCH   9  15
HETATM   15  C   UNL     1      -5.293   5.984 -27.857  1.00  0.00     0.270 C 
HETATM   16  N   UNL     1      -5.007   5.211 -26.763  1.00  0.00    -0.365 N 
HETATM   17  H   UNL     1      -5.741   4.629 -26.376  1.00  0.00     0.159 HD
HETATM   18  H   UNL     1      -4.089   5.250 -26.353  1.00  0.00     0.159 HD
HETATM   19  O   UNL     1      -4.445   6.716 -28.354  1.00  0.00    -0.266 OA
ENDBRANCH   9  15
ENDBRANCH   2   5
BRANCH   1  20
HETATM   20  C   UNL     1      -6.007   0.658 -33.296  1.00  0.00     0.150 A 
HETATM   21  C   UNL     1      -6.631  -0.053 -34.314  1.00  0.00    -0.009 A 
HETATM   22  C   UNL     1      -7.752   0.388 -35.184  1.00  0.00     0.052 C 
HETATM   23  C   UNL     1      -5.981  -1.327 -34.363  1.00  0.00     0.009 A 
HETATM   24  C   UNL     1      -4.999  -1.308 -33.382  1.00  0.00     0.120 A 
HETATM   25  C   UNL     1      -6.130  -2.490 -35.138  1.00  0.00     0.015 A 
HETATM   26  O   UNL     1      -5.009  -0.104 -32.742  1.00  0.00    -0.301 OA
HETATM   27  C   UNL     1      -4.137  -2.374 -33.095  1.00  0.00     0.102 A 
HETATM   28  C   UNL     1      -4.309  -3.520 -33.886  1.00  0.00     0.040 A 
HETATM   29  C   UNL     1      -5.286  -3.579 -34.887  1.00  0.00     0.004 A 
BRANCH  27  30
HETATM   30  O   UNL     1      -3.218  -2.215 -32.096  1.00  0.00    -0.353 OA
HETATM   31  C   UNL     1      -2.627  -3.398 -31.576  1.00  0.00     0.210 C 
ENDBRANCH  27  30
ENDBRANCH   1  20
TORSDOF 4
ENDMDL
MODEL 4
REMARK VINA RESULT:      -8.6      1.595      2.704
REMARK  4 active torsions:
REMARK  status: ('A' for Active; 'I' for Inactive)
REMARK    1  A    between atoms: C_3  and  C_4 
REMARK       I    between atoms: C_4  and  N_5 
REMARK    2  A    between atoms: N_5  and  C_6 
REMARK    3  A    between atoms: C_13  and  C_14 
REMARK       I    between atoms: C_14  and  N_15 
REMARK    4  A    between atoms: C_23  and  O_24 
ROOT
HETATM    1  C   UNL     1      -4.034   2.138 -31.933  1.00  0.00     0.280 C 
HETATM    2  N   UNL     1      -3.125   2.850 -32.697  1.00  0.00    -0.321 N 
HETATM    3  O   UNL     1      -4.470   2.493 -30.844  1.00  0.00    -0.265 OA
HETATM    4  H   UNL     1      -2.902   2.419 -33.589  1.00  0.00     0.169 HD
ENDROOT
BRANCH   2   5
HETATM    5  C   UNL     1      -2.504   4.079 -32.401  1.00  0.00     0.036 A 
HETATM    6  C   UNL     1      -1.668   4.283 -31.294  1.00  0.00     0.046 A 
HETATM    7  C   UNL     1      -1.085   5.552 -31.084  1.00  0.00     0.030 A 
HETATM    8  C   UNL     1      -1.363   6.575 -31.982  1.00  0.00     0.063 A 
HETATM    9  C   UNL     1      -0.204   6.135 -30.122  1.00  0.00     0.156 A 
HETATM   10  N   UNL     1      -0.675   7.661 -31.519  1.00  0.00    -0.277 N 
HETATM   11  C   UNL     1      -2.190   6.409 -33.094  1.00  0.00     0.034 A 
HETATM   12  H   UNL     1      -0.648   8.590 -31.924  1.00  0.00     0.189 HD
HETATM   13  N   UNL     1       0.037   7.436 -30.402  1.00  0.00    -0.168 NA
HETATM   14  C   UNL     1      -2.748   5.138 -33.286  1.00  0.00     0.032 A 
BRANCH   9  15
HETATM   15  C   UNL     1       0.408   5.481 -28.957  1.00  0.00     0.270 C 
HETATM   16  N   UNL     1       1.158   4.378 -29.267  1.00  0.00    -0.365 N 
HETATM   17  H   UNL     1       1.229   4.097 -30.238  1.00  0.00     0.159 HD
HETATM   18  H   UNL     1       1.606   3.857 -28.530  1.00  0.00     0.159 HD
HETATM   19  O   UNL     1       0.280   5.853 -27.796  1.00  0.00    -0.266 OA
ENDBRANCH   9  15
ENDBRANCH   2   5
BRANCH   1  20
HETATM   20  C   UNL     1      -4.446   0.896 -32.572  1.00  0.00     0.150 A 
HETATM   21  C   UNL     1      -3.903  -0.383 -32.565  1.00  0.00    -0.009 A 
HETATM   22  C   UNL     1      -2.689  -0.858 -31.851  1.00  0.00     0.052 C 
HETATM   23  C   UNL     1      -4.747  -1.176 -33.404  1.00  0.00     0.009 A 
HETATM   24  C   UNL     1      -5.754  -0.335 -33.860  1.00  0.00     0.120 A 
HETATM   25  C   UNL     1      -4.757  -2.518 -33.823  1.00  0.00     0.015 A 
HETATM   26  O   UNL     1      -5.577   0.916 -33.349  1.00  0.00    -0.301 OA
HETATM   27  C   UNL     1      -6.789  -0.723 -34.721  1.00  0.00     0.102 A 
HETATM   28  C   UNL     1      -6.772  -2.068 -35.119  1.00  0.00     0.040 A 
HETATM   29  C   UNL     1      -5.776  -2.949 -34.680  1.00  0.00     0.004 A 
BRANCH  27  30
HETATM   30  O   UNL     1      -7.712   0.214 -35.090  1.00  0.00    -0.353 OA
HETATM   31  C   UNL     1      -8.779   0.455 -34.183  1.00  0.00     0.210 C 
ENDBRANCH  27  30
ENDBRANCH   1  20
TORSDOF 4
ENDMDL
MODEL 5
REMARK VINA RESULT:      -8.5      1.920      2.197
REMARK  4 active torsions:
REMARK  status: ('A' for Active; 'I' for Inactive)
REMARK    1  A    between atoms: C_3  and  C_4 
REMARK       I    between atoms: C_4  and  N_5 
REMARK    2  A    between atoms: N_5  and  C_6 
REMARK    3  A    between atoms: C_13  and  C_14 
REMARK       I    between atoms: C_14  and  N_15 
REMARK    4  A    between atoms: C_23  and  O_24 
ROOT
HETATM    1  C   UNL     1      -6.028   1.743 -33.171  1.00  0.00     0.280 C 
HETATM    2  N   UNL     1      -4.901   2.155 -32.481  1.00  0.00    -0.321 N 
HETATM    3  O   UNL     1      -7.008   2.442 -33.403  1.00  0.00    -0.265 OA
HETATM    4  H   UNL     1      -4.173   1.450 -32.414  1.00  0.00     0.169 HD
ENDROOT
BRANCH   2   5
HETATM    5  C   UNL     1      -4.642   3.408 -31.893  1.00  0.00     0.036 A 
HETATM    6  C   UNL     1      -3.723   4.334 -32.405  1.00  0.00     0.046 A 
HETATM    7  C   UNL     1      -3.536   5.570 -31.748  1.00  0.00     0.030 A 
HETATM    8  C   UNL     1      -4.268   5.835 -30.597  1.00  0.00     0.063 A 
HETATM    9  C   UNL     1      -2.736   6.735 -31.953  1.00  0.00     0.156 A 
HETATM   10  N   UNL     1      -3.872   7.079 -30.194  1.00  0.00    -0.277 N 
HETATM   11  C   UNL     1      -5.191   4.938 -30.059  1.00  0.00     0.034 A 
HETATM   12  H   UNL     1      -4.196   7.594 -29.383  1.00  0.00     0.189 HD
HETATM   13  N   UNL     1      -2.952   7.656 -30.986  1.00  0.00    -0.168 NA
HETATM   14  C   UNL     1      -5.365   3.722 -30.735  1.00  0.00     0.032 A 
BRANCH   9  15
HETATM   15  C   UNL     1      -1.783   6.987 -33.044  1.00  0.00     0.270 C 
HETATM   16  N   UNL     1      -0.795   6.046 -33.150  1.00  0.00    -0.365 N 
HETATM   17  H   UNL     1      -0.784   5.277 -32.490  1.00  0.00     0.159 HD
HETATM   18  H   UNL     1      -0.088   6.144 -33.861  1.00  0.00     0.159 HD
HETATM   19  O   UNL     1      -1.831   7.944 -33.809  1.00  0.00    -0.266 OA
ENDBRANCH   9  15
ENDBRANCH   2   5
BRANCH   1  20
HETATM   20  C   UNL     1      -5.932   0.361 -33.622  1.00  0.00     0.150 A 
HETATM   21  C   UNL     1      -6.711  -0.396 -34.488  1.00  0.00    -0.009 A 
HETATM   22  C   UNL     1      -7.917   0.032 -35.243  1.00  0.00     0.052 C 
HETATM   23  C   UNL     1      -6.124  -1.700 -34.511  1.00  0.00     0.009 A 
HETATM   24  C   UNL     1      -5.023  -1.653 -33.667  1.00  0.00     0.120 A 
HETATM   25  C   UNL     1      -6.418  -2.912 -35.160  1.00  0.00     0.015 A 
HETATM   26  O   UNL     1      -4.901  -0.404 -33.136  1.00  0.00    -0.301 OA
HETATM   27  C   UNL     1      -4.173  -2.736 -33.402  1.00  0.00     0.102 A 
HETATM   28  C   UNL     1      -4.492  -3.930 -34.066  1.00  0.00     0.040 A 
HETATM   29  C   UNL     1      -5.592  -4.018 -34.926  1.00  0.00     0.004 A 
BRANCH  27  30
HETATM   30  O   UNL     1      -3.127  -2.545 -32.545  1.00  0.00    -0.353 OA
HETATM   31  C   UNL     1      -2.860  -3.588 -31.617  1.00  0.00     0.210 C 
ENDBRANCH  27  30
ENDBRANCH   1  20
TORSDOF 4
ENDMDL
MODEL 6
REMARK VINA RESULT:      -8.3      2.874      9.046
REMARK  4 active torsions:
REMARK  status: ('A' for Active; 'I' for Inactive)
REMARK    1  A    between atoms: C_3  and  C_4 
REMARK       I    between atoms: C_4  and  N_5 
REMARK    2  A    between atoms: N_5  and  C_6 
REMARK    3  A    between atoms: C_13  and  C_14 
REMARK       I    between atoms: C_14  and  N_15 
REMARK    4  A    between atoms: C_23  and  O_24 
ROOT
HETATM    1  C   UNL     1      -2.003   4.701 -31.814  1.00  0.00     0.280 C 
HETATM    2  N   UNL     1      -2.912   3.868 -31.184  1.00  0.00    -0.321 N 
HETATM    3  O   UNL     1      -1.730   4.672 -33.008  1.00  0.00    -0.265 OA
HETATM    4  H   UNL     1      -3.037   4.058 -30.195  1.00  0.00     0.169 HD
ENDROOT
BRANCH   2   5
HETATM    5  C   UNL     1      -3.681   2.828 -31.743  1.00  0.00     0.036 A 
HETATM    6  C   UNL     1      -3.314   1.477 -31.697  1.00  0.00     0.046 A 
HETATM    7  C   UNL     1      -4.156   0.504 -32.281  1.00  0.00     0.030 A 
HETATM    8  C   UNL     1      -5.329   0.917 -32.899  1.00  0.00     0.063 A 
HETATM    9  C   UNL     1      -4.141  -0.917 -32.428  1.00  0.00     0.156 A 
HETATM   10  N   UNL     1      -5.915  -0.226 -33.366  1.00  0.00    -0.277 N 
HETATM   11  C   UNL     1      -5.727   2.253 -32.964  1.00  0.00     0.034 A 
HETATM   12  H   UNL     1      -6.787  -0.306 -33.875  1.00  0.00     0.189 HD
HETATM   13  N   UNL     1      -5.231  -1.352 -33.101  1.00  0.00    -0.168 NA
HETATM   14  C   UNL     1      -4.880   3.197 -32.368  1.00  0.00     0.032 A 
BRANCH   9  15
HETATM   15  C   UNL     1      -3.122  -1.857 -31.939  1.00  0.00     0.270 C 
HETATM   16  N   UNL     1      -1.961  -1.258 -31.530  1.00  0.00    -0.365 N 
HETATM   17  H   UNL     1      -1.885  -0.250 -31.598  1.00  0.00     0.159 HD
HETATM   18  H   UNL     1      -1.201  -1.826 -31.192  1.00  0.00     0.159 HD
HETATM   19  O   UNL     1      -3.258  -3.074 -31.890  1.00  0.00    -0.266 OA
ENDBRANCH   9  15
ENDBRANCH   2   5
BRANCH   1  20
HETATM   20  C   UNL     1      -1.392   5.653 -30.896  1.00  0.00     0.150 A 
HETATM   21  C   UNL     1      -0.097   5.785 -30.411  1.00  0.00    -0.009 A 
HETATM   22  C   UNL     1       1.088   4.946 -30.728  1.00  0.00     0.052 C 
HETATM   23  C   UNL     1      -0.119   6.903 -29.519  1.00  0.00     0.009 A 
HETATM   24  C   UNL     1      -1.421   7.386 -29.524  1.00  0.00     0.120 A 
HETATM   25  C   UNL     1       0.831   7.549 -28.709  1.00  0.00     0.015 A 
HETATM   26  O   UNL     1      -2.189   6.636 -30.364  1.00  0.00    -0.301 OA
HETATM   27  C   UNL     1      -1.869   8.479 -28.770  1.00  0.00     0.102 A 
HETATM   28  C   UNL     1      -0.898   9.103 -27.974  1.00  0.00     0.040 A 
HETATM   29  C   UNL     1       0.426   8.648 -27.942  1.00  0.00     0.004 A 
BRANCH  27  30
HETATM   30  O   UNL     1      -3.182   8.842 -28.872  1.00  0.00    -0.353 OA
HETATM   31  C   UNL     1      -4.067   8.333 -27.882  1.00  0.00     0.210 C 
ENDBRANCH  27  30
ENDBRANCH   1  20
TORSDOF 4
ENDMDL
MODEL 7
REMARK VINA RESULT:      -8.2      2.720      8.375
REMARK  4 active torsions:
REMARK  status: ('A' for Active; 'I' for Inactive)
REMARK    1  A    between atoms: C_3  and  C_4 
REMARK       I    between atoms: C_4  and  N_5 
REMARK    2  A    between atoms: N_5  and  C_6 
REMARK    3  A    between atoms: C_13  and  C_14 
REMARK       I    between atoms: C_14  and  N_15 
REMARK    4  A    between atoms: C_23  and  O_24 
ROOT
HETATM    1  C   UNL     1      -4.641   2.034 -31.791  1.00  0.00     0.280 C 
HETATM    2  N   UNL     1      -4.754   1.572 -33.091  1.00  0.00    -0.321 N 
HETATM    3  O   UNL     1      -4.987   1.417 -30.790  1.00  0.00    -0.265 OA
HETATM    4  H   UNL     1      -4.383   2.205 -33.792  1.00  0.00     0.169 HD
ENDROOT
BRANCH   2   5
HETATM    5  C   UNL     1      -5.290   0.350 -33.543  1.00  0.00     0.036 A 
HETATM    6  C   UNL     1      -4.611  -0.874 -33.468  1.00  0.00     0.046 A 
HETATM    7  C   UNL     1      -5.235  -2.048 -33.943  1.00  0.00     0.030 A 
HETATM    8  C   UNL     1      -6.511  -1.958 -34.485  1.00  0.00     0.063 A 
HETATM    9  C   UNL     1      -4.894  -3.433 -34.029  1.00  0.00     0.156 A 
HETATM   10  N   UNL     1      -6.838  -3.232 -34.856  1.00  0.00    -0.277 N 
HETATM   11  C   UNL     1      -7.216  -0.758 -34.576  1.00  0.00     0.034 A 
HETATM   12  H   UNL     1      -7.699  -3.542 -35.292  1.00  0.00     0.189 HD
HETATM   13  N   UNL     1      -5.892  -4.149 -34.596  1.00  0.00    -0.168 NA
HETATM   14  C   UNL     1      -6.580   0.392 -34.089  1.00  0.00     0.032 A 
BRANCH   9  15
HETATM   15  C   UNL     1      -3.653  -4.079 -33.581  1.00  0.00     0.270 C 
HETATM   16  N   UNL     1      -3.204  -3.642 -32.363  1.00  0.00    -0.365 N 
HETATM   17  H   UNL     1      -3.734  -2.927 -31.880  1.00  0.00     0.159 HD
HETATM   18  H   UNL     1      -2.352  -4.020 -31.982  1.00  0.00     0.159 HD
HETATM   19  O   UNL     1      -3.040  -4.933 -34.211  1.00  0.00    -0.266 OA
ENDBRANCH   9  15
ENDBRANCH   2   5
BRANCH   1  20
HETATM   20  C   UNL     1      -4.040   3.359 -31.721  1.00  0.00     0.150 A 
HETATM   21  C   UNL     1      -4.546   4.629 -31.971  1.00  0.00    -0.009 A 
HETATM   22  C   UNL     1      -5.923   4.999 -32.390  1.00  0.00     0.052 C 
HETATM   23  C   UNL     1      -3.462   5.537 -31.753  1.00  0.00     0.009 A 
HETATM   24  C   UNL     1      -2.370   4.766 -31.377  1.00  0.00     0.120 A 
HETATM   25  C   UNL     1      -3.299   6.931 -31.841  1.00  0.00     0.015 A 
HETATM   26  O   UNL     1      -2.722   3.450 -31.349  1.00  0.00    -0.301 OA
HETATM   27  C   UNL     1      -1.099   5.275 -31.078  1.00  0.00     0.102 A 
HETATM   28  C   UNL     1      -0.969   6.669 -31.173  1.00  0.00     0.040 A 
HETATM   29  C   UNL     1      -2.046   7.481 -31.547  1.00  0.00     0.004 A 
BRANCH  27  30
HETATM   30  O   UNL     1      -0.115   4.396 -30.724  1.00  0.00    -0.353 OA
HETATM   31  C   UNL     1       0.758   4.800 -29.677  1.00  0.00     0.210 C 
ENDBRANCH  27  30
ENDBRANCH   1  20
TORSDOF 4
ENDMDL
MODEL 8
REMARK VINA RESULT:      -7.9      3.300      9.260
REMARK  4 active torsions:
REMARK  status: ('A' for Active; 'I' for Inactive)
REMARK    1  A    between atoms: C_3  and  C_4 
REMARK       I    between atoms: C_4  and  N_5 
REMARK    2  A    between atoms: N_5  and  C_6 
REMARK    3  A    between atoms: C_13  and  C_14 
REMARK       I    between atoms: C_14  and  N_15 
REMARK    4  A    between atoms: C_23  and  O_24 
ROOT
HETATM    1  C   UNL     1      -2.311   4.519 -31.669  1.00  0.00     0.280 C 
HETATM    2  N   UNL     1      -3.195   3.728 -30.956  1.00  0.00    -0.321 N 
HETATM    3  O   UNL     1      -2.100   4.432 -32.873  1.00  0.00    -0.265 OA
HETATM    4  H   UNL     1      -3.266   3.966 -29.971  1.00  0.00     0.169 HD
ENDROOT
BRANCH   2   5
HETATM    5  C   UNL     1      -4.003   2.674 -31.425  1.00  0.00     0.036 A 
HETATM    6  C   UNL     1      -5.402   2.731 -31.486  1.00  0.00     0.046 A 
HETATM    7  C   UNL     1      -6.126   1.623 -31.978  1.00  0.00     0.030 A 
HETATM    8  C   UNL     1      -5.428   0.493 -32.385  1.00  0.00     0.063 A 
HETATM    9  C   UNL     1      -7.501   1.308 -32.201  1.00  0.00     0.156 A 
HETATM   10  N   UNL     1      -6.382  -0.394 -32.796  1.00  0.00    -0.277 N 
HETATM   11  C   UNL     1      -4.036   0.400 -32.339  1.00  0.00     0.034 A 
HETATM   12  H   UNL     1      -6.236  -1.331 -33.155  1.00  0.00     0.189 HD
HETATM   13  N   UNL     1      -7.643   0.060 -32.703  1.00  0.00    -0.168 NA
HETATM   14  C   UNL     1      -3.340   1.516 -31.855  1.00  0.00     0.032 A 
BRANCH   9  15
HETATM   15  C   UNL     1      -8.668   2.165 -31.952  1.00  0.00     0.270 C 
HETATM   16  N   UNL     1      -9.372   1.836 -30.824  1.00  0.00    -0.365 N 
HETATM   17  H   UNL     1      -9.056   1.051 -30.268  1.00  0.00     0.159 HD
HETATM   18  H   UNL     1     -10.196   2.361 -30.581  1.00  0.00     0.159 HD
HETATM   19  O   UNL     1      -9.018   3.098 -32.666  1.00  0.00    -0.266 OA
ENDBRANCH   9  15
ENDBRANCH   2   5
BRANCH   1  20
HETATM   20  C   UNL     1      -1.643   5.505 -30.830  1.00  0.00     0.150 A 
HETATM   21  C   UNL     1      -0.307   5.708 -30.509  1.00  0.00    -0.009 A 
HETATM   22  C   UNL     1       0.873   4.935 -30.977  1.00  0.00     0.052 C 
HETATM   23  C   UNL     1      -0.279   6.825 -29.616  1.00  0.00     0.009 A 
HETATM   24  C   UNL     1      -1.596   7.235 -29.456  1.00  0.00     0.120 A 
HETATM   25  C   UNL     1       0.728   7.523 -28.927  1.00  0.00     0.015 A 
HETATM   26  O   UNL     1      -2.420   6.443 -30.197  1.00  0.00    -0.301 OA
HETATM   27  C   UNL     1      -2.005   8.303 -28.645  1.00  0.00     0.102 A 
HETATM   28  C   UNL     1      -0.978   8.981 -27.973  1.00  0.00     0.040 A 
HETATM   29  C   UNL     1       0.362   8.599 -28.109  1.00  0.00     0.004 A 
BRANCH  27  30
HETATM   30  O   UNL     1      -3.339   8.593 -28.581  1.00  0.00    -0.353 OA
HETATM   31  C   UNL     1      -4.062   8.044 -27.487  1.00  0.00     0.210 C 
ENDBRANCH  27  30
ENDBRANCH   1  20
TORSDOF 4
ENDMDL
MODEL 9
REMARK VINA RESULT:      -7.8      3.291      8.846
REMARK  4 active torsions:
REMARK  status: ('A' for Active; 'I' for Inactive)
REMARK    1  A    between atoms: C_3  and  C_4 
REMARK       I    between atoms: C_4  and  N_5 
REMARK    2  A    between atoms: N_5  and  C_6 
REMARK    3  A    between atoms: C_13  and  C_14 
REMARK       I    between atoms: C_14  and  N_15 
REMARK    4  A    between atoms: C_23  and  O_24 
ROOT
HETATM    1  C   UNL     1      -4.808   5.088 -32.010  1.00  0.00     0.280 C 
HETATM    2  N   UNL     1      -5.161   3.921 -31.354  1.00  0.00    -0.321 N 
HETATM    3  O   UNL     1      -5.524   5.702 -32.791  1.00  0.00    -0.265 OA
HETATM    4  H   UNL     1      -4.453   3.570 -30.716  1.00  0.00     0.169 HD
ENDROOT
BRANCH   2   5
HETATM    5  C   UNL     1      -6.362   3.192 -31.447  1.00  0.00     0.036 A 
HETATM    6  C   UNL     1      -6.573   2.152 -32.362  1.00  0.00     0.046 A 
HETATM    7  C   UNL     1      -7.813   1.474 -32.376  1.00  0.00     0.030 A 
HETATM    8  C   UNL     1      -8.801   1.866 -31.482  1.00  0.00     0.063 A 
HETATM    9  C   UNL     1      -8.390   0.397 -33.116  1.00  0.00     0.156 A 
HETATM   10  N   UNL     1      -9.865   1.047 -31.736  1.00  0.00    -0.277 N 
HETATM   11  C   UNL     1      -8.627   2.897 -30.558  1.00  0.00     0.034 A 
HETATM   12  H   UNL     1     -10.767   1.050 -31.273  1.00  0.00     0.189 HD
HETATM   13  N   UNL     1      -9.656   0.148 -32.712  1.00  0.00    -0.168 NA
HETATM   14  C   UNL     1      -7.385   3.547 -30.557  1.00  0.00     0.032 A 
BRANCH   9  15
HETATM   15  C   UNL     1      -7.763  -0.392 -34.186  1.00  0.00     0.270 C 
HETATM   16  N   UNL     1      -7.928   0.135 -35.439  1.00  0.00    -0.365 N 
HETATM   17  H   UNL     1      -8.458   0.993 -35.537  1.00  0.00     0.159 HD
HETATM   18  H   UNL     1      -7.544  -0.346 -36.236  1.00  0.00     0.159 HD
HETATM   19  O   UNL     1      -7.142  -1.435 -34.015  1.00  0.00    -0.266 OA
ENDBRANCH   9  15
ENDBRANCH   2   5
BRANCH   1  20
HETATM   20  C   UNL     1      -3.467   5.538 -31.662  1.00  0.00     0.150 A 
HETATM   21  C   UNL     1      -2.251   5.455 -32.328  1.00  0.00    -0.009 A 
HETATM   22  C   UNL     1      -1.978   4.860 -33.662  1.00  0.00     0.052 C 
HETATM   23  C   UNL     1      -1.283   6.058 -31.464  1.00  0.00     0.009 A 
HETATM   24  C   UNL     1      -1.970   6.477 -30.333  1.00  0.00     0.120 A 
HETATM   25  C   UNL     1       0.103   6.286 -31.528  1.00  0.00     0.015 A 
HETATM   26  O   UNL     1      -3.293   6.171 -30.456  1.00  0.00    -0.301 OA
HETATM   27  C   UNL     1      -1.382   7.114 -29.232  1.00  0.00     0.102 A 
HETATM   28  C   UNL     1       0.001   7.329 -29.326  1.00  0.00     0.040 A 
HETATM   29  C   UNL     1       0.730   6.923 -30.450  1.00  0.00     0.004 A 
BRANCH  27  30
HETATM   30  O   UNL     1      -2.183   7.469 -28.184  1.00  0.00    -0.353 OA
HETATM   31  C   UNL     1      -1.703   7.168 -26.880  1.00  0.00     0.210 C 
ENDBRANCH  27  30
ENDBRANCH   1  20
TORSDOF 4
ENDMDL
MODEL 10
REMARK VINA RESULT:      -7.6      2.909      8.781
REMARK  4 active torsions:
REMARK  status: ('A' for Active; 'I' for Inactive)
REMARK    1  A    between atoms: C_3  and  C_4 
REMARK       I    between atoms: C_4  and  N_5 
REMARK    2  A    between atoms: N_5  and  C_6 
REMARK    3  A    between atoms: C_13  and  C_14 
REMARK       I    between atoms: C_14  and  N_15 
REMARK    4  A    between atoms: C_23  and  O_24 
ROOT
HETATM    1  C   UNL     1      -3.735   4.044 -32.590  1.00  0.00     0.280 C 
HETATM    2  N   UNL     1      -3.837   2.827 -31.937  1.00  0.00    -0.321 N 
HETATM    3  O   UNL     1      -4.086   4.255 -33.745  1.00  0.00    -0.265 OA
HETATM    4  H   UNL     1      -3.528   2.846 -30.970  1.00  0.00     0.169 HD
ENDROOT
BRANCH   2   5
HETATM    5  C   UNL     1      -4.324   1.603 -32.434  1.00  0.00     0.036 A 
HETATM    6  C   UNL     1      -5.668   1.374 -32.758  1.00  0.00     0.046 A 
HETATM    7  C   UNL     1      -6.061   0.112 -33.258  1.00  0.00     0.030 A 
HETATM    8  C   UNL     1      -5.099  -0.879 -33.408  1.00  0.00     0.063 A 
HETATM    9  C   UNL     1      -7.281  -0.488 -33.697  1.00  0.00     0.156 A 
HETATM   10  N   UNL     1      -5.770  -1.966 -33.893  1.00  0.00    -0.277 N 
HETATM   11  C   UNL     1      -3.752  -0.686 -33.096  1.00  0.00     0.034 A 
HETATM   12  H   UNL     1      -5.384  -2.875 -34.120  1.00  0.00     0.189 HD
HETATM   13  N   UNL     1      -7.085  -1.770 -34.083  1.00  0.00    -0.168 NA
HETATM   14  C   UNL     1      -3.387   0.577 -32.612  1.00  0.00     0.032 A 
BRANCH   9  15
HETATM   15  C   UNL     1      -8.612   0.131 -33.759  1.00  0.00     0.270 C 
HETATM   16  N   UNL     1      -8.824   0.886 -34.882  1.00  0.00    -0.365 N 
HETATM   17  H   UNL     1      -8.075   0.968 -35.559  1.00  0.00     0.159 HD
HETATM   18  H   UNL     1      -9.704   1.360 -35.004  1.00  0.00     0.159 HD
HETATM   19  O   UNL     1      -9.481   0.012 -32.903  1.00  0.00    -0.266 OA
ENDBRANCH   9  15
ENDBRANCH   2   5
BRANCH   1  20
HETATM   20  C   UNL     1      -3.166   5.084 -31.744  1.00  0.00     0.150 A 
HETATM   21  C   UNL     1      -3.715   6.221 -31.164  1.00  0.00    -0.009 A 
HETATM   22  C   UNL     1      -5.119   6.701 -31.244  1.00  0.00     0.052 C 
HETATM   23  C   UNL     1      -2.647   6.863 -30.462  1.00  0.00     0.009 A 
HETATM   24  C   UNL     1      -1.520   6.075 -30.652  1.00  0.00     0.120 A 
HETATM   25  C   UNL     1      -2.524   8.032 -29.691  1.00  0.00     0.015 A 
HETATM   26  O   UNL     1      -1.836   4.994 -31.420  1.00  0.00    -0.301 OA
HETATM   27  C   UNL     1      -0.250   6.360 -30.133  1.00  0.00     0.102 A 
HETATM   28  C   UNL     1      -0.160   7.531 -29.366  1.00  0.00     0.040 A 
HETATM   29  C   UNL     1      -1.273   8.352 -29.149  1.00  0.00     0.004 A 
BRANCH  27  30
HETATM   30  O   UNL     1       0.772   5.494 -30.404  1.00  0.00    -0.353 OA
HETATM   31  C   UNL     1       1.134   4.588 -29.370  1.00  0.00     0.210 C 
ENDBRANCH  27  30
ENDBRANCH   1  20
TORSDOF 4
ENDMDL
