MODEL 1
REMARK VINA RESULT:      -8.6      0.000      0.000
REMARK  3 active torsions:
REMARK  status: ('A' for Active; 'I' for Inactive)
REMARK    1  A    between atoms: C_5  and  C_6 
REMARK    2  A    between atoms: C_13  and  O_14 
REMARK    3  A    between atoms: C_26  and  O_27 
ROOT
HETATM    1  C   UNL     1      -6.356   5.929 -30.279  1.00  0.00     0.021 C 
HETATM    2  C   UNL     1      -5.684   4.736 -30.965  1.00  0.00     0.033 C 
HETATM    3  C   UNL     1      -6.526   4.249 -32.157  1.00  0.00     0.289 C 
HETATM    4  N   UNL     1      -5.897   3.072 -32.782  1.00  0.00     0.126 N 
HETATM    5  C   UNL     1      -5.846   1.955 -31.838  1.00  0.00     0.458 C 
HETATM    6  N   UNL     1      -4.945   2.386 -30.702  1.00  0.00    -0.033 N 
HETATM    7  H   UNL     1      -4.897   1.623 -30.021  1.00  0.00     0.282 HD
HETATM    8  C   UNL     1      -5.557   3.569 -29.976  1.00  0.00     0.251 C 
HETATM    9  C   UNL     1      -4.573   3.423 -33.316  1.00  0.00     0.289 C 
HETATM   10  C   UNL     1      -3.641   3.883 -32.183  1.00  0.00     0.033 C 
HETATM   11  C   UNL     1      -2.251   4.212 -32.737  1.00  0.00     0.021 C 
HETATM   12  C   UNL     1      -3.548   2.737 -31.171  1.00  0.00     0.251 C 
HETATM   13  C   UNL     1      -4.277   5.110 -31.491  1.00  0.00     0.141 C 
ENDROOT
BRANCH   5  14
HETATM   14  C   UNL     1      -5.549   0.599 -32.462  1.00  0.00     0.044 A 
HETATM   15  C   UNL     1      -6.262   0.122 -33.560  1.00  0.00     0.137 A 
HETATM   16 CL   UNL     1      -7.616   0.930 -34.252  1.00  0.00    -0.062 Cl
HETATM   17  N   UNL     1      -6.031  -1.056 -34.174  1.00  0.00    -0.233 NA
HETATM   18  C   UNL     1      -5.087  -1.892 -33.694  1.00  0.00     0.102 A 
HETATM   19  C   UNL     1      -4.368  -1.551 -32.533  1.00  0.00    -0.004 A 
HETATM   20  C   UNL     1      -4.792  -3.115 -34.321  1.00  0.00     0.097 A 
HETATM   21  C   UNL     1      -4.616  -0.306 -31.928  1.00  0.00     0.028 A 
HETATM   22  C   UNL     1      -3.419  -2.439 -31.998  1.00  0.00     0.014 A 
HETATM   23  C   UNL     1      -3.169  -3.661 -32.615  1.00  0.00     0.004 A 
HETATM   24  C   UNL     1      -3.851  -3.998 -33.778  1.00  0.00     0.039 A 
BRANCH  20  25
HETATM   25  O   UNL     1      -5.507  -3.395 -35.465  1.00  0.00    -0.354 OA
HETATM   26  C   UNL     1      -6.420  -4.483 -35.395  1.00  0.00     0.210 C 
ENDBRANCH  20  25
ENDBRANCH   5  14
BRANCH  13  27
HETATM   27  O   UNL     1      -3.460   5.521 -30.398  1.00  0.00    -0.394 OA
HETATM   28  H   UNL     1      -3.751   6.412 -30.118  1.00  0.00     0.210 HD
ENDBRANCH  13  27
TORSDOF 3
ENDMDL
MODEL 2
REMARK VINA RESULT:      -8.4      3.125      4.475
REMARK  3 active torsions:
REMARK  status: ('A' for Active; 'I' for Inactive)
REMARK    1  A    between atoms: C_5  and  C_6 
REMARK    2  A    between atoms: C_13  and  O_14 
REMARK    3  A    between atoms: C_26  and  O_27 
ROOT
HETATM    1  C   UNL     1      -8.968   4.977 -32.254  1.00  0.00     0.021 C 
HETATM    2  C   UNL     1      -8.737   3.503 -32.601  1.00  0.00     0.033 C 
HETATM    3  C   UNL     1      -7.942   2.801 -31.486  1.00  0.00     0.289 C 
HETATM    4  N   UNL     1      -7.683   1.396 -31.849  1.00  0.00     0.126 N 
HETATM    5  C   UNL     1      -6.851   1.321 -33.050  1.00  0.00     0.458 C 
HETATM    6  N   UNL     1      -7.658   1.927 -34.177  1.00  0.00    -0.033 N 
HETATM    7  H   UNL     1      -7.094   1.893 -35.032  1.00  0.00     0.282 HD
HETATM    8  C   UNL     1      -7.921   3.393 -33.896  1.00  0.00     0.251 C 
HETATM    9  C   UNL     1      -8.950   0.664 -31.990  1.00  0.00     0.289 C 
HETATM   10  C   UNL     1      -9.799   1.270 -33.119  1.00  0.00     0.033 C 
HETATM   11  C   UNL     1     -11.101   0.481 -33.290  1.00  0.00     0.021 C 
HETATM   12  C   UNL     1      -8.970   1.203 -34.405  1.00  0.00     0.251 C 
HETATM   13  C   UNL     1     -10.078   2.752 -32.781  1.00  0.00     0.141 C 
ENDROOT
BRANCH   5  14
HETATM   14  C   UNL     1      -6.230  -0.042 -33.317  1.00  0.00     0.044 A 
HETATM   15  C   UNL     1      -4.910  -0.330 -32.973  1.00  0.00     0.137 A 
HETATM   16 CL   UNL     1      -3.808   0.830 -32.335  1.00  0.00    -0.062 Cl
HETATM   17  N   UNL     1      -4.310  -1.523 -33.158  1.00  0.00    -0.233 NA
HETATM   18  C   UNL     1      -4.978  -2.526 -33.765  1.00  0.00     0.102 A 
HETATM   19  C   UNL     1      -6.288  -2.317 -34.236  1.00  0.00    -0.004 A 
HETATM   20  C   UNL     1      -4.401  -3.795 -33.950  1.00  0.00     0.097 A 
HETATM   21  C   UNL     1      -6.894  -1.069 -34.008  1.00  0.00     0.028 A 
HETATM   22  C   UNL     1      -6.971  -3.341 -34.915  1.00  0.00     0.014 A 
HETATM   23  C   UNL     1      -6.368  -4.577 -35.119  1.00  0.00     0.004 A 
HETATM   24  C   UNL     1      -5.086  -4.807 -34.634  1.00  0.00     0.039 A 
BRANCH  20  25
HETATM   25  O   UNL     1      -3.126  -3.957 -33.454  1.00  0.00    -0.354 OA
HETATM   26  C   UNL     1      -3.001  -4.046 -32.040  1.00  0.00     0.210 C 
ENDBRANCH  20  25
ENDBRANCH   5  14
BRANCH  13  27
HETATM   27  O   UNL     1     -10.816   3.355 -33.842  1.00  0.00    -0.394 OA
HETATM   28  H   UNL     1     -10.209   3.934 -34.345  1.00  0.00     0.210 HD
ENDBRANCH  13  27
TORSDOF 3
ENDMDL
MODEL 3
REMARK VINA RESULT:      -8.3      2.073      2.786
REMARK  3 active torsions:
REMARK  status: ('A' for Active; 'I' for Inactive)
REMARK    1  A    between atoms: C_5  and  C_6 
REMARK    2  A    between atoms: C_13  and  O_14 
REMARK    3  A    between atoms: C_26  and  O_27 
ROOT
HETATM    1  C   UNL     1      -3.450   8.558 -31.191  1.00  0.00     0.021 C 
HETATM    2  C   UNL     1      -3.320   7.148 -31.775  1.00  0.00     0.033 C 
HETATM    3  C   UNL     1      -4.673   6.660 -32.322  1.00  0.00     0.289 C 
HETATM    4  N   UNL     1      -4.551   5.286 -32.839  1.00  0.00     0.126 N 
HETATM    5  C   UNL     1      -4.193   4.362 -31.761  1.00  0.00     0.458 C 
HETATM    6  N   UNL     1      -2.822   4.774 -31.274  1.00  0.00    -0.033 N 
HETATM    7  H   UNL     1      -2.548   4.146 -30.512  1.00  0.00     0.282 HD
HETATM    8  C   UNL     1      -2.880   6.167 -30.679  1.00  0.00     0.251 C 
HETATM    9  C   UNL     1      -3.602   5.243 -33.960  1.00  0.00     0.289 C 
HETATM   10  C   UNL     1      -2.202   5.675 -33.496  1.00  0.00     0.033 C 
HETATM   11  C   UNL     1      -1.206   5.594 -34.657  1.00  0.00     0.021 C 
HETATM   12  C   UNL     1      -1.778   4.726 -32.371  1.00  0.00     0.251 C 
HETATM   13  C   UNL     1      -2.293   7.111 -32.931  1.00  0.00     0.141 C 
ENDROOT
BRANCH   5  14
HETATM   14  C   UNL     1      -4.382   2.888 -32.089  1.00  0.00     0.044 A 
HETATM   15  C   UNL     1      -5.524   2.418 -32.735  1.00  0.00     0.137 A 
HETATM   16 CL   UNL     1      -6.885   3.402 -33.120  1.00  0.00    -0.062 Cl
HETATM   17  N   UNL     1      -5.740   1.132 -33.076  1.00  0.00    -0.233 NA
HETATM   18  C   UNL     1      -4.839   0.186 -32.742  1.00  0.00     0.102 A 
HETATM   19  C   UNL     1      -3.690   0.535 -32.007  1.00  0.00    -0.004 A 
HETATM   20  C   UNL     1      -5.009  -1.162 -33.105  1.00  0.00     0.097 A 
HETATM   21  C   UNL     1      -3.482   1.888 -31.686  1.00  0.00     0.028 A 
HETATM   22  C   UNL     1      -2.771  -0.453 -31.611  1.00  0.00     0.014 A 
HETATM   23  C   UNL     1      -2.978  -1.786 -31.951  1.00  0.00     0.004 A 
HETATM   24  C   UNL     1      -4.093  -2.141 -32.701  1.00  0.00     0.039 A 
BRANCH  20  25
HETATM   25  O   UNL     1      -6.137  -1.451 -33.841  1.00  0.00    -0.354 OA
HETATM   26  C   UNL     1      -6.125  -2.670 -34.572  1.00  0.00     0.210 C 
ENDBRANCH  20  25
ENDBRANCH   5  14
BRANCH  13  27
HETATM   27  O   UNL     1      -1.017   7.514 -32.439  1.00  0.00    -0.394 OA
HETATM   28  H   UNL     1      -0.337   6.946 -32.853  1.00  0.00     0.210 HD
ENDBRANCH  13  27
TORSDOF 3
ENDMDL
MODEL 4
REMARK VINA RESULT:      -8.1      3.729      6.807
REMARK  3 active torsions:
REMARK  status: ('A' for Active; 'I' for Inactive)
REMARK    1  A    between atoms: C_5  and  C_6 
REMARK    2  A    between atoms: C_13  and  O_14 
REMARK    3  A    between atoms: C_26  and  O_27 
ROOT
HETATM    1  C   UNL     1      -9.506   0.330 -33.092  1.00  0.00     0.021 C 
HETATM    2  C   UNL     1      -8.480   1.363 -32.616  1.00  0.00     0.033 C 
HETATM    3  C   UNL     1      -7.877   2.120 -33.812  1.00  0.00     0.289 C 
HETATM    4  N   UNL     1      -6.857   3.078 -33.351  1.00  0.00     0.126 N 
HETATM    5  C   UNL     1      -5.743   2.374 -32.712  1.00  0.00     0.458 C 
HETATM    6  N   UNL     1      -6.305   1.699 -31.480  1.00  0.00    -0.033 N 
HETATM    7  H   UNL     1      -5.546   1.192 -31.016  1.00  0.00     0.282 HD
HETATM    8  C   UNL     1      -7.331   0.658 -31.883  1.00  0.00     0.251 C 
HETATM    9  C   UNL     1      -7.465   4.089 -32.474  1.00  0.00     0.289 C 
HETATM   10  C   UNL     1      -8.061   3.427 -31.221  1.00  0.00     0.033 C 
HETATM   11  C   UNL     1      -8.660   4.487 -30.292  1.00  0.00     0.021 C 
HETATM   12  C   UNL     1      -6.925   2.684 -30.511  1.00  0.00     0.251 C 
HETATM   13  C   UNL     1      -9.126   2.400 -31.668  1.00  0.00     0.141 C 
ENDROOT
BRANCH   5  14
HETATM   14  C   UNL     1      -4.486   3.208 -32.515  1.00  0.00     0.044 A 
HETATM   15  C   UNL     1      -3.376   2.716 -31.830  1.00  0.00     0.137 A 
HETATM   16 CL   UNL     1      -3.338   1.191 -31.031  1.00  0.00    -0.062 Cl
HETATM   17  N   UNL     1      -2.226   3.393 -31.644  1.00  0.00    -0.233 NA
HETATM   18  C   UNL     1      -2.110   4.661 -32.089  1.00  0.00     0.102 A 
HETATM   19  C   UNL     1      -3.202   5.291 -32.717  1.00  0.00    -0.004 A 
HETATM   20  C   UNL     1      -0.918   5.393 -31.945  1.00  0.00     0.097 A 
HETATM   21  C   UNL     1      -4.382   4.551 -32.915  1.00  0.00     0.028 A 
HETATM   22  C   UNL     1      -3.107   6.628 -33.138  1.00  0.00     0.014 A 
HETATM   23  C   UNL     1      -1.929   7.344 -32.952  1.00  0.00     0.004 A 
HETATM   24  C   UNL     1      -0.833   6.727 -32.360  1.00  0.00     0.039 A 
BRANCH  20  25
HETATM   25  O   UNL     1       0.128   4.728 -31.344  1.00  0.00    -0.354 OA
HETATM   26  C   UNL     1       0.453   5.121 -30.016  1.00  0.00     0.210 C 
ENDBRANCH  20  25
ENDBRANCH   5  14
BRANCH  13  27
HETATM   27  O   UNL     1      -9.654   1.729 -30.525  1.00  0.00    -0.394 OA
HETATM   28  H   UNL     1      -9.442   2.263 -29.733  1.00  0.00     0.210 HD
ENDBRANCH  13  27
TORSDOF 3
ENDMDL
MODEL 5
REMARK VINA RESULT:      -8.0      4.398      6.825
REMARK  3 active torsions:
REMARK  status: ('A' for Active; 'I' for Inactive)
REMARK    1  A    between atoms: C_5  and  C_6 
REMARK    2  A    between atoms: C_13  and  O_14 
REMARK    3  A    between atoms: C_26  and  O_27 
ROOT
HETATM    1  C   UNL     1      -3.445   0.312 -31.228  1.00  0.00     0.021 C 
HETATM    2  C   UNL     1      -4.748   0.236 -32.031  1.00  0.00     0.033 C 
HETATM    3  C   UNL     1      -5.020   1.568 -32.752  1.00  0.00     0.289 C 
HETATM    4  N   UNL     1      -6.298   1.503 -33.483  1.00  0.00     0.126 N 
HETATM    5  C   UNL     1      -7.412   1.309 -32.553  1.00  0.00     0.458 C 
HETATM    6  N   UNL     1      -7.206  -0.041 -31.903  1.00  0.00    -0.033 N 
HETATM    7  H   UNL     1      -7.970  -0.200 -31.241  1.00  0.00     0.282 HD
HETATM    8  C   UNL     1      -5.927  -0.033 -31.087  1.00  0.00     0.251 C 
HETATM    9  C   UNL     1      -6.240   0.465 -34.522  1.00  0.00     0.289 C 
HETATM   10  C   UNL     1      -6.012  -0.917 -33.889  1.00  0.00     0.033 C 
HETATM   11  C   UNL     1      -5.991  -2.001 -34.971  1.00  0.00     0.021 C 
HETATM   12  C   UNL     1      -7.165  -1.170 -32.913  1.00  0.00     0.251 C 
HETATM   13  C   UNL     1      -4.686  -0.883 -33.098  1.00  0.00     0.141 C 
ENDROOT
BRANCH   5  14
HETATM   14  C   UNL     1      -8.790   1.577 -33.138  1.00  0.00     0.044 A 
HETATM   15  C   UNL     1      -9.109   2.789 -33.749  1.00  0.00     0.137 A 
HETATM   16 CL   UNL     1      -8.049   4.146 -33.803  1.00  0.00    -0.062 Cl
HETATM   17  N   UNL     1     -10.301   3.078 -34.308  1.00  0.00    -0.233 NA
HETATM   18  C   UNL     1     -11.307   2.182 -34.251  1.00  0.00     0.102 A 
HETATM   19  C   UNL     1     -11.125   0.959 -33.578  1.00  0.00    -0.004 A 
HETATM   20  C   UNL     1     -12.556   2.429 -34.848  1.00  0.00     0.097 A 
HETATM   21  C   UNL     1      -9.863   0.677 -33.024  1.00  0.00     0.028 A 
HETATM   22  C   UNL     1     -12.184   0.041 -33.471  1.00  0.00     0.014 A 
HETATM   23  C   UNL     1     -13.422   0.323 -34.039  1.00  0.00     0.004 A 
HETATM   24  C   UNL     1     -13.608   1.514 -34.731  1.00  0.00     0.039 A 
BRANCH  20  25
HETATM   25  O   UNL     1     -12.679   3.630 -35.513  1.00  0.00    -0.354 OA
HETATM   26  C   UNL     1     -13.115   4.742 -34.742  1.00  0.00     0.210 C 
ENDBRANCH  20  25
ENDBRANCH   5  14
BRANCH  13  27
HETATM   27  O   UNL     1      -4.480  -2.137 -32.452  1.00  0.00    -0.394 OA
HETATM   28  H   UNL     1      -3.971  -1.979 -31.632  1.00  0.00     0.210 HD
ENDBRANCH  13  27
TORSDOF 3
ENDMDL
MODEL 6
REMARK VINA RESULT:      -8.0      2.526      3.639
REMARK  3 active torsions:
REMARK  status: ('A' for Active; 'I' for Inactive)
REMARK    1  A    between atoms: C_5  and  C_6 
REMARK    2  A    between atoms: C_13  and  O_14 
REMARK    3  A    between atoms: C_26  and  O_27 
ROOT
HETATM    1  C   UNL     1      -2.156   8.752 -30.734  1.00  0.00     0.021 C 
HETATM    2  C   UNL     1      -2.435   7.400 -31.398  1.00  0.00     0.033 C 
HETATM    3  C   UNL     1      -3.932   7.253 -31.723  1.00  0.00     0.289 C 
HETATM    4  N   UNL     1      -4.200   5.932 -32.317  1.00  0.00     0.126 N 
HETATM    5  C   UNL     1      -3.885   4.866 -31.364  1.00  0.00     0.458 C 
HETATM    6  N   UNL     1      -2.396   4.941 -31.105  1.00  0.00    -0.033 N 
HETATM    7  H   UNL     1      -2.148   4.208 -30.434  1.00  0.00     0.282 HD
HETATM    8  C   UNL     1      -2.051   6.261 -30.444  1.00  0.00     0.251 C 
HETATM    9  C   UNL     1      -3.476   5.787 -33.588  1.00  0.00     0.289 C 
HETATM   10  C   UNL     1      -1.959   5.878 -33.356  1.00  0.00     0.033 C 
HETATM   11  C   UNL     1      -1.206   5.688 -34.677  1.00  0.00     0.021 C 
HETATM   12  C   UNL     1      -1.578   4.770 -32.369  1.00  0.00     0.251 C 
HETATM   13  C   UNL     1      -1.641   7.248 -32.717  1.00  0.00     0.141 C 
ENDROOT
BRANCH   5  14
HETATM   14  C   UNL     1      -4.443   3.498 -31.723  1.00  0.00     0.044 A 
HETATM   15  C   UNL     1      -5.808   3.222 -31.672  1.00  0.00     0.137 A 
HETATM   16 CL   UNL     1      -6.991   4.330 -31.090  1.00  0.00    -0.062 Cl
HETATM   17  N   UNL     1      -6.367   2.041 -32.002  1.00  0.00    -0.233 NA
HETATM   18  C   UNL     1      -5.585   1.003 -32.363  1.00  0.00     0.102 A 
HETATM   19  C   UNL     1      -4.184   1.141 -32.362  1.00  0.00    -0.004 A 
HETATM   20  C   UNL     1      -6.127  -0.237 -32.744  1.00  0.00     0.097 A 
HETATM   21  C   UNL     1      -3.632   2.393 -32.034  1.00  0.00     0.028 A 
HETATM   22  C   UNL     1      -3.361   0.050 -32.687  1.00  0.00     0.014 A 
HETATM   23  C   UNL     1      -3.919  -1.178 -33.027  1.00  0.00     0.004 A 
HETATM   24  C   UNL     1      -5.301  -1.322 -33.060  1.00  0.00     0.039 A 
BRANCH  20  25
HETATM   25  O   UNL     1      -7.503  -0.318 -32.750  1.00  0.00    -0.354 OA
HETATM   26  C   UNL     1      -8.141  -0.222 -34.017  1.00  0.00     0.210 C 
ENDBRANCH  20  25
ENDBRANCH   5  14
BRANCH  13  27
HETATM   27  O   UNL     1      -0.245   7.334 -32.437  1.00  0.00    -0.394 OA
HETATM   28  H   UNL     1      -0.118   7.979 -31.713  1.00  0.00     0.210 HD
ENDBRANCH  13  27
TORSDOF 3
ENDMDL
MODEL 7
REMARK VINA RESULT:      -7.9      1.936      2.772
REMARK  3 active torsions:
REMARK  status: ('A' for Active; 'I' for Inactive)
REMARK    1  A    between atoms: C_5  and  C_6 
REMARK    2  A    between atoms: C_13  and  O_14 
REMARK    3  A    between atoms: C_26  and  O_27 
ROOT
HETATM    1  C   UNL     1      -7.059   5.212 -28.827  1.00  0.00     0.021 C 
HETATM    2  C   UNL     1      -6.748   4.273 -29.997  1.00  0.00     0.033 C 
HETATM    3  C   UNL     1      -7.700   3.064 -29.990  1.00  0.00     0.289 C 
HETATM    4  N   UNL     1      -7.364   2.142 -31.089  1.00  0.00     0.126 N 
HETATM    5  C   UNL     1      -6.016   1.599 -30.911  1.00  0.00     0.458 C 
HETATM    6  N   UNL     1      -5.061   2.768 -31.007  1.00  0.00    -0.033 N 
HETATM    7  H   UNL     1      -4.107   2.416 -30.879  1.00  0.00     0.282 HD
HETATM    8  C   UNL     1      -5.315   3.740 -29.871  1.00  0.00     0.251 C 
HETATM    9  C   UNL     1      -7.539   2.809 -32.387  1.00  0.00     0.289 C 
HETATM   10  C   UNL     1      -6.591   4.013 -32.505  1.00  0.00     0.033 C 
HETATM   11  C   UNL     1      -6.748   4.684 -33.873  1.00  0.00     0.021 C 
HETATM   12  C   UNL     1      -5.161   3.491 -32.335  1.00  0.00     0.251 C 
HETATM   13  C   UNL     1      -6.903   4.998 -31.355  1.00  0.00     0.141 C 
ENDROOT
BRANCH   5  14
HETATM   14  C   UNL     1      -5.694   0.386 -31.770  1.00  0.00     0.044 A 
HETATM   15  C   UNL     1      -4.427  -0.196 -31.777  1.00  0.00     0.137 A 
HETATM   16 CL   UNL     1      -3.070   0.444 -30.932  1.00  0.00    -0.062 Cl
HETATM   17  N   UNL     1      -4.086  -1.285 -32.495  1.00  0.00    -0.233 NA
HETATM   18  C   UNL     1      -4.985  -1.856 -33.322  1.00  0.00     0.102 A 
HETATM   19  C   UNL     1      -6.269  -1.296 -33.463  1.00  0.00    -0.004 A 
HETATM   20  C   UNL     1      -4.681  -3.010 -34.065  1.00  0.00     0.097 A 
HETATM   21  C   UNL     1      -6.602  -0.173 -32.685  1.00  0.00     0.028 A 
HETATM   22  C   UNL     1      -7.195  -1.855 -34.361  1.00  0.00     0.014 A 
HETATM   23  C   UNL     1      -6.859  -2.977 -35.113  1.00  0.00     0.004 A 
HETATM   24  C   UNL     1      -5.606  -3.557 -34.963  1.00  0.00     0.039 A 
BRANCH  20  25
HETATM   25  O   UNL     1      -3.420  -3.534 -33.878  1.00  0.00    -0.354 OA
HETATM   26  C   UNL     1      -3.339  -4.937 -33.661  1.00  0.00     0.210 C 
ENDBRANCH  20  25
ENDBRANCH   5  14
BRANCH  13  27
HETATM   27  O   UNL     1      -5.997   6.098 -31.407  1.00  0.00    -0.394 OA
HETATM   28  H   UNL     1      -5.387   5.956 -32.159  1.00  0.00     0.210 HD
ENDBRANCH  13  27
TORSDOF 3
ENDMDL
MODEL 8
REMARK VINA RESULT:      -7.8      2.392      3.727
REMARK  3 active torsions:
REMARK  status: ('A' for Active; 'I' for Inactive)
REMARK    1  A    between atoms: C_5  and  C_6 
REMARK    2  A    between atoms: C_13  and  O_14 
REMARK    3  A    between atoms: C_26  and  O_27 
ROOT
HETATM    1  C   UNL     1      -7.141   7.239 -31.903  1.00  0.00     0.021 C 
HETATM    2  C   UNL     1      -7.215   5.711 -31.980  1.00  0.00     0.033 C 
HETATM    3  C   UNL     1      -5.985   5.073 -31.310  1.00  0.00     0.289 C 
HETATM    4  N   UNL     1      -6.040   3.606 -31.430  1.00  0.00     0.126 N 
HETATM    5  C   UNL     1      -5.990   3.203 -32.836  1.00  0.00     0.458 C 
HETATM    6  N   UNL     1      -7.242   3.746 -33.489  1.00  0.00    -0.033 N 
HETATM    7  H   UNL     1      -7.229   3.484 -34.479  1.00  0.00     0.282 HD
HETATM    8  C   UNL     1      -7.231   5.262 -33.448  1.00  0.00     0.251 C 
HETATM    9  C   UNL     1      -7.222   3.080 -30.732  1.00  0.00     0.289 C 
HETATM   10  C   UNL     1      -8.510   3.631 -31.364  1.00  0.00     0.033 C 
HETATM   11  C   UNL     1      -9.740   3.052 -30.659  1.00  0.00     0.021 C 
HETATM   12  C   UNL     1      -8.508   3.223 -32.840  1.00  0.00     0.251 C 
HETATM   13  C   UNL     1      -8.481   5.173 -31.272  1.00  0.00     0.141 C 
ENDROOT
BRANCH   5  14
HETATM   14  C   UNL     1      -5.686   1.731 -33.072  1.00  0.00     0.044 A 
HETATM   15  C   UNL     1      -4.524   1.132 -32.591  1.00  0.00     0.137 A 
HETATM   16 CL   UNL     1      -3.258   1.990 -31.798  1.00  0.00    -0.062 Cl
HETATM   17  N   UNL     1      -4.209  -0.169 -32.744  1.00  0.00    -0.233 NA
HETATM   18  C   UNL     1      -5.021  -0.980 -33.452  1.00  0.00     0.102 A 
HETATM   19  C   UNL     1      -6.179  -0.461 -34.062  1.00  0.00    -0.004 A 
HETATM   20  C   UNL     1      -4.748  -2.350 -33.610  1.00  0.00     0.097 A 
HETATM   21  C   UNL     1      -6.491   0.896 -33.866  1.00  0.00     0.028 A 
HETATM   22  C   UNL     1      -7.004  -1.288 -34.844  1.00  0.00     0.014 A 
HETATM   23  C   UNL     1      -6.694  -2.633 -35.016  1.00  0.00     0.004 A 
HETATM   24  C   UNL     1      -5.570  -3.166 -34.397  1.00  0.00     0.039 A 
BRANCH  20  25
HETATM   25  O   UNL     1      -3.615  -2.816 -32.978  1.00  0.00    -0.354 OA
HETATM   26  C   UNL     1      -3.349  -4.208 -33.095  1.00  0.00     0.210 C 
ENDBRANCH  20  25
ENDBRANCH   5  14
BRANCH  13  27
HETATM   27  O   UNL     1      -9.639   5.713 -31.904  1.00  0.00    -0.394 OA
HETATM   28  H   UNL     1     -10.429   5.320 -31.481  1.00  0.00     0.210 HD
ENDBRANCH  13  27
TORSDOF 3
ENDMDL
MODEL 9
REMARK VINA RESULT:      -7.7      2.930      3.868
REMARK  3 active torsions:
REMARK  status: ('A' for Active; 'I' for Inactive)
REMARK    1  A    between atoms: C_5  and  C_6 
REMARK    2  A    between atoms: C_13  and  O_14 
REMARK    3  A    between atoms: C_26  and  O_27 
ROOT
HETATM    1  C   UNL     1     -11.499   4.427 -30.916  1.00  0.00     0.021 C 
HETATM    2  C   UNL     1     -10.222   3.790 -31.473  1.00  0.00     0.033 C 
HETATM    3  C   UNL     1     -10.557   2.546 -32.314  1.00  0.00     0.289 C 
HETATM    4  N   UNL     1      -9.321   1.913 -32.806  1.00  0.00     0.126 N 
HETATM    5  C   UNL     1      -8.505   1.439 -31.686  1.00  0.00     0.458 C 
HETATM    6  N   UNL     1      -8.091   2.664 -30.901  1.00  0.00    -0.033 N 
HETATM    7  H   UNL     1      -7.523   2.360 -30.105  1.00  0.00     0.282 HD
HETATM    8  C   UNL     1      -9.316   3.343 -30.318  1.00  0.00     0.251 C 
HETATM    9  C   UNL     1      -8.591   2.834 -33.688  1.00  0.00     0.289 C 
HETATM   10  C   UNL     1      -8.174   4.098 -32.919  1.00  0.00     0.033 C 
HETATM   11  C   UNL     1      -7.381   5.039 -33.831  1.00  0.00     0.021 C 
HETATM   12  C   UNL     1      -7.305   3.652 -31.739  1.00  0.00     0.251 C 
HETATM   13  C   UNL     1      -9.446   4.782 -32.372  1.00  0.00     0.141 C 
ENDROOT
BRANCH   5  14
HETATM   14  C   UNL     1      -7.396   0.469 -32.065  1.00  0.00     0.044 A 
HETATM   15  C   UNL     1      -6.269   0.290 -31.265  1.00  0.00     0.137 A 
HETATM   16 CL   UNL     1      -5.939   1.212 -29.848  1.00  0.00    -0.062 Cl
HETATM   17  N   UNL     1      -5.266  -0.570 -31.531  1.00  0.00    -0.233 NA
HETATM   18  C   UNL     1      -5.283  -1.294 -32.669  1.00  0.00     0.102 A 
HETATM   19  C   UNL     1      -6.329  -1.126 -33.596  1.00  0.00    -0.004 A 
HETATM   20  C   UNL     1      -4.274  -2.225 -32.971  1.00  0.00     0.097 A 
HETATM   21  C   UNL     1      -7.372  -0.237 -33.280  1.00  0.00     0.028 A 
HETATM   22  C   UNL     1      -6.328  -1.839 -34.808  1.00  0.00     0.014 A 
HETATM   23  C   UNL     1      -5.300  -2.729 -35.102  1.00  0.00     0.004 A 
HETATM   24  C   UNL     1      -4.275  -2.926 -34.184  1.00  0.00     0.039 A 
BRANCH  20  25
HETATM   25  O   UNL     1      -3.283  -2.369 -32.025  1.00  0.00    -0.354 OA
HETATM   26  C   UNL     1      -2.899  -3.701 -31.704  1.00  0.00     0.210 C 
ENDBRANCH  20  25
ENDBRANCH   5  14
BRANCH  13  27
HETATM   27  O   UNL     1      -9.082   5.927 -31.604  1.00  0.00    -0.394 OA
HETATM   28  H   UNL     1      -9.026   5.659 -30.665  1.00  0.00     0.210 HD
ENDBRANCH  13  27
TORSDOF 3
ENDMDL
MODEL 10
REMARK VINA RESULT:      -7.5      4.502      6.042
REMARK  3 active torsions:
REMARK  status: ('A' for Active; 'I' for Inactive)
REMARK    1  A    between atoms: C_5  and  C_6 
REMARK    2  A    between atoms: C_13  and  O_14 
REMARK    3  A    between atoms: C_26  and  O_27 
ROOT
HETATM    1  C   UNL     1     -12.053   6.777 -34.278  1.00  0.00     0.021 C 
HETATM    2  C   UNL     1     -11.457   5.384 -34.059  1.00  0.00     0.033 C 
HETATM    3  C   UNL     1     -10.493   5.388 -32.859  1.00  0.00     0.289 C 
HETATM    4  N   UNL     1      -9.887   4.056 -32.684  1.00  0.00     0.126 N 
HETATM    5  C   UNL     1      -9.080   3.702 -33.853  1.00  0.00     0.458 C 
HETATM    6  N   UNL     1     -10.031   3.604 -35.025  1.00  0.00    -0.033 N 
HETATM    7  H   UNL     1      -9.489   3.363 -35.860  1.00  0.00     0.282 HD
HETATM    8  C   UNL     1     -10.657   4.958 -35.298  1.00  0.00     0.251 C 
HETATM    9  C   UNL     1     -10.925   3.058 -32.389  1.00  0.00     0.289 C 
HETATM   10  C   UNL     1     -11.917   2.951 -33.559  1.00  0.00     0.033 C 
HETATM   11  C   UNL     1     -12.975   1.883 -33.265  1.00  0.00     0.021 C 
HETATM   12  C   UNL     1     -11.116   2.569 -34.807  1.00  0.00     0.251 C 
HETATM   13  C   UNL     1     -12.562   4.337 -33.784  1.00  0.00     0.141 C 
ENDROOT
BRANCH   5  14
HETATM   14  C   UNL     1      -8.133   2.528 -33.647  1.00  0.00     0.044 A 
HETATM   15  C   UNL     1      -7.113   2.562 -32.698  1.00  0.00     0.137 A 
HETATM   16 CL   UNL     1      -6.727   3.948 -31.751  1.00  0.00    -0.062 Cl
HETATM   17  N   UNL     1      -6.260   1.549 -32.450  1.00  0.00    -0.233 NA
HETATM   18  C   UNL     1      -6.324   0.419 -33.184  1.00  0.00     0.102 A 
HETATM   19  C   UNL     1      -7.258   0.310 -34.232  1.00  0.00    -0.004 A 
HETATM   20  C   UNL     1      -5.475  -0.675 -32.938  1.00  0.00     0.097 A 
HETATM   21  C   UNL     1      -8.149   1.376 -34.451  1.00  0.00     0.028 A 
HETATM   22  C   UNL     1      -7.298  -0.843 -35.034  1.00  0.00     0.014 A 
HETATM   23  C   UNL     1      -6.423  -1.898 -34.795  1.00  0.00     0.004 A 
HETATM   24  C   UNL     1      -5.515  -1.818 -33.746  1.00  0.00     0.039 A 
BRANCH  20  25
HETATM   25  O   UNL     1      -4.593  -0.530 -31.889  1.00  0.00    -0.354 OA
HETATM   26  C   UNL     1      -3.418  -1.330 -31.931  1.00  0.00     0.210 C 
ENDBRANCH  20  25
ENDBRANCH   5  14
BRANCH  13  27
HETATM   27  O   UNL     1     -13.444   4.279 -34.902  1.00  0.00    -0.394 OA
HETATM   28  H   UNL     1     -13.368   3.391 -35.306  1.00  0.00     0.210 HD
ENDBRANCH  13  27
TORSDOF 3
ENDMDL
