MODEL 1
REMARK VINA RESULT:     -11.1      0.000      0.000
REMARK  6 active torsions:
REMARK  status: ('A' for Active; 'I' for Inactive)
REMARK    1  A    between atoms: C_2  and  N_3 
REMARK    2  A    between atoms: C_2  and  C_32 
REMARK       I    between atoms: N_3  and  C_4 
REMARK    3  A    between atoms: C_4  and  C_5 
REMARK    4  A    between atoms: C_6  and  N_7 
REMARK       I    between atoms: N_7  and  C_8 
REMARK    5  A    between atoms: C_8  and  C_9 
REMARK    6  A    between atoms: C_9  and  N_10 
ROOT
HETATM    1  N   UNL     1      -4.137   3.334 -31.916  1.00  0.00    -0.325 N 
HETATM    2  C   UNL     1      -3.909   4.343 -32.846  1.00  0.00     0.240 C 
HETATM    3  O   UNL     1      -4.756   5.168 -33.186  1.00  0.00    -0.271 OA
HETATM    4  H   UNL     1      -3.567   2.498 -32.057  1.00  0.00     0.169 HD
ENDROOT
BRANCH   1   5
HETATM    5  C   UNL     1      -5.423   3.126 -31.368  1.00  0.00     0.050 A 
HETATM    6  C   UNL     1      -6.412   2.313 -31.953  1.00  0.00     0.058 A 
HETATM    7  C   UNL     1      -7.672   2.205 -31.337  1.00  0.00     0.019 A 
HETATM    8  C   UNL     1      -7.946   2.885 -30.151  1.00  0.00     0.001 A 
HETATM    9  C   UNL     1      -6.979   3.713 -29.591  1.00  0.00     0.002 A 
HETATM   10  C   UNL     1      -5.732   3.849 -30.205  1.00  0.00     0.030 A 
BRANCH   6  11
HETATM   11  C   UNL     1      -6.322   1.716 -33.311  1.00  0.00     0.254 C 
HETATM   12  N   UNL     1      -6.373   0.350 -33.404  1.00  0.00    -0.349 N 
HETATM   13  H   UNL     1      -6.596  -0.178 -32.562  1.00  0.00     0.163 HD
HETATM   14  O   UNL     1      -6.262   2.458 -34.288  1.00  0.00    -0.268 OA
BRANCH  12  15
HETATM   15  C   UNL     1      -6.395  -0.335 -34.684  1.00  0.00     0.114 C 
HETATM   16  C   UNL     1      -7.784  -0.254 -35.319  1.00  0.00     0.037 C 
BRANCH  15  17
HETATM   17  C   UNL     1      -5.926  -1.773 -34.545  1.00  0.00    -0.036 A 
HETATM   18  C   UNL     1      -4.649  -2.041 -34.026  1.00  0.00     0.009 A 
HETATM   19  C   UNL     1      -4.184  -3.354 -33.913  1.00  0.00     0.001 A 
HETATM   20  C   UNL     1      -4.991  -4.416 -34.312  1.00  0.00     0.000 A 
HETATM   21  C   UNL     1      -6.263  -4.167 -34.824  1.00  0.00     0.001 A 
HETATM   22  C   UNL     1      -6.726  -2.856 -34.944  1.00  0.00     0.009 A 
ENDBRANCH  15  17
ENDBRANCH  12  15
ENDBRANCH   6  11
ENDBRANCH   1   5
BRANCH   2  23
HETATM   23  C   UNL     1      -2.481   4.381 -33.382  1.00  0.00     0.240 C 
BRANCH  23  24
HETATM   24  N   UNL     1      -1.703   5.449 -32.789  1.00  0.00    -0.259 N 
HETATM   25  C   UNL     1      -1.416   6.636 -33.384  1.00  0.00     0.326 C 
HETATM   26  O   UNL     1      -1.734   7.010 -34.498  1.00  0.00    -0.247 OA
HETATM   27  N   UNL     1      -0.694   7.402 -32.494  1.00  0.00    -0.324 N 
HETATM   28  C   UNL     1      -0.685   6.830 -31.158  1.00  0.00     0.120 C 
HETATM   29  H   UNL     1      -0.495   8.371 -32.720  1.00  0.00     0.165 HD
HETATM   30  C   UNL     1      -1.735   7.522 -30.277  1.00  0.00     0.080 C 
HETATM   31  C   UNL     1       0.698   6.868 -30.524  1.00  0.00     0.046 C 
HETATM   32  C   UNL     1      -1.172   5.417 -31.532  1.00  0.00     0.257 C 
HETATM   33  C   UNL     1      -1.652   7.136 -28.823  1.00  0.00    -0.049 A 
HETATM   34  C   UNL     1      -0.486   6.571 -28.280  1.00  0.00    -0.052 A 
HETATM   35  C   UNL     1      -2.757   7.376 -27.993  1.00  0.00     0.007 A 
HETATM   36  C   UNL     1       0.719   6.247 -29.127  1.00  0.00     0.042 C 
HETATM   37  C   UNL     1      -0.463   6.227 -26.919  1.00  0.00     0.007 A 
HETATM   38  C   UNL     1      -1.574   6.456 -26.106  1.00  0.00     0.001 A 
HETATM   39  C   UNL     1      -2.721   7.033 -26.643  1.00  0.00     0.001 A 
HETATM   40  O   UNL     1      -1.128   4.414 -30.831  1.00  0.00    -0.270 OA
ENDBRANCH  23  24
ENDBRANCH   2  23
TORSDOF 6
ENDMDL
MODEL 2
REMARK VINA RESULT:     -10.9      3.840      5.601
REMARK  6 active torsions:
REMARK  status: ('A' for Active; 'I' for Inactive)
REMARK    1  A    between atoms: C_2  and  N_3 
REMARK    2  A    between atoms: C_2  and  C_32 
REMARK       I    between atoms: N_3  and  C_4 
REMARK    3  A    between atoms: C_4  and  C_5 
REMARK    4  A    between atoms: C_6  and  N_7 
REMARK       I    between atoms: N_7  and  C_8 
REMARK    5  A    between atoms: C_8  and  C_9 
REMARK    6  A    between atoms: C_9  and  N_10 
ROOT
HETATM    1  N   UNL     1     -10.093   2.873 -34.556  1.00  0.00    -0.325 N 
HETATM    2  C   UNL     1     -10.058   4.027 -33.782  1.00  0.00     0.240 C 
HETATM    3  O   UNL     1     -10.651   4.154 -32.711  1.00  0.00    -0.271 OA
HETATM    4  H   UNL     1      -9.969   3.036 -35.557  1.00  0.00     0.169 HD
ENDROOT
BRANCH   1   5
HETATM    5  C   UNL     1     -10.918   1.782 -34.201  1.00  0.00     0.050 A 
HETATM    6  C   UNL     1     -10.511   0.715 -33.377  1.00  0.00     0.058 A 
HETATM    7  C   UNL     1     -11.406  -0.337 -33.115  1.00  0.00     0.019 A 
HETATM    8  C   UNL     1     -12.692  -0.330 -33.654  1.00  0.00     0.001 A 
HETATM    9  C   UNL     1     -13.083   0.708 -34.494  1.00  0.00     0.002 A 
HETATM   10  C   UNL     1     -12.195   1.748 -34.781  1.00  0.00     0.030 A 
BRANCH   6  11
HETATM   11  C   UNL     1      -9.115   0.482 -32.923  1.00  0.00     0.254 C 
HETATM   12  N   UNL     1      -8.266  -0.147 -33.797  1.00  0.00    -0.349 N 
HETATM   13  H   UNL     1      -8.592  -0.306 -34.748  1.00  0.00     0.163 HD
HETATM   14  O   UNL     1      -8.765   0.902 -31.824  1.00  0.00    -0.268 OA
BRANCH  12  15
HETATM   15  C   UNL     1      -6.857  -0.336 -33.499  1.00  0.00     0.114 C 
HETATM   16  C   UNL     1      -6.014   0.765 -34.142  1.00  0.00     0.037 C 
BRANCH  15  17
HETATM   17  C   UNL     1      -6.390  -1.719 -33.920  1.00  0.00    -0.036 A 
HETATM   18  C   UNL     1      -5.022  -2.037 -33.870  1.00  0.00     0.009 A 
HETATM   19  C   UNL     1      -4.564  -3.291 -34.278  1.00  0.00     0.001 A 
HETATM   20  C   UNL     1      -5.466  -4.247 -34.737  1.00  0.00     0.000 A 
HETATM   21  C   UNL     1      -6.826  -3.950 -34.790  1.00  0.00     0.001 A 
HETATM   22  C   UNL     1      -7.285  -2.694 -34.389  1.00  0.00     0.009 A 
ENDBRANCH  15  17
ENDBRANCH  12  15
ENDBRANCH   6  11
ENDBRANCH   1   5
BRANCH   2  23
HETATM   23  C   UNL     1      -9.166   5.128 -34.348  1.00  0.00     0.240 C 
BRANCH  23  24
HETATM   24  N   UNL     1      -8.081   5.467 -33.451  1.00  0.00    -0.259 N 
HETATM   25  C   UNL     1      -8.110   6.458 -32.523  1.00  0.00     0.326 C 
HETATM   26  O   UNL     1      -9.018   7.234 -32.285  1.00  0.00    -0.247 OA
HETATM   27  N   UNL     1      -6.912   6.446 -31.840  1.00  0.00    -0.324 N 
HETATM   28  C   UNL     1      -6.123   5.261 -32.137  1.00  0.00     0.120 C 
HETATM   29  H   UNL     1      -6.799   7.038 -31.024  1.00  0.00     0.165 HD
HETATM   30  C   UNL     1      -6.302   4.214 -31.029  1.00  0.00     0.080 C 
HETATM   31  C   UNL     1      -4.656   5.591 -32.372  1.00  0.00     0.046 C 
HETATM   32  C   UNL     1      -6.883   4.815 -33.400  1.00  0.00     0.257 C 
HETATM   33  C   UNL     1      -5.361   3.043 -31.150  1.00  0.00    -0.049 A 
HETATM   34  C   UNL     1      -4.182   3.124 -31.909  1.00  0.00    -0.052 A 
HETATM   35  C   UNL     1      -5.662   1.857 -30.461  1.00  0.00     0.007 A 
HETATM   36  C   UNL     1      -3.825   4.352 -32.708  1.00  0.00     0.042 C 
HETATM   37  C   UNL     1      -3.342   2.001 -31.990  1.00  0.00     0.007 A 
HETATM   38  C   UNL     1      -3.659   0.823 -31.314  1.00  0.00     0.001 A 
HETATM   39  C   UNL     1      -4.818   0.752 -30.547  1.00  0.00     0.001 A 
HETATM   40  O   UNL     1      -6.513   3.993 -34.229  1.00  0.00    -0.270 OA
ENDBRANCH  23  24
ENDBRANCH   2  23
TORSDOF 6
ENDMDL
MODEL 3
REMARK VINA RESULT:     -10.7      2.549      5.185
REMARK  6 active torsions:
REMARK  status: ('A' for Active; 'I' for Inactive)
REMARK    1  A    between atoms: C_2  and  N_3 
REMARK    2  A    between atoms: C_2  and  C_32 
REMARK       I    between atoms: N_3  and  C_4 
REMARK    3  A    between atoms: C_4  and  C_5 
REMARK    4  A    between atoms: C_6  and  N_7 
REMARK       I    between atoms: N_7  and  C_8 
REMARK    5  A    between atoms: C_8  and  C_9 
REMARK    6  A    between atoms: C_9  and  N_10 
ROOT
HETATM    1  N   UNL     1      -4.947   0.691 -32.410  1.00  0.00    -0.325 N 
HETATM    2  C   UNL     1      -5.687   1.022 -31.280  1.00  0.00     0.240 C 
HETATM    3  O   UNL     1      -6.704   0.425 -30.926  1.00  0.00    -0.271 OA
HETATM    4  H   UNL     1      -4.448   1.478 -32.829  1.00  0.00     0.169 HD
ENDROOT
BRANCH   1   5
HETATM    5  C   UNL     1      -5.388  -0.312 -33.302  1.00  0.00     0.050 A 
HETATM    6  C   UNL     1      -6.499  -0.179 -34.158  1.00  0.00     0.058 A 
HETATM    7  C   UNL     1      -6.870  -1.257 -34.981  1.00  0.00     0.019 A 
HETATM    8  C   UNL     1      -6.145  -2.449 -34.966  1.00  0.00     0.001 A 
HETATM    9  C   UNL     1      -5.067  -2.590 -34.098  1.00  0.00     0.002 A 
HETATM   10  C   UNL     1      -4.703  -1.536 -33.257  1.00  0.00     0.030 A 
BRANCH   6  11
HETATM   11  C   UNL     1      -7.473   0.942 -34.112  1.00  0.00     0.254 C 
HETATM   12  N   UNL     1      -8.689   0.697 -33.529  1.00  0.00    -0.349 N 
HETATM   13  H   UNL     1      -8.818  -0.191 -33.047  1.00  0.00     0.163 HD
HETATM   14  O   UNL     1      -7.138   2.043 -34.541  1.00  0.00    -0.268 OA
BRANCH  12  15
HETATM   15  C   UNL     1      -9.677   1.744 -33.340  1.00  0.00     0.114 C 
HETATM   16  C   UNL     1      -9.630   2.282 -31.909  1.00  0.00     0.037 C 
BRANCH  15  17
HETATM   17  C   UNL     1     -11.068   1.258 -33.710  1.00  0.00    -0.036 A 
HETATM   18  C   UNL     1     -11.893   2.059 -34.518  1.00  0.00     0.009 A 
HETATM   19  C   UNL     1     -13.186   1.647 -34.849  1.00  0.00     0.001 A 
HETATM   20  C   UNL     1     -13.670   0.427 -34.383  1.00  0.00     0.000 A 
HETATM   21  C   UNL     1     -12.863  -0.381 -33.585  1.00  0.00     0.001 A 
HETATM   22  C   UNL     1     -11.573   0.033 -33.247  1.00  0.00     0.009 A 
ENDBRANCH  15  17
ENDBRANCH  12  15
ENDBRANCH   6  11
ENDBRANCH   1   5
BRANCH   2  23
HETATM   23  C   UNL     1      -5.098   2.170 -30.467  1.00  0.00     0.240 C 
BRANCH  23  24
HETATM   24  N   UNL     1      -4.778   3.317 -31.293  1.00  0.00    -0.259 N 
HETATM   25  C   UNL     1      -5.685   4.100 -31.932  1.00  0.00     0.326 C 
HETATM   26  O   UNL     1      -6.896   3.985 -31.946  1.00  0.00    -0.247 OA
HETATM   27  N   UNL     1      -5.002   5.109 -32.580  1.00  0.00    -0.324 N 
HETATM   28  C   UNL     1      -3.605   5.170 -32.183  1.00  0.00     0.120 C 
HETATM   29  H   UNL     1      -5.524   5.864 -33.011  1.00  0.00     0.165 HD
HETATM   30  C   UNL     1      -3.401   6.263 -31.124  1.00  0.00     0.080 C 
HETATM   31  C   UNL     1      -2.676   5.355 -33.373  1.00  0.00     0.046 C 
HETATM   32  C   UNL     1      -3.516   3.782 -31.519  1.00  0.00     0.257 C 
HETATM   33  C   UNL     1      -1.953   6.535 -30.810  1.00  0.00    -0.049 A 
HETATM   34  C   UNL     1      -0.927   6.159 -31.693  1.00  0.00    -0.052 A 
HETATM   35  C   UNL     1      -1.632   7.205 -29.620  1.00  0.00     0.007 A 
HETATM   36  C   UNL     1      -1.203   5.397 -32.965  1.00  0.00     0.042 C 
HETATM   37  C   UNL     1       0.406   6.434 -31.349  1.00  0.00     0.007 A 
HETATM   38  C   UNL     1       0.715   7.088 -30.156  1.00  0.00     0.001 A 
HETATM   39  C   UNL     1      -0.304   7.476 -29.292  1.00  0.00     0.001 A 
HETATM   40  O   UNL     1      -2.496   3.180 -31.209  1.00  0.00    -0.270 OA
ENDBRANCH  23  24
ENDBRANCH   2  23
TORSDOF 6
ENDMDL
MODEL 4
REMARK VINA RESULT:     -10.3      1.729      2.163
REMARK  6 active torsions:
REMARK  status: ('A' for Active; 'I' for Inactive)
REMARK    1  A    between atoms: C_2  and  N_3 
REMARK    2  A    between atoms: C_2  and  C_32 
REMARK       I    between atoms: N_3  and  C_4 
REMARK    3  A    between atoms: C_4  and  C_5 
REMARK    4  A    between atoms: C_6  and  N_7 
REMARK       I    between atoms: N_7  and  C_8 
REMARK    5  A    between atoms: C_8  and  C_9 
REMARK    6  A    between atoms: C_9  and  N_10 
ROOT
HETATM    1  N   UNL     1      -5.790   4.417 -32.198  1.00  0.00    -0.325 N 
HETATM    2  C   UNL     1      -4.797   3.543 -31.772  1.00  0.00     0.240 C 
HETATM    3  O   UNL     1      -4.878   2.855 -30.754  1.00  0.00    -0.271 OA
HETATM    4  H   UNL     1      -5.445   5.212 -32.739  1.00  0.00     0.169 HD
ENDROOT
BRANCH   1   5
HETATM    5  C   UNL     1      -6.940   4.652 -31.412  1.00  0.00     0.050 A 
HETATM    6  C   UNL     1      -8.141   3.925 -31.526  1.00  0.00     0.058 A 
HETATM    7  C   UNL     1      -9.236   4.267 -30.714  1.00  0.00     0.019 A 
HETATM    8  C   UNL     1      -9.144   5.311 -29.793  1.00  0.00     0.001 A 
HETATM    9  C   UNL     1      -7.968   6.050 -29.704  1.00  0.00     0.002 A 
HETATM   10  C   UNL     1      -6.880   5.735 -30.522  1.00  0.00     0.030 A 
BRANCH   6  11
HETATM   11  C   UNL     1      -8.438   2.946 -32.604  1.00  0.00     0.254 C 
HETATM   12  N   UNL     1      -8.028   1.652 -32.411  1.00  0.00    -0.349 N 
HETATM   13  H   UNL     1      -7.660   1.399 -31.496  1.00  0.00     0.163 HD
HETATM   14  O   UNL     1      -9.076   3.314 -33.586  1.00  0.00    -0.268 OA
BRANCH  12  15
HETATM   15  C   UNL     1      -8.353   0.594 -33.351  1.00  0.00     0.114 C 
HETATM   16  C   UNL     1      -9.593  -0.174 -32.896  1.00  0.00     0.037 C 
BRANCH  15  17
HETATM   17  C   UNL     1      -7.167  -0.332 -33.564  1.00  0.00    -0.036 A 
HETATM   18  C   UNL     1      -5.995  -0.145 -32.813  1.00  0.00     0.009 A 
HETATM   19  C   UNL     1      -4.882  -0.966 -33.009  1.00  0.00     0.001 A 
HETATM   20  C   UNL     1      -4.926  -1.987 -33.954  1.00  0.00     0.000 A 
HETATM   21  C   UNL     1      -6.083  -2.189 -34.705  1.00  0.00     0.001 A 
HETATM   22  C   UNL     1      -7.194  -1.365 -34.515  1.00  0.00     0.009 A 
ENDBRANCH  15  17
ENDBRANCH  12  15
ENDBRANCH   6  11
ENDBRANCH   1   5
BRANCH   2  23
HETATM   23  C   UNL     1      -3.597   3.461 -32.710  1.00  0.00     0.240 C 
BRANCH  23  24
HETATM   24  N   UNL     1      -2.898   4.725 -32.815  1.00  0.00    -0.259 N 
HETATM   25  C   UNL     1      -3.180   5.706 -33.711  1.00  0.00     0.326 C 
HETATM   26  O   UNL     1      -4.036   5.705 -34.577  1.00  0.00    -0.247 OA
HETATM   27  N   UNL     1      -2.330   6.766 -33.474  1.00  0.00    -0.324 N 
HETATM   28  C   UNL     1      -1.599   6.614 -32.226  1.00  0.00     0.120 C 
HETATM   29  H   UNL     1      -2.475   7.640 -33.968  1.00  0.00     0.165 HD
HETATM   30  C   UNL     1      -2.273   7.431 -31.115  1.00  0.00     0.080 C 
HETATM   31  C   UNL     1      -0.127   6.969 -32.375  1.00  0.00     0.046 C 
HETATM   32  C   UNL     1      -1.871   5.114 -32.005  1.00  0.00     0.257 C 
HETATM   33  C   UNL     1      -1.467   7.498 -29.843  1.00  0.00    -0.049 A 
HETATM   34  C   UNL     1      -0.088   7.232 -29.834  1.00  0.00    -0.052 A 
HETATM   35  C   UNL     1      -2.110   7.866 -28.651  1.00  0.00     0.007 A 
HETATM   36  C   UNL     1       0.653   6.790 -31.071  1.00  0.00     0.042 C 
HETATM   37  C   UNL     1       0.615   7.307 -28.620  1.00  0.00     0.007 A 
HETATM   38  C   UNL     1      -0.038   7.657 -27.438  1.00  0.00     0.001 A 
HETATM   39  C   UNL     1      -1.400   7.939 -27.454  1.00  0.00     0.001 A 
HETATM   40  O   UNL     1      -1.296   4.371 -31.221  1.00  0.00    -0.270 OA
ENDBRANCH  23  24
ENDBRANCH   2  23
TORSDOF 6
ENDMDL
MODEL 5
REMARK VINA RESULT:     -10.3      2.556      4.194
REMARK  6 active torsions:
REMARK  status: ('A' for Active; 'I' for Inactive)
REMARK    1  A    between atoms: C_2  and  N_3 
REMARK    2  A    between atoms: C_2  and  C_32 
REMARK       I    between atoms: N_3  and  C_4 
REMARK    3  A    between atoms: C_4  and  C_5 
REMARK    4  A    between atoms: C_6  and  N_7 
REMARK       I    between atoms: N_7  and  C_8 
REMARK    5  A    between atoms: C_8  and  C_9 
REMARK    6  A    between atoms: C_9  and  N_10 
ROOT
HETATM    1  N   UNL     1      -8.325   3.471 -32.031  1.00  0.00    -0.325 N 
HETATM    2  C   UNL     1      -8.274   3.822 -30.686  1.00  0.00     0.240 C 
HETATM    3  O   UNL     1      -8.957   3.290 -29.811  1.00  0.00    -0.271 OA
HETATM    4  H   UNL     1      -8.091   4.232 -32.672  1.00  0.00     0.169 HD
ENDROOT
BRANCH   1   5
HETATM    5  C   UNL     1      -9.266   2.528 -32.502  1.00  0.00     0.050 A 
HETATM    6  C   UNL     1      -9.070   1.134 -32.481  1.00  0.00     0.058 A 
HETATM    7  C   UNL     1     -10.062   0.289 -33.009  1.00  0.00     0.019 A 
HETATM    8  C   UNL     1     -11.239   0.815 -33.542  1.00  0.00     0.001 A 
HETATM    9  C   UNL     1     -11.418   2.194 -33.591  1.00  0.00     0.002 A 
HETATM   10  C   UNL     1     -10.430   3.046 -33.092  1.00  0.00     0.030 A 
BRANCH   6  11
HETATM   11  C   UNL     1      -7.787   0.465 -32.146  1.00  0.00     0.254 C 
HETATM   12  N   UNL     1      -7.135  -0.192 -33.157  1.00  0.00    -0.349 N 
HETATM   13  H   UNL     1      -7.492  -0.084 -34.105  1.00  0.00     0.163 HD
HETATM   14  O   UNL     1      -7.337   0.570 -31.008  1.00  0.00    -0.268 OA
BRANCH  12  15
HETATM   15  C   UNL     1      -5.827  -0.794 -32.967  1.00  0.00     0.114 C 
HETATM   16  C   UNL     1      -4.719   0.175 -33.378  1.00  0.00     0.037 C 
BRANCH  15  17
HETATM   17  C   UNL     1      -5.720  -2.115 -33.708  1.00  0.00    -0.036 A 
HETATM   18  C   UNL     1      -6.862  -2.675 -34.304  1.00  0.00     0.009 A 
HETATM   19  C   UNL     1      -6.795  -3.902 -34.967  1.00  0.00     0.001 A 
HETATM   20  C   UNL     1      -5.584  -4.584 -35.050  1.00  0.00     0.000 A 
HETATM   21  C   UNL     1      -4.440  -4.041 -34.469  1.00  0.00     0.001 A 
HETATM   22  C   UNL     1      -4.507  -2.818 -33.799  1.00  0.00     0.009 A 
ENDBRANCH  15  17
ENDBRANCH  12  15
ENDBRANCH   6  11
ENDBRANCH   1   5
BRANCH   2  23
HETATM   23  C   UNL     1      -7.245   4.902 -30.365  1.00  0.00     0.240 C 
BRANCH  23  24
HETATM   24  N   UNL     1      -6.406   5.213 -31.504  1.00  0.00    -0.259 N 
HETATM   25  C   UNL     1      -6.798   5.912 -32.600  1.00  0.00     0.326 C 
HETATM   26  O   UNL     1      -7.896   6.384 -32.834  1.00  0.00    -0.247 OA
HETATM   27  N   UNL     1      -5.714   6.037 -33.444  1.00  0.00    -0.324 N 
HETATM   28  C   UNL     1      -4.473   5.623 -32.808  1.00  0.00     0.120 C 
HETATM   29  H   UNL     1      -5.785   6.637 -34.259  1.00  0.00     0.165 HD
HETATM   30  C   UNL     1      -3.704   6.848 -32.297  1.00  0.00     0.080 C 
HETATM   31  C   UNL     1      -3.618   4.760 -33.725  1.00  0.00     0.046 C 
HETATM   32  C   UNL     1      -5.091   4.864 -31.618  1.00  0.00     0.257 C 
HETATM   33  C   UNL     1      -2.313   6.527 -31.812  1.00  0.00    -0.049 A 
HETATM   34  C   UNL     1      -1.655   5.348 -32.199  1.00  0.00    -0.052 A 
HETATM   35  C   UNL     1      -1.656   7.447 -30.979  1.00  0.00     0.007 A 
HETATM   36  C   UNL     1      -2.322   4.301 -33.054  1.00  0.00     0.042 C 
HETATM   37  C   UNL     1      -0.361   5.098 -31.716  1.00  0.00     0.007 A 
HETATM   38  C   UNL     1       0.276   6.011 -30.876  1.00  0.00     0.001 A 
HETATM   39  C   UNL     1      -0.370   7.187 -30.509  1.00  0.00     0.001 A 
HETATM   40  O   UNL     1      -4.519   4.089 -30.863  1.00  0.00    -0.270 OA
ENDBRANCH  23  24
ENDBRANCH   2  23
TORSDOF 6
ENDMDL
MODEL 6
REMARK VINA RESULT:     -10.3      3.267      7.738
REMARK  6 active torsions:
REMARK  status: ('A' for Active; 'I' for Inactive)
REMARK    1  A    between atoms: C_2  and  N_3 
REMARK    2  A    between atoms: C_2  and  C_32 
REMARK       I    between atoms: N_3  and  C_4 
REMARK    3  A    between atoms: C_4  and  C_5 
REMARK    4  A    between atoms: C_6  and  N_7 
REMARK       I    between atoms: N_7  and  C_8 
REMARK    5  A    between atoms: C_8  and  C_9 
REMARK    6  A    between atoms: C_9  and  N_10 
ROOT
HETATM    1  N   UNL     1      -5.224   6.168 -32.903  1.00  0.00    -0.325 N 
HETATM    2  C   UNL     1      -5.871   6.827 -31.863  1.00  0.00     0.240 C 
HETATM    3  O   UNL     1      -5.300   7.259 -30.862  1.00  0.00    -0.271 OA
HETATM    4  H   UNL     1      -5.810   5.496 -33.403  1.00  0.00     0.169 HD
ENDROOT
BRANCH   1   5
HETATM    5  C   UNL     1      -3.849   5.854 -32.821  1.00  0.00     0.050 A 
HETATM    6  C   UNL     1      -3.343   4.597 -32.438  1.00  0.00     0.058 A 
HETATM    7  C   UNL     1      -1.953   4.406 -32.358  1.00  0.00     0.019 A 
HETATM    8  C   UNL     1      -1.071   5.442 -32.664  1.00  0.00     0.001 A 
HETATM    9  C   UNL     1      -1.572   6.693 -33.013  1.00  0.00     0.002 A 
HETATM   10  C   UNL     1      -2.951   6.903 -33.072  1.00  0.00     0.030 A 
BRANCH   6  11
HETATM   11  C   UNL     1      -4.164   3.489 -31.883  1.00  0.00     0.254 C 
HETATM   12  N   UNL     1      -4.183   2.309 -32.579  1.00  0.00    -0.349 N 
HETATM   13  H   UNL     1      -3.541   2.207 -33.363  1.00  0.00     0.163 HD
HETATM   14  O   UNL     1      -4.741   3.651 -30.811  1.00  0.00    -0.268 OA
BRANCH  12  15
HETATM   15  C   UNL     1      -4.868   1.131 -32.079  1.00  0.00     0.114 C 
HETATM   16  C   UNL     1      -3.865   0.067 -31.634  1.00  0.00     0.037 C 
BRANCH  15  17
HETATM   17  C   UNL     1      -5.843   0.585 -33.108  1.00  0.00    -0.036 A 
HETATM   18  C   UNL     1      -6.240  -0.761 -33.046  1.00  0.00     0.009 A 
HETATM   19  C   UNL     1      -7.113  -1.293 -33.998  1.00  0.00     0.001 A 
HETATM   20  C   UNL     1      -7.606  -0.488 -35.021  1.00  0.00     0.000 A 
HETATM   21  C   UNL     1      -7.225   0.851 -35.094  1.00  0.00     0.001 A 
HETATM   22  C   UNL     1      -6.347   1.383 -34.148  1.00  0.00     0.009 A 
ENDBRANCH  15  17
ENDBRANCH  12  15
ENDBRANCH   6  11
ENDBRANCH   1   5
BRANCH   2  23
HETATM   23  C   UNL     1      -7.367   7.025 -32.090  1.00  0.00     0.240 C 
BRANCH  23  24
HETATM   24  N   UNL     1      -8.158   5.996 -31.445  1.00  0.00    -0.259 N 
HETATM   25  C   UNL     1      -8.734   6.102 -30.220  1.00  0.00     0.326 C 
HETATM   26  O   UNL     1      -8.686   7.043 -29.449  1.00  0.00    -0.247 OA
HETATM   27  N   UNL     1      -9.434   4.940 -29.970  1.00  0.00    -0.324 N 
HETATM   28  C   UNL     1      -9.548   4.103 -31.153  1.00  0.00     0.120 C 
HETATM   29  H   UNL     1     -10.032   4.887 -29.153  1.00  0.00     0.165 HD
HETATM   30  C   UNL     1     -10.917   4.307 -31.818  1.00  0.00     0.080 C 
HETATM   31  C   UNL     1      -9.281   2.636 -30.848  1.00  0.00     0.046 C 
HETATM   32  C   UNL     1      -8.455   4.784 -31.998  1.00  0.00     0.257 C 
HETATM   33  C   UNL     1     -11.199   3.327 -32.928  1.00  0.00    -0.049 A 
HETATM   34  C   UNL     1     -10.499   2.114 -33.032  1.00  0.00    -0.052 A 
HETATM   35  C   UNL     1     -12.207   3.628 -33.858  1.00  0.00     0.007 A 
HETATM   36  C   UNL     1      -9.376   1.753 -32.093  1.00  0.00     0.042 C 
HETATM   37  C   UNL     1     -10.801   1.239 -34.088  1.00  0.00     0.007 A 
HETATM   38  C   UNL     1     -11.794   1.555 -35.015  1.00  0.00     0.001 A 
HETATM   39  C   UNL     1     -12.499   2.749 -34.899  1.00  0.00     0.001 A 
HETATM   40  O   UNL     1      -7.935   4.349 -33.017  1.00  0.00    -0.270 OA
ENDBRANCH  23  24
ENDBRANCH   2  23
TORSDOF 6
ENDMDL
MODEL 7
REMARK VINA RESULT:     -10.2      4.081      9.702
REMARK  6 active torsions:
REMARK  status: ('A' for Active; 'I' for Inactive)
REMARK    1  A    between atoms: C_2  and  N_3 
REMARK    2  A    between atoms: C_2  and  C_32 
REMARK       I    between atoms: N_3  and  C_4 
REMARK    3  A    between atoms: C_4  and  C_5 
REMARK    4  A    between atoms: C_6  and  N_7 
REMARK       I    between atoms: N_7  and  C_8 
REMARK    5  A    between atoms: C_8  and  C_9 
REMARK    6  A    between atoms: C_9  and  N_10 
ROOT
HETATM    1  N   UNL     1      -7.170  -0.298 -32.839  1.00  0.00    -0.325 N 
HETATM    2  C   UNL     1      -7.352   0.966 -33.390  1.00  0.00     0.240 C 
HETATM    3  O   UNL     1      -6.753   1.373 -34.386  1.00  0.00    -0.271 OA
HETATM    4  H   UNL     1      -7.346  -0.345 -31.833  1.00  0.00     0.169 HD
ENDROOT
BRANCH   1   5
HETATM    5  C   UNL     1      -6.185  -1.177 -33.341  1.00  0.00     0.050 A 
HETATM    6  C   UNL     1      -4.829  -1.149 -32.962  1.00  0.00     0.058 A 
HETATM    7  C   UNL     1      -3.927  -2.051 -33.553  1.00  0.00     0.019 A 
HETATM    8  C   UNL     1      -4.362  -2.977 -34.501  1.00  0.00     0.001 A 
HETATM    9  C   UNL     1      -5.695  -2.984 -34.898  1.00  0.00     0.002 A 
HETATM   10  C   UNL     1      -6.597  -2.077 -34.337  1.00  0.00     0.030 A 
BRANCH   6  11
HETATM   11  C   UNL     1      -4.204  -0.083 -32.137  1.00  0.00     0.254 C 
HETATM   12  N   UNL     1      -4.305   1.207 -32.591  1.00  0.00    -0.349 N 
HETATM   13  H   UNL     1      -4.906   1.384 -33.394  1.00  0.00     0.163 HD
HETATM   14  O   UNL     1      -3.677  -0.384 -31.070  1.00  0.00    -0.268 OA
BRANCH  12  15
HETATM   15  C   UNL     1      -3.820   2.336 -31.817  1.00  0.00     0.114 C 
HETATM   16  C   UNL     1      -4.802   2.690 -30.701  1.00  0.00     0.037 C 
BRANCH  15  17
HETATM   17  C   UNL     1      -3.534   3.530 -32.712  1.00  0.00    -0.036 A 
HETATM   18  C   UNL     1      -4.569   4.087 -33.482  1.00  0.00     0.009 A 
HETATM   19  C   UNL     1      -4.325   5.167 -34.332  1.00  0.00     0.001 A 
HETATM   20  C   UNL     1      -3.046   5.710 -34.421  1.00  0.00     0.000 A 
HETATM   21  C   UNL     1      -2.009   5.173 -33.661  1.00  0.00     0.001 A 
HETATM   22  C   UNL     1      -2.250   4.088 -32.816  1.00  0.00     0.009 A 
ENDBRANCH  15  17
ENDBRANCH  12  15
ENDBRANCH   6  11
ENDBRANCH   1   5
BRANCH   2  23
HETATM   23  C   UNL     1      -8.411   1.806 -32.683  1.00  0.00     0.240 C 
BRANCH  23  24
HETATM   24  N   UNL     1      -9.722   1.645 -33.277  1.00  0.00    -0.259 N 
HETATM   25  C   UNL     1     -10.527   0.562 -33.121  1.00  0.00     0.326 C 
HETATM   26  O   UNL     1     -10.302  -0.452 -32.485  1.00  0.00    -0.247 OA
HETATM   27  N   UNL     1     -11.703   0.796 -33.802  1.00  0.00    -0.324 N 
HETATM   28  C   UNL     1     -11.817   2.177 -34.243  1.00  0.00     0.120 C 
HETATM   29  H   UNL     1     -12.476   0.148 -33.696  1.00  0.00     0.165 HD
HETATM   30  C   UNL     1     -12.695   2.975 -33.268  1.00  0.00     0.080 C 
HETATM   31  C   UNL     1     -12.320   2.284 -35.675  1.00  0.00     0.046 C 
HETATM   32  C   UNL     1     -10.341   2.578 -34.058  1.00  0.00     0.257 C 
HETATM   33  C   UNL     1     -13.035   4.358 -33.759  1.00  0.00    -0.049 A 
HETATM   34  C   UNL     1     -12.939   4.699 -35.118  1.00  0.00    -0.052 A 
HETATM   35  C   UNL     1     -13.486   5.314 -32.835  1.00  0.00     0.007 A 
HETATM   36  C   UNL     1     -12.420   3.733 -36.153  1.00  0.00     0.042 C 
HETATM   37  C   UNL     1     -13.267   6.004 -35.520  1.00  0.00     0.007 A 
HETATM   38  C   UNL     1     -13.699   6.950 -34.590  1.00  0.00     0.001 A 
HETATM   39  C   UNL     1     -13.811   6.604 -33.248  1.00  0.00     0.001 A 
HETATM   40  O   UNL     1      -9.788   3.575 -34.503  1.00  0.00    -0.270 OA
ENDBRANCH  23  24
ENDBRANCH   2  23
TORSDOF 6
ENDMDL
MODEL 8
REMARK VINA RESULT:      -9.9      3.233      8.002
REMARK  6 active torsions:
REMARK  status: ('A' for Active; 'I' for Inactive)
REMARK    1  A    between atoms: C_2  and  N_3 
REMARK    2  A    between atoms: C_2  and  C_32 
REMARK       I    between atoms: N_3  and  C_4 
REMARK    3  A    between atoms: C_4  and  C_5 
REMARK    4  A    between atoms: C_6  and  N_7 
REMARK       I    between atoms: N_7  and  C_8 
REMARK    5  A    between atoms: C_8  and  C_9 
REMARK    6  A    between atoms: C_9  and  N_10 
ROOT
HETATM    1  N   UNL     1      -8.393   0.795 -34.665  1.00  0.00    -0.325 N 
HETATM    2  C   UNL     1      -9.556   0.738 -33.905  1.00  0.00     0.240 C 
HETATM    3  O   UNL     1      -9.657   0.117 -32.847  1.00  0.00    -0.271 OA
HETATM    4  H   UNL     1      -8.551   0.929 -35.665  1.00  0.00     0.169 HD
ENDROOT
BRANCH   1   5
HETATM    5  C   UNL     1      -7.255   0.035 -34.311  1.00  0.00     0.050 A 
HETATM    6  C   UNL     1      -6.262   0.466 -33.411  1.00  0.00     0.058 A 
HETATM    7  C   UNL     1      -5.152  -0.359 -33.158  1.00  0.00     0.019 A 
HETATM    8  C   UNL     1      -5.030  -1.602 -33.781  1.00  0.00     0.001 A 
HETATM    9  C   UNL     1      -5.996  -2.013 -34.694  1.00  0.00     0.002 A 
HETATM   10  C   UNL     1      -7.091  -1.192 -34.973  1.00  0.00     0.030 A 
BRANCH   6  11
HETATM   11  C   UNL     1      -6.163   1.841 -32.856  1.00  0.00     0.254 C 
HETATM   12  N   UNL     1      -5.173   2.651 -33.350  1.00  0.00    -0.349 N 
HETATM   13  H   UNL     1      -4.643   2.320 -34.154  1.00  0.00     0.163 HD
HETATM   14  O   UNL     1      -6.990   2.213 -32.028  1.00  0.00    -0.268 OA
BRANCH  12  15
HETATM   15  C   UNL     1      -5.048   4.042 -32.954  1.00  0.00     0.114 C 
HETATM   16  C   UNL     1      -5.769   4.956 -33.945  1.00  0.00     0.037 C 
BRANCH  15  17
HETATM   17  C   UNL     1      -3.590   4.435 -32.789  1.00  0.00    -0.036 A 
HETATM   18  C   UNL     1      -3.011   4.443 -31.509  1.00  0.00     0.009 A 
HETATM   19  C   UNL     1      -1.680   4.827 -31.328  1.00  0.00     0.001 A 
HETATM   20  C   UNL     1      -0.908   5.202 -32.423  1.00  0.00     0.000 A 
HETATM   21  C   UNL     1      -1.464   5.194 -33.701  1.00  0.00     0.001 A 
HETATM   22  C   UNL     1      -2.796   4.818 -33.883  1.00  0.00     0.009 A 
ENDBRANCH  15  17
ENDBRANCH  12  15
ENDBRANCH   6  11
ENDBRANCH   1   5
BRANCH   2  23
HETATM   23  C   UNL     1     -10.706   1.568 -34.468  1.00  0.00     0.240 C 
BRANCH  23  24
HETATM   24  N   UNL     1     -11.035   2.694 -33.617  1.00  0.00    -0.259 N 
HETATM   25  C   UNL     1     -12.217   2.870 -32.971  1.00  0.00     0.326 C 
HETATM   26  O   UNL     1     -13.197   2.149 -32.995  1.00  0.00    -0.247 OA
HETATM   27  N   UNL     1     -12.136   4.031 -32.231  1.00  0.00    -0.324 N 
HETATM   28  C   UNL     1     -10.779   4.549 -32.169  1.00  0.00     0.120 C 
HETATM   29  H   UNL     1     -12.883   4.261 -31.585  1.00  0.00     0.165 HD
HETATM   30  C   UNL     1     -10.115   4.139 -30.847  1.00  0.00     0.080 C 
HETATM   31  C   UNL     1     -10.728   6.054 -32.385  1.00  0.00     0.046 C 
HETATM   32  C   UNL     1     -10.186   3.722 -33.326  1.00  0.00     0.257 C 
HETATM   33  C   UNL     1      -8.785   4.806 -30.609  1.00  0.00    -0.049 A 
HETATM   34  C   UNL     1      -8.422   5.981 -31.287  1.00  0.00    -0.052 A 
HETATM   35  C   UNL     1      -7.907   4.251 -29.665  1.00  0.00     0.007 A 
HETATM   36  C   UNL     1      -9.300   6.602 -32.343  1.00  0.00     0.042 C 
HETATM   37  C   UNL     1      -7.169   6.560 -31.028  1.00  0.00     0.007 A 
HETATM   38  C   UNL     1      -6.298   5.991 -30.099  1.00  0.00     0.001 A 
HETATM   39  C   UNL     1      -6.667   4.837 -29.416  1.00  0.00     0.001 A 
HETATM   40  O   UNL     1      -9.120   3.914 -33.895  1.00  0.00    -0.270 OA
ENDBRANCH  23  24
ENDBRANCH   2  23
TORSDOF 6
ENDMDL
MODEL 9
REMARK VINA RESULT:      -9.9      2.794      4.916
REMARK  6 active torsions:
REMARK  status: ('A' for Active; 'I' for Inactive)
REMARK    1  A    between atoms: C_2  and  N_3 
REMARK    2  A    between atoms: C_2  and  C_32 
REMARK       I    between atoms: N_3  and  C_4 
REMARK    3  A    between atoms: C_4  and  C_5 
REMARK    4  A    between atoms: C_6  and  N_7 
REMARK       I    between atoms: N_7  and  C_8 
REMARK    5  A    between atoms: C_8  and  C_9 
REMARK    6  A    between atoms: C_9  and  N_10 
ROOT
HETATM    1  N   UNL     1      -3.881   6.267 -30.310  1.00  0.00    -0.325 N 
HETATM    2  C   UNL     1      -4.794   7.303 -30.475  1.00  0.00     0.240 C 
HETATM    3  O   UNL     1      -5.073   7.806 -31.564  1.00  0.00    -0.271 OA
HETATM    4  H   UNL     1      -3.419   6.258 -29.399  1.00  0.00     0.169 HD
ENDROOT
BRANCH   1   5
HETATM    5  C   UNL     1      -3.121   5.786 -31.399  1.00  0.00     0.050 A 
HETATM    6  C   UNL     1      -3.407   4.602 -32.105  1.00  0.00     0.058 A 
HETATM    7  C   UNL     1      -2.560   4.200 -33.153  1.00  0.00     0.019 A 
HETATM    8  C   UNL     1      -1.449   4.965 -33.507  1.00  0.00     0.001 A 
HETATM    9  C   UNL     1      -1.150   6.119 -32.789  1.00  0.00     0.002 A 
HETATM   10  C   UNL     1      -1.968   6.517 -31.729  1.00  0.00     0.030 A 
BRANCH   6  11
HETATM   11  C   UNL     1      -4.420   3.596 -31.693  1.00  0.00     0.254 C 
HETATM   12  N   UNL     1      -4.237   2.306 -32.120  1.00  0.00    -0.349 N 
HETATM   13  H   UNL     1      -3.361   2.077 -32.585  1.00  0.00     0.163 HD
HETATM   14  O   UNL     1      -5.337   3.939 -30.953  1.00  0.00    -0.268 OA
BRANCH  12  15
HETATM   15  C   UNL     1      -5.108   1.224 -31.696  1.00  0.00     0.114 C 
HETATM   16  C   UNL     1      -4.331   0.191 -30.879  1.00  0.00     0.037 C 
BRANCH  15  17
HETATM   17  C   UNL     1      -5.808   0.587 -32.884  1.00  0.00    -0.036 A 
HETATM   18  C   UNL     1      -5.860  -0.813 -32.993  1.00  0.00     0.009 A 
HETATM   19  C   UNL     1      -6.474  -1.422 -34.089  1.00  0.00     0.001 A 
HETATM   20  C   UNL     1      -7.050  -0.643 -35.089  1.00  0.00     0.000 A 
HETATM   21  C   UNL     1      -7.011   0.747 -34.994  1.00  0.00     0.001 A 
HETATM   22  C   UNL     1      -6.392   1.358 -33.903  1.00  0.00     0.009 A 
ENDBRANCH  15  17
ENDBRANCH  12  15
ENDBRANCH   6  11
ENDBRANCH   1   5
BRANCH   2  23
HETATM   23  C   UNL     1      -5.477   7.740 -29.183  1.00  0.00     0.240 C 
BRANCH  23  24
HETATM   24  N   UNL     1      -4.727   7.348 -28.008  1.00  0.00    -0.259 N 
HETATM   25  C   UNL     1      -4.855   6.165 -27.353  1.00  0.00     0.326 C 
HETATM   26  O   UNL     1      -5.611   5.246 -27.611  1.00  0.00    -0.247 OA
HETATM   27  N   UNL     1      -3.948   6.145 -26.315  1.00  0.00    -0.324 N 
HETATM   28  C   UNL     1      -2.996   7.241 -26.397  1.00  0.00     0.120 C 
HETATM   29  H   UNL     1      -3.814   5.288 -25.789  1.00  0.00     0.165 HD
HETATM   30  C   UNL     1      -1.680   6.756 -27.021  1.00  0.00     0.080 C 
HETATM   31  C   UNL     1      -2.770   7.908 -25.048  1.00  0.00     0.046 C 
HETATM   32  C   UNL     1      -3.763   8.109 -27.412  1.00  0.00     0.257 C 
HETATM   33  C   UNL     1      -0.570   7.772 -26.953  1.00  0.00    -0.049 A 
HETATM   34  C   UNL     1      -0.607   8.839 -26.039  1.00  0.00    -0.052 A 
HETATM   35  C   UNL     1       0.537   7.626 -27.803  1.00  0.00     0.007 A 
HETATM   36  C   UNL     1      -1.787   9.077 -25.131  1.00  0.00     0.042 C 
HETATM   37  C   UNL     1       0.454   9.759 -26.020  1.00  0.00     0.007 A 
HETATM   38  C   UNL     1       1.541   9.613 -26.881  1.00  0.00     0.001 A 
HETATM   39  C   UNL     1       1.585   8.545 -27.771  1.00  0.00     0.001 A 
HETATM   40  O   UNL     1      -3.552   9.284 -27.683  1.00  0.00    -0.270 OA
ENDBRANCH  23  24
ENDBRANCH   2  23
TORSDOF 6
ENDMDL
MODEL 10
REMARK VINA RESULT:      -9.9      3.085      5.496
REMARK  6 active torsions:
REMARK  status: ('A' for Active; 'I' for Inactive)
REMARK    1  A    between atoms: C_2  and  N_3 
REMARK    2  A    between atoms: C_2  and  C_32 
REMARK       I    between atoms: N_3  and  C_4 
REMARK    3  A    between atoms: C_4  and  C_5 
REMARK    4  A    between atoms: C_6  and  N_7 
REMARK       I    between atoms: N_7  and  C_8 
REMARK    5  A    between atoms: C_8  and  C_9 
REMARK    6  A    between atoms: C_9  and  N_10 
ROOT
HETATM    1  N   UNL     1      -6.514   1.907 -33.130  1.00  0.00    -0.325 N 
HETATM    2  C   UNL     1      -6.303   2.249 -31.799  1.00  0.00     0.240 C 
HETATM    3  O   UNL     1      -6.124   1.428 -30.899  1.00  0.00    -0.271 OA
HETATM    4  H   UNL     1      -7.075   2.583 -33.653  1.00  0.00     0.169 HD
ENDROOT
BRANCH   1   5
HETATM    5  C   UNL     1      -6.643   0.556 -33.523  1.00  0.00     0.050 A 
HETATM    6  C   UNL     1      -7.859  -0.154 -33.538  1.00  0.00     0.058 A 
HETATM    7  C   UNL     1      -7.865  -1.508 -33.916  1.00  0.00     0.019 A 
HETATM    8  C   UNL     1      -6.683  -2.152 -34.284  1.00  0.00     0.001 A 
HETATM    9  C   UNL     1      -5.477  -1.458 -34.239  1.00  0.00     0.002 A 
HETATM   10  C   UNL     1      -5.454  -0.119 -33.842  1.00  0.00     0.030 A 
BRANCH   6  11
HETATM   11  C   UNL     1      -9.137   0.346 -32.967  1.00  0.00     0.254 C 
HETATM   12  N   UNL     1     -10.126   0.698 -33.848  1.00  0.00    -0.349 N 
HETATM   13  H   UNL     1      -9.987   0.482 -34.834  1.00  0.00     0.163 HD
HETATM   14  O   UNL     1      -9.276   0.373 -31.747  1.00  0.00    -0.268 OA
BRANCH  12  15
HETATM   15  C   UNL     1     -11.447   1.103 -33.401  1.00  0.00     0.114 C 
HETATM   16  C   UNL     1     -12.458  -0.025 -33.606  1.00  0.00     0.037 C 
BRANCH  15  17
HETATM   17  C   UNL     1     -11.889   2.383 -34.088  1.00  0.00    -0.036 A 
HETATM   18  C   UNL     1     -12.199   3.516 -33.317  1.00  0.00     0.009 A 
HETATM   19  C   UNL     1     -12.634   4.696 -33.924  1.00  0.00     0.001 A 
HETATM   20  C   UNL     1     -12.760   4.764 -35.309  1.00  0.00     0.000 A 
HETATM   21  C   UNL     1     -12.451   3.651 -36.089  1.00  0.00     0.001 A 
HETATM   22  C   UNL     1     -12.023   2.468 -35.484  1.00  0.00     0.009 A 
ENDBRANCH  15  17
ENDBRANCH  12  15
ENDBRANCH   6  11
ENDBRANCH   1   5
BRANCH   2  23
HETATM   23  C   UNL     1      -6.256   3.752 -31.544  1.00  0.00     0.240 C 
BRANCH  23  24
HETATM   24  N   UNL     1      -5.256   4.413 -32.357  1.00  0.00    -0.259 N 
HETATM   25  C   UNL     1      -5.489   5.016 -33.552  1.00  0.00     0.326 C 
HETATM   26  O   UNL     1      -6.543   5.102 -34.154  1.00  0.00    -0.247 OA
HETATM   27  N   UNL     1      -4.304   5.564 -33.997  1.00  0.00    -0.324 N 
HETATM   28  C   UNL     1      -3.273   5.551 -32.971  1.00  0.00     0.120 C 
HETATM   29  H   UNL     1      -4.310   6.163 -34.816  1.00  0.00     0.165 HD
HETATM   30  C   UNL     1      -3.184   6.925 -32.291  1.00  0.00     0.080 C 
HETATM   31  C   UNL     1      -1.926   5.101 -33.516  1.00  0.00     0.046 C 
HETATM   32  C   UNL     1      -3.940   4.543 -32.017  1.00  0.00     0.257 C 
HETATM   33  C   UNL     1      -2.005   7.062 -31.363  1.00  0.00    -0.049 A 
HETATM   34  C   UNL     1      -0.893   6.209 -31.459  1.00  0.00    -0.052 A 
HETATM   35  C   UNL     1      -2.012   8.086 -30.403  1.00  0.00     0.007 A 
HETATM   36  C   UNL     1      -0.842   5.063 -32.437  1.00  0.00     0.042 C 
HETATM   37  C   UNL     1       0.178   6.379 -30.566  1.00  0.00     0.007 A 
HETATM   38  C   UNL     1       0.152   7.391 -29.606  1.00  0.00     0.001 A 
HETATM   39  C   UNL     1      -0.942   8.246 -29.526  1.00  0.00     0.001 A 
HETATM   40  O   UNL     1      -3.413   3.955 -31.082  1.00  0.00    -0.270 OA
ENDBRANCH  23  24
ENDBRANCH   2  23
TORSDOF 6
ENDMDL
