MODEL 1
REMARK VINA RESULT:      -9.3      0.000      0.000
REMARK  8 active torsions:
REMARK  status: ('A' for Active; 'I' for Inactive)
REMARK    1  A    between atoms: C_4  and  C_5 
REMARK    2  A    between atoms: C_5  and  N_6 
REMARK    3  A    between atoms: N_10  and  C_12 
REMARK    4  A    between atoms: C_12  and  C_13 
REMARK       I    between atoms: C_13  and  N_14 
REMARK    5  A    between atoms: N_14  and  C_15 
REMARK    6  A    between atoms: C_17  and  S_18 
REMARK    7  A    between atoms: S_18  and  C_19 
REMARK    8  A    between atoms: C_22  and  N_23 
ROOT
HETATM    1  C   UNL     1      -3.948   5.589 -30.919  1.00  0.00     0.249 C 
HETATM    2  N   UNL     1      -3.554   4.280 -30.982  1.00  0.00    -0.304 N 
HETATM    3  O   UNL     1      -5.087   6.059 -30.890  1.00  0.00    -0.271 OA
HETATM    4  H   UNL     1      -2.588   3.981 -30.959  1.00  0.00     0.171 HD
ENDROOT
BRANCH   2   5
HETATM    5  C   UNL     1      -4.459   3.269 -31.175  1.00  0.00     0.174 A 
HETATM    6  S   UNL     1      -4.804   2.949 -32.810  1.00  0.00    -0.038 SA
HETATM    7  C   UNL     1      -5.983   1.807 -32.318  1.00  0.00     0.125 A 
HETATM    8  C   UNL     1      -5.993   1.730 -30.940  1.00  0.00     0.151 A 
HETATM    9  N   UNL     1      -5.096   2.560 -30.285  1.00  0.00    -0.234 NA
BRANCH   7  10
HETATM   10  S   UNL     1      -6.951   1.006 -33.559  1.00  0.00     0.214 S 
HETATM   11  O   UNL     1      -8.253   0.853 -32.945  1.00  0.00    -0.217 OA
HETATM   12  O   UNL     1      -6.760   1.753 -34.785  1.00  0.00    -0.217 OA
BRANCH  10  13
HETATM   13  C   UNL     1      -6.232  -0.604 -33.760  1.00  0.00     0.065 A 
HETATM   14  C   UNL     1      -6.990  -1.632 -34.330  1.00  0.00     0.026 A 
HETATM   15  C   UNL     1      -6.419  -2.894 -34.514  1.00  0.00     0.037 A 
HETATM   16  C   UNL     1      -5.085  -3.113 -34.137  1.00  0.00     0.102 A 
HETATM   17  C   UNL     1      -4.319  -2.074 -33.586  1.00  0.00     0.037 A 
HETATM   18  C   UNL     1      -4.893  -0.812 -33.401  1.00  0.00     0.026 A 
BRANCH  16  19
HETATM   19  N   UNL     1      -4.487  -4.444 -34.314  1.00  0.00    -0.116 N 
HETATM   20  O   UNL     1      -5.226  -5.356 -34.708  1.00  0.00    -0.532 OA
HETATM   21  O   UNL     1      -3.289  -4.575 -34.030  1.00  0.00    -0.532 OA
ENDBRANCH  16  19
ENDBRANCH  10  13
ENDBRANCH   7  10
ENDBRANCH   2   5
BRANCH   1  22
HETATM   22  C   UNL     1      -2.802   6.602 -30.876  1.00  0.00     0.337 C 
BRANCH  22  23
HETATM   23  N   UNL     1      -1.870   6.275 -29.676  1.00  0.00    -0.060 N 
HETATM   24  C   UNL     1      -0.433   6.007 -30.127  1.00  0.00     0.263 C 
HETATM   25  C   UNL     1       0.471   5.655 -28.924  1.00  0.00     0.263 C 
HETATM   26  N   UNL     1       0.392   6.722 -27.832  1.00  0.00    -0.064 N 
HETATM   27  H   UNL     1       0.915   6.332 -27.031  1.00  0.00     0.280 HD
HETATM   28  C   UNL     1      -1.042   6.929 -27.360  1.00  0.00     0.263 C 
HETATM   29  C   UNL     1      -1.998   7.268 -28.536  1.00  0.00     0.263 C 
HETATM   30  H   UNL     1      -2.248   5.352 -29.369  1.00  0.00     0.280 HD
BRANCH  26  31
HETATM   31  C   UNL     1       1.115   8.032 -28.130  1.00  0.00     0.273 C 
BRANCH  31  32
HETATM   32  C   UNL     1       1.435   8.845 -26.911  1.00  0.00    -0.033 A 
HETATM   33  C   UNL     1       0.938  10.153 -26.778  1.00  0.00     0.009 A 
HETATM   34  C   UNL     1       1.251  10.918 -25.655  1.00  0.00     0.001 A 
HETATM   35  C   UNL     1       2.058  10.387 -24.653  1.00  0.00     0.000 A 
HETATM   36  C   UNL     1       2.546   9.087 -24.765  1.00  0.00     0.001 A 
HETATM   37  C   UNL     1       2.235   8.316 -25.885  1.00  0.00     0.009 A 
ENDBRANCH  31  32
ENDBRANCH  26  31
ENDBRANCH  22  23
ENDBRANCH   1  22
TORSDOF 8
ENDMDL
MODEL 2
REMARK VINA RESULT:      -9.0      4.026     11.314
REMARK  8 active torsions:
REMARK  status: ('A' for Active; 'I' for Inactive)
REMARK    1  A    between atoms: C_4  and  C_5 
REMARK    2  A    between atoms: C_5  and  N_6 
REMARK    3  A    between atoms: N_10  and  C_12 
REMARK    4  A    between atoms: C_12  and  C_13 
REMARK       I    between atoms: C_13  and  N_14 
REMARK    5  A    between atoms: N_14  and  C_15 
REMARK    6  A    between atoms: C_17  and  S_18 
REMARK    7  A    between atoms: S_18  and  C_19 
REMARK    8  A    between atoms: C_22  and  N_23 
ROOT
HETATM    1  C   UNL     1      -7.682   4.499 -32.982  1.00  0.00     0.249 C 
HETATM    2  N   UNL     1      -6.654   4.846 -33.817  1.00  0.00    -0.304 N 
HETATM    3  O   UNL     1      -7.897   4.856 -31.823  1.00  0.00    -0.271 OA
HETATM    4  H   UNL     1      -6.579   4.534 -34.777  1.00  0.00     0.171 HD
ENDROOT
BRANCH   2   5
HETATM    5  C   UNL     1      -5.589   5.585 -33.372  1.00  0.00     0.174 A 
HETATM    6  S   UNL     1      -4.126   5.242 -34.169  1.00  0.00    -0.038 SA
HETATM    7  C   UNL     1      -3.317   6.311 -33.103  1.00  0.00     0.125 A 
HETATM    8  C   UNL     1      -4.237   6.879 -32.244  1.00  0.00     0.151 A 
HETATM    9  N   UNL     1      -5.551   6.473 -32.418  1.00  0.00    -0.234 NA
BRANCH   7  10
HETATM   10  S   UNL     1      -1.562   6.469 -33.237  1.00  0.00     0.214 S 
HETATM   11  O   UNL     1      -1.145   5.231 -33.860  1.00  0.00    -0.217 OA
HETATM   12  O   UNL     1      -1.304   7.761 -33.838  1.00  0.00    -0.217 OA
BRANCH  10  13
HETATM   13  C   UNL     1      -0.957   6.490 -31.568  1.00  0.00     0.065 A 
HETATM   14  C   UNL     1      -1.148   7.630 -30.780  1.00  0.00     0.026 A 
HETATM   15  C   UNL     1      -0.695   7.641 -29.458  1.00  0.00     0.037 A 
HETATM   16  C   UNL     1      -0.067   6.503 -28.930  1.00  0.00     0.102 A 
HETATM   17  C   UNL     1       0.103   5.353 -29.716  1.00  0.00     0.037 A 
HETATM   18  C   UNL     1      -0.349   5.344 -31.039  1.00  0.00     0.026 A 
BRANCH  16  19
HETATM   19  N   UNL     1       0.424   6.518 -27.545  1.00  0.00    -0.116 N 
HETATM   20  O   UNL     1      -0.207   5.861 -26.706  1.00  0.00    -0.532 OA
HETATM   21  O   UNL     1       1.422   7.210 -27.299  1.00  0.00    -0.532 OA
ENDBRANCH  16  19
ENDBRANCH  10  13
ENDBRANCH   7  10
ENDBRANCH   2   5
BRANCH   1  22
HETATM   22  C   UNL     1      -8.700   3.530 -33.587  1.00  0.00     0.337 C 
BRANCH  22  23
HETATM   23  N   UNL     1      -8.453   2.103 -33.024  1.00  0.00    -0.060 N 
HETATM   24  C   UNL     1      -9.116   1.027 -33.886  1.00  0.00     0.263 C 
HETATM   25  C   UNL     1      -8.883  -0.381 -33.294  1.00  0.00     0.263 C 
HETATM   26  N   UNL     1      -7.397  -0.654 -33.062  1.00  0.00    -0.064 N 
HETATM   27  H   UNL     1      -7.361  -1.549 -32.547  1.00  0.00     0.280 HD
HETATM   28  C   UNL     1      -6.774   0.400 -32.154  1.00  0.00     0.263 C 
HETATM   29  C   UNL     1      -6.996   1.839 -32.695  1.00  0.00     0.263 C 
HETATM   30  H   UNL     1      -9.003   2.134 -32.137  1.00  0.00     0.280 HD
BRANCH  26  31
HETATM   31  C   UNL     1      -6.568  -0.926 -34.313  1.00  0.00     0.273 C 
BRANCH  31  32
HETATM   32  C   UNL     1      -5.995  -2.310 -34.378  1.00  0.00    -0.033 A 
HETATM   33  C   UNL     1      -4.654  -2.542 -34.026  1.00  0.00     0.009 A 
HETATM   34  C   UNL     1      -4.113  -3.824 -34.106  1.00  0.00     0.001 A 
HETATM   35  C   UNL     1      -4.903  -4.889 -34.533  1.00  0.00     0.000 A 
HETATM   36  C   UNL     1      -6.237  -4.675 -34.872  1.00  0.00     0.001 A 
HETATM   37  C   UNL     1      -6.785  -3.395 -34.793  1.00  0.00     0.009 A 
ENDBRANCH  31  32
ENDBRANCH  26  31
ENDBRANCH  22  23
ENDBRANCH   1  22
TORSDOF 8
ENDMDL
MODEL 3
REMARK VINA RESULT:      -9.0      1.767      2.148
REMARK  8 active torsions:
REMARK  status: ('A' for Active; 'I' for Inactive)
REMARK    1  A    between atoms: C_4  and  C_5 
REMARK    2  A    between atoms: C_5  and  N_6 
REMARK    3  A    between atoms: N_10  and  C_12 
REMARK    4  A    between atoms: C_12  and  C_13 
REMARK       I    between atoms: C_13  and  N_14 
REMARK    5  A    between atoms: N_14  and  C_15 
REMARK    6  A    between atoms: C_17  and  S_18 
REMARK    7  A    between atoms: S_18  and  C_19 
REMARK    8  A    between atoms: C_22  and  N_23 
ROOT
HETATM    1  C   UNL     1      -2.547   5.206 -33.164  1.00  0.00     0.249 C 
HETATM    2  N   UNL     1      -3.823   5.670 -32.988  1.00  0.00    -0.304 N 
HETATM    3  O   UNL     1      -2.167   4.131 -33.630  1.00  0.00    -0.271 OA
HETATM    4  H   UNL     1      -4.043   6.591 -32.633  1.00  0.00     0.171 HD
ENDROOT
BRANCH   2   5
HETATM    5  C   UNL     1      -4.912   4.866 -33.202  1.00  0.00     0.174 A 
HETATM    6  S   UNL     1      -5.281   3.835 -31.899  1.00  0.00    -0.038 SA
HETATM    7  C   UNL     1      -6.517   3.116 -32.844  1.00  0.00     0.125 A 
HETATM    8  C   UNL     1      -6.578   3.748 -34.070  1.00  0.00     0.151 A 
HETATM    9  N   UNL     1      -5.663   4.773 -34.264  1.00  0.00    -0.234 NA
BRANCH   7  10
HETATM   10  S   UNL     1      -7.415   1.756 -32.162  1.00  0.00     0.214 S 
HETATM   11  O   UNL     1      -7.052   1.762 -30.761  1.00  0.00    -0.217 OA
HETATM   12  O   UNL     1      -8.787   1.899 -32.604  1.00  0.00    -0.217 OA
BRANCH  10  13
HETATM   13  C   UNL     1      -6.726   0.305 -32.916  1.00  0.00     0.065 A 
HETATM   14  C   UNL     1      -5.384  -0.019 -32.689  1.00  0.00     0.026 A 
HETATM   15  C   UNL     1      -4.845  -1.175 -33.260  1.00  0.00     0.037 A 
HETATM   16  C   UNL     1      -5.659  -2.007 -34.043  1.00  0.00     0.102 A 
HETATM   17  C   UNL     1      -7.011  -1.693 -34.250  1.00  0.00     0.037 A 
HETATM   18  C   UNL     1      -7.548  -0.534 -33.680  1.00  0.00     0.026 A 
BRANCH  16  19
HETATM   19  N   UNL     1      -5.090  -3.215 -34.657  1.00  0.00    -0.116 N 
HETATM   20  O   UNL     1      -5.798  -3.838 -35.459  1.00  0.00    -0.532 OA
HETATM   21  O   UNL     1      -3.948  -3.548 -34.312  1.00  0.00    -0.532 OA
ENDBRANCH  16  19
ENDBRANCH  10  13
ENDBRANCH   7  10
ENDBRANCH   2   5
BRANCH   1  22
HETATM   22  C   UNL     1      -1.447   6.170 -32.716  1.00  0.00     0.337 C 
BRANCH  22  23
HETATM   23  N   UNL     1      -1.238   6.038 -31.182  1.00  0.00    -0.060 N 
HETATM   24  C   UNL     1       0.185   5.598 -30.836  1.00  0.00     0.263 C 
HETATM   25  C   UNL     1       0.364   5.444 -29.309  1.00  0.00     0.263 C 
HETATM   26  N   UNL     1      -0.052   6.713 -28.564  1.00  0.00    -0.064 N 
HETATM   27  H   UNL     1      -0.025   6.462 -27.562  1.00  0.00     0.280 HD
HETATM   28  C   UNL     1      -1.492   7.097 -28.882  1.00  0.00     0.263 C 
HETATM   29  C   UNL     1      -1.731   7.247 -30.409  1.00  0.00     0.263 C 
HETATM   30  H   UNL     1      -1.849   5.220 -30.962  1.00  0.00     0.280 HD
BRANCH  26  31
HETATM   31  C   UNL     1       0.914   7.889 -28.666  1.00  0.00     0.273 C 
BRANCH  31  32
HETATM   32  C   UNL     1       1.220   8.546 -27.353  1.00  0.00    -0.033 A 
HETATM   33  C   UNL     1       0.848   9.881 -27.121  1.00  0.00     0.009 A 
HETATM   34  C   UNL     1       1.150  10.500 -25.909  1.00  0.00     0.001 A 
HETATM   35  C   UNL     1       1.821   9.793 -24.914  1.00  0.00     0.000 A 
HETATM   36  C   UNL     1       2.184   8.465 -25.125  1.00  0.00     0.001 A 
HETATM   37  C   UNL     1       1.883   7.840 -26.336  1.00  0.00     0.009 A 
ENDBRANCH  31  32
ENDBRANCH  26  31
ENDBRANCH  22  23
ENDBRANCH   1  22
TORSDOF 8
ENDMDL
MODEL 4
REMARK VINA RESULT:      -8.7      3.657     11.652
REMARK  8 active torsions:
REMARK  status: ('A' for Active; 'I' for Inactive)
REMARK    1  A    between atoms: C_4  and  C_5 
REMARK    2  A    between atoms: C_5  and  N_6 
REMARK    3  A    between atoms: N_10  and  C_12 
REMARK    4  A    between atoms: C_12  and  C_13 
REMARK       I    between atoms: C_13  and  N_14 
REMARK    5  A    between atoms: N_14  and  C_15 
REMARK    6  A    between atoms: C_17  and  S_18 
REMARK    7  A    between atoms: S_18  and  C_19 
REMARK    8  A    between atoms: C_22  and  N_23 
ROOT
HETATM    1  C   UNL     1      -5.985   4.472 -33.726  1.00  0.00     0.249 C 
HETATM    2  N   UNL     1      -5.478   5.067 -32.603  1.00  0.00    -0.304 N 
HETATM    3  O   UNL     1      -5.421   4.204 -34.788  1.00  0.00    -0.271 OA
HETATM    4  H   UNL     1      -6.009   5.211 -31.753  1.00  0.00     0.171 HD
ENDROOT
BRANCH   2   5
HETATM    5  C   UNL     1      -4.216   5.601 -32.584  1.00  0.00     0.174 A 
HETATM    6  S   UNL     1      -3.162   4.852 -31.479  1.00  0.00    -0.038 SA
HETATM    7  C   UNL     1      -1.963   6.014 -31.865  1.00  0.00     0.125 A 
HETATM    8  C   UNL     1      -2.448   6.861 -32.841  1.00  0.00     0.151 A 
HETATM    9  N   UNL     1      -3.743   6.606 -33.268  1.00  0.00    -0.234 NA
BRANCH   7  10
HETATM   10  S   UNL     1      -0.430   5.968 -30.987  1.00  0.00     0.214 S 
HETATM   11  O   UNL     1      -0.135   4.555 -30.870  1.00  0.00    -0.217 OA
HETATM   12  O   UNL     1       0.462   6.890 -31.658  1.00  0.00    -0.217 OA
BRANCH  10  13
HETATM   13  C   UNL     1      -0.789   6.603 -29.369  1.00  0.00     0.065 A 
HETATM   14  C   UNL     1      -1.952   7.353 -29.165  1.00  0.00     0.026 A 
HETATM   15  C   UNL     1      -2.251   7.834 -27.888  1.00  0.00     0.037 A 
HETATM   16  C   UNL     1      -1.388   7.547 -26.819  1.00  0.00     0.102 A 
HETATM   17  C   UNL     1      -0.233   6.776 -27.021  1.00  0.00     0.037 A 
HETATM   18  C   UNL     1       0.065   6.297 -28.301  1.00  0.00     0.026 A 
BRANCH  16  19
HETATM   19  N   UNL     1      -1.692   8.065 -25.477  1.00  0.00    -0.116 N 
HETATM   20  O   UNL     1      -2.687   7.608 -24.899  1.00  0.00    -0.532 OA
HETATM   21  O   UNL     1      -0.950   8.946 -25.023  1.00  0.00    -0.532 OA
ENDBRANCH  16  19
ENDBRANCH  10  13
ENDBRANCH   7  10
ENDBRANCH   2   5
BRANCH   1  22
HETATM   22  C   UNL     1      -7.463   4.086 -33.636  1.00  0.00     0.337 C 
BRANCH  22  23
HETATM   23  N   UNL     1      -7.584   2.617 -33.141  1.00  0.00    -0.060 N 
HETATM   24  C   UNL     1      -8.238   1.715 -34.188  1.00  0.00     0.263 C 
HETATM   25  C   UNL     1      -8.375   0.267 -33.666  1.00  0.00     0.263 C 
HETATM   26  N   UNL     1      -7.034  -0.283 -33.177  1.00  0.00    -0.064 N 
HETATM   27  H   UNL     1      -7.258  -1.188 -32.731  1.00  0.00     0.280 HD
HETATM   28  C   UNL     1      -6.432   0.604 -32.094  1.00  0.00     0.263 C 
HETATM   29  C   UNL     1      -6.290   2.078 -32.562  1.00  0.00     0.263 C 
HETATM   30  H   UNL     1      -8.286   2.716 -32.374  1.00  0.00     0.280 HD
BRANCH  26  31
HETATM   31  C   UNL     1      -6.032  -0.656 -34.265  1.00  0.00     0.273 C 
BRANCH  31  32
HETATM   32  C   UNL     1      -5.770  -2.128 -34.377  1.00  0.00    -0.033 A 
HETATM   33  C   UNL     1      -6.804  -3.009 -34.737  1.00  0.00     0.009 A 
HETATM   34  C   UNL     1      -6.568  -4.381 -34.821  1.00  0.00     0.001 A 
HETATM   35  C   UNL     1      -5.299  -4.887 -34.550  1.00  0.00     0.000 A 
HETATM   36  C   UNL     1      -4.263  -4.024 -34.205  1.00  0.00     0.001 A 
HETATM   37  C   UNL     1      -4.492  -2.651 -34.121  1.00  0.00     0.009 A 
ENDBRANCH  31  32
ENDBRANCH  26  31
ENDBRANCH  22  23
ENDBRANCH   1  22
TORSDOF 8
ENDMDL
MODEL 5
REMARK VINA RESULT:      -8.6      3.978     11.442
REMARK  8 active torsions:
REMARK  status: ('A' for Active; 'I' for Inactive)
REMARK    1  A    between atoms: C_4  and  C_5 
REMARK    2  A    between atoms: C_5  and  N_6 
REMARK    3  A    between atoms: N_10  and  C_12 
REMARK    4  A    between atoms: C_12  and  C_13 
REMARK       I    between atoms: C_13  and  N_14 
REMARK    5  A    between atoms: N_14  and  C_15 
REMARK    6  A    between atoms: C_17  and  S_18 
REMARK    7  A    between atoms: S_18  and  C_19 
REMARK    8  A    between atoms: C_22  and  N_23 
ROOT
HETATM    1  C   UNL     1      -6.489   4.546 -30.122  1.00  0.00     0.249 C 
HETATM    2  N   UNL     1      -5.916   4.765 -31.346  1.00  0.00    -0.304 N 
HETATM    3  O   UNL     1      -5.995   4.657 -28.999  1.00  0.00    -0.271 OA
HETATM    4  H   UNL     1      -6.415   4.689 -32.223  1.00  0.00     0.171 HD
ENDROOT
BRANCH   2   5
HETATM    5  C   UNL     1      -4.577   5.022 -31.472  1.00  0.00     0.174 A 
HETATM    6  S   UNL     1      -4.160   6.659 -31.263  1.00  0.00    -0.038 SA
HETATM    7  C   UNL     1      -2.539   6.278 -31.665  1.00  0.00     0.125 A 
HETATM    8  C   UNL     1      -2.433   4.920 -31.890  1.00  0.00     0.151 A 
HETATM    9  N   UNL     1      -3.608   4.196 -31.756  1.00  0.00    -0.234 NA
BRANCH   7  10
HETATM   10  S   UNL     1      -1.363   7.593 -31.763  1.00  0.00     0.214 S 
HETATM   11  O   UNL     1      -0.277   7.036 -32.541  1.00  0.00    -0.217 OA
HETATM   12  O   UNL     1      -2.090   8.772 -32.186  1.00  0.00    -0.217 OA
BRANCH  10  13
HETATM   13  C   UNL     1      -0.793   7.846 -30.101  1.00  0.00     0.065 A 
HETATM   14  C   UNL     1      -1.510   8.691 -29.247  1.00  0.00     0.026 A 
HETATM   15  C   UNL     1      -1.078   8.873 -27.931  1.00  0.00     0.037 A 
HETATM   16  C   UNL     1       0.062   8.195 -27.474  1.00  0.00     0.102 A 
HETATM   17  C   UNL     1       0.767   7.330 -28.326  1.00  0.00     0.037 A 
HETATM   18  C   UNL     1       0.334   7.151 -29.644  1.00  0.00     0.026 A 
BRANCH  16  19
HETATM   19  N   UNL     1       0.527   8.397 -26.095  1.00  0.00    -0.116 N 
HETATM   20  O   UNL     1       1.610   7.889 -25.775  1.00  0.00    -0.532 OA
HETATM   21  O   UNL     1      -0.207   9.040 -25.332  1.00  0.00    -0.532 OA
ENDBRANCH  16  19
ENDBRANCH  10  13
ENDBRANCH   7  10
ENDBRANCH   2   5
BRANCH   1  22
HETATM   22  C   UNL     1      -7.953   4.102 -30.170  1.00  0.00     0.337 C 
BRANCH  22  23
HETATM   23  N   UNL     1      -8.019   2.561 -30.361  1.00  0.00    -0.060 N 
HETATM   24  C   UNL     1      -8.919   2.169 -31.533  1.00  0.00     0.263 C 
HETATM   25  C   UNL     1      -8.995   0.633 -31.687  1.00  0.00     0.263 C 
HETATM   26  N   UNL     1      -7.602   0.010 -31.788  1.00  0.00    -0.064 N 
HETATM   27  H   UNL     1      -7.757  -1.011 -31.750  1.00  0.00     0.280 HD
HETATM   28  C   UNL     1      -6.745   0.369 -30.579  1.00  0.00     0.263 C 
HETATM   29  C   UNL     1      -6.651   1.904 -30.367  1.00  0.00     0.263 C 
HETATM   30  H   UNL     1      -8.533   2.270 -29.499  1.00  0.00     0.280 HD
BRANCH  26  31
HETATM   31  C   UNL     1      -6.876   0.215 -33.113  1.00  0.00     0.273 C 
BRANCH  31  32
HETATM   32  C   UNL     1      -6.244  -1.029 -33.663  1.00  0.00    -0.033 A 
HETATM   33  C   UNL     1      -7.010  -1.954 -34.392  1.00  0.00     0.009 A 
HETATM   34  C   UNL     1      -6.429  -3.121 -34.887  1.00  0.00     0.001 A 
HETATM   35  C   UNL     1      -5.079  -3.376 -34.662  1.00  0.00     0.000 A 
HETATM   36  C   UNL     1      -4.305  -2.462 -33.952  1.00  0.00     0.001 A 
HETATM   37  C   UNL     1      -4.880  -1.291 -33.456  1.00  0.00     0.009 A 
ENDBRANCH  31  32
ENDBRANCH  26  31
ENDBRANCH  22  23
ENDBRANCH   1  22
TORSDOF 8
ENDMDL
MODEL 6
REMARK VINA RESULT:      -8.6      2.729      4.605
REMARK  8 active torsions:
REMARK  status: ('A' for Active; 'I' for Inactive)
REMARK    1  A    between atoms: C_4  and  C_5 
REMARK    2  A    between atoms: C_5  and  N_6 
REMARK    3  A    between atoms: N_10  and  C_12 
REMARK    4  A    between atoms: C_12  and  C_13 
REMARK       I    between atoms: C_13  and  N_14 
REMARK    5  A    between atoms: N_14  and  C_15 
REMARK    6  A    between atoms: C_17  and  S_18 
REMARK    7  A    between atoms: S_18  and  C_19 
REMARK    8  A    between atoms: C_22  and  N_23 
ROOT
HETATM    1  C   UNL     1      -6.113   5.384 -28.467  1.00  0.00     0.249 C 
HETATM    2  N   UNL     1      -5.634   4.192 -28.940  1.00  0.00    -0.304 N 
HETATM    3  O   UNL     1      -7.200   5.924 -28.675  1.00  0.00    -0.271 OA
HETATM    4  H   UNL     1      -4.736   3.802 -28.680  1.00  0.00     0.171 HD
ENDROOT
BRANCH   2   5
HETATM    5  C   UNL     1      -6.315   3.472 -29.886  1.00  0.00     0.174 A 
HETATM    6  S   UNL     1      -5.609   3.518 -31.434  1.00  0.00    -0.038 SA
HETATM    7  C   UNL     1      -6.937   2.626 -32.045  1.00  0.00     0.125 A 
HETATM    8  C   UNL     1      -7.800   2.327 -31.009  1.00  0.00     0.151 A 
HETATM    9  N   UNL     1      -7.425   2.799 -29.761  1.00  0.00    -0.234 NA
BRANCH   7  10
HETATM   10  S   UNL     1      -7.005   2.295 -33.779  1.00  0.00     0.214 S 
HETATM   11  O   UNL     1      -8.420   2.316 -34.086  1.00  0.00    -0.217 OA
HETATM   12  O   UNL     1      -6.065   3.196 -34.413  1.00  0.00    -0.217 OA
BRANCH  10  13
HETATM   13  C   UNL     1      -6.413   0.633 -33.971  1.00  0.00     0.065 A 
HETATM   14  C   UNL     1      -5.195   0.264 -33.390  1.00  0.00     0.026 A 
HETATM   15  C   UNL     1      -4.738  -1.050 -33.517  1.00  0.00     0.037 A 
HETATM   16  C   UNL     1      -5.511  -1.990 -34.214  1.00  0.00     0.102 A 
HETATM   17  C   UNL     1      -6.744  -1.623 -34.777  1.00  0.00     0.037 A 
HETATM   18  C   UNL     1      -7.199  -0.307 -34.650  1.00  0.00     0.026 A 
BRANCH  16  19
HETATM   19  N   UNL     1      -5.025  -3.369 -34.363  1.00  0.00    -0.116 N 
HETATM   20  O   UNL     1      -4.008  -3.689 -33.733  1.00  0.00    -0.532 OA
HETATM   21  O   UNL     1      -5.646  -4.115 -35.132  1.00  0.00    -0.532 OA
ENDBRANCH  16  19
ENDBRANCH  10  13
ENDBRANCH   7  10
ENDBRANCH   2   5
BRANCH   1  22
HETATM   22  C   UNL     1      -5.151   6.141 -27.548  1.00  0.00     0.337 C 
BRANCH  22  23
HETATM   23  N   UNL     1      -4.271   7.099 -28.400  1.00  0.00    -0.060 N 
HETATM   24  C   UNL     1      -2.864   7.248 -27.819  1.00  0.00     0.263 C 
HETATM   25  C   UNL     1      -2.016   8.226 -28.662  1.00  0.00     0.263 C 
HETATM   26  N   UNL     1      -1.998   7.826 -30.138  1.00  0.00    -0.064 N 
HETATM   27  H   UNL     1      -1.527   8.605 -30.626  1.00  0.00     0.280 HD
HETATM   28  C   UNL     1      -3.410   7.741 -30.707  1.00  0.00     0.263 C 
HETATM   29  C   UNL     1      -4.312   6.782 -29.882  1.00  0.00     0.263 C 
HETATM   30  H   UNL     1      -4.745   8.015 -28.233  1.00  0.00     0.280 HD
BRANCH  26  31
HETATM   31  C   UNL     1      -1.142   6.613 -30.487  1.00  0.00     0.273 C 
BRANCH  31  32
HETATM   32  C   UNL     1      -1.348   6.100 -31.882  1.00  0.00    -0.033 A 
HETATM   33  C   UNL     1      -0.977   6.883 -32.988  1.00  0.00     0.009 A 
HETATM   34  C   UNL     1      -1.186   6.418 -34.286  1.00  0.00     0.001 A 
HETATM   35  C   UNL     1      -1.763   5.167 -34.493  1.00  0.00     0.000 A 
HETATM   36  C   UNL     1      -2.123   4.376 -33.406  1.00  0.00     0.001 A 
HETATM   37  C   UNL     1      -1.915   4.835 -32.105  1.00  0.00     0.009 A 
ENDBRANCH  31  32
ENDBRANCH  26  31
ENDBRANCH  22  23
ENDBRANCH   1  22
TORSDOF 8
ENDMDL
MODEL 7
REMARK VINA RESULT:      -8.4      4.255     10.926
REMARK  8 active torsions:
REMARK  status: ('A' for Active; 'I' for Inactive)
REMARK    1  A    between atoms: C_4  and  C_5 
REMARK    2  A    between atoms: C_5  and  N_6 
REMARK    3  A    between atoms: N_10  and  C_12 
REMARK    4  A    between atoms: C_12  and  C_13 
REMARK       I    between atoms: C_13  and  N_14 
REMARK    5  A    between atoms: N_14  and  C_15 
REMARK    6  A    between atoms: C_17  and  S_18 
REMARK    7  A    between atoms: S_18  and  C_19 
REMARK    8  A    between atoms: C_22  and  N_23 
ROOT
HETATM    1  C   UNL     1      -6.632   4.685 -30.329  1.00  0.00     0.249 C 
HETATM    2  N   UNL     1      -6.919   5.923 -30.838  1.00  0.00    -0.304 N 
HETATM    3  O   UNL     1      -5.892   4.382 -29.391  1.00  0.00    -0.271 OA
HETATM    4  H   UNL     1      -7.578   6.084 -31.590  1.00  0.00     0.171 HD
ENDROOT
BRANCH   2   5
HETATM    5  C   UNL     1      -6.253   7.043 -30.415  1.00  0.00     0.174 A 
HETATM    6  S   UNL     1      -4.676   7.189 -31.035  1.00  0.00    -0.038 SA
HETATM    7  C   UNL     1      -4.443   8.581 -30.065  1.00  0.00     0.125 A 
HETATM    8  C   UNL     1      -5.606   8.851 -29.370  1.00  0.00     0.151 A 
HETATM    9  N   UNL     1      -6.655   7.972 -29.592  1.00  0.00    -0.234 NA
BRANCH   7  10
HETATM   10  S   UNL     1      -2.859   9.363 -30.076  1.00  0.00     0.214 S 
HETATM   11  O   UNL     1      -2.799  10.015 -31.368  1.00  0.00    -0.217 OA
HETATM   12  O   UNL     1      -2.748  10.098 -28.834  1.00  0.00    -0.217 OA
BRANCH  10  13
HETATM   13  C   UNL     1      -1.675   8.040 -30.059  1.00  0.00     0.065 A 
HETATM   14  C   UNL     1      -1.362   7.412 -28.849  1.00  0.00     0.026 A 
HETATM   15  C   UNL     1      -0.450   6.353 -28.835  1.00  0.00     0.037 A 
HETATM   16  C   UNL     1       0.132   5.922 -30.036  1.00  0.00     0.102 A 
HETATM   17  C   UNL     1      -0.201   6.540 -31.252  1.00  0.00     0.037 A 
HETATM   18  C   UNL     1      -1.113   7.600 -31.264  1.00  0.00     0.026 A 
BRANCH  16  19
HETATM   19  N   UNL     1       1.104   4.820 -30.022  1.00  0.00    -0.116 N 
HETATM   20  O   UNL     1       1.484   4.406 -28.918  1.00  0.00    -0.532 OA
HETATM   21  O   UNL     1       1.502   4.394 -31.114  1.00  0.00    -0.532 OA
ENDBRANCH  16  19
ENDBRANCH  10  13
ENDBRANCH   7  10
ENDBRANCH   2   5
BRANCH   1  22
HETATM   22  C   UNL     1      -7.339   3.523 -31.030  1.00  0.00     0.337 C 
BRANCH  22  23
HETATM   23  N   UNL     1      -6.404   2.282 -31.041  1.00  0.00    -0.060 N 
HETATM   24  C   UNL     1      -7.191   0.977 -31.174  1.00  0.00     0.263 C 
HETATM   25  C   UNL     1      -6.246  -0.246 -31.153  1.00  0.00     0.263 C 
HETATM   26  N   UNL     1      -5.142  -0.121 -32.203  1.00  0.00    -0.064 N 
HETATM   27  H   UNL     1      -4.498  -0.907 -32.017  1.00  0.00     0.280 HD
HETATM   28  C   UNL     1      -4.337   1.159 -32.012  1.00  0.00     0.263 C 
HETATM   29  C   UNL     1      -5.243   2.421 -32.007  1.00  0.00     0.263 C 
HETATM   30  H   UNL     1      -6.038   2.293 -30.063  1.00  0.00     0.280 HD
BRANCH  26  31
HETATM   31  C   UNL     1      -5.572  -0.343 -33.649  1.00  0.00     0.273 C 
BRANCH  31  32
HETATM   32  C   UNL     1      -5.634  -1.785 -34.055  1.00  0.00    -0.033 A 
HETATM   33  C   UNL     1      -4.471  -2.575 -34.050  1.00  0.00     0.009 A 
HETATM   34  C   UNL     1      -4.522  -3.911 -34.446  1.00  0.00     0.001 A 
HETATM   35  C   UNL     1      -5.732  -4.474 -34.847  1.00  0.00     0.000 A 
HETATM   36  C   UNL     1      -6.893  -3.706 -34.844  1.00  0.00     0.001 A 
HETATM   37  C   UNL     1      -6.849  -2.369 -34.447  1.00  0.00     0.009 A 
ENDBRANCH  31  32
ENDBRANCH  26  31
ENDBRANCH  22  23
ENDBRANCH   1  22
TORSDOF 8
ENDMDL
MODEL 8
REMARK VINA RESULT:      -8.3      2.502      3.939
REMARK  8 active torsions:
REMARK  status: ('A' for Active; 'I' for Inactive)
REMARK    1  A    between atoms: C_4  and  C_5 
REMARK    2  A    between atoms: C_5  and  N_6 
REMARK    3  A    between atoms: N_10  and  C_12 
REMARK    4  A    between atoms: C_12  and  C_13 
REMARK       I    between atoms: C_13  and  N_14 
REMARK    5  A    between atoms: N_14  and  C_15 
REMARK    6  A    between atoms: C_17  and  S_18 
REMARK    7  A    between atoms: S_18  and  C_19 
REMARK    8  A    between atoms: C_22  and  N_23 
ROOT
HETATM    1  C   UNL     1      -3.046   5.320 -31.672  1.00  0.00     0.249 C 
HETATM    2  N   UNL     1      -3.559   4.361 -30.841  1.00  0.00    -0.304 N 
HETATM    3  O   UNL     1      -2.855   5.275 -32.888  1.00  0.00    -0.271 OA
HETATM    4  H   UNL     1      -3.722   4.501 -29.852  1.00  0.00     0.171 HD
ENDROOT
BRANCH   2   5
HETATM    5  C   UNL     1      -3.810   3.089 -31.286  1.00  0.00     0.174 A 
HETATM    6  S   UNL     1      -5.417   2.578 -31.056  1.00  0.00    -0.038 SA
HETATM    7  C   UNL     1      -4.987   1.028 -31.646  1.00  0.00     0.125 A 
HETATM    8  C   UNL     1      -3.656   1.033 -32.011  1.00  0.00     0.151 A 
HETATM    9  N   UNL     1      -2.986   2.232 -31.821  1.00  0.00    -0.234 NA
BRANCH   7  10
HETATM   10  S   UNL     1      -6.215  -0.243 -31.650  1.00  0.00     0.214 S 
HETATM   11  O   UNL     1      -5.629  -1.294 -32.455  1.00  0.00    -0.217 OA
HETATM   12  O   UNL     1      -6.603  -0.452 -30.271  1.00  0.00    -0.217 OA
BRANCH  10  13
HETATM   13  C   UNL     1      -7.599   0.434 -32.531  1.00  0.00     0.065 A 
HETATM   14  C   UNL     1      -8.715   0.887 -31.819  1.00  0.00     0.026 A 
HETATM   15  C   UNL     1      -9.796   1.444 -32.507  1.00  0.00     0.037 A 
HETATM   16  C   UNL     1      -9.745   1.557 -33.904  1.00  0.00     0.102 A 
HETATM   17  C   UNL     1      -8.615   1.124 -34.615  1.00  0.00     0.037 A 
HETATM   18  C   UNL     1      -7.535   0.564 -33.924  1.00  0.00     0.026 A 
BRANCH  16  19
HETATM   19  N   UNL     1     -10.888   2.129 -34.631  1.00  0.00    -0.116 N 
HETATM   20  O   UNL     1     -11.854   1.387 -34.853  1.00  0.00    -0.532 OA
HETATM   21  O   UNL     1     -10.799   3.307 -35.001  1.00  0.00    -0.532 OA
ENDBRANCH  16  19
ENDBRANCH  10  13
ENDBRANCH   7  10
ENDBRANCH   2   5
BRANCH   1  22
HETATM   22  C   UNL     1      -2.662   6.629 -30.979  1.00  0.00     0.337 C 
BRANCH  22  23
HETATM   23  N   UNL     1      -1.780   6.317 -29.738  1.00  0.00    -0.060 N 
HETATM   24  C   UNL     1      -0.322   6.061 -30.125  1.00  0.00     0.263 C 
HETATM   25  C   UNL     1       0.531   5.724 -28.881  1.00  0.00     0.263 C 
HETATM   26  N   UNL     1       0.394   6.794 -27.798  1.00  0.00    -0.064 N 
HETATM   27  H   UNL     1       0.885   6.412 -26.973  1.00  0.00     0.280 HD
HETATM   28  C   UNL     1      -1.062   6.988 -27.391  1.00  0.00     0.263 C 
HETATM   29  C   UNL     1      -1.969   7.312 -28.609  1.00  0.00     0.263 C 
HETATM   30  H   UNL     1      -2.162   5.390 -29.444  1.00  0.00     0.280 HD
BRANCH  26  31
HETATM   31  C   UNL     1       1.115   8.110 -28.069  1.00  0.00     0.273 C 
BRANCH  31  32
HETATM   32  C   UNL     1       1.481   8.873 -26.831  1.00  0.00    -0.033 A 
HETATM   33  C   UNL     1       2.176   8.241 -25.785  1.00  0.00     0.009 A 
HETATM   34  C   UNL     1       2.499   8.943 -24.625  1.00  0.00     0.001 A 
HETATM   35  C   UNL     1       2.136  10.282 -24.496  1.00  0.00     0.000 A 
HETATM   36  C   UNL     1       1.459  10.923 -25.529  1.00  0.00     0.001 A 
HETATM   37  C   UNL     1       1.134  10.227 -26.694  1.00  0.00     0.009 A 
ENDBRANCH  31  32
ENDBRANCH  26  31
ENDBRANCH  22  23
ENDBRANCH   1  22
TORSDOF 8
ENDMDL
MODEL 9
REMARK VINA RESULT:      -8.0     19.040     21.346
REMARK  8 active torsions:
REMARK  status: ('A' for Active; 'I' for Inactive)
REMARK    1  A    between atoms: C_4  and  C_5 
REMARK    2  A    between atoms: C_5  and  N_6 
REMARK    3  A    between atoms: N_10  and  C_12 
REMARK    4  A    between atoms: C_12  and  C_13 
REMARK       I    between atoms: C_13  and  N_14 
REMARK    5  A    between atoms: N_14  and  C_15 
REMARK    6  A    between atoms: C_17  and  S_18 
REMARK    7  A    between atoms: S_18  and  C_19 
REMARK    8  A    between atoms: C_22  and  N_23 
ROOT
HETATM    1  C   UNL     1      -2.355 -16.582 -34.462  1.00  0.00     0.249 C 
HETATM    2  N   UNL     1      -1.342 -15.661 -34.442  1.00  0.00    -0.304 N 
HETATM    3  O   UNL     1      -2.391 -17.687 -35.006  1.00  0.00    -0.271 OA
HETATM    4  H   UNL     1      -1.384 -14.788 -33.930  1.00  0.00     0.171 HD
ENDROOT
BRANCH   2   5
HETATM    5  C   UNL     1      -0.214 -15.821 -35.203  1.00  0.00     0.174 A 
HETATM    6  S   UNL     1      -0.325 -15.145 -36.761  1.00  0.00    -0.038 SA
HETATM    7  C   UNL     1       1.217 -15.793 -37.131  1.00  0.00     0.125 A 
HETATM    8  C   UNL     1       1.716 -16.443 -36.020  1.00  0.00     0.151 A 
HETATM    9  N   UNL     1       0.895 -16.438 -34.902  1.00  0.00    -0.234 NA
BRANCH   7  10
HETATM   10  S   UNL     1       1.852 -15.578 -38.766  1.00  0.00     0.214 S 
HETATM   11  O   UNL     1       2.517 -14.293 -38.717  1.00  0.00    -0.217 OA
HETATM   12  O   UNL     1       2.554 -16.799 -39.105  1.00  0.00    -0.217 OA
BRANCH  10  13
HETATM   13  C   UNL     1       0.428 -15.434 -39.815  1.00  0.00     0.065 A 
HETATM   14  C   UNL     1      -0.223 -16.591 -40.257  1.00  0.00     0.026 A 
HETATM   15  C   UNL     1      -1.359 -16.482 -41.062  1.00  0.00     0.037 A 
HETATM   16  C   UNL     1      -1.845 -15.212 -41.408  1.00  0.00     0.102 A 
HETATM   17  C   UNL     1      -1.204 -14.052 -40.946  1.00  0.00     0.037 A 
HETATM   18  C   UNL     1      -0.065 -14.164 -40.141  1.00  0.00     0.026 A 
BRANCH  16  19
HETATM   19  N   UNL     1      -3.031 -15.094 -42.269  1.00  0.00    -0.116 N 
HETATM   20  O   UNL     1      -3.499 -16.137 -42.745  1.00  0.00    -0.532 OA
HETATM   21  O   UNL     1      -3.469 -13.957 -42.485  1.00  0.00    -0.532 OA
ENDBRANCH  16  19
ENDBRANCH  10  13
ENDBRANCH   7  10
ENDBRANCH   2   5
BRANCH   1  22
HETATM   22  C   UNL     1      -3.612 -16.168 -33.695  1.00  0.00     0.337 C 
BRANCH  22  23
HETATM   23  N   UNL     1      -4.164 -14.841 -34.286  1.00  0.00    -0.060 N 
HETATM   24  C   UNL     1      -4.079 -14.817 -35.813  1.00  0.00     0.263 C 
HETATM   25  C   UNL     1      -4.604 -13.479 -36.378  1.00  0.00     0.263 C 
HETATM   26  N   UNL     1      -6.012 -13.167 -35.868  1.00  0.00    -0.064 N 
HETATM   27  H   UNL     1      -6.211 -12.206 -36.189  1.00  0.00     0.280 HD
HETATM   28  C   UNL     1      -6.056 -13.140 -34.345  1.00  0.00     0.263 C 
HETATM   29  C   UNL     1      -5.520 -14.458 -33.723  1.00  0.00     0.263 C 
HETATM   30  H   UNL     1      -3.450 -14.156 -33.952  1.00  0.00     0.280 HD
BRANCH  26  31
HETATM   31  C   UNL     1      -7.138 -13.992 -36.481  1.00  0.00     0.273 C 
BRANCH  31  32
HETATM   32  C   UNL     1      -7.683 -13.429 -37.760  1.00  0.00    -0.033 A 
HETATM   33  C   UNL     1      -9.026 -13.640 -38.115  1.00  0.00     0.009 A 
HETATM   34  C   UNL     1      -9.529 -13.135 -39.313  1.00  0.00     0.001 A 
HETATM   35  C   UNL     1      -8.700 -12.412 -40.167  1.00  0.00     0.000 A 
HETATM   36  C   UNL     1      -7.370 -12.184 -39.822  1.00  0.00     0.001 A 
HETATM   37  C   UNL     1      -6.862 -12.685 -38.623  1.00  0.00     0.009 A 
ENDBRANCH  31  32
ENDBRANCH  26  31
ENDBRANCH  22  23
ENDBRANCH   1  22
TORSDOF 8
ENDMDL
MODEL 10
REMARK VINA RESULT:      -7.9      4.121      6.084
REMARK  8 active torsions:
REMARK  status: ('A' for Active; 'I' for Inactive)
REMARK    1  A    between atoms: C_4  and  C_5 
REMARK    2  A    between atoms: C_5  and  N_6 
REMARK    3  A    between atoms: N_10  and  C_12 
REMARK    4  A    between atoms: C_12  and  C_13 
REMARK       I    between atoms: C_13  and  N_14 
REMARK    5  A    between atoms: N_14  and  C_15 
REMARK    6  A    between atoms: C_17  and  S_18 
REMARK    7  A    between atoms: S_18  and  C_19 
REMARK    8  A    between atoms: C_22  and  N_23 
ROOT
HETATM    1  C   UNL     1      -5.723   6.062 -28.188  1.00  0.00     0.249 C 
HETATM    2  N   UNL     1      -5.481   4.804 -28.672  1.00  0.00    -0.304 N 
HETATM    3  O   UNL     1      -6.679   6.808 -28.403  1.00  0.00    -0.271 OA
HETATM    4  H   UNL     1      -4.681   4.243 -28.407  1.00  0.00     0.171 HD
ENDROOT
BRANCH   2   5
HETATM    5  C   UNL     1      -6.276   4.244 -29.637  1.00  0.00     0.174 A 
HETATM    6  S   UNL     1      -5.625   4.325 -31.207  1.00  0.00    -0.038 SA
HETATM    7  C   UNL     1      -7.071   3.643 -31.821  1.00  0.00     0.125 A 
HETATM    8  C   UNL     1      -7.926   3.368 -30.772  1.00  0.00     0.151 A 
HETATM    9  N   UNL     1      -7.453   3.697 -29.510  1.00  0.00    -0.234 NA
BRANCH   7  10
HETATM   10  S   UNL     1      -7.239   3.456 -33.570  1.00  0.00     0.214 S 
HETATM   11  O   UNL     1      -7.230   4.815 -34.070  1.00  0.00    -0.217 OA
HETATM   12  O   UNL     1      -6.257   2.476 -33.981  1.00  0.00    -0.217 OA
BRANCH  10  13
HETATM   13  C   UNL     1      -8.859   2.775 -33.823  1.00  0.00     0.065 A 
HETATM   14  C   UNL     1      -9.882   3.594 -34.312  1.00  0.00     0.026 A 
HETATM   15  C   UNL     1     -11.152   3.055 -34.537  1.00  0.00     0.037 A 
HETATM   16  C   UNL     1     -11.383   1.695 -34.283  1.00  0.00     0.102 A 
HETATM   17  C   UNL     1     -10.349   0.870 -33.813  1.00  0.00     0.037 A 
HETATM   18  C   UNL     1      -9.080   1.412 -33.587  1.00  0.00     0.026 A 
BRANCH  16  19
HETATM   19  N   UNL     1     -12.722   1.129 -34.504  1.00  0.00    -0.116 N 
HETATM   20  O   UNL     1     -13.050   0.150 -33.821  1.00  0.00    -0.532 OA
HETATM   21  O   UNL     1     -13.426   1.651 -35.378  1.00  0.00    -0.532 OA
ENDBRANCH  16  19
ENDBRANCH  10  13
ENDBRANCH   7  10
ENDBRANCH   2   5
BRANCH   1  22
HETATM   22  C   UNL     1      -4.645   6.605 -27.248  1.00  0.00     0.337 C 
BRANCH  22  23
HETATM   23  N   UNL     1      -3.586   7.388 -28.074  1.00  0.00    -0.060 N 
HETATM   24  C   UNL     1      -2.166   7.139 -27.563  1.00  0.00     0.263 C 
HETATM   25  C   UNL     1      -1.133   7.949 -28.378  1.00  0.00     0.263 C 
HETATM   26  N   UNL     1      -1.267   7.683 -29.878  1.00  0.00    -0.064 N 
HETATM   27  H   UNL     1      -0.636   8.363 -30.332  1.00  0.00     0.280 HD
HETATM   28  C   UNL     1      -2.675   7.994 -30.372  1.00  0.00     0.263 C 
HETATM   29  C   UNL     1      -3.757   7.218 -29.571  1.00  0.00     0.263 C 
HETATM   30  H   UNL     1      -3.812   8.374 -27.814  1.00  0.00     0.280 HD
BRANCH  26  31
HETATM   31  C   UNL     1      -0.752   6.333 -30.362  1.00  0.00     0.273 C 
BRANCH  31  32
HETATM   32  C   UNL     1      -1.125   6.008 -31.778  1.00  0.00    -0.033 A 
HETATM   33  C   UNL     1      -1.802   4.813 -32.079  1.00  0.00     0.009 A 
HETATM   34  C   UNL     1      -2.132   4.499 -33.396  1.00  0.00     0.001 A 
HETATM   35  C   UNL     1      -1.793   5.373 -34.427  1.00  0.00     0.000 A 
HETATM   36  C   UNL     1      -1.134   6.566 -34.141  1.00  0.00     0.001 A 
HETATM   37  C   UNL     1      -0.803   6.887 -32.824  1.00  0.00     0.009 A 
ENDBRANCH  31  32
ENDBRANCH  26  31
ENDBRANCH  22  23
ENDBRANCH   1  22
TORSDOF 8
ENDMDL
