MODEL 1
REMARK VINA RESULT:      -9.8      0.000      0.000
REMARK  7 active torsions:
REMARK  status: ('A' for Active; 'I' for Inactive)
REMARK    1  A    between atoms: C_4  and  N_5 
REMARK    2  A    between atoms: C_11  and  C_12 
REMARK    3  A    between atoms: C_12  and  C_13 
REMARK    4  A    between atoms: C_13  and  C_14 
REMARK       I    between atoms: C_14  and  N_15 
REMARK    5  A    between atoms: N_15  and  C_16 
REMARK    6  A    between atoms: N_19  and  C_21 
REMARK    7  A    between atoms: C_21  and  C_22 
ROOT
HETATM    1  C   UNL     1      -8.603   4.884 -30.590  1.00  0.00     0.110 C 
ENDROOT
BRANCH   1   2
HETATM    2  C   UNL     1      -7.521   4.680 -29.545  1.00  0.00     0.088 C 
BRANCH   2   3
HETATM    3  C   UNL     1      -6.518   3.640 -29.973  1.00  0.00     0.109 A 
HETATM    4  N   UNL     1      -5.484   4.010 -30.674  1.00  0.00    -0.215 NA
HETATM    5  C   UNL     1      -4.661   2.976 -31.017  1.00  0.00     0.170 A 
HETATM    6  N   UNL     1      -3.544   2.996 -31.856  1.00  0.00    -0.215 N 
HETATM    7  C   UNL     1      -4.805   1.665 -30.619  1.00  0.00     0.099 A 
HETATM    8  N   UNL     1      -2.931   1.770 -31.870  1.00  0.00    -0.177 NA
HETATM    9  C   UNL     1      -3.725   0.973 -31.155  1.00  0.00     0.160 A 
HETATM   10  C   UNL     1      -5.925   1.287 -29.813  1.00  0.00     0.262 A 
HETATM   11  N   UNL     1      -6.765   2.351 -29.547  1.00  0.00    -0.311 N 
HETATM   12  O   UNL     1      -6.137   0.158 -29.396  1.00  0.00    -0.267 OA
HETATM   13  H   UNL     1      -7.582   2.115 -29.001  1.00  0.00     0.170 HD
BRANCH   6  14
HETATM   14  C   UNL     1      -3.016   4.057 -32.654  1.00  0.00     0.060 A 
HETATM   15  C   UNL     1      -3.753   4.506 -33.762  1.00  0.00     0.031 A 
HETATM   16  C   UNL     1      -3.287   5.564 -34.547  1.00  0.00     0.002 A 
HETATM   17  C   UNL     1      -2.082   6.184 -34.232  1.00  0.00     0.000 A 
HETATM   18  C   UNL     1      -1.343   5.750 -33.134  1.00  0.00     0.002 A 
HETATM   19  C   UNL     1      -1.805   4.692 -32.344  1.00  0.00     0.031 A 
ENDBRANCH   6  14
ENDBRANCH   2   3
ENDBRANCH   1   2
BRANCH   1  20
HETATM   20  C   UNL     1      -9.526   3.717 -30.910  1.00  0.00     0.218 C 
HETATM   21  N   UNL     1      -9.187   2.910 -31.976  1.00  0.00    -0.356 N 
HETATM   22  H   UNL     1      -8.718   3.401 -32.737  1.00  0.00     0.162 HD
HETATM   23  O   UNL     1     -10.433   3.438 -30.131  1.00  0.00    -0.274 OA
BRANCH  21  24
HETATM   24  C   UNL     1      -9.965   1.744 -32.432  1.00  0.00     0.087 C 
HETATM   25  C   UNL     1      -9.423   0.356 -32.078  1.00  0.00     0.053 C 
HETATM   26  C   UNL     1      -8.048   0.118 -32.677  1.00  0.00     0.237 C 
HETATM   27  N   UNL     1      -8.106   0.267 -34.187  1.00  0.00    -0.067 N 
HETATM   28  H   UNL     1      -8.668  -0.518 -34.540  1.00  0.00     0.280 HD
HETATM   29  C   UNL     1      -8.751   1.560 -34.637  1.00  0.00     0.237 C 
HETATM   30  C   UNL     1     -10.096   1.795 -33.958  1.00  0.00     0.053 C 
BRANCH  27  31
HETATM   31  C   UNL     1      -6.732   0.135 -34.828  1.00  0.00     0.273 C 
BRANCH  31  32
HETATM   32  C   UNL     1      -6.016  -1.157 -34.544  1.00  0.00    -0.033 A 
HETATM   33  C   UNL     1      -4.825  -1.175 -33.804  1.00  0.00     0.010 A 
HETATM   34  C   UNL     1      -4.170  -2.385 -33.551  1.00  0.00     0.024 A 
HETATM   35  C   UNL     1      -4.695  -3.580 -34.041  1.00  0.00     0.034 A 
HETATM   36 CL   UNL     1      -3.886  -5.064 -33.728  1.00  0.00    -0.084 Cl
HETATM   37  C   UNL     1      -5.874  -3.577 -34.780  1.00  0.00     0.024 A 
HETATM   38  C   UNL     1      -6.534  -2.371 -35.030  1.00  0.00     0.010 A 
ENDBRANCH  31  32
ENDBRANCH  27  31
ENDBRANCH  21  24
ENDBRANCH   1  20
TORSDOF 7
ENDMDL
MODEL 2
REMARK VINA RESULT:      -9.6      2.776      3.946
REMARK  7 active torsions:
REMARK  status: ('A' for Active; 'I' for Inactive)
REMARK    1  A    between atoms: C_4  and  N_5 
REMARK    2  A    between atoms: C_11  and  C_12 
REMARK    3  A    between atoms: C_12  and  C_13 
REMARK    4  A    between atoms: C_13  and  C_14 
REMARK       I    between atoms: C_14  and  N_15 
REMARK    5  A    between atoms: N_15  and  C_16 
REMARK    6  A    between atoms: N_19  and  C_21 
REMARK    7  A    between atoms: C_21  and  C_22 
ROOT
HETATM    1  C   UNL     1      -5.284   3.467 -30.144  1.00  0.00     0.110 C 
ENDROOT
BRANCH   1   2
HETATM    2  C   UNL     1      -4.345   2.971 -31.228  1.00  0.00     0.088 C 
BRANCH   2   3
HETATM    3  C   UNL     1      -3.779   4.108 -32.040  1.00  0.00     0.109 A 
HETATM    4  N   UNL     1      -2.889   4.890 -31.496  1.00  0.00    -0.215 NA
HETATM    5  C   UNL     1      -2.468   5.891 -32.324  1.00  0.00     0.170 A 
HETATM    6  N   UNL     1      -1.624   6.965 -32.028  1.00  0.00    -0.215 N 
HETATM    7  C   UNL     1      -2.840   6.060 -33.640  1.00  0.00     0.099 A 
HETATM    8  N   UNL     1      -1.369   7.700 -33.157  1.00  0.00    -0.177 NA
HETATM    9  C   UNL     1      -2.139   7.167 -34.105  1.00  0.00     0.160 A 
HETATM   10  C   UNL     1      -3.786   5.163 -34.230  1.00  0.00     0.262 A 
HETATM   11  N   UNL     1      -4.234   4.209 -33.338  1.00  0.00    -0.311 N 
HETATM   12  O   UNL     1      -4.170   5.217 -35.389  1.00  0.00    -0.267 OA
HETATM   13  H   UNL     1      -4.924   3.573 -33.715  1.00  0.00     0.170 HD
BRANCH   6  14
HETATM   14  C   UNL     1      -1.056   7.368 -30.781  1.00  0.00     0.060 A 
HETATM   15  C   UNL     1      -1.753   8.290 -29.982  1.00  0.00     0.031 A 
HETATM   16  C   UNL     1      -1.246   8.682 -28.741  1.00  0.00     0.002 A 
HETATM   17  C   UNL     1      -0.040   8.158 -28.284  1.00  0.00     0.000 A 
HETATM   18  C   UNL     1       0.658   7.241 -29.067  1.00  0.00     0.002 A 
HETATM   19  C   UNL     1       0.155   6.843 -30.310  1.00  0.00     0.031 A 
ENDBRANCH   6  14
ENDBRANCH   2   3
ENDBRANCH   1   2
BRANCH   1  20
HETATM   20  C   UNL     1      -6.783   3.336 -30.371  1.00  0.00     0.218 C 
HETATM   21  N   UNL     1      -7.211   2.375 -31.262  1.00  0.00    -0.356 N 
HETATM   22  H   UNL     1      -6.571   2.214 -32.040  1.00  0.00     0.162 HD
HETATM   23  O   UNL     1      -7.557   3.962 -29.651  1.00  0.00    -0.274 OA
BRANCH  21  24
HETATM   24  C   UNL     1      -8.619   2.113 -31.610  1.00  0.00     0.087 C 
HETATM   25  C   UNL     1      -9.054   0.649 -31.724  1.00  0.00     0.053 C 
HETATM   26  C   UNL     1      -8.283  -0.085 -32.806  1.00  0.00     0.237 C 
HETATM   27  N   UNL     1      -8.480   0.605 -34.144  1.00  0.00    -0.067 N 
HETATM   28  H   UNL     1      -9.464   0.466 -34.406  1.00  0.00     0.280 HD
HETATM   29  C   UNL     1      -8.199   2.092 -34.098  1.00  0.00     0.237 C 
HETATM   30  C   UNL     1      -8.937   2.778 -32.953  1.00  0.00     0.053 C 
BRANCH  27  31
HETATM   31  C   UNL     1      -7.646  -0.035 -35.245  1.00  0.00     0.273 C 
BRANCH  31  32
HETATM   32  C   UNL     1      -6.615  -1.023 -34.773  1.00  0.00    -0.033 A 
HETATM   33  C   UNL     1      -5.476  -0.599 -34.073  1.00  0.00     0.010 A 
HETATM   34  C   UNL     1      -4.525  -1.530 -33.643  1.00  0.00     0.024 A 
HETATM   35  C   UNL     1      -4.701  -2.886 -33.915  1.00  0.00     0.034 A 
HETATM   36 CL   UNL     1      -3.529  -4.026 -33.385  1.00  0.00    -0.084 Cl
HETATM   37  C   UNL     1      -5.825  -3.321 -34.613  1.00  0.00     0.024 A 
HETATM   38  C   UNL     1      -6.779  -2.394 -35.038  1.00  0.00     0.010 A 
ENDBRANCH  31  32
ENDBRANCH  27  31
ENDBRANCH  21  24
ENDBRANCH   1  20
TORSDOF 7
ENDMDL
MODEL 3
REMARK VINA RESULT:      -9.1      5.435     10.193
REMARK  7 active torsions:
REMARK  status: ('A' for Active; 'I' for Inactive)
REMARK    1  A    between atoms: C_4  and  N_5 
REMARK    2  A    between atoms: C_11  and  C_12 
REMARK    3  A    between atoms: C_12  and  C_13 
REMARK    4  A    between atoms: C_13  and  C_14 
REMARK       I    between atoms: C_14  and  N_15 
REMARK    5  A    between atoms: N_15  and  C_16 
REMARK    6  A    between atoms: N_19  and  C_21 
REMARK    7  A    between atoms: C_21  and  C_22 
ROOT
HETATM    1  C   UNL     1      -3.041   2.870 -31.677  1.00  0.00     0.110 C 
ENDROOT
BRANCH   1   2
HETATM    2  C   UNL     1      -4.295   2.230 -31.109  1.00  0.00     0.088 C 
BRANCH   2   3
HETATM    3  C   UNL     1      -5.264   1.840 -32.195  1.00  0.00     0.109 A 
HETATM    4  N   UNL     1      -5.333   0.590 -32.561  1.00  0.00    -0.215 NA
HETATM    5  C   UNL     1      -6.231   0.366 -33.563  1.00  0.00     0.170 A 
HETATM    6  N   UNL     1      -6.469  -0.816 -34.269  1.00  0.00    -0.215 N 
HETATM    7  C   UNL     1      -7.075   1.306 -34.116  1.00  0.00     0.099 A 
HETATM    8  N   UNL     1      -7.519  -0.656 -35.135  1.00  0.00    -0.177 NA
HETATM    9  C   UNL     1      -7.843   0.635 -35.060  1.00  0.00     0.160 A 
HETATM   10  C   UNL     1      -7.013   2.664 -33.669  1.00  0.00     0.262 A 
HETATM   11  N   UNL     1      -6.045   2.857 -32.703  1.00  0.00    -0.311 N 
HETATM   12  O   UNL     1      -7.724   3.568 -34.083  1.00  0.00    -0.267 OA
HETATM   13  H   UNL     1      -5.956   3.812 -32.383  1.00  0.00     0.170 HD
BRANCH   6  14
HETATM   14  C   UNL     1      -5.787  -2.070 -34.212  1.00  0.00     0.060 A 
HETATM   15  C   UNL     1      -6.387  -3.198 -34.797  1.00  0.00     0.031 A 
HETATM   16  C   UNL     1      -5.736  -4.434 -34.792  1.00  0.00     0.002 A 
HETATM   17  C   UNL     1      -4.481  -4.557 -34.204  1.00  0.00     0.000 A 
HETATM   18  C   UNL     1      -3.875  -3.445 -33.623  1.00  0.00     0.002 A 
HETATM   19  C   UNL     1      -4.521  -2.204 -33.627  1.00  0.00     0.031 A 
ENDBRANCH   6  14
ENDBRANCH   2   3
ENDBRANCH   1   2
BRANCH   1  20
HETATM   20  C   UNL     1      -3.057   4.365 -31.960  1.00  0.00     0.218 C 
HETATM   21  N   UNL     1      -2.231   5.166 -31.199  1.00  0.00    -0.356 N 
HETATM   22  H   UNL     1      -2.100   4.840 -30.243  1.00  0.00     0.162 HD
HETATM   23  O   UNL     1      -3.666   4.784 -32.940  1.00  0.00    -0.274 OA
BRANCH  21  24
HETATM   24  C   UNL     1      -2.123   6.631 -31.330  1.00  0.00     0.087 C 
HETATM   25  C   UNL     1      -0.743   7.206 -31.665  1.00  0.00     0.053 C 
HETATM   26  C   UNL     1       0.281   6.871 -30.595  1.00  0.00     0.237 C 
HETATM   27  N   UNL     1      -0.176   7.408 -29.251  1.00  0.00    -0.067 N 
HETATM   28  H   UNL     1      -0.140   8.433 -29.314  1.00  0.00     0.280 HD
HETATM   29  C   UNL     1      -1.589   6.998 -28.891  1.00  0.00     0.237 C 
HETATM   30  C   UNL     1      -2.572   7.286 -30.020  1.00  0.00     0.053 C 
BRANCH  27  31
HETATM   31  C   UNL     1       0.769   7.012 -28.125  1.00  0.00     0.273 C 
BRANCH  31  32
HETATM   32  C   UNL     1       1.132   8.122 -27.176  1.00  0.00    -0.033 A 
HETATM   33  C   UNL     1       1.942   7.879 -26.057  1.00  0.00     0.010 A 
HETATM   34  C   UNL     1       2.268   8.921 -25.183  1.00  0.00     0.024 A 
HETATM   35  C   UNL     1       1.782  10.207 -25.415  1.00  0.00     0.034 A 
HETATM   36 CL   UNL     1       2.185  11.483 -24.337  1.00  0.00    -0.084 Cl
HETATM   37  C   UNL     1       0.973  10.462 -26.519  1.00  0.00     0.024 A 
HETATM   38  C   UNL     1       0.651   9.425 -27.398  1.00  0.00     0.010 A 
ENDBRANCH  31  32
ENDBRANCH  27  31
ENDBRANCH  21  24
ENDBRANCH   1  20
TORSDOF 7
ENDMDL
MODEL 4
REMARK VINA RESULT:      -9.0      5.380      9.992
REMARK  7 active torsions:
REMARK  status: ('A' for Active; 'I' for Inactive)
REMARK    1  A    between atoms: C_4  and  N_5 
REMARK    2  A    between atoms: C_11  and  C_12 
REMARK    3  A    between atoms: C_12  and  C_13 
REMARK    4  A    between atoms: C_13  and  C_14 
REMARK       I    between atoms: C_14  and  N_15 
REMARK    5  A    between atoms: N_15  and  C_16 
REMARK    6  A    between atoms: N_19  and  C_21 
REMARK    7  A    between atoms: C_21  and  C_22 
ROOT
HETATM    1  C   UNL     1      -3.530   2.985 -31.656  1.00  0.00     0.110 C 
ENDROOT
BRANCH   1   2
HETATM    2  C   UNL     1      -4.740   3.436 -30.859  1.00  0.00     0.088 C 
BRANCH   2   3
HETATM    3  C   UNL     1      -6.003   2.765 -31.333  1.00  0.00     0.109 A 
HETATM    4  N   UNL     1      -5.930   1.565 -31.839  1.00  0.00    -0.215 NA
HETATM    5  C   UNL     1      -7.135   1.073 -32.249  1.00  0.00     0.170 A 
HETATM    6  N   UNL     1      -7.401  -0.113 -32.937  1.00  0.00    -0.215 N 
HETATM    7  C   UNL     1      -8.355   1.695 -32.092  1.00  0.00     0.099 A 
HETATM    8  N   UNL     1      -8.752  -0.293 -33.082  1.00  0.00    -0.177 NA
HETATM    9  C   UNL     1      -9.308   0.822 -32.606  1.00  0.00     0.160 A 
HETATM   10  C   UNL     1      -8.418   2.994 -31.496  1.00  0.00     0.262 A 
HETATM   11  N   UNL     1      -7.171   3.479 -31.157  1.00  0.00    -0.311 N 
HETATM   12  O   UNL     1      -9.448   3.623 -31.299  1.00  0.00    -0.267 OA
HETATM   13  H   UNL     1      -7.175   4.407 -30.757  1.00  0.00     0.170 HD
BRANCH   6  14
HETATM   14  C   UNL     1      -6.499  -1.078 -33.482  1.00  0.00     0.060 A 
HETATM   15  C   UNL     1      -5.191  -1.148 -32.974  1.00  0.00     0.031 A 
HETATM   16  C   UNL     1      -4.290  -2.100 -33.457  1.00  0.00     0.002 A 
HETATM   17  C   UNL     1      -4.686  -2.993 -34.449  1.00  0.00     0.000 A 
HETATM   18  C   UNL     1      -5.982  -2.935 -34.958  1.00  0.00     0.002 A 
HETATM   19  C   UNL     1      -6.889  -1.984 -34.478  1.00  0.00     0.031 A 
ENDBRANCH   6  14
ENDBRANCH   2   3
ENDBRANCH   1   2
BRANCH   1  20
HETATM   20  C   UNL     1      -2.515   4.035 -32.085  1.00  0.00     0.218 C 
HETATM   21  N   UNL     1      -1.644   4.508 -31.127  1.00  0.00    -0.356 N 
HETATM   22  H   UNL     1      -2.039   4.548 -30.188  1.00  0.00     0.162 HD
HETATM   23  O   UNL     1      -2.398   4.304 -33.277  1.00  0.00    -0.274 OA
BRANCH  21  24
HETATM   24  C   UNL     1      -0.604   5.527 -31.361  1.00  0.00     0.087 C 
HETATM   25  C   UNL     1       0.693   5.405 -30.554  1.00  0.00     0.053 C 
HETATM   26  C   UNL     1       0.438   5.499 -29.060  1.00  0.00     0.237 C 
HETATM   27  N   UNL     1      -0.240   6.817 -28.730  1.00  0.00    -0.067 N 
HETATM   28  H   UNL     1       0.450   7.557 -28.909  1.00  0.00     0.280 HD
HETATM   29  C   UNL     1      -1.466   7.088 -29.576  1.00  0.00     0.237 C 
HETATM   30  C   UNL     1      -1.185   6.913 -31.064  1.00  0.00     0.053 C 
BRANCH  27  31
HETATM   31  C   UNL     1      -0.607   6.918 -27.257  1.00  0.00     0.273 C 
BRANCH  31  32
HETATM   32  C   UNL     1       0.240   7.865 -26.451  1.00  0.00    -0.033 A 
HETATM   33  C   UNL     1       1.634   7.719 -26.397  1.00  0.00     0.010 A 
HETATM   34  C   UNL     1       2.407   8.606 -25.641  1.00  0.00     0.024 A 
HETATM   35  C   UNL     1       1.795   9.637 -24.931  1.00  0.00     0.034 A 
HETATM   36 CL   UNL     1       2.750  10.723 -24.003  1.00  0.00    -0.084 Cl
HETATM   37  C   UNL     1       0.412   9.792 -24.972  1.00  0.00     0.024 A 
HETATM   38  C   UNL     1      -0.363   8.912 -25.730  1.00  0.00     0.010 A 
ENDBRANCH  31  32
ENDBRANCH  27  31
ENDBRANCH  21  24
ENDBRANCH   1  20
TORSDOF 7
ENDMDL
MODEL 5
REMARK VINA RESULT:      -9.0      3.343      4.268
REMARK  7 active torsions:
REMARK  status: ('A' for Active; 'I' for Inactive)
REMARK    1  A    between atoms: C_4  and  N_5 
REMARK    2  A    between atoms: C_11  and  C_12 
REMARK    3  A    between atoms: C_12  and  C_13 
REMARK    4  A    between atoms: C_13  and  C_14 
REMARK       I    between atoms: C_14  and  N_15 
REMARK    5  A    between atoms: N_15  and  C_16 
REMARK    6  A    between atoms: N_19  and  C_21 
REMARK    7  A    between atoms: C_21  and  C_22 
ROOT
HETATM    1  C   UNL     1      -5.818   5.768 -28.667  1.00  0.00     0.110 C 
ENDROOT
BRANCH   1   2
HETATM    2  C   UNL     1      -5.183   7.093 -28.283  1.00  0.00     0.088 C 
BRANCH   2   3
HETATM    3  C   UNL     1      -3.686   7.065 -28.453  1.00  0.00     0.109 A 
HETATM    4  N   UNL     1      -3.188   6.854 -29.639  1.00  0.00    -0.215 NA
HETATM    5  C   UNL     1      -1.823   6.832 -29.660  1.00  0.00     0.170 A 
HETATM    6  N   UNL     1      -0.976   6.515 -30.725  1.00  0.00    -0.215 N 
HETATM    7  C   UNL     1      -0.996   7.088 -28.588  1.00  0.00     0.099 A 
HETATM    8  N   UNL     1       0.334   6.702 -30.368  1.00  0.00    -0.177 NA
HETATM    9  C   UNL     1       0.305   7.006 -29.070  1.00  0.00     0.160 A 
HETATM   10  C   UNL     1      -1.564   7.360 -27.303  1.00  0.00     0.262 A 
HETATM   11  N   UNL     1      -2.943   7.307 -27.315  1.00  0.00    -0.311 N 
HETATM   12  O   UNL     1      -0.921   7.613 -26.295  1.00  0.00    -0.267 OA
HETATM   13  H   UNL     1      -3.378   7.468 -26.417  1.00  0.00     0.170 HD
BRANCH   6  14
HETATM   14  C   UNL     1      -1.289   6.039 -32.035  1.00  0.00     0.060 A 
HETATM   15  C   UNL     1      -0.988   6.849 -33.143  1.00  0.00     0.031 A 
HETATM   16  C   UNL     1      -1.248   6.404 -34.441  1.00  0.00     0.002 A 
HETATM   17  C   UNL     1      -1.808   5.147 -34.647  1.00  0.00     0.000 A 
HETATM   18  C   UNL     1      -2.107   4.333 -33.556  1.00  0.00     0.002 A 
HETATM   19  C   UNL     1      -1.848   4.773 -32.253  1.00  0.00     0.031 A 
ENDBRANCH   6  14
ENDBRANCH   2   3
ENDBRANCH   1   2
BRANCH   1  20
HETATM   20  C   UNL     1      -6.491   5.657 -30.027  1.00  0.00     0.218 C 
HETATM   21  N   UNL     1      -6.708   4.391 -30.528  1.00  0.00    -0.356 N 
HETATM   22  H   UNL     1      -5.995   3.711 -30.265  1.00  0.00     0.162 HD
HETATM   23  O   UNL     1      -6.956   6.665 -30.551  1.00  0.00    -0.274 OA
BRANCH  21  24
HETATM   24  C   UNL     1      -7.338   4.094 -31.827  1.00  0.00     0.087 C 
HETATM   25  C   UNL     1      -8.189   2.824 -31.921  1.00  0.00     0.053 C 
HETATM   26  C   UNL     1      -7.372   1.577 -31.634  1.00  0.00     0.237 C 
HETATM   27  N   UNL     1      -6.211   1.480 -32.607  1.00  0.00    -0.067 N 
HETATM   28  H   UNL     1      -6.617   1.300 -33.534  1.00  0.00     0.280 HD
HETATM   29  C   UNL     1      -5.384   2.746 -32.681  1.00  0.00     0.237 C 
HETATM   30  C   UNL     1      -6.250   3.982 -32.899  1.00  0.00     0.053 C 
BRANCH  27  31
HETATM   31  C   UNL     1      -5.303   0.298 -32.298  1.00  0.00     0.273 C 
BRANCH  31  32
HETATM   32  C   UNL     1      -5.532  -0.922 -33.148  1.00  0.00    -0.033 A 
HETATM   33  C   UNL     1      -6.807  -1.225 -33.648  1.00  0.00     0.010 A 
HETATM   34  C   UNL     1      -7.004  -2.365 -34.435  1.00  0.00     0.024 A 
HETATM   35  C   UNL     1      -5.933  -3.211 -34.721  1.00  0.00     0.034 A 
HETATM   36 CL   UNL     1      -6.181  -4.610 -35.687  1.00  0.00    -0.084 Cl
HETATM   37  C   UNL     1      -4.663  -2.925 -34.227  1.00  0.00     0.024 A 
HETATM   38  C   UNL     1      -4.462  -1.785 -33.447  1.00  0.00     0.010 A 
ENDBRANCH  31  32
ENDBRANCH  27  31
ENDBRANCH  21  24
ENDBRANCH   1  20
TORSDOF 7
ENDMDL
MODEL 6
REMARK VINA RESULT:      -8.9      4.409      5.191
REMARK  7 active torsions:
REMARK  status: ('A' for Active; 'I' for Inactive)
REMARK    1  A    between atoms: C_4  and  N_5 
REMARK    2  A    between atoms: C_11  and  C_12 
REMARK    3  A    between atoms: C_12  and  C_13 
REMARK    4  A    between atoms: C_13  and  C_14 
REMARK       I    between atoms: C_14  and  N_15 
REMARK    5  A    between atoms: N_15  and  C_16 
REMARK    6  A    between atoms: N_19  and  C_21 
REMARK    7  A    between atoms: C_21  and  C_22 
ROOT
HETATM    1  C   UNL     1      -5.290   5.713 -28.621  1.00  0.00     0.110 C 
ENDROOT
BRANCH   1   2
HETATM    2  C   UNL     1      -5.359   6.211 -27.188  1.00  0.00     0.088 C 
BRANCH   2   3
HETATM    3  C   UNL     1      -4.066   6.856 -26.758  1.00  0.00     0.109 A 
HETATM    4  N   UNL     1      -3.043   6.820 -27.566  1.00  0.00    -0.215 NA
HETATM    5  C   UNL     1      -1.928   7.420 -27.057  1.00  0.00     0.170 A 
HETATM    6  N   UNL     1      -0.639   7.457 -27.595  1.00  0.00    -0.215 N 
HETATM    7  C   UNL     1      -1.849   8.090 -25.855  1.00  0.00     0.099 A 
HETATM    8  N   UNL     1       0.181   8.240 -26.825  1.00  0.00    -0.177 NA
HETATM    9  C   UNL     1      -0.551   8.578 -25.763  1.00  0.00     0.160 A 
HETATM   10  C   UNL     1      -2.997   8.154 -25.002  1.00  0.00     0.262 A 
HETATM   11  N   UNL     1      -4.081   7.478 -25.527  1.00  0.00    -0.311 N 
HETATM   12  O   UNL     1      -3.037   8.733 -23.927  1.00  0.00    -0.267 OA
HETATM   13  H   UNL     1      -4.903   7.480 -24.938  1.00  0.00     0.170 HD
BRANCH   6  14
HETATM   14  C   UNL     1      -0.111   6.810 -28.754  1.00  0.00     0.060 A 
HETATM   15  C   UNL     1       0.449   5.528 -28.621  1.00  0.00     0.031 A 
HETATM   16  C   UNL     1       0.945   4.849 -29.736  1.00  0.00     0.002 A 
HETATM   17  C   UNL     1       0.886   5.441 -30.994  1.00  0.00     0.000 A 
HETATM   18  C   UNL     1       0.330   6.710 -31.139  1.00  0.00     0.002 A 
HETATM   19  C   UNL     1      -0.169   7.395 -30.026  1.00  0.00     0.031 A 
ENDBRANCH   6  14
ENDBRANCH   2   3
ENDBRANCH   1   2
BRANCH   1  20
HETATM   20  C   UNL     1      -6.555   5.148 -29.250  1.00  0.00     0.218 C 
HETATM   21  N   UNL     1      -6.423   4.459 -30.437  1.00  0.00    -0.356 N 
HETATM   22  H   UNL     1      -5.676   4.805 -31.039  1.00  0.00     0.162 HD
HETATM   23  O   UNL     1      -7.607   5.180 -28.617  1.00  0.00    -0.274 OA
BRANCH  21  24
HETATM   24  C   UNL     1      -7.536   3.852 -31.189  1.00  0.00     0.087 C 
HETATM   25  C   UNL     1      -7.899   2.401 -30.857  1.00  0.00     0.053 C 
HETATM   26  C   UNL     1      -6.740   1.457 -31.121  1.00  0.00     0.237 C 
HETATM   27  N   UNL     1      -6.314   1.550 -32.575  1.00  0.00    -0.067 N 
HETATM   28  H   UNL     1      -7.082   1.159 -33.134  1.00  0.00     0.280 HD
HETATM   29  C   UNL     1      -6.058   2.970 -33.034  1.00  0.00     0.237 C 
HETATM   30  C   UNL     1      -7.216   3.900 -32.686  1.00  0.00     0.053 C 
BRANCH  27  31
HETATM   31  C   UNL     1      -5.089   0.694 -32.868  1.00  0.00     0.273 C 
BRANCH  31  32
HETATM   32  C   UNL     1      -5.378  -0.633 -33.515  1.00  0.00    -0.033 A 
HETATM   33  C   UNL     1      -4.379  -1.610 -33.635  1.00  0.00     0.010 A 
HETATM   34  C   UNL     1      -4.662  -2.838 -34.242  1.00  0.00     0.024 A 
HETATM   35  C   UNL     1      -5.940  -3.094 -34.738  1.00  0.00     0.034 A 
HETATM   36 CL   UNL     1      -6.282  -4.604 -35.484  1.00  0.00    -0.084 Cl
HETATM   37  C   UNL     1      -6.940  -2.132 -34.630  1.00  0.00     0.024 A 
HETATM   38  C   UNL     1      -6.662  -0.907 -34.019  1.00  0.00     0.010 A 
ENDBRANCH  31  32
ENDBRANCH  27  31
ENDBRANCH  21  24
ENDBRANCH   1  20
TORSDOF 7
ENDMDL
MODEL 7
REMARK VINA RESULT:      -8.9      2.558      3.482
REMARK  7 active torsions:
REMARK  status: ('A' for Active; 'I' for Inactive)
REMARK    1  A    between atoms: C_4  and  N_5 
REMARK    2  A    between atoms: C_11  and  C_12 
REMARK    3  A    between atoms: C_12  and  C_13 
REMARK    4  A    between atoms: C_13  and  C_14 
REMARK       I    between atoms: C_14  and  N_15 
REMARK    5  A    between atoms: N_15  and  C_16 
REMARK    6  A    between atoms: N_19  and  C_21 
REMARK    7  A    between atoms: C_21  and  C_22 
ROOT
HETATM    1  C   UNL     1      -7.188   5.609 -29.821  1.00  0.00     0.110 C 
ENDROOT
BRANCH   1   2
HETATM    2  C   UNL     1      -6.503   6.727 -30.586  1.00  0.00     0.088 C 
BRANCH   2   3
HETATM    3  C   UNL     1      -5.377   6.211 -31.444  1.00  0.00     0.109 A 
HETATM    4  N   UNL     1      -4.179   6.137 -30.936  1.00  0.00    -0.215 NA
HETATM    5  C   UNL     1      -3.244   5.673 -31.815  1.00  0.00     0.170 A 
HETATM    6  N   UNL     1      -1.859   5.584 -31.645  1.00  0.00    -0.215 N 
HETATM    7  C   UNL     1      -3.491   5.228 -33.096  1.00  0.00     0.099 A 
HETATM    8  N   UNL     1      -1.280   4.976 -32.728  1.00  0.00    -0.177 NA
HETATM    9  C   UNL     1      -2.269   4.806 -33.606  1.00  0.00     0.160 A 
HETATM   10  C   UNL     1      -4.822   5.277 -33.619  1.00  0.00     0.262 A 
HETATM   11  N   UNL     1      -5.722   5.814 -32.719  1.00  0.00    -0.311 N 
HETATM   12  O   UNL     1      -5.150   4.895 -34.733  1.00  0.00    -0.267 OA
HETATM   13  H   UNL     1      -6.669   5.889 -33.066  1.00  0.00     0.170 HD
BRANCH   6  14
HETATM   14  C   UNL     1      -1.038   6.034 -30.567  1.00  0.00     0.060 A 
HETATM   15  C   UNL     1      -0.114   5.141 -29.997  1.00  0.00     0.031 A 
HETATM   16  C   UNL     1       0.730   5.554 -28.964  1.00  0.00     0.002 A 
HETATM   17  C   UNL     1       0.663   6.861 -28.490  1.00  0.00     0.000 A 
HETATM   18  C   UNL     1      -0.247   7.756 -29.049  1.00  0.00     0.002 A 
HETATM   19  C   UNL     1      -1.095   7.348 -30.085  1.00  0.00     0.031 A 
ENDBRANCH   6  14
ENDBRANCH   2   3
ENDBRANCH   1   2
BRANCH   1  20
HETATM   20  C   UNL     1      -8.311   4.846 -30.509  1.00  0.00     0.218 C 
HETATM   21  N   UNL     1      -8.073   3.531 -30.848  1.00  0.00    -0.356 N 
HETATM   22  H   UNL     1      -7.105   3.336 -31.105  1.00  0.00     0.162 HD
HETATM   23  O   UNL     1      -9.423   5.360 -30.591  1.00  0.00    -0.274 OA
BRANCH  21  24
HETATM   24  C   UNL     1      -9.040   2.646 -31.523  1.00  0.00     0.087 C 
HETATM   25  C   UNL     1      -8.873   1.137 -31.317  1.00  0.00     0.053 C 
HETATM   26  C   UNL     1      -7.530   0.644 -31.825  1.00  0.00     0.237 C 
HETATM   27  N   UNL     1      -7.381   0.970 -33.300  1.00  0.00    -0.067 N 
HETATM   28  H   UNL     1      -8.063   0.388 -33.802  1.00  0.00     0.280 HD
HETATM   29  C   UNL     1      -7.657   2.423 -33.622  1.00  0.00     0.237 C 
HETATM   30  C   UNL     1      -8.982   2.898 -33.033  1.00  0.00     0.053 C 
BRANCH  27  31
HETATM   31  C   UNL     1      -6.009   0.584 -33.835  1.00  0.00     0.273 C 
BRANCH  31  32
HETATM   32  C   UNL     1      -5.812  -0.886 -34.086  1.00  0.00    -0.033 A 
HETATM   33  C   UNL     1      -6.852  -1.676 -34.598  1.00  0.00     0.010 A 
HETATM   34  C   UNL     1      -6.654  -3.042 -34.824  1.00  0.00     0.024 A 
HETATM   35  C   UNL     1      -5.423  -3.628 -34.534  1.00  0.00     0.034 A 
HETATM   36 CL   UNL     1      -5.186  -5.307 -34.812  1.00  0.00    -0.084 Cl
HETATM   37  C   UNL     1      -4.384  -2.857 -34.021  1.00  0.00     0.024 A 
HETATM   38  C   UNL     1      -4.576  -1.491 -33.800  1.00  0.00     0.010 A 
ENDBRANCH  31  32
ENDBRANCH  27  31
ENDBRANCH  21  24
ENDBRANCH   1  20
TORSDOF 7
ENDMDL
MODEL 8
REMARK VINA RESULT:      -8.7      3.447      4.811
REMARK  7 active torsions:
REMARK  status: ('A' for Active; 'I' for Inactive)
REMARK    1  A    between atoms: C_4  and  N_5 
REMARK    2  A    between atoms: C_11  and  C_12 
REMARK    3  A    between atoms: C_12  and  C_13 
REMARK    4  A    between atoms: C_13  and  C_14 
REMARK       I    between atoms: C_14  and  N_15 
REMARK    5  A    between atoms: N_15  and  C_16 
REMARK    6  A    between atoms: N_19  and  C_21 
REMARK    7  A    between atoms: C_21  and  C_22 
ROOT
HETATM    1  C   UNL     1      -4.936   7.483 -27.879  1.00  0.00     0.110 C 
ENDROOT
BRANCH   1   2
HETATM    2  C   UNL     1      -3.728   8.336 -28.221  1.00  0.00     0.088 C 
BRANCH   2   3
HETATM    3  C   UNL     1      -2.494   7.498 -28.434  1.00  0.00     0.109 A 
HETATM    4  N   UNL     1      -2.204   7.095 -29.639  1.00  0.00    -0.215 NA
HETATM    5  C   UNL     1      -1.076   6.329 -29.701  1.00  0.00     0.170 A 
HETATM    6  N   UNL     1      -0.551   5.641 -30.798  1.00  0.00    -0.215 N 
HETATM    7  C   UNL     1      -0.235   6.047 -28.646  1.00  0.00     0.099 A 
HETATM    8  N   UNL     1       0.649   5.064 -30.474  1.00  0.00    -0.177 NA
HETATM    9  C   UNL     1       0.803   5.283 -29.168  1.00  0.00     0.160 A 
HETATM   10  C   UNL     1      -0.548   6.535 -27.339  1.00  0.00     0.262 A 
HETATM   11  N   UNL     1      -1.731   7.248 -27.312  1.00  0.00    -0.311 N 
HETATM   12  O   UNL     1       0.137   6.354 -26.342  1.00  0.00    -0.267 OA
HETATM   13  H   UNL     1      -1.997   7.586 -26.397  1.00  0.00     0.170 HD
BRANCH   6  14
HETATM   14  C   UNL     1      -1.086   5.466 -32.111  1.00  0.00     0.060 A 
HETATM   15  C   UNL     1      -1.975   4.404 -32.347  1.00  0.00     0.031 A 
HETATM   16  C   UNL     1      -2.545   4.220 -33.609  1.00  0.00     0.002 A 
HETATM   17  C   UNL     1      -2.236   5.094 -34.646  1.00  0.00     0.000 A 
HETATM   18  C   UNL     1      -1.358   6.153 -34.424  1.00  0.00     0.002 A 
HETATM   19  C   UNL     1      -0.784   6.343 -33.162  1.00  0.00     0.031 A 
ENDBRANCH   6  14
ENDBRANCH   2   3
ENDBRANCH   1   2
BRANCH   1  20
HETATM   20  C   UNL     1      -5.961   7.212 -28.971  1.00  0.00     0.218 C 
HETATM   21  N   UNL     1      -5.945   5.968 -29.564  1.00  0.00    -0.356 N 
HETATM   22  H   UNL     1      -5.017   5.552 -29.636  1.00  0.00     0.162 HD
HETATM   23  O   UNL     1      -6.854   8.031 -29.172  1.00  0.00    -0.274 OA
BRANCH  21  24
HETATM   24  C   UNL     1      -6.857   5.535 -30.639  1.00  0.00     0.087 C 
HETATM   25  C   UNL     1      -7.985   4.570 -30.257  1.00  0.00     0.053 C 
HETATM   26  C   UNL     1      -7.445   3.263 -29.705  1.00  0.00     0.237 C 
HETATM   27  N   UNL     1      -6.540   2.601 -30.728  1.00  0.00    -0.067 N 
HETATM   28  H   UNL     1      -7.141   2.309 -31.509  1.00  0.00     0.280 HD
HETATM   29  C   UNL     1      -5.467   3.524 -31.265  1.00  0.00     0.237 C 
HETATM   30  C   UNL     1      -6.043   4.853 -31.743  1.00  0.00     0.053 C 
BRANCH  27  31
HETATM   31  C   UNL     1      -5.894   1.334 -30.185  1.00  0.00     0.273 C 
BRANCH  31  32
HETATM   32  C   UNL     1      -5.509   0.317 -31.225  1.00  0.00    -0.033 A 
HETATM   33  C   UNL     1      -4.228  -0.254 -31.236  1.00  0.00     0.010 A 
HETATM   34  C   UNL     1      -3.884  -1.197 -32.211  1.00  0.00     0.024 A 
HETATM   35  C   UNL     1      -4.812  -1.567 -33.183  1.00  0.00     0.034 A 
HETATM   36 CL   UNL     1      -4.384  -2.724 -34.379  1.00  0.00    -0.084 Cl
HETATM   37  C   UNL     1      -6.085  -1.005 -33.187  1.00  0.00     0.024 A 
HETATM   38  C   UNL     1      -6.434  -0.069 -32.211  1.00  0.00     0.010 A 
ENDBRANCH  31  32
ENDBRANCH  27  31
ENDBRANCH  21  24
ENDBRANCH   1  20
TORSDOF 7
ENDMDL
MODEL 9
REMARK VINA RESULT:      -8.6      3.504      7.180
REMARK  7 active torsions:
REMARK  status: ('A' for Active; 'I' for Inactive)
REMARK    1  A    between atoms: C_4  and  N_5 
REMARK    2  A    between atoms: C_11  and  C_12 
REMARK    3  A    between atoms: C_12  and  C_13 
REMARK    4  A    between atoms: C_13  and  C_14 
REMARK       I    between atoms: C_14  and  N_15 
REMARK    5  A    between atoms: N_15  and  C_16 
REMARK    6  A    between atoms: N_19  and  C_21 
REMARK    7  A    between atoms: C_21  and  C_22 
ROOT
HETATM    1  C   UNL     1      -9.630   0.272 -32.346  1.00  0.00     0.110 C 
ENDROOT
BRANCH   1   2
HETATM    2  C   UNL     1      -8.836   1.375 -31.669  1.00  0.00     0.088 C 
BRANCH   2   3
HETATM    3  C   UNL     1      -7.352   1.188 -31.851  1.00  0.00     0.109 A 
HETATM    4  N   UNL     1      -6.925   0.196 -32.581  1.00  0.00    -0.215 NA
HETATM    5  C   UNL     1      -5.564   0.121 -32.654  1.00  0.00     0.170 A 
HETATM    6  N   UNL     1      -4.779  -0.874 -33.242  1.00  0.00    -0.215 N 
HETATM    7  C   UNL     1      -4.676   1.022 -32.107  1.00  0.00     0.099 A 
HETATM    8  N   UNL     1      -3.452  -0.536 -33.185  1.00  0.00    -0.177 NA
HETATM    9  C   UNL     1      -3.406   0.585 -32.465  1.00  0.00     0.160 A 
HETATM   10  C   UNL     1      -5.168   2.128 -31.345  1.00  0.00     0.262 A 
HETATM   11  N   UNL     1      -6.545   2.127 -31.242  1.00  0.00    -0.311 N 
HETATM   12  O   UNL     1      -4.468   2.989 -30.832  1.00  0.00    -0.267 OA
HETATM   13  H   UNL     1      -6.926   2.881 -30.688  1.00  0.00     0.170 HD
BRANCH   6  14
HETATM   14  C   UNL     1      -5.165  -2.116 -33.833  1.00  0.00     0.060 A 
HETATM   15  C   UNL     1      -4.256  -3.188 -33.817  1.00  0.00     0.031 A 
HETATM   16  C   UNL     1      -4.609  -4.428 -34.354  1.00  0.00     0.002 A 
HETATM   17  C   UNL     1      -5.871  -4.612 -34.912  1.00  0.00     0.000 A 
HETATM   18  C   UNL     1      -6.781  -3.557 -34.931  1.00  0.00     0.002 A 
HETATM   19  C   UNL     1      -6.434  -2.313 -34.393  1.00  0.00     0.031 A 
ENDBRANCH   6  14
ENDBRANCH   2   3
ENDBRANCH   1   2
BRANCH   1  20
HETATM   20  C   UNL     1     -10.502   0.638 -33.538  1.00  0.00     0.218 C 
HETATM   21  N   UNL     1     -11.869   0.618 -33.356  1.00  0.00    -0.356 N 
HETATM   22  H   UNL     1     -12.192  -0.091 -32.699  1.00  0.00     0.162 HD
HETATM   23  O   UNL     1      -9.975   1.086 -34.553  1.00  0.00    -0.274 OA
BRANCH  21  24
HETATM   24  C   UNL     1     -12.863   0.936 -34.398  1.00  0.00     0.087 C 
HETATM   25  C   UNL     1     -12.693   2.259 -35.151  1.00  0.00     0.053 C 
HETATM   26  C   UNL     1     -12.768   3.453 -34.216  1.00  0.00     0.237 C 
HETATM   27  N   UNL     1     -14.098   3.457 -33.484  1.00  0.00    -0.067 N 
HETATM   28  H   UNL     1     -14.822   3.649 -34.188  1.00  0.00     0.280 HD
HETATM   29  C   UNL     1     -14.417   2.138 -32.814  1.00  0.00     0.237 C 
HETATM   30  C   UNL     1     -14.259   0.959 -33.768  1.00  0.00     0.053 C 
BRANCH  27  31
HETATM   31  C   UNL     1     -14.184   4.580 -32.460  1.00  0.00     0.273 C 
BRANCH  31  32
HETATM   32  C   UNL     1     -12.881   4.947 -31.805  1.00  0.00    -0.033 A 
HETATM   33  C   UNL     1     -12.323   6.224 -31.972  1.00  0.00     0.010 A 
HETATM   34  C   UNL     1     -11.109   6.549 -31.358  1.00  0.00     0.024 A 
HETATM   35  C   UNL     1     -10.443   5.602 -30.581  1.00  0.00     0.034 A 
HETATM   36 CL   UNL     1      -8.951   6.006 -29.830  1.00  0.00    -0.084 Cl
HETATM   37  C   UNL     1     -10.982   4.330 -30.410  1.00  0.00     0.024 A 
HETATM   38  C   UNL     1     -12.197   4.004 -31.017  1.00  0.00     0.010 A 
ENDBRANCH  31  32
ENDBRANCH  27  31
ENDBRANCH  21  24
ENDBRANCH   1  20
TORSDOF 7
ENDMDL
MODEL 10
REMARK VINA RESULT:      -8.6      2.040      3.608
REMARK  7 active torsions:
REMARK  status: ('A' for Active; 'I' for Inactive)
REMARK    1  A    between atoms: C_4  and  N_5 
REMARK    2  A    between atoms: C_11  and  C_12 
REMARK    3  A    between atoms: C_12  and  C_13 
REMARK    4  A    between atoms: C_13  and  C_14 
REMARK       I    between atoms: C_14  and  N_15 
REMARK    5  A    between atoms: N_15  and  C_16 
REMARK    6  A    between atoms: N_19  and  C_21 
REMARK    7  A    between atoms: C_21  and  C_22 
ROOT
HETATM    1  C   UNL     1      -8.511   5.622 -32.449  1.00  0.00     0.110 C 
ENDROOT
BRANCH   1   2
HETATM    2  C   UNL     1      -7.745   6.464 -31.445  1.00  0.00     0.088 C 
BRANCH   2   3
HETATM    3  C   UNL     1      -6.262   6.205 -31.514  1.00  0.00     0.109 A 
HETATM    4  N   UNL     1      -5.833   4.976 -31.471  1.00  0.00    -0.215 NA
HETATM    5  C   UNL     1      -4.472   4.873 -31.522  1.00  0.00     0.170 A 
HETATM    6  N   UNL     1      -3.681   3.730 -31.377  1.00  0.00    -0.215 N 
HETATM    7  C   UNL     1      -3.590   5.918 -31.690  1.00  0.00     0.099 A 
HETATM    8  N   UNL     1      -2.361   4.030 -31.586  1.00  0.00    -0.177 NA
HETATM    9  C   UNL     1      -2.320   5.355 -31.733  1.00  0.00     0.160 A 
HETATM   10  C   UNL     1      -4.086   7.257 -31.779  1.00  0.00     0.262 A 
HETATM   11  N   UNL     1      -5.460   7.319 -31.657  1.00  0.00    -0.311 N 
HETATM   12  O   UNL     1      -3.392   8.250 -31.943  1.00  0.00    -0.267 OA
HETATM   13  H   UNL     1      -5.843   8.254 -31.688  1.00  0.00     0.170 HD
BRANCH   6  14
HETATM   14  C   UNL     1      -4.056   2.392 -31.043  1.00  0.00     0.060 A 
HETATM   15  C   UNL     1      -5.157   2.186 -30.195  1.00  0.00     0.031 A 
HETATM   16  C   UNL     1      -5.575   0.893 -29.873  1.00  0.00     0.002 A 
HETATM   17  C   UNL     1      -4.901  -0.207 -30.395  1.00  0.00     0.000 A 
HETATM   18  C   UNL     1      -3.809  -0.015 -31.239  1.00  0.00     0.002 A 
HETATM   19  C   UNL     1      -3.386   1.278 -31.566  1.00  0.00     0.031 A 
ENDBRANCH   6  14
ENDBRANCH   2   3
ENDBRANCH   1   2
BRANCH   1  20
HETATM   20  C   UNL     1      -9.257   4.396 -31.944  1.00  0.00     0.218 C 
HETATM   21  N   UNL     1      -9.018   3.197 -32.582  1.00  0.00    -0.356 N 
HETATM   22  H   UNL     1      -8.821   3.287 -33.578  1.00  0.00     0.162 HD
HETATM   23  O   UNL     1      -9.909   4.475 -30.907  1.00  0.00    -0.274 OA
BRANCH  21  24
HETATM   24  C   UNL     1      -9.655   1.914 -32.233  1.00  0.00     0.087 C 
HETATM   25  C   UNL     1      -8.753   0.816 -31.659  1.00  0.00     0.053 C 
HETATM   26  C   UNL     1      -7.664   0.413 -32.636  1.00  0.00     0.237 C 
HETATM   27  N   UNL     1      -8.283  -0.070 -33.935  1.00  0.00    -0.067 N 
HETATM   28  H   UNL     1      -8.762  -0.954 -33.723  1.00  0.00     0.280 HD
HETATM   29  C   UNL     1      -9.292   0.898 -34.514  1.00  0.00     0.237 C 
HETATM   30  C   UNL     1     -10.326   1.331 -33.481  1.00  0.00     0.053 C 
BRANCH  27  31
HETATM   31  C   UNL     1      -7.229  -0.393 -34.985  1.00  0.00     0.273 C 
BRANCH  31  32
HETATM   32  C   UNL     1      -6.418  -1.632 -34.717  1.00  0.00    -0.033 A 
HETATM   33  C   UNL     1      -6.996  -2.906 -34.812  1.00  0.00     0.010 A 
HETATM   34  C   UNL     1      -6.230  -4.049 -34.557  1.00  0.00     0.024 A 
HETATM   35  C   UNL     1      -4.888  -3.925 -34.199  1.00  0.00     0.034 A 
HETATM   36 CL   UNL     1      -3.952  -5.332 -33.886  1.00  0.00    -0.084 Cl
HETATM   37  C   UNL     1      -4.303  -2.666 -34.097  1.00  0.00     0.024 A 
HETATM   38  C   UNL     1      -5.063  -1.524 -34.357  1.00  0.00     0.010 A 
ENDBRANCH  31  32
ENDBRANCH  27  31
ENDBRANCH  21  24
ENDBRANCH   1  20
TORSDOF 7
ENDMDL
