MODEL 1
REMARK VINA RESULT:      -8.4      0.000      0.000
REMARK  2 active torsions:
REMARK  status: ('A' for Active; 'I' for Inactive)
REMARK    1  A    between atoms: C_9  and  C_11 
REMARK    2  A    between atoms: C_9  and  O_10 
ROOT
HETATM    1  C   UNL     1      -6.737  -2.752 -34.866  1.00  0.00     0.048 C 
HETATM    2  C   UNL     1      -6.596  -1.527 -34.007  1.00  0.00    -0.061 A 
HETATM    3  C   UNL     1      -7.732  -0.891 -33.483  1.00  0.00     0.020 A 
HETATM    4  C   UNL     1      -7.559   0.255 -32.718  1.00  0.00     0.018 A 
HETATM    5  C   UNL     1      -6.278   0.744 -32.465  1.00  0.00     0.045 A 
HETATM    6  N   UNL     1      -6.338   1.876 -31.667  1.00  0.00    -0.323 N 
HETATM    7  C   UNL     1      -7.656   2.209 -31.349  1.00  0.00     0.266 A 
HETATM    8  O   UNL     1      -7.972   3.147 -30.634  1.00  0.00    -0.269 OA
HETATM    9  C   UNL     1      -8.587   1.135 -32.033  1.00  0.00     0.198 A 
HETATM   10  C   UNL     1      -5.142   0.141 -32.959  1.00  0.00     0.031 A 
HETATM   11  C   UNL     1      -5.311  -1.005 -33.742  1.00  0.00     0.009 A 
HETATM   12  H   UNL     1      -5.550   2.414 -31.340  1.00  0.00     0.169 HD
ENDROOT
BRANCH   9  13
HETATM   13  C   UNL     1      -9.433   1.717 -33.140  1.00  0.00     0.018 A 
HETATM   14  C   UNL     1     -10.750   1.291 -33.550  1.00  0.00     0.002 A 
HETATM   15  C   UNL     1     -11.131   2.077 -34.639  1.00  0.00     0.043 A 
HETATM   16  C   UNL     1     -11.650   0.301 -33.104  1.00  0.00     0.014 A 
HETATM   17  C   UNL     1     -12.354   1.918 -35.303  1.00  0.00     0.030 A 
HETATM   18  N   UNL     1     -10.110   2.963 -34.876  1.00  0.00    -0.365 N 
HETATM   19  C   UNL     1     -13.223   0.927 -34.840  1.00  0.00     0.002 A 
HETATM   20  C   UNL     1     -12.879   0.129 -33.753  1.00  0.00     0.001 A 
HETATM   21  H   UNL     1     -10.119   3.662 -35.607  1.00  0.00     0.165 HD
HETATM   22  C   UNL     1      -9.088   2.757 -33.994  1.00  0.00     0.100 A 
ENDBRANCH   9  13
BRANCH   9  23
HETATM   23  O   UNL     1      -9.314   0.377 -31.078  1.00  0.00    -0.371 OA
HETATM   24  H   UNL     1     -10.198   0.236 -31.454  1.00  0.00     0.212 HD
ENDBRANCH   9  23
TORSDOF 2
ENDMDL
MODEL 2
REMARK VINA RESULT:      -7.9      3.407      5.939
REMARK  2 active torsions:
REMARK  status: ('A' for Active; 'I' for Inactive)
REMARK    1  A    between atoms: C_9  and  C_11 
REMARK    2  A    between atoms: C_9  and  O_10 
ROOT
HETATM    1  C   UNL     1      -2.220   4.665 -33.534  1.00  0.00     0.048 C 
HETATM    2  C   UNL     1      -3.593   4.087 -33.337  1.00  0.00    -0.061 A 
HETATM    3  C   UNL     1      -3.800   3.041 -32.425  1.00  0.00     0.020 A 
HETATM    4  C   UNL     1      -5.079   2.516 -32.294  1.00  0.00     0.018 A 
HETATM    5  C   UNL     1      -6.133   3.038 -33.044  1.00  0.00     0.045 A 
HETATM    6  N   UNL     1      -7.317   2.385 -32.740  1.00  0.00    -0.323 N 
HETATM    7  C   UNL     1      -7.121   1.390 -31.780  1.00  0.00     0.266 A 
HETATM    8  O   UNL     1      -8.015   0.694 -31.324  1.00  0.00    -0.269 OA
HETATM    9  C   UNL     1      -5.590   1.403 -31.400  1.00  0.00     0.198 A 
HETATM   10  C   UNL     1      -5.965   4.067 -33.944  1.00  0.00     0.031 A 
HETATM   11  C   UNL     1      -4.677   4.590 -34.090  1.00  0.00     0.009 A 
HETATM   12  H   UNL     1      -8.222   2.578 -33.143  1.00  0.00     0.169 HD
ENDROOT
BRANCH   9  13
HETATM   13  C   UNL     1      -4.869   0.154 -31.844  1.00  0.00     0.018 A 
HETATM   14  C   UNL     1      -5.215  -0.710 -32.947  1.00  0.00     0.002 A 
HETATM   15  C   UNL     1      -4.305  -1.769 -32.961  1.00  0.00     0.043 A 
HETATM   16  C   UNL     1      -6.228  -0.698 -33.930  1.00  0.00     0.014 A 
HETATM   17  C   UNL     1      -4.360  -2.810 -33.895  1.00  0.00     0.030 A 
HETATM   18  N   UNL     1      -3.423  -1.557 -31.931  1.00  0.00    -0.365 N 
HETATM   19  C   UNL     1      -5.376  -2.771 -34.854  1.00  0.00     0.002 A 
HETATM   20  C   UNL     1      -6.298  -1.729 -34.875  1.00  0.00     0.001 A 
HETATM   21  H   UNL     1      -2.647  -2.167 -31.708  1.00  0.00     0.165 HD
HETATM   22  C   UNL     1      -3.750  -0.418 -31.252  1.00  0.00     0.100 A 
ENDBRANCH   9  13
BRANCH   9  23
HETATM   23  O   UNL     1      -5.386   1.744 -30.037  1.00  0.00    -0.371 OA
HETATM   24  H   UNL     1      -4.550   1.327 -29.772  1.00  0.00     0.212 HD
ENDBRANCH   9  23
TORSDOF 2
ENDMDL
MODEL 3
REMARK VINA RESULT:      -7.7      4.048      6.165
REMARK  2 active torsions:
REMARK  status: ('A' for Active; 'I' for Inactive)
REMARK    1  A    between atoms: C_9  and  C_11 
REMARK    2  A    between atoms: C_9  and  O_10 
ROOT
HETATM    1  C   UNL     1      -2.265   4.486 -33.761  1.00  0.00     0.048 C 
HETATM    2  C   UNL     1      -3.151   3.930 -32.683  1.00  0.00    -0.061 A 
HETATM    3  C   UNL     1      -3.265   2.544 -32.499  1.00  0.00     0.020 A 
HETATM    4  C   UNL     1      -4.116   2.072 -31.510  1.00  0.00     0.018 A 
HETATM    5  C   UNL     1      -4.825   2.965 -30.707  1.00  0.00     0.045 A 
HETATM    6  N   UNL     1      -5.592   2.281 -29.776  1.00  0.00    -0.323 N 
HETATM    7  C   UNL     1      -5.444   0.899 -29.909  1.00  0.00     0.266 A 
HETATM    8  O   UNL     1      -5.993   0.080 -29.187  1.00  0.00    -0.269 OA
HETATM    9  C   UNL     1      -4.431   0.648 -31.091  1.00  0.00     0.198 A 
HETATM   10  C   UNL     1      -4.733   4.331 -30.857  1.00  0.00     0.031 A 
HETATM   11  C   UNL     1      -3.887   4.812 -31.861  1.00  0.00     0.009 A 
HETATM   12  H   UNL     1      -6.190   2.698 -29.079  1.00  0.00     0.169 HD
ENDROOT
BRANCH   9  13
HETATM   13  C   UNL     1      -5.082   0.001 -32.289  1.00  0.00     0.018 A 
HETATM   14  C   UNL     1      -4.757  -1.278 -32.876  1.00  0.00     0.002 A 
HETATM   15  C   UNL     1      -5.577  -1.454 -33.992  1.00  0.00     0.043 A 
HETATM   16  C   UNL     1      -3.833  -2.299 -32.568  1.00  0.00     0.014 A 
HETATM   17  C   UNL     1      -5.513  -2.586 -34.814  1.00  0.00     0.030 A 
HETATM   18  N   UNL     1      -6.387  -0.349 -34.079  1.00  0.00    -0.365 N 
HETATM   19  C   UNL     1      -4.585  -3.578 -34.486  1.00  0.00     0.002 A 
HETATM   20  C   UNL     1      -3.756  -3.439 -33.376  1.00  0.00     0.001 A 
HETATM   21  H   UNL     1      -7.089  -0.210 -34.792  1.00  0.00     0.165 HD
HETATM   22  C   UNL     1      -6.099   0.530 -33.073  1.00  0.00     0.100 A 
ENDBRANCH   9  13
BRANCH   9  23
HETATM   23  O   UNL     1      -3.248   0.001 -30.647  1.00  0.00    -0.371 OA
HETATM   24  H   UNL     1      -2.516   0.612 -30.831  1.00  0.00     0.212 HD
ENDBRANCH   9  23
TORSDOF 2
ENDMDL
MODEL 4
REMARK VINA RESULT:      -7.6      3.306      6.087
REMARK  2 active torsions:
REMARK  status: ('A' for Active; 'I' for Inactive)
REMARK    1  A    between atoms: C_9  and  C_11 
REMARK    2  A    between atoms: C_9  and  O_10 
ROOT
HETATM    1  C   UNL     1      -7.151   0.077 -35.435  1.00  0.00     0.048 C 
HETATM    2  C   UNL     1      -7.388   0.674 -34.077  1.00  0.00    -0.061 A 
HETATM    3  C   UNL     1      -6.938   1.970 -33.781  1.00  0.00     0.020 A 
HETATM    4  C   UNL     1      -7.153   2.473 -32.505  1.00  0.00     0.018 A 
HETATM    5  C   UNL     1      -7.820   1.706 -31.550  1.00  0.00     0.045 A 
HETATM    6  N   UNL     1      -7.943   2.408 -30.361  1.00  0.00    -0.323 N 
HETATM    7  C   UNL     1      -7.362   3.675 -30.452  1.00  0.00     0.266 A 
HETATM    8  O   UNL     1      -7.366   4.496 -29.547  1.00  0.00    -0.269 OA
HETATM    9  C   UNL     1      -6.784   3.820 -31.912  1.00  0.00     0.198 A 
HETATM   10  C   UNL     1      -8.279   0.433 -31.809  1.00  0.00     0.031 A 
HETATM   11  C   UNL     1      -8.054  -0.084 -33.088  1.00  0.00     0.009 A 
HETATM   12  H   UNL     1      -8.390   2.076 -29.520  1.00  0.00     0.169 HD
ENDROOT
BRANCH   9  13
HETATM   13  C   UNL     1      -5.276   3.882 -31.938  1.00  0.00     0.018 A 
HETATM   14  C   UNL     1      -4.440   4.368 -33.009  1.00  0.00     0.002 A 
HETATM   15  C   UNL     1      -3.109   4.195 -32.622  1.00  0.00     0.043 A 
HETATM   16  C   UNL     1      -4.689   4.930 -34.279  1.00  0.00     0.014 A 
HETATM   17  C   UNL     1      -2.026   4.545 -33.438  1.00  0.00     0.030 A 
HETATM   18  N   UNL     1      -3.121   3.651 -31.363  1.00  0.00    -0.365 N 
HETATM   19  C   UNL     1      -2.306   5.096 -34.691  1.00  0.00     0.002 A 
HETATM   20  C   UNL     1      -3.620   5.289 -35.108  1.00  0.00     0.001 A 
HETATM   21  H   UNL     1      -2.292   3.425 -30.830  1.00  0.00     0.165 HD
HETATM   22  C   UNL     1      -4.407   3.453 -30.944  1.00  0.00     0.100 A 
ENDBRANCH   9  13
BRANCH   9  23
HETATM   23  O   UNL     1      -7.425   4.859 -32.636  1.00  0.00    -0.371 OA
HETATM   24  H   UNL     1      -7.632   4.497 -33.512  1.00  0.00     0.212 HD
ENDBRANCH   9  23
TORSDOF 2
ENDMDL
MODEL 5
REMARK VINA RESULT:      -7.4      2.015      5.816
REMARK  2 active torsions:
REMARK  status: ('A' for Active; 'I' for Inactive)
REMARK    1  A    between atoms: C_9  and  C_11 
REMARK    2  A    between atoms: C_9  and  O_10 
ROOT
HETATM    1  C   UNL     1      -6.798   5.231 -33.468  1.00  0.00     0.048 C 
HETATM    2  C   UNL     1      -7.863   4.173 -33.507  1.00  0.00    -0.061 A 
HETATM    3  C   UNL     1      -7.653   2.929 -32.893  1.00  0.00     0.020 A 
HETATM    4  C   UNL     1      -8.652   1.968 -32.977  1.00  0.00     0.018 A 
HETATM    5  C   UNL     1      -9.845   2.251 -33.643  1.00  0.00     0.045 A 
HETATM    6  N   UNL     1     -10.704   1.165 -33.584  1.00  0.00    -0.323 N 
HETATM    7  C   UNL     1     -10.135   0.099 -32.885  1.00  0.00     0.266 A 
HETATM    8  O   UNL     1     -10.704  -0.961 -32.671  1.00  0.00    -0.269 OA
HETATM    9  C   UNL     1      -8.701   0.560 -32.416  1.00  0.00     0.198 A 
HETATM   10  C   UNL     1     -10.085   3.463 -34.252  1.00  0.00     0.031 A 
HETATM   11  C   UNL     1      -9.077   4.429 -34.183  1.00  0.00     0.009 A 
HETATM   12  H   UNL     1     -11.629   1.118 -33.985  1.00  0.00     0.169 HD
ENDROOT
BRANCH   9  13
HETATM   13  C   UNL     1      -7.591  -0.196 -33.104  1.00  0.00     0.018 A 
HETATM   14  C   UNL     1      -6.249  -0.412 -32.619  1.00  0.00     0.002 A 
HETATM   15  C   UNL     1      -5.551  -1.121 -33.599  1.00  0.00     0.043 A 
HETATM   16  C   UNL     1      -5.557  -0.061 -31.440  1.00  0.00     0.014 A 
HETATM   17  C   UNL     1      -4.206  -1.484 -33.464  1.00  0.00     0.030 A 
HETATM   18  N   UNL     1      -6.426  -1.353 -34.631  1.00  0.00    -0.365 N 
HETATM   19  C   UNL     1      -3.547  -1.119 -32.287  1.00  0.00     0.002 A 
HETATM   20  C   UNL     1      -4.212  -0.418 -31.286  1.00  0.00     0.001 A 
HETATM   21  H   UNL     1      -6.191  -1.856 -35.476  1.00  0.00     0.165 HD
HETATM   22  C   UNL     1      -7.645  -0.803 -34.352  1.00  0.00     0.100 A 
ENDBRANCH   9  13
BRANCH   9  23
HETATM   23  O   UNL     1      -8.594   0.599 -31.001  1.00  0.00    -0.371 OA
HETATM   24  H   UNL     1      -8.818  -0.291 -30.684  1.00  0.00     0.212 HD
ENDBRANCH   9  23
TORSDOF 2
ENDMDL
MODEL 6
REMARK VINA RESULT:      -7.4     14.438     16.862
REMARK  2 active torsions:
REMARK  status: ('A' for Active; 'I' for Inactive)
REMARK    1  A    between atoms: C_9  and  C_11 
REMARK    2  A    between atoms: C_9  and  O_10 
ROOT
HETATM    1  C   UNL     1     -10.806 -10.935 -40.793  1.00  0.00     0.048 C 
HETATM    2  C   UNL     1     -10.269 -12.208 -40.203  1.00  0.00    -0.061 A 
HETATM    3  C   UNL     1      -9.065 -12.206 -39.482  1.00  0.00     0.020 A 
HETATM    4  C   UNL     1      -8.590 -13.409 -38.978  1.00  0.00     0.018 A 
HETATM    5  C   UNL     1      -9.312 -14.587 -39.171  1.00  0.00     0.045 A 
HETATM    6  N   UNL     1      -8.669 -15.657 -38.568  1.00  0.00    -0.323 N 
HETATM    7  C   UNL     1      -7.484 -15.258 -37.946  1.00  0.00     0.266 A 
HETATM    8  O   UNL     1      -6.753 -16.010 -37.321  1.00  0.00    -0.269 OA
HETATM    9  C   UNL     1      -7.339 -13.703 -38.172  1.00  0.00     0.198 A 
HETATM   10  C   UNL     1     -10.499 -14.623 -39.869  1.00  0.00     0.031 A 
HETATM   11  C   UNL     1     -10.976 -13.417 -40.390  1.00  0.00     0.009 A 
HETATM   12  H   UNL     1      -8.989 -16.613 -38.560  1.00  0.00     0.169 HD
ENDROOT
BRANCH   9  13
HETATM   13  C   UNL     1      -6.178 -13.351 -39.070  1.00  0.00     0.018 A 
HETATM   14  C   UNL     1      -5.848 -13.943 -40.345  1.00  0.00     0.002 A 
HETATM   15  C   UNL     1      -4.670 -13.347 -40.799  1.00  0.00     0.043 A 
HETATM   16  C   UNL     1      -6.435 -14.941 -41.151  1.00  0.00     0.014 A 
HETATM   17  C   UNL     1      -4.052 -13.701 -42.004  1.00  0.00     0.030 A 
HETATM   18  N   UNL     1      -4.302 -12.413 -39.862  1.00  0.00    -0.365 N 
HETATM   19  C   UNL     1      -4.655 -14.695 -42.779  1.00  0.00     0.002 A 
HETATM   20  C   UNL     1      -5.833 -15.307 -42.361  1.00  0.00     0.001 A 
HETATM   21  H   UNL     1      -3.485 -11.822 -39.936  1.00  0.00     0.165 HD
HETATM   22  C   UNL     1      -5.188 -12.408 -38.823  1.00  0.00     0.100 A 
ENDBRANCH   9  13
BRANCH   9  23
HETATM   23  O   UNL     1      -7.371 -12.984 -36.948  1.00  0.00    -0.371 OA
HETATM   24  H   UNL     1      -7.901 -12.188 -37.112  1.00  0.00     0.212 HD
ENDBRANCH   9  23
TORSDOF 2
ENDMDL
MODEL 7
REMARK VINA RESULT:      -7.3      4.379      6.377
REMARK  2 active torsions:
REMARK  status: ('A' for Active; 'I' for Inactive)
REMARK    1  A    between atoms: C_9  and  C_11 
REMARK    2  A    between atoms: C_9  and  O_10 
ROOT
HETATM    1  C   UNL     1      -0.806   5.099 -30.804  1.00  0.00     0.048 C 
HETATM    2  C   UNL     1      -1.925   5.023 -31.804  1.00  0.00    -0.061 A 
HETATM    3  C   UNL     1      -3.262   5.033 -31.378  1.00  0.00     0.020 A 
HETATM    4  C   UNL     1      -4.265   4.933 -32.333  1.00  0.00     0.018 A 
HETATM    5  C   UNL     1      -3.941   4.844 -33.687  1.00  0.00     0.045 A 
HETATM    6  N   UNL     1      -5.090   4.776 -34.459  1.00  0.00    -0.323 N 
HETATM    7  C   UNL     1      -6.241   4.809 -33.668  1.00  0.00     0.266 A 
HETATM    8  O   UNL     1      -7.378   4.792 -34.115  1.00  0.00    -0.269 OA
HETATM    9  C   UNL     1      -5.773   4.921 -32.166  1.00  0.00     0.198 A 
HETATM   10  C   UNL     1      -2.640   4.836 -34.138  1.00  0.00     0.031 A 
HETATM   11  C   UNL     1      -1.625   4.923 -33.181  1.00  0.00     0.009 A 
HETATM   12  H   UNL     1      -5.126   4.710 -35.465  1.00  0.00     0.169 HD
ENDROOT
BRANCH   9  13
HETATM   13  C   UNL     1      -6.089   3.683 -31.363  1.00  0.00     0.018 A 
HETATM   14  C   UNL     1      -5.921   2.309 -31.773  1.00  0.00     0.002 A 
HETATM   15  C   UNL     1      -6.384   1.496 -30.736  1.00  0.00     0.043 A 
HETATM   16  C   UNL     1      -5.428   1.679 -32.935  1.00  0.00     0.014 A 
HETATM   17  C   UNL     1      -6.387   0.098 -30.807  1.00  0.00     0.030 A 
HETATM   18  N   UNL     1      -6.797   2.326 -29.724  1.00  0.00    -0.365 N 
HETATM   19  C   UNL     1      -5.896  -0.497 -31.973  1.00  0.00     0.002 A 
HETATM   20  C   UNL     1      -5.420   0.282 -33.024  1.00  0.00     0.001 A 
HETATM   21  H   UNL     1      -7.174   2.008 -28.842  1.00  0.00     0.165 HD
HETATM   22  C   UNL     1      -6.632   3.633 -30.086  1.00  0.00     0.100 A 
ENDBRANCH   9  13
BRANCH   9  23
HETATM   23  O   UNL     1      -6.203   6.133 -31.566  1.00  0.00    -0.371 OA
HETATM   24  H   UNL     1      -5.648   6.837 -31.939  1.00  0.00     0.212 HD
ENDBRANCH   9  23
TORSDOF 2
ENDMDL
MODEL 8
REMARK VINA RESULT:      -7.3     14.856     16.150
REMARK  2 active torsions:
REMARK  status: ('A' for Active; 'I' for Inactive)
REMARK    1  A    between atoms: C_9  and  C_11 
REMARK    2  A    between atoms: C_9  and  O_10 
ROOT
HETATM    1  C   UNL     1      -2.300 -16.074 -42.531  1.00  0.00     0.048 C 
HETATM    2  C   UNL     1      -2.307 -15.179 -41.325  1.00  0.00    -0.061 A 
HETATM    3  C   UNL     1      -3.482 -15.000 -40.579  1.00  0.00     0.020 A 
HETATM    4  C   UNL     1      -3.453 -14.142 -39.487  1.00  0.00     0.018 A 
HETATM    5  C   UNL     1      -2.269 -13.492 -39.135  1.00  0.00     0.045 A 
HETATM    6  N   UNL     1      -2.461 -12.708 -38.008  1.00  0.00    -0.323 N 
HETATM    7  C   UNL     1      -3.778 -12.784 -37.550  1.00  0.00     0.266 A 
HETATM    8  O   UNL     1      -4.190 -12.208 -36.555  1.00  0.00    -0.269 OA
HETATM    9  C   UNL     1      -4.552 -13.765 -38.513  1.00  0.00     0.198 A 
HETATM   10  C   UNL     1      -1.098 -13.650 -39.843  1.00  0.00     0.031 A 
HETATM   11  C   UNL     1      -1.125 -14.502 -40.951  1.00  0.00     0.009 A 
HETATM   12  H   UNL     1      -1.761 -12.143 -37.553  1.00  0.00     0.169 HD
ENDROOT
BRANCH   9  13
HETATM   13  C   UNL     1      -5.606 -13.062 -39.334  1.00  0.00     0.018 A 
HETATM   14  C   UNL     1      -7.038 -13.133 -39.165  1.00  0.00     0.002 A 
HETATM   15  C   UNL     1      -7.625 -12.365 -40.173  1.00  0.00     0.043 A 
HETATM   16  C   UNL     1      -7.892 -13.790 -38.254  1.00  0.00     0.014 A 
HETATM   17  C   UNL     1      -9.010 -12.229 -40.318  1.00  0.00     0.030 A 
HETATM   18  N   UNL     1      -6.605 -11.825 -40.916  1.00  0.00    -0.365 N 
HETATM   19  C   UNL     1      -9.830 -12.895 -39.403  1.00  0.00     0.002 A 
HETATM   20  C   UNL     1      -9.281 -13.664 -38.381  1.00  0.00     0.001 A 
HETATM   21  H   UNL     1      -6.739 -11.216 -41.711  1.00  0.00     0.165 HD
HETATM   22  C   UNL     1      -5.395 -12.236 -40.431  1.00  0.00     0.100 A 
ENDBRANCH   9  13
BRANCH   9  23
HETATM   23  O   UNL     1      -5.015 -14.921 -37.833  1.00  0.00    -0.371 OA
HETATM   24  H   UNL     1      -4.539 -15.675 -38.216  1.00  0.00     0.212 HD
ENDBRANCH   9  23
TORSDOF 2
ENDMDL
MODEL 9
REMARK VINA RESULT:      -7.3     14.936     16.325
REMARK  2 active torsions:
REMARK  status: ('A' for Active; 'I' for Inactive)
REMARK    1  A    between atoms: C_9  and  C_11 
REMARK    2  A    between atoms: C_9  and  O_10 
ROOT
HETATM    1  C   UNL     1      -4.846 -13.076 -35.162  1.00  0.00     0.048 C 
HETATM    2  C   UNL     1      -4.363 -13.314 -36.565  1.00  0.00    -0.061 A 
HETATM    3  C   UNL     1      -5.181 -13.002 -37.661  1.00  0.00     0.020 A 
HETATM    4  C   UNL     1      -4.707 -13.264 -38.940  1.00  0.00     0.018 A 
HETATM    5  C   UNL     1      -3.436 -13.809 -39.121  1.00  0.00     0.045 A 
HETATM    6  N   UNL     1      -3.161 -13.965 -40.470  1.00  0.00    -0.323 N 
HETATM    7  C   UNL     1      -4.230 -13.542 -41.263  1.00  0.00     0.266 A 
HETATM    8  O   UNL     1      -4.221 -13.551 -42.485  1.00  0.00    -0.269 OA
HETATM    9  C   UNL     1      -5.360 -13.031 -40.289  1.00  0.00     0.198 A 
HETATM   10  C   UNL     1      -2.607 -14.122 -38.067  1.00  0.00     0.031 A 
HETATM   11  C   UNL     1      -3.083 -13.873 -36.777  1.00  0.00     0.009 A 
HETATM   12  H   UNL     1      -2.308 -14.334 -40.863  1.00  0.00     0.169 HD
ENDROOT
BRANCH   9  13
HETATM   13  C   UNL     1      -6.588 -13.908 -40.310  1.00  0.00     0.018 A 
HETATM   14  C   UNL     1      -7.966 -13.485 -40.245  1.00  0.00     0.002 A 
HETATM   15  C   UNL     1      -8.764 -14.631 -40.245  1.00  0.00     0.043 A 
HETATM   16  C   UNL     1      -8.612 -12.232 -40.173  1.00  0.00     0.014 A 
HETATM   17  C   UNL     1     -10.161 -14.587 -40.170  1.00  0.00     0.030 A 
HETATM   18  N   UNL     1      -7.922 -15.711 -40.331  1.00  0.00    -0.365 N 
HETATM   19  C   UNL     1     -10.771 -13.332 -40.097  1.00  0.00     0.002 A 
HETATM   20  C   UNL     1     -10.008 -12.167 -40.101  1.00  0.00     0.001 A 
HETATM   21  H   UNL     1      -8.228 -16.674 -40.358  1.00  0.00     0.165 HD
HETATM   22  C   UNL     1      -6.620 -15.296 -40.364  1.00  0.00     0.100 A 
ENDBRANCH   9  13
BRANCH   9  23
HETATM   23  O   UNL     1      -5.626 -11.647 -40.466  1.00  0.00    -0.371 OA
HETATM   24  H   UNL     1      -6.519 -11.493 -40.117  1.00  0.00     0.212 HD
ENDBRANCH   9  23
TORSDOF 2
ENDMDL
MODEL 10
REMARK VINA RESULT:      -7.3     14.471     16.369
REMARK  2 active torsions:
REMARK  status: ('A' for Active; 'I' for Inactive)
REMARK    1  A    between atoms: C_9  and  C_11 
REMARK    2  A    between atoms: C_9  and  O_10 
ROOT
HETATM    1  C   UNL     1     -10.781 -11.180 -40.596  1.00  0.00     0.048 C 
HETATM    2  C   UNL     1     -10.157 -12.420 -40.022  1.00  0.00    -0.061 A 
HETATM    3  C   UNL     1      -9.072 -12.326 -39.137  1.00  0.00     0.020 A 
HETATM    4  C   UNL     1      -8.507 -13.498 -38.651  1.00  0.00     0.018 A 
HETATM    5  C   UNL     1      -9.026 -14.737 -39.026  1.00  0.00     0.045 A 
HETATM    6  N   UNL     1      -8.328 -15.764 -38.410  1.00  0.00    -0.323 N 
HETATM    7  C   UNL     1      -7.304 -15.272 -37.598  1.00  0.00     0.266 A 
HETATM    8  O   UNL     1      -6.566 -15.976 -36.926  1.00  0.00    -0.269 OA
HETATM    9  C   UNL     1      -7.347 -13.698 -37.695  1.00  0.00     0.198 A 
HETATM   10  C   UNL     1     -10.093 -14.864 -39.889  1.00  0.00     0.031 A 
HETATM   11  C   UNL     1     -10.658 -13.688 -40.391  1.00  0.00     0.009 A 
HETATM   12  H   UNL     1      -8.511 -16.751 -38.514  1.00  0.00     0.169 HD
ENDROOT
BRANCH   9  13
HETATM   13  C   UNL     1      -6.136 -13.124 -38.390  1.00  0.00     0.018 A 
HETATM   14  C   UNL     1      -4.767 -13.161 -37.934  1.00  0.00     0.002 A 
HETATM   15  C   UNL     1      -3.990 -12.469 -38.865  1.00  0.00     0.043 A 
HETATM   16  C   UNL     1      -4.116 -13.709 -36.808  1.00  0.00     0.014 A 
HETATM   17  C   UNL     1      -2.608 -12.292 -38.723  1.00  0.00     0.030 A 
HETATM   18  N   UNL     1      -4.833 -12.045 -39.861  1.00  0.00    -0.365 N 
HETATM   19  C   UNL     1      -1.993 -12.843 -37.596  1.00  0.00     0.002 A 
HETATM   20  C   UNL     1      -2.735 -13.545 -36.650  1.00  0.00     0.001 A 
HETATM   21  H   UNL     1      -4.539 -11.522 -40.675  1.00  0.00     0.165 HD
HETATM   22  C   UNL     1      -6.118 -12.423 -39.589  1.00  0.00     0.100 A 
ENDBRANCH   9  13
BRANCH   9  23
HETATM   23  O   UNL     1      -7.642 -13.098 -36.443  1.00  0.00    -0.371 OA
HETATM   24  H   UNL     1      -6.951 -12.434 -36.287  1.00  0.00     0.212 HD
ENDBRANCH   9  23
TORSDOF 2
ENDMDL
