MODEL 1
REMARK VINA RESULT:      -9.7      0.000      0.000
REMARK  8 active torsions:
REMARK  status: ('A' for Active; 'I' for Inactive)
REMARK    1  A    between atoms: C_3  and  N_4 
REMARK       I    between atoms: N_4  and  C_5 
REMARK    2  A    between atoms: C_5  and  C_6 
REMARK    3  A    between atoms: C_7  and  C_8 
REMARK    4  A    between atoms: C_11  and  C_12 
REMARK    5  A    between atoms: C_21  and  C_22 
REMARK    6  A    between atoms: C_22  and  C_23 
REMARK    7  A    between atoms: C_23  and  C_24 
REMARK    8  A    between atoms: C_24  and  O_25 
ROOT
HETATM    1  C   UNL     1      -8.301   3.503 -32.587  1.00  0.00     0.062 A 
HETATM    2  C   UNL     1      -7.422   3.279 -33.812  1.00  0.00     0.202 A 
HETATM    3  N   UNL     1      -6.227   4.134 -33.776  1.00  0.00    -0.083 N 
HETATM    4  C   UNL     1      -5.984   5.067 -32.804  1.00  0.00     0.726 A 
HETATM    5  N   UNL     1      -6.856   5.208 -31.788  1.00  0.00    -0.192 N 
HETATM    6  N   UNL     1      -5.308   4.210 -34.764  1.00  0.00    -0.140 NA
HETATM    7  C   UNL     1      -4.479   5.139 -34.264  1.00  0.00     0.166 A 
HETATM    8  N   UNL     1      -4.873   5.701 -33.073  1.00  0.00    -0.046 NA
HETATM    9  C   UNL     1      -7.995   4.426 -31.643  1.00  0.00     0.037 A 
HETATM   10  C   UNL     1      -8.821   4.691 -30.409  1.00  0.00     0.070 C 
HETATM   11  H   UNL     1      -6.638   5.868 -31.047  1.00  0.00     0.184 HD
ENDROOT
BRANCH   1  12
HETATM   12  C   UNL     1      -9.445   2.579 -32.388  1.00  0.00     0.256 C 
HETATM   13  N   UNL     1     -10.546   2.912 -33.148  1.00  0.00    -0.323 N 
HETATM   14  H   UNL     1     -10.498   3.773 -33.672  1.00  0.00     0.169 HD
HETATM   15  O   UNL     1      -9.338   1.663 -31.582  1.00  0.00    -0.267 OA
BRANCH  13  16
HETATM   16  C   UNL     1     -11.771   2.203 -33.235  1.00  0.00     0.041 A 
HETATM   17  C   UNL     1     -12.965   2.847 -32.838  1.00  0.00    -0.035 A 
HETATM   18  C   UNL     1     -12.990   4.262 -32.326  1.00  0.00     0.050 C 
HETATM   19  C   UNL     1     -14.187   2.156 -32.933  1.00  0.00     0.009 A 
HETATM   20  C   UNL     1     -14.236   0.847 -33.407  1.00  0.00     0.001 A 
HETATM   21  C   UNL     1     -13.064   0.215 -33.800  1.00  0.00     0.002 A 
HETATM   22  C   UNL     1     -11.844   0.890 -33.716  1.00  0.00     0.030 A 
ENDBRANCH  13  16
ENDBRANCH   1  12
BRANCH   2  23
HETATM   23  C   UNL     1      -7.045   1.822 -34.036  1.00  0.00    -0.028 A 
HETATM   24  C   UNL     1      -5.970   1.263 -33.328  1.00  0.00     0.010 A 
HETATM   25  C   UNL     1      -5.569  -0.055 -33.559  1.00  0.00     0.008 A 
HETATM   26  C   UNL     1      -6.233  -0.850 -34.503  1.00  0.00    -0.055 A 
HETATM   27  C   UNL     1      -7.318  -0.298 -35.198  1.00  0.00     0.008 A 
HETATM   28  C   UNL     1      -7.723   1.020 -34.966  1.00  0.00     0.010 A 
BRANCH  26  29
HETATM   29  C   UNL     1      -5.753  -2.267 -34.763  1.00  0.00     0.010 C 
HETATM   30  C   UNL     1      -4.540  -2.627 -33.904  1.00  0.00     0.015 C 
HETATM   31  C   UNL     1      -6.884  -3.279 -34.565  1.00  0.00     0.015 C 
ENDBRANCH  26  29
ENDBRANCH   2  23
BRANCH   7  32
HETATM   32  C   UNL     1      -3.219   5.537 -34.942  1.00  0.00     0.085 C 
BRANCH  32  33
HETATM   33  C   UNL     1      -1.972   5.231 -34.115  1.00  0.00     0.034 C 
BRANCH  33  34
HETATM   34  C   UNL     1      -1.140   6.471 -33.809  1.00  0.00     0.164 C 
BRANCH  34  35
HETATM   35  O   UNL     1      -1.784   7.622 -34.350  1.00  0.00    -0.401 OA
HETATM   36  H   UNL     1      -2.618   7.329 -34.752  1.00  0.00     0.209 HD
ENDBRANCH  34  35
ENDBRANCH  33  34
ENDBRANCH  32  33
ENDBRANCH   7  32
TORSDOF 8
ENDMDL
MODEL 2
REMARK VINA RESULT:      -9.3      1.982      7.509
REMARK  8 active torsions:
REMARK  status: ('A' for Active; 'I' for Inactive)
REMARK    1  A    between atoms: C_3  and  N_4 
REMARK       I    between atoms: N_4  and  C_5 
REMARK    2  A    between atoms: C_5  and  C_6 
REMARK    3  A    between atoms: C_7  and  C_8 
REMARK    4  A    between atoms: C_11  and  C_12 
REMARK    5  A    between atoms: C_21  and  C_22 
REMARK    6  A    between atoms: C_22  and  C_23 
REMARK    7  A    between atoms: C_23  and  C_24 
REMARK    8  A    between atoms: C_24  and  O_25 
ROOT
HETATM    1  C   UNL     1      -8.691   3.543 -32.987  1.00  0.00     0.062 A 
HETATM    2  C   UNL     1      -9.184   2.120 -32.748  1.00  0.00     0.202 A 
HETATM    3  N   UNL     1     -10.516   1.910 -33.331  1.00  0.00    -0.083 N 
HETATM    4  C   UNL     1     -11.247   2.896 -33.939  1.00  0.00     0.726 A 
HETATM    5  N   UNL     1     -10.727   4.131 -34.056  1.00  0.00    -0.192 N 
HETATM    6  N   UNL     1     -11.237   0.774 -33.208  1.00  0.00    -0.140 NA
HETATM    7  C   UNL     1     -12.357   1.116 -33.863  1.00  0.00     0.166 A 
HETATM    8  N   UNL     1     -12.406   2.416 -34.308  1.00  0.00    -0.046 NA
HETATM    9  C   UNL     1      -9.453   4.469 -33.619  1.00  0.00     0.037 A 
HETATM   10  C   UNL     1      -9.020   5.889 -33.889  1.00  0.00     0.070 C 
HETATM   11  H   UNL     1     -11.259   4.839 -34.554  1.00  0.00     0.184 HD
ENDROOT
BRANCH   1  12
HETATM   12  C   UNL     1      -7.285   3.851 -32.622  1.00  0.00     0.256 C 
HETATM   13  N   UNL     1      -6.418   3.761 -33.691  1.00  0.00    -0.323 N 
HETATM   14  H   UNL     1      -6.796   3.416 -34.560  1.00  0.00     0.169 HD
HETATM   15  O   UNL     1      -7.017   4.112 -31.457  1.00  0.00    -0.267 OA
BRANCH  13  16
HETATM   16  C   UNL     1      -5.030   4.051 -33.692  1.00  0.00     0.041 A 
HETATM   17  C   UNL     1      -4.157   3.217 -32.958  1.00  0.00    -0.035 A 
HETATM   18  C   UNL     1      -4.641   2.027 -32.174  1.00  0.00     0.050 C 
HETATM   19  C   UNL     1      -2.776   3.489 -32.963  1.00  0.00     0.009 A 
HETATM   20  C   UNL     1      -2.260   4.568 -33.675  1.00  0.00     0.001 A 
HETATM   21  C   UNL     1      -3.118   5.386 -34.399  1.00  0.00     0.002 A 
HETATM   22  C   UNL     1      -4.490   5.126 -34.408  1.00  0.00     0.030 A 
ENDBRANCH  13  16
ENDBRANCH   1  12
BRANCH   2  23
HETATM   23  C   UNL     1      -8.208   1.049 -33.213  1.00  0.00    -0.028 A 
HETATM   24  C   UNL     1      -8.002   0.843 -34.586  1.00  0.00     0.010 A 
HETATM   25  C   UNL     1      -7.156  -0.173 -35.037  1.00  0.00     0.008 A 
HETATM   26  C   UNL     1      -6.492  -1.008 -34.129  1.00  0.00    -0.055 A 
HETATM   27  C   UNL     1      -6.684  -0.792 -32.758  1.00  0.00     0.008 A 
HETATM   28  C   UNL     1      -7.528   0.226 -32.303  1.00  0.00     0.010 A 
BRANCH  26  29
HETATM   29  C   UNL     1      -5.609  -2.129 -34.646  1.00  0.00     0.010 C 
HETATM   30  C   UNL     1      -4.398  -2.368 -33.741  1.00  0.00     0.015 C 
HETATM   31  C   UNL     1      -6.408  -3.420 -34.842  1.00  0.00     0.015 C 
ENDBRANCH  26  29
ENDBRANCH   2  23
BRANCH   7  32
HETATM   32  C   UNL     1     -13.470   0.163 -34.100  1.00  0.00     0.085 C 
BRANCH  32  33
HETATM   33  C   UNL     1     -14.800   0.855 -34.388  1.00  0.00     0.034 C 
BRANCH  33  34
HETATM   34  C   UNL     1     -15.432   1.475 -33.148  1.00  0.00     0.164 C 
BRANCH  34  35
HETATM   35  O   UNL     1     -16.764   1.885 -33.446  1.00  0.00    -0.401 OA
HETATM   36  H   UNL     1     -17.112   2.343 -32.664  1.00  0.00     0.209 HD
ENDBRANCH  34  35
ENDBRANCH  33  34
ENDBRANCH  32  33
ENDBRANCH   7  32
TORSDOF 8
ENDMDL
MODEL 3
REMARK VINA RESULT:      -8.9     16.379     19.134
REMARK  8 active torsions:
REMARK  status: ('A' for Active; 'I' for Inactive)
REMARK    1  A    between atoms: C_3  and  N_4 
REMARK       I    between atoms: N_4  and  C_5 
REMARK    2  A    between atoms: C_5  and  C_6 
REMARK    3  A    between atoms: C_7  and  C_8 
REMARK    4  A    between atoms: C_11  and  C_12 
REMARK    5  A    between atoms: C_21  and  C_22 
REMARK    6  A    between atoms: C_22  and  C_23 
REMARK    7  A    between atoms: C_23  and  C_24 
REMARK    8  A    between atoms: C_24  and  O_25 
ROOT
HETATM    1  C   UNL     1      -3.762 -13.766 -39.593  1.00  0.00     0.062 A 
HETATM    2  C   UNL     1      -4.484 -13.404 -40.886  1.00  0.00     0.202 A 
HETATM    3  N   UNL     1      -4.067 -14.275 -41.994  1.00  0.00    -0.083 N 
HETATM    4  C   UNL     1      -3.093 -15.233 -41.887  1.00  0.00     0.726 A 
HETATM    5  N   UNL     1      -2.491 -15.437 -40.702  1.00  0.00    -0.192 N 
HETATM    6  N   UNL     1      -4.478 -14.139 -43.274  1.00  0.00    -0.140 NA
HETATM    7  C   UNL     1      -3.787 -15.125 -43.865  1.00  0.00     0.166 A 
HETATM    8  N   UNL     1      -2.913 -15.803 -43.049  1.00  0.00    -0.046 NA
HETATM    9  C   UNL     1      -2.824 -14.743 -39.545  1.00  0.00     0.037 A 
HETATM   10  C   UNL     1      -2.079 -15.150 -38.298  1.00  0.00     0.070 C 
HETATM   11  H   UNL     1      -1.807 -16.185 -40.625  1.00  0.00     0.184 HD
ENDROOT
BRANCH   1  12
HETATM   12  C   UNL     1      -4.215 -13.100 -38.346  1.00  0.00     0.256 C 
HETATM   13  N   UNL     1      -4.914 -13.943 -37.508  1.00  0.00    -0.323 N 
HETATM   14  H   UNL     1      -5.121 -14.867 -37.855  1.00  0.00     0.169 HD
HETATM   15  O   UNL     1      -3.974 -11.911 -38.186  1.00  0.00    -0.267 OA
BRANCH  13  16
HETATM   16  C   UNL     1      -5.426 -13.636 -36.222  1.00  0.00     0.041 A 
HETATM   17  C   UNL     1      -6.825 -13.655 -36.020  1.00  0.00    -0.035 A 
HETATM   18  C   UNL     1      -7.797 -13.991 -37.118  1.00  0.00     0.050 C 
HETATM   19  C   UNL     1      -7.342 -13.365 -34.743  1.00  0.00     0.009 A 
HETATM   20  C   UNL     1      -6.497 -13.056 -33.680  1.00  0.00     0.001 A 
HETATM   21  C   UNL     1      -5.122 -13.040 -33.878  1.00  0.00     0.002 A 
HETATM   22  C   UNL     1      -4.594 -13.331 -35.138  1.00  0.00     0.030 A 
ENDBRANCH  13  16
ENDBRANCH   1  12
BRANCH   2  23
HETATM   23  C   UNL     1      -5.999 -13.377 -40.753  1.00  0.00    -0.028 A 
HETATM   24  C   UNL     1      -6.663 -12.153 -40.577  1.00  0.00     0.010 A 
HETATM   25  C   UNL     1      -8.046 -12.110 -40.394  1.00  0.00     0.008 A 
HETATM   26  C   UNL     1      -8.805 -13.288 -40.385  1.00  0.00    -0.055 A 
HETATM   27  C   UNL     1      -8.146 -14.510 -40.578  1.00  0.00     0.008 A 
HETATM   28  C   UNL     1      -6.761 -14.556 -40.763  1.00  0.00     0.010 A 
BRANCH  26  29
HETATM   29  C   UNL     1     -10.302 -13.216 -40.146  1.00  0.00     0.010 C 
HETATM   30  C   UNL     1     -10.863 -11.823 -40.440  1.00  0.00     0.015 C 
HETATM   31  C   UNL     1     -11.044 -14.286 -40.952  1.00  0.00     0.015 C 
ENDBRANCH  26  29
ENDBRANCH   2  23
BRANCH   7  32
HETATM   32  C   UNL     1      -3.949 -15.468 -45.301  1.00  0.00     0.085 C 
BRANCH  32  33
HETATM   33  C   UNL     1      -3.464 -16.876 -45.638  1.00  0.00     0.034 C 
BRANCH  33  34
HETATM   34  C   UNL     1      -2.772 -16.960 -46.994  1.00  0.00     0.164 C 
BRANCH  34  35
HETATM   35  O   UNL     1      -1.517 -16.288 -46.930  1.00  0.00    -0.401 OA
HETATM   36  H   UNL     1      -1.553 -15.671 -46.181  1.00  0.00     0.209 HD
ENDBRANCH  34  35
ENDBRANCH  33  34
ENDBRANCH  32  33
ENDBRANCH   7  32
TORSDOF 8
ENDMDL
MODEL 4
REMARK VINA RESULT:      -8.6      2.862      6.593
REMARK  8 active torsions:
REMARK  status: ('A' for Active; 'I' for Inactive)
REMARK    1  A    between atoms: C_3  and  N_4 
REMARK       I    between atoms: N_4  and  C_5 
REMARK    2  A    between atoms: C_5  and  C_6 
REMARK    3  A    between atoms: C_7  and  C_8 
REMARK    4  A    between atoms: C_11  and  C_12 
REMARK    5  A    between atoms: C_21  and  C_22 
REMARK    6  A    between atoms: C_22  and  C_23 
REMARK    7  A    between atoms: C_23  and  C_24 
REMARK    8  A    between atoms: C_24  and  O_25 
ROOT
HETATM    1  C   UNL     1      -6.115   1.968 -32.789  1.00  0.00     0.062 A 
HETATM    2  C   UNL     1      -6.798   1.192 -33.909  1.00  0.00     0.202 A 
HETATM    3  N   UNL     1      -6.247  -0.165 -34.032  1.00  0.00    -0.083 N 
HETATM    4  C   UNL     1      -5.199  -0.634 -33.286  1.00  0.00     0.726 A 
HETATM    5  N   UNL     1      -4.644   0.158 -32.351  1.00  0.00    -0.192 N 
HETATM    6  N   UNL     1      -6.601  -1.053 -34.987  1.00  0.00    -0.140 NA
HETATM    7  C   UNL     1      -5.795  -2.081 -34.684  1.00  0.00     0.166 A 
HETATM    8  N   UNL     1      -4.908  -1.853 -33.659  1.00  0.00    -0.046 NA
HETATM    9  C   UNL     1      -5.097   1.440 -32.067  1.00  0.00     0.037 A 
HETATM   10  C   UNL     1      -4.385   2.155 -30.945  1.00  0.00     0.070 C 
HETATM   11  H   UNL     1      -3.901  -0.221 -31.769  1.00  0.00     0.184 HD
ENDROOT
BRANCH   1  12
HETATM   12  C   UNL     1      -6.690   3.286 -32.420  1.00  0.00     0.256 C 
HETATM   13  N   UNL     1      -7.238   3.300 -31.154  1.00  0.00    -0.323 N 
HETATM   14  H   UNL     1      -7.276   2.421 -30.661  1.00  0.00     0.169 HD
HETATM   15  O   UNL     1      -6.665   4.197 -33.237  1.00  0.00    -0.267 OA
BRANCH  13  16
HETATM   16  C   UNL     1      -7.809   4.411 -30.483  1.00  0.00     0.041 A 
HETATM   17  C   UNL     1      -9.205   4.616 -30.563  1.00  0.00    -0.035 A 
HETATM   18  C   UNL     1     -10.116   3.699 -31.333  1.00  0.00     0.050 C 
HETATM   19  C   UNL     1      -9.782   5.709 -29.889  1.00  0.00     0.009 A 
HETATM   20  C   UNL     1      -8.998   6.591 -29.150  1.00  0.00     0.001 A 
HETATM   21  C   UNL     1      -7.627   6.388 -29.069  1.00  0.00     0.002 A 
HETATM   22  C   UNL     1      -7.040   5.305 -29.728  1.00  0.00     0.030 A 
ENDBRANCH  13  16
ENDBRANCH   1  12
BRANCH   2  23
HETATM   23  C   UNL     1      -8.315   1.158 -33.792  1.00  0.00    -0.028 A 
HETATM   24  C   UNL     1      -8.927   0.239 -32.927  1.00  0.00     0.010 A 
HETATM   25  C   UNL     1     -10.318   0.151 -32.847  1.00  0.00     0.008 A 
HETATM   26  C   UNL     1     -11.135   0.978 -33.628  1.00  0.00    -0.055 A 
HETATM   27  C   UNL     1     -10.524   1.909 -34.480  1.00  0.00     0.008 A 
HETATM   28  C   UNL     1      -9.132   2.002 -34.560  1.00  0.00     0.010 A 
BRANCH  26  29
HETATM   29  C   UNL     1     -12.645   0.835 -33.551  1.00  0.00     0.010 C 
HETATM   30  C   UNL     1     -13.352   1.637 -34.645  1.00  0.00     0.015 C 
HETATM   31  C   UNL     1     -13.064  -0.636 -33.592  1.00  0.00     0.015 C 
ENDBRANCH  26  29
ENDBRANCH   2  23
BRANCH   7  32
HETATM   32  C   UNL     1      -5.851  -3.381 -35.399  1.00  0.00     0.085 C 
BRANCH  32  33
HETATM   33  C   UNL     1      -5.926  -4.580 -34.457  1.00  0.00     0.034 C 
BRANCH  33  34
HETATM   34  C   UNL     1      -4.594  -5.305 -34.306  1.00  0.00     0.164 C 
BRANCH  34  35
HETATM   35  O   UNL     1      -3.770  -4.599 -33.382  1.00  0.00    -0.401 OA
HETATM   36  H   UNL     1      -2.851  -4.873 -33.539  1.00  0.00     0.209 HD
ENDBRANCH  34  35
ENDBRANCH  33  34
ENDBRANCH  32  33
ENDBRANCH   7  32
TORSDOF 8
ENDMDL
MODEL 5
REMARK VINA RESULT:      -8.4      1.269      2.053
REMARK  8 active torsions:
REMARK  status: ('A' for Active; 'I' for Inactive)
REMARK    1  A    between atoms: C_3  and  N_4 
REMARK       I    between atoms: N_4  and  C_5 
REMARK    2  A    between atoms: C_5  and  C_6 
REMARK    3  A    between atoms: C_7  and  C_8 
REMARK    4  A    between atoms: C_11  and  C_12 
REMARK    5  A    between atoms: C_21  and  C_22 
REMARK    6  A    between atoms: C_22  and  C_23 
REMARK    7  A    between atoms: C_23  and  C_24 
REMARK    8  A    between atoms: C_24  and  O_25 
ROOT
HETATM    1  C   UNL     1      -7.757   3.464 -31.712  1.00  0.00     0.062 A 
HETATM    2  C   UNL     1      -6.601   3.226 -32.677  1.00  0.00     0.202 A 
HETATM    3  N   UNL     1      -5.379   3.907 -32.225  1.00  0.00    -0.083 N 
HETATM    4  C   UNL     1      -5.319   4.716 -31.122  1.00  0.00     0.726 A 
HETATM    5  N   UNL     1      -6.418   4.888 -30.365  1.00  0.00    -0.192 N 
HETATM    6  N   UNL     1      -4.220   3.941 -32.918  1.00  0.00    -0.140 NA
HETATM    7  C   UNL     1      -3.468   4.706 -32.112  1.00  0.00     0.166 A 
HETATM    8  N   UNL     1      -4.116   5.215 -31.011  1.00  0.00    -0.046 NA
HETATM    9  C   UNL     1      -7.629   4.257 -30.620  1.00  0.00     0.037 A 
HETATM   10  C   UNL     1      -8.732   4.527 -29.627  1.00  0.00     0.070 C 
HETATM   11  H   UNL     1      -6.346   5.450 -29.521  1.00  0.00     0.184 HD
ENDROOT
BRANCH   1  12
HETATM   12  C   UNL     1      -9.004   2.688 -31.932  1.00  0.00     0.256 C 
HETATM   13  N   UNL     1      -9.874   3.304 -32.808  1.00  0.00    -0.323 N 
HETATM   14  H   UNL     1      -9.627   4.228 -33.125  1.00  0.00     0.169 HD
HETATM   15  O   UNL     1      -9.166   1.638 -31.325  1.00  0.00    -0.267 OA
BRANCH  13  16
HETATM   16  C   UNL     1     -11.114   2.800 -33.275  1.00  0.00     0.041 A 
HETATM   17  C   UNL     1     -11.114   1.740 -34.210  1.00  0.00    -0.035 A 
HETATM   18  C   UNL     1      -9.846   1.119 -34.731  1.00  0.00     0.050 C 
HETATM   19  C   UNL     1     -12.341   1.225 -34.669  1.00  0.00     0.009 A 
HETATM   20  C   UNL     1     -13.551   1.747 -34.220  1.00  0.00     0.001 A 
HETATM   21  C   UNL     1     -13.551   2.786 -33.300  1.00  0.00     0.002 A 
HETATM   22  C   UNL     1     -12.342   3.305 -32.830  1.00  0.00     0.030 A 
ENDBRANCH  13  16
ENDBRANCH   1  12
BRANCH   2  23
HETATM   23  C   UNL     1      -6.334   1.755 -32.960  1.00  0.00    -0.028 A 
HETATM   24  C   UNL     1      -6.519   1.249 -34.256  1.00  0.00     0.010 A 
HETATM   25  C   UNL     1      -6.336  -0.108 -34.526  1.00  0.00     0.008 A 
HETATM   26  C   UNL     1      -5.962  -0.997 -33.510  1.00  0.00    -0.055 A 
HETATM   27  C   UNL     1      -5.760  -0.490 -32.218  1.00  0.00     0.008 A 
HETATM   28  C   UNL     1      -5.940   0.870 -31.945  1.00  0.00     0.010 A 
BRANCH  26  29
HETATM   29  C   UNL     1      -5.807  -2.474 -33.822  1.00  0.00     0.010 C 
HETATM   30  C   UNL     1      -6.899  -2.977 -34.767  1.00  0.00     0.015 C 
HETATM   31  C   UNL     1      -4.415  -2.780 -34.381  1.00  0.00     0.015 C 
ENDBRANCH  26  29
ENDBRANCH   2  23
BRANCH   7  32
HETATM   32  C   UNL     1      -2.035   4.986 -32.379  1.00  0.00     0.085 C 
BRANCH  32  33
HETATM   33  C   UNL     1      -1.673   4.893 -33.860  1.00  0.00     0.034 C 
BRANCH  33  34
HETATM   34  C   UNL     1      -1.185   6.216 -34.440  1.00  0.00     0.164 C 
BRANCH  34  35
HETATM   35  O   UNL     1      -2.281   7.119 -34.552  1.00  0.00    -0.401 OA
HETATM   36  H   UNL     1      -2.709   7.171 -33.681  1.00  0.00     0.209 HD
ENDBRANCH  34  35
ENDBRANCH  33  34
ENDBRANCH  32  33
ENDBRANCH   7  32
TORSDOF 8
ENDMDL
MODEL 6
REMARK VINA RESULT:      -8.4      3.208      6.388
REMARK  8 active torsions:
REMARK  status: ('A' for Active; 'I' for Inactive)
REMARK    1  A    between atoms: C_3  and  N_4 
REMARK       I    between atoms: N_4  and  C_5 
REMARK    2  A    between atoms: C_5  and  C_6 
REMARK    3  A    between atoms: C_7  and  C_8 
REMARK    4  A    between atoms: C_11  and  C_12 
REMARK    5  A    between atoms: C_21  and  C_22 
REMARK    6  A    between atoms: C_22  and  C_23 
REMARK    7  A    between atoms: C_23  and  C_24 
REMARK    8  A    between atoms: C_24  and  O_25 
ROOT
HETATM    1  C   UNL     1      -5.716   1.812 -31.004  1.00  0.00     0.062 A 
HETATM    2  C   UNL     1      -6.978   2.618 -30.720  1.00  0.00     0.202 A 
HETATM    3  N   UNL     1      -6.664   4.030 -30.461  1.00  0.00    -0.083 N 
HETATM    4  C   UNL     1      -5.391   4.531 -30.403  1.00  0.00     0.726 A 
HETATM    5  N   UNL     1      -4.346   3.714 -30.629  1.00  0.00    -0.192 N 
HETATM    6  N   UNL     1      -7.572   4.965 -30.102  1.00  0.00    -0.140 NA
HETATM    7  C   UNL     1      -6.781   6.037 -29.949  1.00  0.00     0.166 A 
HETATM    8  N   UNL     1      -5.435   5.803 -30.106  1.00  0.00    -0.046 NA
HETATM    9  C   UNL     1      -4.482   2.371 -30.956  1.00  0.00     0.037 A 
HETATM   10  C   UNL     1      -3.198   1.629 -31.231  1.00  0.00     0.070 C 
HETATM   11  H   UNL     1      -3.410   4.110 -30.634  1.00  0.00     0.184 HD
ENDROOT
BRANCH   1  12
HETATM   12  C   UNL     1      -5.887   0.412 -31.469  1.00  0.00     0.256 C 
HETATM   13  N   UNL     1      -5.492   0.226 -32.777  1.00  0.00    -0.323 N 
HETATM   14  H   UNL     1      -5.224   1.048 -33.296  1.00  0.00     0.169 HD
HETATM   15  O   UNL     1      -6.372  -0.413 -30.706  1.00  0.00    -0.267 OA
BRANCH  13  16
HETATM   16  C   UNL     1      -5.469  -0.995 -33.497  1.00  0.00     0.041 A 
HETATM   17  C   UNL     1      -6.564  -1.318 -34.331  1.00  0.00    -0.035 A 
HETATM   18  C   UNL     1      -7.756  -0.413 -34.490  1.00  0.00     0.050 C 
HETATM   19  C   UNL     1      -6.545  -2.522 -35.060  1.00  0.00     0.009 A 
HETATM   20  C   UNL     1      -5.468  -3.400 -34.966  1.00  0.00     0.001 A 
HETATM   21  C   UNL     1      -4.392  -3.082 -34.149  1.00  0.00     0.002 A 
HETATM   22  C   UNL     1      -4.393  -1.888 -33.423  1.00  0.00     0.030 A 
ENDBRANCH  13  16
ENDBRANCH   1  12
BRANCH   2  23
HETATM   23  C   UNL     1      -8.044   2.484 -31.798  1.00  0.00    -0.028 A 
HETATM   24  C   UNL     1      -7.897   3.168 -33.014  1.00  0.00     0.010 A 
HETATM   25  C   UNL     1      -8.890   3.106 -33.994  1.00  0.00     0.008 A 
HETATM   26  C   UNL     1     -10.055   2.358 -33.787  1.00  0.00    -0.055 A 
HETATM   27  C   UNL     1     -10.196   1.660 -32.579  1.00  0.00     0.008 A 
HETATM   28  C   UNL     1      -9.203   1.718 -31.597  1.00  0.00     0.010 A 
BRANCH  26  29
HETATM   29  C   UNL     1     -11.136   2.339 -34.852  1.00  0.00     0.010 C 
HETATM   30  C   UNL     1     -12.341   1.496 -34.430  1.00  0.00     0.015 C 
HETATM   31  C   UNL     1     -11.567   3.758 -35.231  1.00  0.00     0.015 C 
ENDBRANCH  26  29
ENDBRANCH   2  23
BRANCH   7  32
HETATM   32  C   UNL     1      -7.312   7.387 -29.633  1.00  0.00     0.085 C 
BRANCH  32  33
HETATM   33  C   UNL     1      -7.913   7.482 -28.232  1.00  0.00     0.034 C 
BRANCH  33  34
HETATM   34  C   UNL     1      -9.424   7.681 -28.243  1.00  0.00     0.164 C 
BRANCH  34  35
HETATM   35  O   UNL     1     -10.035   6.645 -29.007  1.00  0.00    -0.401 OA
HETATM   36  H   UNL     1     -10.812   6.335 -28.513  1.00  0.00     0.209 HD
ENDBRANCH  34  35
ENDBRANCH  33  34
ENDBRANCH  32  33
ENDBRANCH   7  32
TORSDOF 8
ENDMDL
MODEL 7
REMARK VINA RESULT:      -8.3     16.263     19.134
REMARK  8 active torsions:
REMARK  status: ('A' for Active; 'I' for Inactive)
REMARK    1  A    between atoms: C_3  and  N_4 
REMARK       I    between atoms: N_4  and  C_5 
REMARK    2  A    between atoms: C_5  and  C_6 
REMARK    3  A    between atoms: C_7  and  C_8 
REMARK    4  A    between atoms: C_11  and  C_12 
REMARK    5  A    between atoms: C_21  and  C_22 
REMARK    6  A    between atoms: C_22  and  C_23 
REMARK    7  A    between atoms: C_23  and  C_24 
REMARK    8  A    between atoms: C_24  and  O_25 
ROOT
HETATM    1  C   UNL     1      -3.485 -13.193 -39.153  1.00  0.00     0.062 A 
HETATM    2  C   UNL     1      -4.706 -12.655 -38.414  1.00  0.00     0.202 A 
HETATM    3  N   UNL     1      -5.909 -12.713 -39.257  1.00  0.00    -0.083 N 
HETATM    4  C   UNL     1      -5.907 -13.122 -40.563  1.00  0.00     0.726 A 
HETATM    5  N   UNL     1      -4.758 -13.537 -41.127  1.00  0.00    -0.192 N 
HETATM    6  N   UNL     1      -7.120 -12.232 -38.898  1.00  0.00    -0.140 NA
HETATM    7  C   UNL     1      -7.829 -12.486 -40.009  1.00  0.00     0.166 A 
HETATM    8  N   UNL     1      -7.112 -13.013 -41.057  1.00  0.00    -0.046 NA
HETATM    9  C   UNL     1      -3.552 -13.608 -40.441  1.00  0.00     0.037 A 
HETATM   10  C   UNL     1      -2.382 -14.153 -41.223  1.00  0.00     0.070 C 
HETATM   11  H   UNL     1      -4.780 -13.886 -42.081  1.00  0.00     0.184 HD
ENDROOT
BRANCH   1  12
HETATM   12  C   UNL     1      -2.237 -13.375 -38.370  1.00  0.00     0.256 C 
HETATM   13  N   UNL     1      -1.908 -14.700 -38.179  1.00  0.00    -0.323 N 
HETATM   14  H   UNL     1      -2.573 -15.388 -38.497  1.00  0.00     0.169 HD
HETATM   15  O   UNL     1      -1.650 -12.387 -37.949  1.00  0.00    -0.267 OA
BRANCH  13  16
HETATM   16  C   UNL     1      -0.753 -15.209 -37.532  1.00  0.00     0.041 A 
HETATM   17  C   UNL     1      -0.856 -15.644 -36.191  1.00  0.00    -0.035 A 
HETATM   18  C   UNL     1      -2.146 -15.590 -35.419  1.00  0.00     0.050 C 
HETATM   19  C   UNL     1       0.282 -16.162 -35.545  1.00  0.00     0.009 A 
HETATM   20  C   UNL     1       1.505 -16.249 -36.205  1.00  0.00     0.001 A 
HETATM   21  C   UNL     1       1.605 -15.825 -37.523  1.00  0.00     0.002 A 
HETATM   22  C   UNL     1       0.484 -15.313 -38.180  1.00  0.00     0.030 A 
ENDBRANCH  13  16
ENDBRANCH   1  12
BRANCH   2  23
HETATM   23  C   UNL     1      -4.949 -13.323 -37.068  1.00  0.00    -0.028 A 
HETATM   24  C   UNL     1      -5.543 -14.593 -37.017  1.00  0.00     0.010 A 
HETATM   25  C   UNL     1      -5.828 -15.199 -35.791  1.00  0.00     0.008 A 
HETATM   26  C   UNL     1      -5.527 -14.554 -34.585  1.00  0.00    -0.055 A 
HETATM   27  C   UNL     1      -4.917 -13.293 -34.636  1.00  0.00     0.008 A 
HETATM   28  C   UNL     1      -4.628 -12.684 -35.861  1.00  0.00     0.010 A 
BRANCH  26  29
HETATM   29  C   UNL     1      -5.882 -15.218 -33.267  1.00  0.00     0.010 C 
HETATM   30  C   UNL     1      -5.432 -14.384 -32.066  1.00  0.00     0.015 C 
HETATM   31  C   UNL     1      -7.380 -15.527 -33.189  1.00  0.00     0.015 C 
ENDBRANCH  26  29
ENDBRANCH   2  23
BRANCH   7  32
HETATM   32  C   UNL     1      -9.286 -12.222 -40.107  1.00  0.00     0.085 C 
BRANCH  32  33
HETATM   33  C   UNL     1     -10.140 -13.356 -39.543  1.00  0.00     0.034 C 
BRANCH  33  34
HETATM   34  C   UNL     1     -10.609 -14.338 -40.610  1.00  0.00     0.164 C 
BRANCH  34  35
HETATM   35  O   UNL     1     -11.918 -13.979 -41.044  1.00  0.00    -0.401 OA
HETATM   36  H   UNL     1     -11.999 -14.239 -41.977  1.00  0.00     0.209 HD
ENDBRANCH  34  35
ENDBRANCH  33  34
ENDBRANCH  32  33
ENDBRANCH   7  32
TORSDOF 8
ENDMDL
MODEL 8
REMARK VINA RESULT:      -8.3      2.776      6.532
REMARK  8 active torsions:
REMARK  status: ('A' for Active; 'I' for Inactive)
REMARK    1  A    between atoms: C_3  and  N_4 
REMARK       I    between atoms: N_4  and  C_5 
REMARK    2  A    between atoms: C_5  and  C_6 
REMARK    3  A    between atoms: C_7  and  C_8 
REMARK    4  A    between atoms: C_11  and  C_12 
REMARK    5  A    between atoms: C_21  and  C_22 
REMARK    6  A    between atoms: C_22  and  C_23 
REMARK    7  A    between atoms: C_23  and  C_24 
REMARK    8  A    between atoms: C_24  and  O_25 
ROOT
HETATM    1  C   UNL     1      -8.617   1.551 -33.525  1.00  0.00     0.062 A 
HETATM    2  C   UNL     1      -8.228   3.025 -33.572  1.00  0.00     0.202 A 
HETATM    3  N   UNL     1      -9.065   3.828 -32.670  1.00  0.00    -0.083 N 
HETATM    4  C   UNL     1     -10.111   3.322 -31.947  1.00  0.00     0.726 A 
HETATM    5  N   UNL     1     -10.391   2.008 -32.016  1.00  0.00    -0.192 N 
HETATM    6  N   UNL     1      -9.003   5.174 -32.562  1.00  0.00    -0.140 NA
HETATM    7  C   UNL     1      -9.977   5.398 -31.667  1.00  0.00     0.166 A 
HETATM    8  N   UNL     1     -10.691   4.288 -31.283  1.00  0.00    -0.046 NA
HETATM    9  C   UNL     1      -9.649   1.106 -32.768  1.00  0.00     0.037 A 
HETATM   10  C   UNL     1     -10.079  -0.337 -32.676  1.00  0.00     0.070 C 
HETATM   11  H   UNL     1     -11.138   1.637 -31.434  1.00  0.00     0.184 HD
ENDROOT
BRANCH   1  12
HETATM   12  C   UNL     1      -7.740   0.588 -34.237  1.00  0.00     0.256 C 
HETATM   13  N   UNL     1      -7.208  -0.374 -33.406  1.00  0.00    -0.323 N 
HETATM   14  H   UNL     1      -7.386  -0.276 -32.418  1.00  0.00     0.169 HD
HETATM   15  O   UNL     1      -7.542   0.738 -35.436  1.00  0.00    -0.267 OA
BRANCH  13  16
HETATM   16  C   UNL     1      -6.387  -1.468 -33.780  1.00  0.00     0.041 A 
HETATM   17  C   UNL     1      -5.018  -1.447 -33.430  1.00  0.00    -0.035 A 
HETATM   18  C   UNL     1      -4.393  -0.308 -32.671  1.00  0.00     0.050 C 
HETATM   19  C   UNL     1      -4.198  -2.534 -33.787  1.00  0.00     0.009 A 
HETATM   20  C   UNL     1      -4.714  -3.625 -34.482  1.00  0.00     0.001 A 
HETATM   21  C   UNL     1      -6.060  -3.647 -34.823  1.00  0.00     0.002 A 
HETATM   22  C   UNL     1      -6.888  -2.578 -34.472  1.00  0.00     0.030 A 
ENDBRANCH  13  16
ENDBRANCH   1  12
BRANCH   2  23
HETATM   23  C   UNL     1      -6.749   3.275 -33.313  1.00  0.00    -0.028 A 
HETATM   24  C   UNL     1      -6.181   2.892 -32.088  1.00  0.00     0.010 A 
HETATM   25  C   UNL     1      -4.841   3.164 -31.806  1.00  0.00     0.008 A 
HETATM   26  C   UNL     1      -4.031   3.823 -32.741  1.00  0.00    -0.055 A 
HETATM   27  C   UNL     1      -4.593   4.190 -33.972  1.00  0.00     0.008 A 
HETATM   28  C   UNL     1      -5.934   3.917 -34.258  1.00  0.00     0.010 A 
BRANCH  26  29
HETATM   29  C   UNL     1      -2.588   4.141 -32.394  1.00  0.00     0.010 C 
HETATM   30  C   UNL     1      -1.812   4.667 -33.603  1.00  0.00     0.015 C 
HETATM   31  C   UNL     1      -2.503   5.120 -31.220  1.00  0.00     0.015 C 
ENDBRANCH  26  29
ENDBRANCH   2  23
BRANCH   7  32
HETATM   32  C   UNL     1     -10.270   6.748 -31.122  1.00  0.00     0.085 C 
BRANCH  32  33
HETATM   33  C   UNL     1      -9.572   7.868 -31.890  1.00  0.00     0.034 C 
BRANCH  33  34
HETATM   34  C   UNL     1     -10.365   8.345 -33.101  1.00  0.00     0.164 C 
BRANCH  34  35
HETATM   35  O   UNL     1      -9.844   7.738 -34.280  1.00  0.00    -0.401 OA
HETATM   36  H   UNL     1     -10.598   7.463 -34.827  1.00  0.00     0.209 HD
ENDBRANCH  34  35
ENDBRANCH  33  34
ENDBRANCH  32  33
ENDBRANCH   7  32
TORSDOF 8
ENDMDL
MODEL 9
REMARK VINA RESULT:      -8.1     16.782     19.177
REMARK  8 active torsions:
REMARK  status: ('A' for Active; 'I' for Inactive)
REMARK    1  A    between atoms: C_3  and  N_4 
REMARK       I    between atoms: N_4  and  C_5 
REMARK    2  A    between atoms: C_5  and  C_6 
REMARK    3  A    between atoms: C_7  and  C_8 
REMARK    4  A    between atoms: C_11  and  C_12 
REMARK    5  A    between atoms: C_21  and  C_22 
REMARK    6  A    between atoms: C_22  and  C_23 
REMARK    7  A    between atoms: C_23  and  C_24 
REMARK    8  A    between atoms: C_24  and  O_25 
ROOT
HETATM    1  C   UNL     1      -5.728 -13.683 -38.670  1.00  0.00     0.062 A 
HETATM    2  C   UNL     1      -4.837 -13.150 -37.553  1.00  0.00     0.202 A 
HETATM    3  N   UNL     1      -5.368 -13.506 -36.230  1.00  0.00    -0.083 N 
HETATM    4  C   UNL     1      -6.555 -14.161 -36.034  1.00  0.00     0.726 A 
HETATM    5  N   UNL     1      -7.282 -14.548 -37.098  1.00  0.00    -0.192 N 
HETATM    6  N   UNL     1      -4.835 -13.103 -35.055  1.00  0.00    -0.140 NA
HETATM    7  C   UNL     1      -5.701 -13.648 -34.187  1.00  0.00     0.166 A 
HETATM    8  N   UNL     1      -6.778 -14.287 -34.752  1.00  0.00    -0.046 NA
HETATM    9  C   UNL     1      -6.881 -14.348 -38.412  1.00  0.00     0.037 A 
HETATM   10  C   UNL     1      -7.801 -14.902 -39.472  1.00  0.00     0.070 C 
HETATM   11  H   UNL     1      -8.134 -15.078 -36.939  1.00  0.00     0.184 HD
ENDROOT
BRANCH   1  12
HETATM   12  C   UNL     1      -5.224 -13.566 -40.061  1.00  0.00     0.256 C 
HETATM   13  N   UNL     1      -4.782 -14.766 -40.577  1.00  0.00    -0.323 N 
HETATM   14  H   UNL     1      -4.757 -15.554 -39.948  1.00  0.00     0.169 HD
HETATM   15  O   UNL     1      -5.211 -12.467 -40.599  1.00  0.00    -0.267 OA
BRANCH  13  16
HETATM   16  C   UNL     1      -4.301 -15.007 -41.889  1.00  0.00     0.041 A 
HETATM   17  C   UNL     1      -3.122 -15.768 -42.057  1.00  0.00    -0.035 A 
HETATM   18  C   UNL     1      -2.353 -16.338 -40.896  1.00  0.00     0.050 C 
HETATM   19  C   UNL     1      -2.645 -16.023 -43.357  1.00  0.00     0.009 A 
HETATM   20  C   UNL     1      -3.313 -15.533 -44.476  1.00  0.00     0.001 A 
HETATM   21  C   UNL     1      -4.473 -14.788 -44.311  1.00  0.00     0.002 A 
HETATM   22  C   UNL     1      -4.963 -14.531 -43.028  1.00  0.00     0.030 A 
ENDBRANCH  13  16
ENDBRANCH   1  12
BRANCH   2  23
HETATM   23  C   UNL     1      -3.378 -13.562 -37.685  1.00  0.00    -0.028 A 
HETATM   24  C   UNL     1      -2.433 -12.640 -38.160  1.00  0.00     0.010 A 
HETATM   25  C   UNL     1      -1.100 -13.014 -38.345  1.00  0.00     0.008 A 
HETATM   26  C   UNL     1      -0.675 -14.318 -38.058  1.00  0.00    -0.055 A 
HETATM   27  C   UNL     1      -1.615 -15.235 -37.566  1.00  0.00     0.008 A 
HETATM   28  C   UNL     1      -2.950 -14.863 -37.378  1.00  0.00     0.010 A 
BRANCH  26  29
HETATM   29  C   UNL     1       0.771 -14.709 -38.303  1.00  0.00     0.010 C 
HETATM   30  C   UNL     1       1.232 -15.818 -37.356  1.00  0.00     0.015 C 
HETATM   31  C   UNL     1       0.996 -15.108 -39.764  1.00  0.00     0.015 C 
ENDBRANCH  26  29
ENDBRANCH   2  23
BRANCH   7  32
HETATM   32  C   UNL     1      -5.515 -13.573 -32.716  1.00  0.00     0.085 C 
BRANCH  32  33
HETATM   33  C   UNL     1      -5.975 -14.834 -31.989  1.00  0.00     0.034 C 
BRANCH  33  34
HETATM   34  C   UNL     1      -4.934 -15.377 -31.017  1.00  0.00     0.164 C 
BRANCH  34  35
HETATM   35  O   UNL     1      -5.507 -15.484 -29.717  1.00  0.00    -0.401 OA
HETATM   36  H   UNL     1      -5.566 -14.588 -29.347  1.00  0.00     0.209 HD
ENDBRANCH  34  35
ENDBRANCH  33  34
ENDBRANCH  32  33
ENDBRANCH   7  32
TORSDOF 8
ENDMDL
MODEL 10
REMARK VINA RESULT:      -8.0      2.806      6.347
REMARK  8 active torsions:
REMARK  status: ('A' for Active; 'I' for Inactive)
REMARK    1  A    between atoms: C_3  and  N_4 
REMARK       I    between atoms: N_4  and  C_5 
REMARK    2  A    between atoms: C_5  and  C_6 
REMARK    3  A    between atoms: C_7  and  C_8 
REMARK    4  A    between atoms: C_11  and  C_12 
REMARK    5  A    between atoms: C_21  and  C_22 
REMARK    6  A    between atoms: C_22  and  C_23 
REMARK    7  A    between atoms: C_23  and  C_24 
REMARK    8  A    between atoms: C_24  and  O_25 
ROOT
HETATM    1  C   UNL     1      -6.545   2.683 -32.450  1.00  0.00     0.062 A 
HETATM    2  C   UNL     1      -6.921   1.722 -33.572  1.00  0.00     0.202 A 
HETATM    3  N   UNL     1      -6.191   0.452 -33.456  1.00  0.00    -0.083 N 
HETATM    4  C   UNL     1      -5.237   0.204 -32.505  1.00  0.00     0.726 A 
HETATM    5  N   UNL     1      -4.956   1.146 -31.586  1.00  0.00    -0.192 N 
HETATM    6  N   UNL     1      -6.260  -0.558 -34.351  1.00  0.00    -0.140 NA
HETATM    7  C   UNL     1      -5.395  -1.430 -33.812  1.00  0.00     0.166 A 
HETATM    8  N   UNL     1      -4.735  -0.988 -32.690  1.00  0.00    -0.046 NA
HETATM    9  C   UNL     1      -5.609   2.370 -31.521  1.00  0.00     0.037 A 
HETATM   10  C   UNL     1      -5.197   3.275 -30.386  1.00  0.00     0.070 C 
HETATM   11  H   UNL     1      -4.283   0.930 -30.856  1.00  0.00     0.184 HD
ENDROOT
BRANCH   1  12
HETATM   12  C   UNL     1      -7.337   3.933 -32.325  1.00  0.00     0.256 C 
HETATM   13  N   UNL     1      -8.325   3.852 -31.367  1.00  0.00    -0.323 N 
HETATM   14  H   UNL     1      -8.467   2.954 -30.930  1.00  0.00     0.169 HD
HETATM   15  O   UNL     1      -7.085   4.873 -33.067  1.00  0.00    -0.267 OA
BRANCH  13  16
HETATM   16  C   UNL     1      -9.209   4.884 -30.961  1.00  0.00     0.041 A 
HETATM   17  C   UNL     1      -8.865   5.678 -29.844  1.00  0.00    -0.035 A 
HETATM   18  C   UNL     1      -7.594   5.475 -29.065  1.00  0.00     0.050 C 
HETATM   19  C   UNL     1      -9.730   6.713 -29.441  1.00  0.00     0.009 A 
HETATM   20  C   UNL     1     -10.918   6.962 -30.124  1.00  0.00     0.001 A 
HETATM   21  C   UNL     1     -11.254   6.183 -31.224  1.00  0.00     0.002 A 
HETATM   22  C   UNL     1     -10.404   5.156 -31.639  1.00  0.00     0.030 A 
ENDBRANCH  13  16
ENDBRANCH   1  12
BRANCH   2  23
HETATM   23  C   UNL     1      -8.418   1.483 -33.696  1.00  0.00    -0.028 A 
HETATM   24  C   UNL     1      -9.196   2.328 -34.502  1.00  0.00     0.010 A 
HETATM   25  C   UNL     1     -10.580   2.163 -34.584  1.00  0.00     0.008 A 
HETATM   26  C   UNL     1     -11.225   1.147 -33.866  1.00  0.00    -0.055 A 
HETATM   27  C   UNL     1     -10.446   0.291 -33.074  1.00  0.00     0.008 A 
HETATM   28  C   UNL     1      -9.060   0.453 -32.992  1.00  0.00     0.010 A 
BRANCH  26  29
HETATM   29  C   UNL     1     -12.735   1.013 -33.943  1.00  0.00     0.010 C 
HETATM   30  C   UNL     1     -13.204  -0.392 -33.560  1.00  0.00     0.015 C 
HETATM   31  C   UNL     1     -13.429   2.075 -33.087  1.00  0.00     0.015 C 
ENDBRANCH  26  29
ENDBRANCH   2  23
BRANCH   7  32
HETATM   32  C   UNL     1      -5.162  -2.782 -34.379  1.00  0.00     0.085 C 
BRANCH  32  33
HETATM   33  C   UNL     1      -6.445  -3.462 -34.853  1.00  0.00     0.034 C 
BRANCH  33  34
HETATM   34  C   UNL     1      -6.224  -4.895 -35.321  1.00  0.00     0.164 C 
BRANCH  34  35
HETATM   35  O   UNL     1      -5.062  -5.427 -34.691  1.00  0.00    -0.401 OA
HETATM   36  H   UNL     1      -4.782  -6.205 -35.202  1.00  0.00     0.209 HD
ENDBRANCH  34  35
ENDBRANCH  33  34
ENDBRANCH  32  33
ENDBRANCH   7  32
TORSDOF 8
ENDMDL
