MODEL 1
REMARK VINA RESULT:      -8.8      0.000      0.000
REMARK  3 active torsions:
REMARK  status: ('A' for Active; 'I' for Inactive)
REMARK    1  A    between atoms: C_6  and  N_7 
REMARK       I    between atoms: N_7  and  C_8 
REMARK    2  A    between atoms: C_8  and  C_9 
REMARK    3  A    between atoms: C_9  and  C_10 
ROOT
HETATM    1  C   UNL     1      -4.496   3.513 -32.754  1.00  0.00     0.286 C 
HETATM    2  N   UNL     1      -4.235   4.985 -33.079  1.00  0.00    -0.056 N 
HETATM    3  H   UNL     1      -4.613   5.140 -34.039  1.00  0.00     0.278 HD
HETATM    4  H   UNL     1      -4.769   5.597 -32.450  1.00  0.00     0.278 HD
HETATM    5  C   UNL     1      -2.772   5.284 -33.041  1.00  0.00     0.209 C 
HETATM    6  C   UNL     1      -2.258   5.001 -31.612  1.00  0.00     0.115 C 
HETATM    7  N   UNL     1      -2.626   3.667 -31.134  1.00  0.00    -0.353 N 
HETATM    8  C   UNL     1      -3.859   3.105 -31.411  1.00  0.00     0.249 C 
HETATM    9  O   UNL     1      -4.350   2.270 -30.662  1.00  0.00    -0.271 OA
HETATM   10  C   UNL     1      -2.519   6.731 -33.439  1.00  0.00     0.035 C 
HETATM   11  C   UNL     1      -1.021   7.028 -33.374  1.00  0.00     0.002 C 
HETATM   12  C   UNL     1      -0.414   6.673 -32.014  1.00  0.00     0.002 C 
HETATM   13  C   UNL     1      -0.749   5.247 -31.563  1.00  0.00     0.027 C 
HETATM   14  H   UNL     1      -2.262   3.374 -30.229  1.00  0.00     0.163 HD
ENDROOT
BRANCH   1  15
HETATM   15  C   UNL     1      -5.997   3.204 -32.831  1.00  0.00     0.146 C 
BRANCH  15  16
HETATM   16  C   UNL     1      -6.184   1.940 -33.642  1.00  0.00     0.224 C 
HETATM   17  N   UNL     1      -5.949   0.774 -32.951  1.00  0.00    -0.327 N 
HETATM   18  H   UNL     1      -5.849   0.826 -31.945  1.00  0.00     0.169 HD
HETATM   19  O   UNL     1      -6.595   2.038 -34.799  1.00  0.00    -0.273 OA
BRANCH  17  20
HETATM   20  C   UNL     1      -5.960  -0.532 -33.508  1.00  0.00     0.040 A 
HETATM   21  C   UNL     1      -4.746  -1.231 -33.657  1.00  0.00    -0.035 A 
HETATM   22  C   UNL     1      -4.762  -2.526 -34.214  1.00  0.00     0.015 A 
HETATM   23  C   UNL     1      -3.423  -0.663 -33.219  1.00  0.00     0.050 C 
HETATM   24  C   UNL     1      -5.954  -3.124 -34.635  1.00  0.00    -0.061 A 
HETATM   25  C   UNL     1      -5.972  -4.512 -35.203  1.00  0.00     0.048 C 
HETATM   26  C   UNL     1      -7.147  -2.418 -34.495  1.00  0.00     0.009 A 
HETATM   27  C   UNL     1      -7.147  -1.136 -33.941  1.00  0.00     0.030 A 
ENDBRANCH  17  20
ENDBRANCH  15  16
ENDBRANCH   1  15
TORSDOF 3
ENDMDL
MODEL 2
REMARK VINA RESULT:      -8.6      1.269      1.928
REMARK  3 active torsions:
REMARK  status: ('A' for Active; 'I' for Inactive)
REMARK    1  A    between atoms: C_6  and  N_7 
REMARK       I    between atoms: N_7  and  C_8 
REMARK    2  A    between atoms: C_8  and  C_9 
REMARK    3  A    between atoms: C_9  and  C_10 
ROOT
HETATM    1  C   UNL     1      -4.927   3.469 -32.195  1.00  0.00     0.286 C 
HETATM    2  N   UNL     1      -4.544   4.240 -33.460  1.00  0.00    -0.056 N 
HETATM    3  H   UNL     1      -4.716   3.592 -34.258  1.00  0.00     0.278 HD
HETATM    4  H   UNL     1      -5.164   5.047 -33.597  1.00  0.00     0.278 HD
HETATM    5  C   UNL     1      -3.106   4.643 -33.418  1.00  0.00     0.209 C 
HETATM    6  C   UNL     1      -2.898   5.569 -32.199  1.00  0.00     0.115 C 
HETATM    7  N   UNL     1      -3.411   4.989 -30.956  1.00  0.00    -0.353 N 
HETATM    8  C   UNL     1      -4.588   4.263 -30.919  1.00  0.00     0.249 C 
HETATM    9  O   UNL     1      -5.253   4.200 -29.893  1.00  0.00    -0.271 OA
HETATM   10  C   UNL     1      -2.716   5.343 -34.712  1.00  0.00     0.035 C 
HETATM   11  C   UNL     1      -1.249   5.768 -34.646  1.00  0.00     0.002 C 
HETATM   12  C   UNL     1      -0.940   6.607 -33.402  1.00  0.00     0.002 C 
HETATM   13  C   UNL     1      -1.420   5.949 -32.103  1.00  0.00     0.027 C 
HETATM   14  H   UNL     1      -3.246   5.504 -30.093  1.00  0.00     0.163 HD
ENDROOT
BRANCH   1  15
HETATM   15  C   UNL     1      -6.394   3.026 -32.261  1.00  0.00     0.146 C 
BRANCH  15  16
HETATM   16  C   UNL     1      -6.434   1.518 -32.374  1.00  0.00     0.224 C 
HETATM   17  N   UNL     1      -5.768   1.005 -33.461  1.00  0.00    -0.327 N 
HETATM   18  H   UNL     1      -5.168   1.625 -33.991  1.00  0.00     0.169 HD
HETATM   19  O   UNL     1      -6.973   0.874 -31.472  1.00  0.00    -0.273 OA
BRANCH  17  20
HETATM   20  C   UNL     1      -5.741  -0.362 -33.843  1.00  0.00     0.040 A 
HETATM   21  C   UNL     1      -6.783  -0.880 -34.637  1.00  0.00    -0.035 A 
HETATM   22  C   UNL     1      -6.752  -2.239 -35.010  1.00  0.00     0.015 A 
HETATM   23  C   UNL     1      -7.925  -0.034 -35.131  1.00  0.00     0.050 C 
HETATM   24  C   UNL     1      -5.719  -3.086 -34.597  1.00  0.00    -0.061 A 
HETATM   25  C   UNL     1      -5.675  -4.526 -35.017  1.00  0.00     0.048 C 
HETATM   26  C   UNL     1      -4.701  -2.566 -33.802  1.00  0.00     0.009 A 
HETATM   27  C   UNL     1      -4.715  -1.221 -33.427  1.00  0.00     0.030 A 
ENDBRANCH  17  20
ENDBRANCH  15  16
ENDBRANCH   1  15
TORSDOF 3
ENDMDL
MODEL 3
REMARK VINA RESULT:      -8.4      4.543      8.056
REMARK  3 active torsions:
REMARK  status: ('A' for Active; 'I' for Inactive)
REMARK    1  A    between atoms: C_6  and  N_7 
REMARK       I    between atoms: N_7  and  C_8 
REMARK    2  A    between atoms: C_8  and  C_9 
REMARK    3  A    between atoms: C_9  and  C_10 
ROOT
HETATM    1  C   UNL     1      -7.317  -0.284 -33.979  1.00  0.00     0.286 C 
HETATM    2  N   UNL     1      -7.194  -1.518 -34.877  1.00  0.00    -0.056 N 
HETATM    3  H   UNL     1      -8.160  -1.895 -34.984  1.00  0.00     0.278 HD
HETATM    4  H   UNL     1      -6.874  -1.255 -35.817  1.00  0.00     0.278 HD
HETATM    5  C   UNL     1      -6.303  -2.541 -34.250  1.00  0.00     0.209 C 
HETATM    6  C   UNL     1      -4.899  -1.920 -34.079  1.00  0.00     0.115 C 
HETATM    7  N   UNL     1      -4.934  -0.630 -33.389  1.00  0.00    -0.353 N 
HETATM    8  C   UNL     1      -5.935   0.296 -33.618  1.00  0.00     0.249 C 
HETATM    9  O   UNL     1      -5.734   1.492 -33.451  1.00  0.00    -0.271 OA
HETATM   10  C   UNL     1      -6.249  -3.793 -35.115  1.00  0.00     0.035 C 
HETATM   11  C   UNL     1      -5.317  -4.821 -34.473  1.00  0.00     0.002 C 
HETATM   12  C   UNL     1      -3.929  -4.246 -34.175  1.00  0.00     0.002 C 
HETATM   13  C   UNL     1      -3.984  -2.931 -33.387  1.00  0.00     0.027 C 
HETATM   14  H   UNL     1      -4.042  -0.189 -33.170  1.00  0.00     0.163 HD
ENDROOT
BRANCH   1  15
HETATM   15  C   UNL     1      -8.261   0.746 -34.611  1.00  0.00     0.146 C 
BRANCH  15  16
HETATM   16  C   UNL     1      -9.569   0.725 -33.850  1.00  0.00     0.224 C 
HETATM   17  N   UNL     1     -10.618   1.337 -34.493  1.00  0.00    -0.327 N 
HETATM   18  H   UNL     1     -10.500   1.591 -35.467  1.00  0.00     0.169 HD
HETATM   19  O   UNL     1      -9.619   0.113 -32.782  1.00  0.00    -0.273 OA
BRANCH  17  20
HETATM   20  C   UNL     1     -11.915   1.537 -33.952  1.00  0.00     0.040 A 
HETATM   21  C   UNL     1     -12.195   2.723 -33.245  1.00  0.00    -0.035 A 
HETATM   22  C   UNL     1     -13.484   2.915 -32.706  1.00  0.00     0.015 A 
HETATM   23  C   UNL     1     -11.179   3.817 -33.059  1.00  0.00     0.050 C 
HETATM   24  C   UNL     1     -14.484   1.947 -32.845  1.00  0.00    -0.061 A 
HETATM   25  C   UNL     1     -15.862   2.164 -32.293  1.00  0.00     0.048 C 
HETATM   26  C   UNL     1     -14.192   0.773 -33.535  1.00  0.00     0.009 A 
HETATM   27  C   UNL     1     -12.921   0.570 -34.078  1.00  0.00     0.030 A 
ENDBRANCH  17  20
ENDBRANCH  15  16
ENDBRANCH   1  15
TORSDOF 3
ENDMDL
MODEL 4
REMARK VINA RESULT:      -8.1      1.705      7.602
REMARK  3 active torsions:
REMARK  status: ('A' for Active; 'I' for Inactive)
REMARK    1  A    between atoms: C_6  and  N_7 
REMARK       I    between atoms: N_7  and  C_8 
REMARK    2  A    between atoms: C_8  and  C_9 
REMARK    3  A    between atoms: C_9  and  C_10 
ROOT
HETATM    1  C   UNL     1      -5.300  -0.022 -31.052  1.00  0.00     0.286 C 
HETATM    2  N   UNL     1      -6.212  -0.132 -32.276  1.00  0.00    -0.056 N 
HETATM    3  H   UNL     1      -7.187  -0.025 -31.921  1.00  0.00     0.278 HD
HETATM    4  H   UNL     1      -6.048   0.647 -32.925  1.00  0.00     0.278 HD
HETATM    5  C   UNL     1      -6.044  -1.458 -32.944  1.00  0.00     0.209 C 
HETATM    6  C   UNL     1      -4.578  -1.581 -33.415  1.00  0.00     0.115 C 
HETATM    7  N   UNL     1      -3.617  -1.304 -32.345  1.00  0.00    -0.353 N 
HETATM    8  C   UNL     1      -3.828  -0.305 -31.412  1.00  0.00     0.249 C 
HETATM    9  O   UNL     1      -2.885   0.243 -30.856  1.00  0.00    -0.271 OA
HETATM   10  C   UNL     1      -7.010  -1.585 -34.114  1.00  0.00     0.035 C 
HETATM   11  C   UNL     1      -6.811  -2.937 -34.800  1.00  0.00     0.002 C 
HETATM   12  C   UNL     1      -5.354  -3.178 -35.205  1.00  0.00     0.002 C 
HETATM   13  C   UNL     1      -4.368  -2.955 -34.052  1.00  0.00     0.027 C 
HETATM   14  H   UNL     1      -2.629  -1.436 -32.554  1.00  0.00     0.163 HD
ENDROOT
BRANCH   1  15
HETATM   15  C   UNL     1      -5.504   1.326 -30.350  1.00  0.00     0.146 C 
BRANCH  15  16
HETATM   16  C   UNL     1      -5.044   2.425 -31.282  1.00  0.00     0.224 C 
HETATM   17  N   UNL     1      -3.895   3.070 -30.887  1.00  0.00    -0.327 N 
HETATM   18  H   UNL     1      -3.357   2.667 -30.130  1.00  0.00     0.169 HD
HETATM   19  O   UNL     1      -5.663   2.604 -32.332  1.00  0.00    -0.273 OA
BRANCH  17  20
HETATM   20  C   UNL     1      -3.317   4.195 -31.532  1.00  0.00     0.040 A 
HETATM   21  C   UNL     1      -3.696   5.492 -31.134  1.00  0.00    -0.035 A 
HETATM   22  C   UNL     1      -3.120   6.605 -31.780  1.00  0.00     0.015 A 
HETATM   23  C   UNL     1      -4.675   5.746 -30.021  1.00  0.00     0.050 C 
HETATM   24  C   UNL     1      -2.195   6.449 -32.817  1.00  0.00    -0.061 A 
HETATM   25  C   UNL     1      -1.565   7.635 -33.486  1.00  0.00     0.048 C 
HETATM   26  C   UNL     1      -1.838   5.161 -33.211  1.00  0.00     0.009 A 
HETATM   27  C   UNL     1      -2.396   4.049 -32.578  1.00  0.00     0.030 A 
ENDBRANCH  17  20
ENDBRANCH  15  16
ENDBRANCH   1  15
TORSDOF 3
ENDMDL
MODEL 5
REMARK VINA RESULT:      -8.1      3.371      5.692
REMARK  3 active torsions:
REMARK  status: ('A' for Active; 'I' for Inactive)
REMARK    1  A    between atoms: C_6  and  N_7 
REMARK       I    between atoms: N_7  and  C_8 
REMARK    2  A    between atoms: C_8  and  C_9 
REMARK    3  A    between atoms: C_9  and  C_10 
ROOT
HETATM    1  C   UNL     1      -7.110   3.583 -33.347  1.00  0.00     0.286 C 
HETATM    2  N   UNL     1      -8.511   2.974 -33.248  1.00  0.00    -0.056 N 
HETATM    3  H   UNL     1      -8.388   1.945 -33.369  1.00  0.00     0.278 HD
HETATM    4  H   UNL     1      -8.904   3.115 -32.310  1.00  0.00     0.278 HD
HETATM    5  C   UNL     1      -9.403   3.520 -34.315  1.00  0.00     0.209 C 
HETATM    6  C   UNL     1      -9.519   5.047 -34.113  1.00  0.00     0.115 C 
HETATM    7  N   UNL     1      -8.214   5.703 -34.006  1.00  0.00    -0.353 N 
HETATM    8  C   UNL     1      -7.157   5.123 -33.327  1.00  0.00     0.249 C 
HETATM    9  O   UNL     1      -6.279   5.814 -32.826  1.00  0.00    -0.271 OA
HETATM   10  C   UNL     1     -10.769   2.852 -34.253  1.00  0.00     0.035 C 
HETATM   11  C   UNL     1     -11.676   3.437 -35.336  1.00  0.00     0.002 C 
HETATM   12  C   UNL     1     -11.760   4.964 -35.265  1.00  0.00     0.002 C 
HETATM   13  C   UNL     1     -10.383   5.637 -35.228  1.00  0.00     0.027 C 
HETATM   14  H   UNL     1      -8.202   6.719 -33.945  1.00  0.00     0.163 HD
ENDROOT
BRANCH   1  15
HETATM   15  C   UNL     1      -6.190   2.990 -32.273  1.00  0.00     0.146 C 
BRANCH  15  16
HETATM   16  C   UNL     1      -6.251   1.481 -32.371  1.00  0.00     0.224 C 
HETATM   17  N   UNL     1      -5.645   0.953 -33.486  1.00  0.00    -0.327 N 
HETATM   18  H   UNL     1      -5.067   1.562 -34.051  1.00  0.00     0.169 HD
HETATM   19  O   UNL     1      -6.750   0.851 -31.438  1.00  0.00    -0.273 OA
BRANCH  17  20
HETATM   20  C   UNL     1      -5.651  -0.418 -33.857  1.00  0.00     0.040 A 
HETATM   21  C   UNL     1      -6.720  -0.923 -34.623  1.00  0.00    -0.035 A 
HETATM   22  C   UNL     1      -6.723  -2.285 -34.986  1.00  0.00     0.015 A 
HETATM   23  C   UNL     1      -7.858  -0.060 -35.099  1.00  0.00     0.050 C 
HETATM   24  C   UNL     1      -5.697  -3.147 -34.589  1.00  0.00    -0.061 A 
HETATM   25  C   UNL     1      -5.688  -4.591 -34.998  1.00  0.00     0.048 C 
HETATM   26  C   UNL     1      -4.651  -2.640 -33.821  1.00  0.00     0.009 A 
HETATM   27  C   UNL     1      -4.632  -1.292 -33.457  1.00  0.00     0.030 A 
ENDBRANCH  17  20
ENDBRANCH  15  16
ENDBRANCH   1  15
TORSDOF 3
ENDMDL
MODEL 6
REMARK VINA RESULT:      -7.9      3.725      6.937
REMARK  3 active torsions:
REMARK  status: ('A' for Active; 'I' for Inactive)
REMARK    1  A    between atoms: C_6  and  N_7 
REMARK       I    between atoms: N_7  and  C_8 
REMARK    2  A    between atoms: C_8  and  C_9 
REMARK    3  A    between atoms: C_9  and  C_10 
ROOT
HETATM    1  C   UNL     1      -5.119  -0.079 -32.374  1.00  0.00     0.286 C 
HETATM    2  N   UNL     1      -5.265  -0.835 -33.696  1.00  0.00    -0.056 N 
HETATM    3  H   UNL     1      -6.235  -0.647 -34.031  1.00  0.00     0.278 HD
HETATM    4  H   UNL     1      -4.630  -0.453 -34.407  1.00  0.00     0.278 HD
HETATM    5  C   UNL     1      -5.060  -2.301 -33.494  1.00  0.00     0.209 C 
HETATM    6  C   UNL     1      -3.625  -2.519 -32.963  1.00  0.00     0.115 C 
HETATM    7  N   UNL     1      -3.323  -1.688 -31.796  1.00  0.00    -0.353 N 
HETATM    8  C   UNL     1      -3.771  -0.383 -31.691  1.00  0.00     0.249 C 
HETATM    9  O   UNL     1      -3.161   0.437 -31.017  1.00  0.00    -0.271 OA
HETATM   10  C   UNL     1      -5.282  -3.050 -34.800  1.00  0.00     0.035 C 
HETATM   11  C   UNL     1      -5.047  -4.545 -34.582  1.00  0.00     0.002 C 
HETATM   12  C   UNL     1      -3.678  -4.835 -33.957  1.00  0.00     0.002 C 
HETATM   13  C   UNL     1      -3.410  -4.009 -32.694  1.00  0.00     0.027 C 
HETATM   14  H   UNL     1      -2.423  -1.826 -31.340  1.00  0.00     0.163 HD
ENDROOT
BRANCH   1  15
HETATM   15  C   UNL     1      -5.368   1.420 -32.582  1.00  0.00     0.146 C 
BRANCH  15  16
HETATM   16  C   UNL     1      -6.705   1.592 -33.269  1.00  0.00     0.224 C 
HETATM   17  N   UNL     1      -7.786   1.640 -32.419  1.00  0.00    -0.327 N 
HETATM   18  H   UNL     1      -7.610   1.736 -31.426  1.00  0.00     0.169 HD
HETATM   19  O   UNL     1      -6.724   1.750 -34.490  1.00  0.00    -0.273 OA
BRANCH  17  20
HETATM   20  C   UNL     1      -9.147   1.695 -32.817  1.00  0.00     0.040 A 
HETATM   21  C   UNL     1      -9.791   2.945 -32.910  1.00  0.00    -0.035 A 
HETATM   22  C   UNL     1     -11.144   2.994 -33.302  1.00  0.00     0.015 A 
HETATM   23  C   UNL     1      -9.085   4.245 -32.632  1.00  0.00     0.050 C 
HETATM   24  C   UNL     1     -11.864   1.829 -33.586  1.00  0.00    -0.061 A 
HETATM   25  C   UNL     1     -13.296   1.885 -34.029  1.00  0.00     0.048 C 
HETATM   26  C   UNL     1     -11.220   0.598 -33.479  1.00  0.00     0.009 A 
HETATM   27  C   UNL     1      -9.879   0.534 -33.095  1.00  0.00     0.030 A 
ENDBRANCH  17  20
ENDBRANCH  15  16
ENDBRANCH   1  15
TORSDOF 3
ENDMDL
MODEL 7
REMARK VINA RESULT:      -7.8      4.113      6.615
REMARK  3 active torsions:
REMARK  status: ('A' for Active; 'I' for Inactive)
REMARK    1  A    between atoms: C_6  and  N_7 
REMARK       I    between atoms: N_7  and  C_8 
REMARK    2  A    between atoms: C_8  and  C_9 
REMARK    3  A    between atoms: C_9  and  C_10 
ROOT
HETATM    1  C   UNL     1      -8.611   2.923 -33.844  1.00  0.00     0.286 C 
HETATM    2  N   UNL     1      -9.494   1.691 -33.635  1.00  0.00    -0.056 N 
HETATM    3  H   UNL     1      -9.187   0.991 -34.344  1.00  0.00     0.278 HD
HETATM    4  H   UNL     1      -9.324   1.271 -32.713  1.00  0.00     0.278 HD
HETATM    5  C   UNL     1     -10.935   2.034 -33.833  1.00  0.00     0.209 C 
HETATM    6  C   UNL     1     -11.327   3.100 -32.786  1.00  0.00     0.115 C 
HETATM    7  N   UNL     1     -10.417   4.246 -32.780  1.00  0.00    -0.353 N 
HETATM    8  C   UNL     1      -9.052   4.098 -32.950  1.00  0.00     0.249 C 
HETATM    9  O   UNL     1      -8.270   4.916 -32.482  1.00  0.00    -0.271 OA
HETATM   10  C   UNL     1     -11.797   0.787 -33.698  1.00  0.00     0.035 C 
HETATM   11  C   UNL     1     -13.269   1.157 -33.881  1.00  0.00     0.002 C 
HETATM   12  C   UNL     1     -13.709   2.286 -32.944  1.00  0.00     0.002 C 
HETATM   13  C   UNL     1     -12.784   3.508 -33.006  1.00  0.00     0.027 C 
HETATM   14  H   UNL     1     -10.648   5.028 -32.169  1.00  0.00     0.163 HD
ENDROOT
BRANCH   1  15
HETATM   15  C   UNL     1      -7.131   2.556 -33.675  1.00  0.00     0.146 C 
BRANCH  15  16
HETATM   16  C   UNL     1      -6.897   1.205 -34.315  1.00  0.00     0.224 C 
HETATM   17  N   UNL     1      -6.536   0.209 -33.439  1.00  0.00    -0.327 N 
HETATM   18  H   UNL     1      -6.623   0.390 -32.446  1.00  0.00     0.169 HD
HETATM   19  O   UNL     1      -7.116   1.079 -35.521  1.00  0.00    -0.273 OA
BRANCH  17  20
HETATM   20  C   UNL     1      -6.168  -1.114 -33.800  1.00  0.00     0.040 A 
HETATM   21  C   UNL     1      -4.822  -1.514 -33.682  1.00  0.00    -0.035 A 
HETATM   22  C   UNL     1      -4.461  -2.827 -34.044  1.00  0.00     0.015 A 
HETATM   23  C   UNL     1      -3.747  -0.603 -33.155  1.00  0.00     0.050 C 
HETATM   24  C   UNL     1      -5.406  -3.735 -34.533  1.00  0.00    -0.061 A 
HETATM   25  C   UNL     1      -5.025  -5.141 -34.894  1.00  0.00     0.048 C 
HETATM   26  C   UNL     1      -6.731  -3.324 -34.657  1.00  0.00     0.009 A 
HETATM   27  C   UNL     1      -7.105  -2.028 -34.298  1.00  0.00     0.030 A 
ENDBRANCH  17  20
ENDBRANCH  15  16
ENDBRANCH   1  15
TORSDOF 3
ENDMDL
MODEL 8
REMARK VINA RESULT:      -7.8     15.772     17.553
REMARK  3 active torsions:
REMARK  status: ('A' for Active; 'I' for Inactive)
REMARK    1  A    between atoms: C_6  and  N_7 
REMARK       I    between atoms: N_7  and  C_8 
REMARK    2  A    between atoms: C_8  and  C_9 
REMARK    3  A    between atoms: C_9  and  C_10 
ROOT
HETATM    1  C   UNL     1      -2.861 -13.416 -37.067  1.00  0.00     0.286 C 
HETATM    2  N   UNL     1      -2.927 -14.898 -37.445  1.00  0.00    -0.056 N 
HETATM    3  H   UNL     1      -2.961 -15.424 -36.545  1.00  0.00     0.278 HD
HETATM    4  H   UNL     1      -3.801 -15.109 -37.942  1.00  0.00     0.278 HD
HETATM    5  C   UNL     1      -1.725 -15.296 -38.236  1.00  0.00     0.209 C 
HETATM    6  C   UNL     1      -1.703 -14.461 -39.536  1.00  0.00     0.115 C 
HETATM    7  N   UNL     1      -1.826 -13.024 -39.285  1.00  0.00    -0.353 N 
HETATM    8  C   UNL     1      -2.664 -12.521 -38.306  1.00  0.00     0.249 C 
HETATM    9  O   UNL     1      -3.135 -11.395 -38.402  1.00  0.00    -0.271 OA
HETATM   10  C   UNL     1      -1.764 -16.787 -38.541  1.00  0.00     0.035 C 
HETATM   11  C   UNL     1      -0.539 -17.175 -39.370  1.00  0.00     0.002 C 
HETATM   12  C   UNL     1      -0.390 -16.316 -40.629  1.00  0.00     0.002 C 
HETATM   13  C   UNL     1      -0.448 -14.812 -40.337  1.00  0.00     0.027 C 
HETATM   14  H   UNL     1      -1.746 -12.398 -40.085  1.00  0.00     0.163 HD
ENDROOT
BRANCH   1  15
HETATM   15  C   UNL     1      -4.080 -13.023 -36.223  1.00  0.00     0.146 C 
BRANCH  15  16
HETATM   16  C   UNL     1      -5.324 -13.545 -36.907  1.00  0.00     0.224 C 
HETATM   17  N   UNL     1      -5.947 -12.642 -37.737  1.00  0.00    -0.327 N 
HETATM   18  H   UNL     1      -5.456 -11.787 -37.967  1.00  0.00     0.169 HD
HETATM   19  O   UNL     1      -5.636 -14.726 -36.741  1.00  0.00    -0.273 OA
BRANCH  17  20
HETATM   20  C   UNL     1      -7.177 -12.854 -38.412  1.00  0.00     0.040 A 
HETATM   21  C   UNL     1      -7.289 -12.506 -39.773  1.00  0.00    -0.035 A 
HETATM   22  C   UNL     1      -8.514 -12.715 -40.437  1.00  0.00     0.015 A 
HETATM   23  C   UNL     1      -6.140 -11.941 -40.564  1.00  0.00     0.050 C 
HETATM   24  C   UNL     1      -9.624 -13.244 -39.772  1.00  0.00    -0.061 A 
HETATM   25  C   UNL     1     -10.920 -13.490 -40.488  1.00  0.00     0.048 C 
HETATM   26  C   UNL     1      -9.506 -13.573 -38.423  1.00  0.00     0.009 A 
HETATM   27  C   UNL     1      -8.297 -13.375 -37.752  1.00  0.00     0.030 A 
ENDBRANCH  17  20
ENDBRANCH  15  16
ENDBRANCH   1  15
TORSDOF 3
ENDMDL
MODEL 9
REMARK VINA RESULT:      -7.7      1.711      7.582
REMARK  3 active torsions:
REMARK  status: ('A' for Active; 'I' for Inactive)
REMARK    1  A    between atoms: C_6  and  N_7 
REMARK       I    between atoms: N_7  and  C_8 
REMARK    2  A    between atoms: C_8  and  C_9 
REMARK    3  A    between atoms: C_9  and  C_10 
ROOT
HETATM    1  C   UNL     1      -6.579   0.952 -32.107  1.00  0.00     0.286 C 
HETATM    2  N   UNL     1      -5.558  -0.182 -32.003  1.00  0.00    -0.056 N 
HETATM    3  H   UNL     1      -4.642   0.271 -31.793  1.00  0.00     0.278 HD
HETATM    4  H   UNL     1      -5.772  -0.794 -31.206  1.00  0.00     0.278 HD
HETATM    5  C   UNL     1      -5.480  -0.944 -33.286  1.00  0.00     0.209 C 
HETATM    6  C   UNL     1      -6.868  -1.560 -33.567  1.00  0.00     0.115 C 
HETATM    7  N   UNL     1      -7.947  -0.573 -33.502  1.00  0.00    -0.353 N 
HETATM    8  C   UNL     1      -7.960   0.436 -32.556  1.00  0.00     0.249 C 
HETATM    9  O   UNL     1      -9.015   0.931 -32.182  1.00  0.00    -0.271 OA
HETATM   10  C   UNL     1      -4.408  -2.021 -33.195  1.00  0.00     0.035 C 
HETATM   11  C   UNL     1      -4.356  -2.805 -34.507  1.00  0.00     0.002 C 
HETATM   12  C   UNL     1      -5.724  -3.363 -34.909  1.00  0.00     0.002 C 
HETATM   13  C   UNL     1      -6.828  -2.298 -34.906  1.00  0.00     0.027 C 
HETATM   14  H   UNL     1      -8.885  -0.884 -33.748  1.00  0.00     0.163 HD
ENDROOT
BRANCH   1  15
HETATM   15  C   UNL     1      -6.627   1.753 -30.799  1.00  0.00     0.146 C 
BRANCH  15  16
HETATM   16  C   UNL     1      -5.593   2.855 -30.875  1.00  0.00     0.224 C 
HETATM   17  N   UNL     1      -5.172   3.161 -32.148  1.00  0.00    -0.327 N 
HETATM   18  H   UNL     1      -5.688   2.775 -32.929  1.00  0.00     0.169 HD
HETATM   19  O   UNL     1      -5.272   3.434 -29.836  1.00  0.00    -0.273 OA
BRANCH  17  20
HETATM   20  C   UNL     1      -4.143   4.083 -32.477  1.00  0.00     0.040 A 
HETATM   21  C   UNL     1      -4.487   5.357 -32.969  1.00  0.00    -0.035 A 
HETATM   22  C   UNL     1      -3.461   6.267 -33.298  1.00  0.00     0.015 A 
HETATM   23  C   UNL     1      -5.914   5.806 -33.135  1.00  0.00     0.050 C 
HETATM   24  C   UNL     1      -2.112   5.925 -33.162  1.00  0.00    -0.061 A 
HETATM   25  C   UNL     1      -1.023   6.904 -33.488  1.00  0.00     0.048 C 
HETATM   26  C   UNL     1      -1.784   4.658 -32.687  1.00  0.00     0.009 A 
HETATM   27  C   UNL     1      -2.789   3.747 -32.353  1.00  0.00     0.030 A 
ENDBRANCH  17  20
ENDBRANCH  15  16
ENDBRANCH   1  15
TORSDOF 3
ENDMDL
MODEL 10
REMARK VINA RESULT:      -7.7      3.366      4.455
REMARK  3 active torsions:
REMARK  status: ('A' for Active; 'I' for Inactive)
REMARK    1  A    between atoms: C_6  and  N_7 
REMARK       I    between atoms: N_7  and  C_8 
REMARK    2  A    between atoms: C_8  and  C_9 
REMARK    3  A    between atoms: C_9  and  C_10 
ROOT
HETATM    1  C   UNL     1      -8.695   1.781 -33.010  1.00  0.00     0.286 C 
HETATM    2  N   UNL     1      -7.344   2.494 -32.932  1.00  0.00    -0.056 N 
HETATM    3  H   UNL     1      -6.626   1.781 -33.185  1.00  0.00     0.278 HD
HETATM    4  H   UNL     1      -7.282   3.237 -33.638  1.00  0.00     0.278 HD
HETATM    5  C   UNL     1      -7.097   3.012 -31.553  1.00  0.00     0.209 C 
HETATM    6  C   UNL     1      -8.208   4.031 -31.214  1.00  0.00     0.115 C 
HETATM    7  N   UNL     1      -9.552   3.498 -31.440  1.00  0.00    -0.353 N 
HETATM    8  C   UNL     1      -9.844   2.684 -32.520  1.00  0.00     0.249 C 
HETATM    9  O   UNL     1     -10.977   2.637 -32.981  1.00  0.00    -0.271 OA
HETATM   10  C   UNL     1      -5.719   3.652 -31.468  1.00  0.00     0.035 C 
HETATM   11  C   UNL     1      -5.491   4.197 -30.058  1.00  0.00     0.002 C 
HETATM   12  C   UNL     1      -6.611   5.140 -29.608  1.00  0.00     0.002 C 
HETATM   13  C   UNL     1      -8.008   4.535 -29.784  1.00  0.00     0.027 C 
HETATM   14  H   UNL     1     -10.342   4.081 -31.171  1.00  0.00     0.163 HD
ENDROOT
BRANCH   1  15
HETATM   15  C   UNL     1      -8.925   1.218 -34.418  1.00  0.00     0.146 C 
BRANCH  15  16
HETATM   16  C   UNL     1      -7.770   0.305 -34.763  1.00  0.00     0.224 C 
HETATM   17  N   UNL     1      -7.663  -0.812 -33.968  1.00  0.00    -0.327 N 
HETATM   18  H   UNL     1      -8.434  -1.035 -33.350  1.00  0.00     0.169 HD
HETATM   19  O   UNL     1      -7.079   0.574 -35.746  1.00  0.00    -0.273 OA
BRANCH  17  20
HETATM   20  C   UNL     1      -6.615  -1.767 -34.022  1.00  0.00     0.040 A 
HETATM   21  C   UNL     1      -5.384  -1.481 -33.400  1.00  0.00    -0.035 A 
HETATM   22  C   UNL     1      -4.345  -2.432 -33.461  1.00  0.00     0.015 A 
HETATM   23  C   UNL     1      -5.134  -0.205 -32.643  1.00  0.00     0.050 C 
HETATM   24  C   UNL     1      -4.505  -3.645 -34.138  1.00  0.00    -0.061 A 
HETATM   25  C   UNL     1      -3.407  -4.667 -34.179  1.00  0.00     0.048 C 
HETATM   26  C   UNL     1      -5.722  -3.912 -34.760  1.00  0.00     0.009 A 
HETATM   27  C   UNL     1      -6.762  -2.982 -34.705  1.00  0.00     0.030 A 
ENDBRANCH  17  20
ENDBRANCH  15  16
ENDBRANCH   1  15
TORSDOF 3
ENDMDL
