MODEL 1
REMARK VINA RESULT:      -8.3      0.000      0.000
REMARK  4 active torsions:
REMARK  status: ('A' for Active; 'I' for Inactive)
REMARK    1  A    between atoms: C_2  and  N_3 
REMARK    2  A    between atoms: C_11  and  C_12 
REMARK    3  A    between atoms: C_12  and  N_13 
REMARK    4  A    between atoms: C_16  and  N_17 
ROOT
HETATM    1  N   UNL     1      -6.933  -0.111 -32.035  1.00  0.00    -0.065 N 
HETATM    2  H   UNL     1      -7.136  -1.121 -31.949  1.00  0.00     0.280 HD
HETATM    3  C   UNL     1      -8.230   0.678 -31.999  1.00  0.00     0.268 C 
HETATM    4  C   UNL     1      -9.255   0.326 -33.132  1.00  0.00     0.214 C 
HETATM    5  C   UNL     1      -8.790   0.850 -34.498  1.00  0.00     0.035 C 
HETATM    6  C   UNL     1      -7.816  -0.061 -35.242  1.00  0.00     0.004 C 
HETATM    7  C   UNL     1      -6.744  -0.775 -34.426  1.00  0.00     0.028 C 
HETATM    8  C   UNL     1      -6.112   0.043 -33.310  1.00  0.00     0.235 C 
ENDROOT
BRANCH   1   9
HETATM    9  C   UNL     1      -6.050   0.184 -30.802  1.00  0.00     0.276 C 
BRANCH   9  10
HETATM   10  C   UNL     1      -5.143   1.371 -30.961  1.00  0.00     0.009 A 
HETATM   11  C   UNL     1      -3.784   1.229 -31.268  1.00  0.00     0.136 A 
HETATM   12  N   UNL     1      -2.887   2.218 -31.408  1.00  0.00    -0.216 NA
HETATM   13 CL   UNL     1      -3.058  -0.334 -31.378  1.00  0.00    -0.062 Cl
HETATM   14  C   UNL     1      -3.421   3.447 -31.275  1.00  0.00     0.159 A 
HETATM   15  N   UNL     1      -2.783   4.657 -31.417  1.00  0.00    -0.248 N 
HETATM   16  C   UNL     1      -4.743   3.746 -30.976  1.00  0.00     0.031 A 
HETATM   17  N   UNL     1      -3.586   5.708 -31.136  1.00  0.00    -0.182 NA
HETATM   18  C   UNL     1      -4.781   5.154 -30.919  1.00  0.00     0.154 A 
HETATM   19  C   UNL     1      -5.643   2.678 -30.818  1.00  0.00     0.029 A 
BRANCH  15  20
HETATM   20  C   UNL     1      -1.396   4.869 -31.822  1.00  0.00     0.104 C 
HETATM   21  C   UNL     1      -0.683   5.819 -30.862  1.00  0.00     0.034 C 
HETATM   22  C   UNL     1      -1.291   5.354 -33.269  1.00  0.00     0.034 C 
ENDBRANCH  15  20
ENDBRANCH   9  10
ENDBRANCH   1   9
BRANCH   4  23
HETATM   23  N   UNL     1     -10.652   0.909 -32.856  1.00  0.00    -0.065 N 
HETATM   24  H   UNL     1     -10.812   0.805 -31.839  1.00  0.00     0.280 HD
HETATM   25  C   UNL     1     -11.856   0.232 -33.506  1.00  0.00     0.235 C 
HETATM   26  C   UNL     1     -12.421   1.292 -34.428  1.00  0.00     0.029 C 
HETATM   27  C   UNL     1     -12.201   2.574 -33.653  1.00  0.00     0.029 C 
HETATM   28  C   UNL     1     -10.802   2.417 -33.090  1.00  0.00     0.235 C 
ENDBRANCH   4  23
TORSDOF 4
ENDMDL
MODEL 2
REMARK VINA RESULT:      -8.2      3.228      7.718
REMARK  4 active torsions:
REMARK  status: ('A' for Active; 'I' for Inactive)
REMARK    1  A    between atoms: C_2  and  N_3 
REMARK    2  A    between atoms: C_11  and  C_12 
REMARK    3  A    between atoms: C_12  and  N_13 
REMARK    4  A    between atoms: C_16  and  N_17 
ROOT
HETATM    1  N   UNL     1      -5.844   3.366 -32.273  1.00  0.00    -0.065 N 
HETATM    2  H   UNL     1      -5.575   2.752 -31.486  1.00  0.00     0.280 HD
HETATM    3  C   UNL     1      -4.602   3.996 -32.879  1.00  0.00     0.268 C 
HETATM    4  C   UNL     1      -3.751   4.871 -31.894  1.00  0.00     0.214 C 
HETATM    5  C   UNL     1      -4.453   6.195 -31.563  1.00  0.00     0.035 C 
HETATM    6  C   UNL     1      -5.482   6.117 -30.437  1.00  0.00     0.004 C 
HETATM    7  C   UNL     1      -6.371   4.880 -30.369  1.00  0.00     0.028 C 
HETATM    8  C   UNL     1      -6.863   4.349 -31.708  1.00  0.00     0.235 C 
ENDROOT
BRANCH   1   9
HETATM    9  C   UNL     1      -6.536   2.402 -33.262  1.00  0.00     0.276 C 
BRANCH   9  10
HETATM   10  C   UNL     1      -5.924   1.032 -33.321  1.00  0.00     0.009 A 
HETATM   11  C   UNL     1      -6.275   0.105 -34.308  1.00  0.00     0.136 A 
HETATM   12  N   UNL     1      -5.807  -1.147 -34.435  1.00  0.00    -0.216 NA
HETATM   13 CL   UNL     1      -7.517   0.458 -35.455  1.00  0.00    -0.062 Cl
HETATM   14  C   UNL     1      -4.872  -1.464 -33.518  1.00  0.00     0.159 A 
HETATM   15  N   UNL     1      -4.164  -2.638 -33.416  1.00  0.00    -0.248 N 
HETATM   16  C   UNL     1      -4.420  -0.654 -32.485  1.00  0.00     0.031 A 
HETATM   17  N   UNL     1      -3.359  -2.670 -32.330  1.00  0.00    -0.182 NA
HETATM   18  C   UNL     1      -3.480  -1.451 -31.801  1.00  0.00     0.154 A 
HETATM   19  C   UNL     1      -4.954   0.642 -32.378  1.00  0.00     0.029 A 
BRANCH  15  20
HETATM   20  C   UNL     1      -4.220  -3.773 -34.333  1.00  0.00     0.104 C 
HETATM   21  C   UNL     1      -5.661  -4.220 -34.569  1.00  0.00     0.034 C 
HETATM   22  C   UNL     1      -3.346  -4.935 -33.857  1.00  0.00     0.034 C 
ENDBRANCH  15  20
ENDBRANCH   9  10
ENDBRANCH   1   9
BRANCH   4  23
HETATM   23  N   UNL     1      -2.362   5.206 -32.465  1.00  0.00    -0.065 N 
HETATM   24  H   UNL     1      -1.679   4.695 -31.879  1.00  0.00     0.280 HD
HETATM   25  C   UNL     1      -1.896   6.659 -32.419  1.00  0.00     0.235 C 
HETATM   26  C   UNL     1      -1.759   7.047 -33.877  1.00  0.00     0.029 C 
HETATM   27  C   UNL     1      -1.247   5.777 -34.523  1.00  0.00     0.029 C 
HETATM   28  C   UNL     1      -2.080   4.686 -33.879  1.00  0.00     0.235 C 
ENDBRANCH   4  23
TORSDOF 4
ENDMDL
MODEL 3
REMARK VINA RESULT:      -8.1      2.699      4.766
REMARK  4 active torsions:
REMARK  status: ('A' for Active; 'I' for Inactive)
REMARK    1  A    between atoms: C_2  and  N_3 
REMARK    2  A    between atoms: C_11  and  C_12 
REMARK    3  A    between atoms: C_12  and  N_13 
REMARK    4  A    between atoms: C_16  and  N_17 
ROOT
HETATM    1  N   UNL     1      -5.590   0.712 -32.610  1.00  0.00    -0.065 N 
HETATM    2  H   UNL     1      -5.116   1.358 -33.263  1.00  0.00     0.280 HD
HETATM    3  C   UNL     1      -5.072  -0.701 -32.823  1.00  0.00     0.268 C 
HETATM    4  C   UNL     1      -5.285  -1.278 -34.264  1.00  0.00     0.214 C 
HETATM    5  C   UNL     1      -6.761  -1.609 -34.529  1.00  0.00     0.035 C 
HETATM    6  C   UNL     1      -7.616  -0.430 -34.989  1.00  0.00     0.004 C 
HETATM    7  C   UNL     1      -7.365   0.927 -34.340  1.00  0.00     0.028 C 
HETATM    8  C   UNL     1      -7.083   0.900 -32.846  1.00  0.00     0.235 C 
ENDROOT
BRANCH   1   9
HETATM    9  C   UNL     1      -5.204   1.258 -31.218  1.00  0.00     0.276 C 
BRANCH   9  10
HETATM   10  C   UNL     1      -4.533   2.602 -31.245  1.00  0.00     0.009 A 
HETATM   11  C   UNL     1      -5.071   3.712 -30.584  1.00  0.00     0.136 A 
HETATM   12  N   UNL     1      -4.566   4.956 -30.565  1.00  0.00    -0.216 NA
HETATM   13 CL   UNL     1      -6.598   3.614 -29.784  1.00  0.00    -0.062 Cl
HETATM   14  C   UNL     1      -3.399   5.069 -31.227  1.00  0.00     0.159 A 
HETATM   15  N   UNL     1      -2.607   6.187 -31.344  1.00  0.00    -0.248 N 
HETATM   16  C   UNL     1      -2.744   4.064 -31.925  1.00  0.00     0.031 A 
HETATM   17  N   UNL     1      -1.538   5.990 -32.148  1.00  0.00    -0.182 NA
HETATM   18  C   UNL     1      -1.599   4.693 -32.455  1.00  0.00     0.154 A 
HETATM   19  C   UNL     1      -3.320   2.782 -31.935  1.00  0.00     0.029 A 
BRANCH  15  20
HETATM   20  C   UNL     1      -2.827   7.482 -30.705  1.00  0.00     0.104 C 
HETATM   21  C   UNL     1      -2.245   8.616 -31.545  1.00  0.00     0.034 C 
HETATM   22  C   UNL     1      -2.285   7.512 -29.275  1.00  0.00     0.034 C 
ENDBRANCH  15  20
ENDBRANCH   9  10
ENDBRANCH   1   9
BRANCH   4  23
HETATM   23  N   UNL     1      -4.466  -2.558 -34.506  1.00  0.00    -0.065 N 
HETATM   24  H   UNL     1      -3.680  -2.285 -35.121  1.00  0.00     0.280 HD
HETATM   25  C   UNL     1      -5.140  -3.717 -35.237  1.00  0.00     0.235 C 
HETATM   26  C   UNL     1      -5.170  -4.830 -34.212  1.00  0.00     0.029 C 
HETATM   27  C   UNL     1      -3.864  -4.646 -33.467  1.00  0.00     0.029 C 
HETATM   28  C   UNL     1      -3.770  -3.145 -33.274  1.00  0.00     0.235 C 
ENDBRANCH   4  23
TORSDOF 4
ENDMDL
MODEL 4
REMARK VINA RESULT:      -8.0      3.259      8.321
REMARK  4 active torsions:
REMARK  status: ('A' for Active; 'I' for Inactive)
REMARK    1  A    between atoms: C_2  and  N_3 
REMARK    2  A    between atoms: C_11  and  C_12 
REMARK    3  A    between atoms: C_12  and  N_13 
REMARK    4  A    between atoms: C_16  and  N_17 
ROOT
HETATM    1  N   UNL     1      -3.914   4.887 -32.211  1.00  0.00    -0.065 N 
HETATM    2  H   UNL     1      -4.411   5.792 -32.254  1.00  0.00     0.280 HD
HETATM    3  C   UNL     1      -2.639   5.041 -31.399  1.00  0.00     0.268 C 
HETATM    4  C   UNL     1      -1.618   6.091 -31.957  1.00  0.00     0.214 C 
HETATM    5  C   UNL     1      -0.931   5.590 -33.235  1.00  0.00     0.035 C 
HETATM    6  C   UNL     1      -1.715   5.825 -34.525  1.00  0.00     0.004 C 
HETATM    7  C   UNL     1      -3.227   5.630 -34.485  1.00  0.00     0.028 C 
HETATM    8  C   UNL     1      -3.716   4.450 -33.657  1.00  0.00     0.235 C 
ENDROOT
BRANCH   1   9
HETATM    9  C   UNL     1      -4.927   3.953 -31.513  1.00  0.00     0.276 C 
BRANCH   9  10
HETATM   10  C   UNL     1      -4.920   2.541 -32.025  1.00  0.00     0.009 A 
HETATM   11  C   UNL     1      -5.796   2.113 -33.030  1.00  0.00     0.136 A 
HETATM   12  N   UNL     1      -5.886   0.873 -33.539  1.00  0.00    -0.216 NA
HETATM   13 CL   UNL     1      -7.005   3.171 -33.663  1.00  0.00    -0.062 Cl
HETATM   14  C   UNL     1      -4.985   0.016 -33.023  1.00  0.00     0.159 A 
HETATM   15  N   UNL     1      -4.784  -1.298 -33.373  1.00  0.00    -0.248 N 
HETATM   16  C   UNL     1      -4.056   0.292 -32.029  1.00  0.00     0.031 A 
HETATM   17  N   UNL     1      -3.854  -1.908 -32.604  1.00  0.00    -0.182 NA
HETATM   18  C   UNL     1      -3.383  -0.930 -31.828  1.00  0.00     0.154 A 
HETATM   19  C   UNL     1      -4.011   1.598 -31.511  1.00  0.00     0.029 A 
BRANCH  15  20
HETATM   20  C   UNL     1      -5.460  -2.030 -34.442  1.00  0.00     0.104 C 
HETATM   21  C   UNL     1      -6.940  -2.227 -34.123  1.00  0.00     0.034 C 
HETATM   22  C   UNL     1      -4.771  -3.361 -34.745  1.00  0.00     0.034 C 
ENDBRANCH  15  20
ENDBRANCH   9  10
ENDBRANCH   1   9
BRANCH   4  23
HETATM   23  N   UNL     1      -0.518   6.433 -30.936  1.00  0.00    -0.065 N 
HETATM   24  H   UNL     1      -0.178   7.378 -31.184  1.00  0.00     0.280 HD
HETATM   25  C   UNL     1       0.739   5.567 -30.916  1.00  0.00     0.235 C 
HETATM   26  C   UNL     1       0.717   4.920 -29.547  1.00  0.00     0.029 C 
HETATM   27  C   UNL     1       0.151   6.009 -28.661  1.00  0.00     0.029 C 
HETATM   28  C   UNL     1      -0.983   6.588 -29.484  1.00  0.00     0.235 C 
ENDBRANCH   4  23
TORSDOF 4
ENDMDL
MODEL 5
REMARK VINA RESULT:      -8.0      3.275      4.740
REMARK  4 active torsions:
REMARK  status: ('A' for Active; 'I' for Inactive)
REMARK    1  A    between atoms: C_2  and  N_3 
REMARK    2  A    between atoms: C_11  and  C_12 
REMARK    3  A    between atoms: C_12  and  N_13 
REMARK    4  A    between atoms: C_16  and  N_17 
ROOT
HETATM    1  N   UNL     1      -5.327   1.402 -32.169  1.00  0.00    -0.065 N 
HETATM    2  H   UNL     1      -5.925   1.026 -31.414  1.00  0.00     0.280 HD
HETATM    3  C   UNL     1      -5.514   0.577 -33.430  1.00  0.00     0.268 C 
HETATM    4  C   UNL     1      -5.160  -0.943 -33.290  1.00  0.00     0.214 C 
HETATM    5  C   UNL     1      -3.645  -1.164 -33.181  1.00  0.00     0.035 C 
HETATM    6  C   UNL     1      -3.068  -1.008 -31.775  1.00  0.00     0.004 C 
HETATM    7  C   UNL     1      -3.623   0.109 -30.898  1.00  0.00     0.028 C 
HETATM    8  C   UNL     1      -3.910   1.423 -31.608  1.00  0.00     0.235 C 
ENDROOT
BRANCH   1   9
HETATM    9  C   UNL     1      -5.842   2.848 -32.349  1.00  0.00     0.276 C 
BRANCH   9  10
HETATM   10  C   UNL     1      -4.759   3.873 -32.526  1.00  0.00     0.009 A 
HETATM   11  C   UNL     1      -4.383   4.739 -31.493  1.00  0.00     0.136 A 
HETATM   12  N   UNL     1      -3.449   5.702 -31.554  1.00  0.00    -0.216 NA
HETATM   13 CL   UNL     1      -5.225   4.739 -29.985  1.00  0.00    -0.062 Cl
HETATM   14  C   UNL     1      -2.813   5.754 -32.740  1.00  0.00     0.159 A 
HETATM   15  N   UNL     1      -1.776   6.583 -33.097  1.00  0.00    -0.248 N 
HETATM   16  C   UNL     1      -3.071   4.965 -33.852  1.00  0.00     0.031 A 
HETATM   17  N   UNL     1      -1.416   6.442 -34.394  1.00  0.00    -0.182 NA
HETATM   18  C   UNL     1      -2.167   5.429 -34.830  1.00  0.00     0.154 A 
HETATM   19  C   UNL     1      -4.072   3.984 -33.749  1.00  0.00     0.029 A 
BRANCH  15  20
HETATM   20  C   UNL     1      -1.085   7.539 -32.235  1.00  0.00     0.104 C 
HETATM   21  C   UNL     1      -0.233   6.822 -31.190  1.00  0.00     0.034 C 
HETATM   22  C   UNL     1      -2.057   8.524 -31.583  1.00  0.00     0.034 C 
ENDBRANCH  15  20
ENDBRANCH   9  10
ENDBRANCH   1   9
BRANCH   4  23
HETATM   23  N   UNL     1      -5.670  -1.773 -34.481  1.00  0.00    -0.065 N 
HETATM   24  H   UNL     1      -5.611  -1.155 -35.309  1.00  0.00     0.280 HD
HETATM   25  C   UNL     1      -7.122  -2.246 -34.459  1.00  0.00     0.235 C 
HETATM   26  C   UNL     1      -7.016  -3.756 -34.421  1.00  0.00     0.029 C 
HETATM   27  C   UNL     1      -5.809  -4.038 -35.291  1.00  0.00     0.029 C 
HETATM   28  C   UNL     1      -4.808  -2.979 -34.871  1.00  0.00     0.235 C 
ENDBRANCH   4  23
TORSDOF 4
ENDMDL
MODEL 6
REMARK VINA RESULT:      -7.8      2.124      8.627
REMARK  4 active torsions:
REMARK  status: ('A' for Active; 'I' for Inactive)
REMARK    1  A    between atoms: C_2  and  N_3 
REMARK    2  A    between atoms: C_11  and  C_12 
REMARK    3  A    between atoms: C_12  and  N_13 
REMARK    4  A    between atoms: C_16  and  N_17 
ROOT
HETATM    1  N   UNL     1      -2.891   4.217 -32.468  1.00  0.00    -0.065 N 
HETATM    2  H   UNL     1      -3.769   4.764 -32.457  1.00  0.00     0.280 HD
HETATM    3  C   UNL     1      -2.098   4.496 -31.203  1.00  0.00     0.268 C 
HETATM    4  C   UNL     1      -1.693   5.996 -30.989  1.00  0.00     0.214 C 
HETATM    5  C   UNL     1      -0.591   6.429 -31.965  1.00  0.00     0.035 C 
HETATM    6  C   UNL     1      -1.084   6.870 -33.342  1.00  0.00     0.004 C 
HETATM    7  C   UNL     1      -2.232   6.088 -33.971  1.00  0.00     0.028 C 
HETATM    8  C   UNL     1      -2.189   4.580 -33.771  1.00  0.00     0.235 C 
ENDROOT
BRANCH   1   9
HETATM    9  C   UNL     1      -3.380   2.753 -32.525  1.00  0.00     0.276 C 
BRANCH   9  10
HETATM   10  C   UNL     1      -4.824   2.597 -32.906  1.00  0.00     0.009 A 
HETATM   11  C   UNL     1      -5.403   1.341 -33.120  1.00  0.00     0.136 A 
HETATM   12  N   UNL     1      -6.672   1.094 -33.485  1.00  0.00    -0.216 NA
HETATM   13 CL   UNL     1      -4.450  -0.098 -33.054  1.00  0.00    -0.062 Cl
HETATM   14  C   UNL     1      -7.422   2.207 -33.592  1.00  0.00     0.159 A 
HETATM   15  N   UNL     1      -8.762   2.287 -33.891  1.00  0.00    -0.248 N 
HETATM   16  C   UNL     1      -6.994   3.515 -33.410  1.00  0.00     0.031 A 
HETATM   17  N   UNL     1      -9.197   3.563 -34.005  1.00  0.00    -0.182 NA
HETATM   18  C   UNL     1      -8.138   4.298 -33.664  1.00  0.00     0.154 A 
HETATM   19  C   UNL     1      -5.652   3.726 -33.049  1.00  0.00     0.029 A 
BRANCH  15  20
HETATM   20  C   UNL     1      -9.682   1.168 -34.081  1.00  0.00     0.104 C 
HETATM   21  C   UNL     1     -11.036   1.652 -34.595  1.00  0.00     0.034 C 
HETATM   22  C   UNL     1      -9.834   0.332 -32.809  1.00  0.00     0.034 C 
ENDBRANCH  15  20
ENDBRANCH   9  10
ENDBRANCH   1   9
BRANCH   4  23
HETATM   23  N   UNL     1      -1.187   6.264 -29.561  1.00  0.00    -0.065 N 
HETATM   24  H   UNL     1      -1.870   5.817 -28.924  1.00  0.00     0.280 HD
HETATM   25  C   UNL     1      -1.110   7.713 -29.084  1.00  0.00     0.235 C 
HETATM   26  C   UNL     1       0.367   7.942 -28.844  1.00  0.00     0.029 C 
HETATM   27  C   UNL     1       0.838   6.609 -28.302  1.00  0.00     0.029 C 
HETATM   28  C   UNL     1       0.141   5.595 -29.188  1.00  0.00     0.235 C 
ENDBRANCH   4  23
TORSDOF 4
ENDMDL
MODEL 7
REMARK VINA RESULT:      -7.8      2.936      7.930
REMARK  4 active torsions:
REMARK  status: ('A' for Active; 'I' for Inactive)
REMARK    1  A    between atoms: C_2  and  N_3 
REMARK    2  A    between atoms: C_11  and  C_12 
REMARK    3  A    between atoms: C_12  and  N_13 
REMARK    4  A    between atoms: C_16  and  N_17 
ROOT
HETATM    1  N   UNL     1      -5.030   3.249 -31.835  1.00  0.00    -0.065 N 
HETATM    2  H   UNL     1      -5.669   4.014 -31.561  1.00  0.00     0.280 HD
HETATM    3  C   UNL     1      -3.636   3.532 -31.299  1.00  0.00     0.268 C 
HETATM    4  C   UNL     1      -2.987   4.866 -31.804  1.00  0.00     0.214 C 
HETATM    5  C   UNL     1      -2.573   4.771 -33.279  1.00  0.00     0.035 C 
HETATM    6  C   UNL     1      -3.688   5.057 -34.284  1.00  0.00     0.004 C 
HETATM    7  C   UNL     1      -5.082   4.527 -33.969  1.00  0.00     0.028 C 
HETATM    8  C   UNL     1      -5.135   3.138 -33.350  1.00  0.00     0.235 C 
ENDROOT
BRANCH   1   9
HETATM    9  C   UNL     1      -5.655   2.002 -31.171  1.00  0.00     0.276 C 
BRANCH   9  10
HETATM   10  C   UNL     1      -5.501   0.737 -31.965  1.00  0.00     0.009 A 
HETATM   11  C   UNL     1      -4.358  -0.066 -31.866  1.00  0.00     0.136 A 
HETATM   12  N   UNL     1      -4.113  -1.198 -32.546  1.00  0.00    -0.216 NA
HETATM   13 CL   UNL     1      -3.015   0.418 -30.895  1.00  0.00    -0.062 Cl
HETATM   14  C   UNL     1      -5.128  -1.569 -33.351  1.00  0.00     0.159 A 
HETATM   15  N   UNL     1      -5.209  -2.700 -34.128  1.00  0.00    -0.248 N 
HETATM   16  C   UNL     1      -6.317  -0.882 -33.551  1.00  0.00     0.031 A 
HETATM   17  N   UNL     1      -6.329  -2.735 -34.885  1.00  0.00    -0.182 NA
HETATM   18  C   UNL     1      -7.017  -1.661 -34.495  1.00  0.00     0.154 A 
HETATM   19  C   UNL     1      -6.522   0.309 -32.833  1.00  0.00     0.029 A 
BRANCH  15  20
HETATM   20  C   UNL     1      -4.236  -3.788 -34.190  1.00  0.00     0.104 C 
HETATM   21  C   UNL     1      -4.906  -5.103 -34.581  1.00  0.00     0.034 C 
HETATM   22  C   UNL     1      -3.452  -3.928 -32.884  1.00  0.00     0.034 C 
ENDBRANCH  15  20
ENDBRANCH   9  10
ENDBRANCH   1   9
BRANCH   4  23
HETATM   23  N   UNL     1      -1.739   5.251 -30.990  1.00  0.00    -0.065 N 
HETATM   24  H   UNL     1      -1.567   4.466 -30.339  1.00  0.00     0.280 HD
HETATM   25  C   UNL     1      -1.817   6.485 -30.094  1.00  0.00     0.235 C 
HETATM   26  C   UNL     1      -0.800   7.436 -30.688  1.00  0.00     0.029 C 
HETATM   27  C   UNL     1       0.309   6.511 -31.145  1.00  0.00     0.029 C 
HETATM   28  C   UNL     1      -0.431   5.352 -31.784  1.00  0.00     0.235 C 
ENDBRANCH   4  23
TORSDOF 4
ENDMDL
MODEL 8
REMARK VINA RESULT:      -7.8      3.613      7.927
REMARK  4 active torsions:
REMARK  status: ('A' for Active; 'I' for Inactive)
REMARK    1  A    between atoms: C_2  and  N_3 
REMARK    2  A    between atoms: C_11  and  C_12 
REMARK    3  A    between atoms: C_12  and  N_13 
REMARK    4  A    between atoms: C_16  and  N_17 
ROOT
HETATM    1  N   UNL     1      -6.806   0.799 -33.367  1.00  0.00    -0.065 N 
HETATM    2  H   UNL     1      -7.573   0.313 -32.873  1.00  0.00     0.280 HD
HETATM    3  C   UNL     1      -6.005  -0.202 -34.181  1.00  0.00     0.268 C 
HETATM    4  C   UNL     1      -5.346  -1.359 -33.353  1.00  0.00     0.214 C 
HETATM    5  C   UNL     1      -4.163  -0.852 -32.516  1.00  0.00     0.035 C 
HETATM    6  C   UNL     1      -4.538  -0.243 -31.168  1.00  0.00     0.004 C 
HETATM    7  C   UNL     1      -5.792   0.622 -31.101  1.00  0.00     0.028 C 
HETATM    8  C   UNL     1      -6.021   1.541 -32.292  1.00  0.00     0.235 C 
ENDROOT
BRANCH   1   9
HETATM    9  C   UNL     1      -7.545   1.810 -34.271  1.00  0.00     0.276 C 
BRANCH   9  10
HETATM   10  C   UNL     1      -8.981   2.041 -33.897  1.00  0.00     0.009 A 
HETATM   11  C   UNL     1      -9.414   3.241 -33.322  1.00  0.00     0.136 A 
HETATM   12  N   UNL     1     -10.664   3.537 -32.932  1.00  0.00    -0.216 NA
HETATM   13 CL   UNL     1      -8.289   4.487 -32.917  1.00  0.00    -0.062 Cl
HETATM   14  C   UNL     1     -11.552   2.558 -33.191  1.00  0.00     0.159 A 
HETATM   15  N   UNL     1     -12.908   2.577 -32.967  1.00  0.00    -0.248 N 
HETATM   16  C   UNL     1     -11.276   1.321 -33.756  1.00  0.00     0.031 A 
HETATM   17  N   UNL     1     -13.503   1.399 -33.262  1.00  0.00    -0.182 NA
HETATM   18  C   UNL     1     -12.522   0.662 -33.785  1.00  0.00     0.154 A 
HETATM   19  C   UNL     1      -9.949   1.046 -34.131  1.00  0.00     0.029 A 
BRANCH  15  20
HETATM   20  C   UNL     1     -13.694   3.702 -32.465  1.00  0.00     0.104 C 
HETATM   21  C   UNL     1     -13.517   4.934 -33.348  1.00  0.00     0.034 C 
HETATM   22  C   UNL     1     -13.376   4.012 -31.002  1.00  0.00     0.034 C 
ENDBRANCH  15  20
ENDBRANCH   9  10
ENDBRANCH   1   9
BRANCH   4  23
HETATM   23  N   UNL     1      -4.834  -2.499 -34.250  1.00  0.00    -0.065 N 
HETATM   24  H   UNL     1      -4.164  -2.068 -34.910  1.00  0.00     0.280 HD
HETATM   25  C   UNL     1      -5.841  -3.221 -35.142  1.00  0.00     0.235 C 
HETATM   26  C   UNL     1      -5.842  -4.642 -34.620  1.00  0.00     0.029 C 
HETATM   27  C   UNL     1      -4.394  -4.868 -34.236  1.00  0.00     0.029 C 
HETATM   28  C   UNL     1      -4.001  -3.576 -33.546  1.00  0.00     0.235 C 
ENDBRANCH   4  23
TORSDOF 4
ENDMDL
MODEL 9
REMARK VINA RESULT:      -7.7      2.372      3.167
REMARK  4 active torsions:
REMARK  status: ('A' for Active; 'I' for Inactive)
REMARK    1  A    between atoms: C_2  and  N_3 
REMARK    2  A    between atoms: C_11  and  C_12 
REMARK    3  A    between atoms: C_12  and  N_13 
REMARK    4  A    between atoms: C_16  and  N_17 
ROOT
HETATM    1  N   UNL     1      -7.730   3.199 -33.369  1.00  0.00    -0.065 N 
HETATM    2  H   UNL     1      -7.538   3.279 -32.357  1.00  0.00     0.280 HD
HETATM    3  C   UNL     1      -9.222   3.022 -33.595  1.00  0.00     0.268 C 
HETATM    4  C   UNL     1      -9.853   1.759 -32.914  1.00  0.00     0.214 C 
HETATM    5  C   UNL     1      -9.432   0.464 -33.623  1.00  0.00     0.035 C 
HETATM    6  C   UNL     1      -8.083  -0.104 -33.185  1.00  0.00     0.004 C 
HETATM    7  C   UNL     1      -6.951   0.880 -32.912  1.00  0.00     0.028 C 
HETATM    8  C   UNL     1      -6.856   2.057 -33.872  1.00  0.00     0.235 C 
ENDROOT
BRANCH   1   9
HETATM    9  C   UNL     1      -7.221   4.541 -33.939  1.00  0.00     0.276 C 
BRANCH   9  10
HETATM   10  C   UNL     1      -5.807   4.877 -33.563  1.00  0.00     0.009 A 
HETATM   11  C   UNL     1      -5.451   5.228 -32.255  1.00  0.00     0.136 A 
HETATM   12  N   UNL     1      -4.226   5.567 -31.821  1.00  0.00    -0.216 NA
HETATM   13 CL   UNL     1      -6.650   5.392 -31.024  1.00  0.00    -0.062 Cl
HETATM   14  C   UNL     1      -3.282   5.495 -32.779  1.00  0.00     0.159 A 
HETATM   15  N   UNL     1      -1.933   5.722 -32.641  1.00  0.00    -0.248 N 
HETATM   16  C   UNL     1      -3.479   5.162 -34.111  1.00  0.00     0.031 A 
HETATM   17  N   UNL     1      -1.268   5.649 -33.817  1.00  0.00    -0.182 NA
HETATM   18  C   UNL     1      -2.197   5.262 -34.691  1.00  0.00     0.154 A 
HETATM   19  C   UNL     1      -4.781   4.834 -34.525  1.00  0.00     0.029 A 
BRANCH  15  20
HETATM   20  C   UNL     1      -1.219   6.016 -31.401  1.00  0.00     0.104 C 
HETATM   21  C   UNL     1      -1.112   7.522 -31.173  1.00  0.00     0.034 C 
HETATM   22  C   UNL     1       0.156   5.346 -31.361  1.00  0.00     0.034 C 
ENDBRANCH  15  20
ENDBRANCH   9  10
ENDBRANCH   1   9
BRANCH   4  23
HETATM   23  N   UNL     1     -11.391   1.810 -32.904  1.00  0.00    -0.065 N 
HETATM   24  H   UNL     1     -11.678   1.648 -31.923  1.00  0.00     0.280 HD
HETATM   25  C   UNL     1     -12.152   0.755 -33.706  1.00  0.00     0.235 C 
HETATM   26  C   UNL     1     -12.881   1.555 -34.765  1.00  0.00     0.029 C 
HETATM   27  C   UNL     1     -13.260   2.827 -34.035  1.00  0.00     0.029 C 
HETATM   28  C   UNL     1     -12.014   3.169 -33.241  1.00  0.00     0.235 C 
ENDBRANCH   4  23
TORSDOF 4
ENDMDL
MODEL 10
REMARK VINA RESULT:      -7.6      2.778      9.090
REMARK  4 active torsions:
REMARK  status: ('A' for Active; 'I' for Inactive)
REMARK    1  A    between atoms: C_2  and  N_3 
REMARK    2  A    between atoms: C_11  and  C_12 
REMARK    3  A    between atoms: C_12  and  N_13 
REMARK    4  A    between atoms: C_16  and  N_17 
ROOT
HETATM    1  N   UNL     1      -2.823   6.201 -31.197  1.00  0.00    -0.065 N 
HETATM    2  H   UNL     1      -2.620   7.023 -31.790  1.00  0.00     0.280 HD
HETATM    3  C   UNL     1      -2.379   6.476 -29.771  1.00  0.00     0.268 C 
HETATM    4  C   UNL     1      -0.853   6.791 -29.597  1.00  0.00     0.214 C 
HETATM    5  C   UNL     1       0.009   5.536 -29.793  1.00  0.00     0.035 C 
HETATM    6  C   UNL     1       0.350   5.205 -31.244  1.00  0.00     0.004 C 
HETATM    7  C   UNL     1      -0.734   5.412 -32.295  1.00  0.00     0.028 C 
HETATM    8  C   UNL     1      -2.143   5.019 -31.875  1.00  0.00     0.235 C 
ENDROOT
BRANCH   1   9
HETATM    9  C   UNL     1      -4.358   6.054 -31.300  1.00  0.00     0.276 C 
BRANCH   9  10
HETATM   10  C   UNL     1      -4.829   4.652 -31.558  1.00  0.00     0.009 A 
HETATM   11  C   UNL     1      -5.043   4.169 -32.855  1.00  0.00     0.136 A 
HETATM   12  N   UNL     1      -5.484   2.947 -33.192  1.00  0.00    -0.216 NA
HETATM   13 CL   UNL     1      -4.873   5.205 -34.226  1.00  0.00    -0.062 Cl
HETATM   14  C   UNL     1      -5.673   2.136 -32.133  1.00  0.00     0.159 A 
HETATM   15  N   UNL     1      -6.061   0.817 -32.148  1.00  0.00    -0.248 N 
HETATM   16  C   UNL     1      -5.501   2.468 -30.796  1.00  0.00     0.031 A 
HETATM   17  N   UNL     1      -6.241   0.311 -30.907  1.00  0.00    -0.182 NA
HETATM   18  C   UNL     1      -5.853   1.297 -30.096  1.00  0.00     0.154 A 
HETATM   19  C   UNL     1      -5.058   3.766 -30.489  1.00  0.00     0.029 A 
BRANCH  15  20
HETATM   20  C   UNL     1      -6.278  -0.016 -33.328  1.00  0.00     0.104 C 
HETATM   21  C   UNL     1      -7.740  -0.444 -33.438  1.00  0.00     0.034 C 
HETATM   22  C   UNL     1      -5.339  -1.222 -33.356  1.00  0.00     0.034 C 
ENDBRANCH  15  20
ENDBRANCH   9  10
ENDBRANCH   1   9
BRANCH   4  23
HETATM   23  N   UNL     1      -0.532   7.371 -28.209  1.00  0.00    -0.065 N 
HETATM   24  H   UNL     1      -1.434   7.434 -27.707  1.00  0.00     0.280 HD
HETATM   25  C   UNL     1       0.049   8.781 -28.134  1.00  0.00     0.235 C 
HETATM   26  C   UNL     1       1.427   8.580 -27.540  1.00  0.00     0.029 C 
HETATM   27  C   UNL     1       1.213   7.455 -26.549  1.00  0.00     0.029 C 
HETATM   28  C   UNL     1       0.323   6.482 -27.298  1.00  0.00     0.235 C 
ENDBRANCH   4  23
TORSDOF 4
ENDMDL
