MODEL 1
REMARK VINA RESULT:      -9.0      0.000      0.000
REMARK  7 active torsions:
REMARK  status: ('A' for Active; 'I' for Inactive)
REMARK    1  A    between atoms: O_2  and  C_3 
REMARK    2  A    between atoms: C_6  and  C_7 
REMARK    3  A    between atoms: C_11  and  C_12 
REMARK       I    between atoms: C_12  and  N_13 
REMARK    4  A    between atoms: N_13  and  N_14 
REMARK       I    between atoms: N_14  and  C_15 
REMARK    5  A    between atoms: C_15  and  C_16 
REMARK    6  A    between atoms: C_16  and  C_17 
REMARK    7  A    between atoms: C_17  and  C_18 
ROOT
HETATM    1  C   UNL     1      -4.073   4.104 -31.507  1.00  0.00     0.288 C 
HETATM    2  N   UNL     1      -2.730   4.015 -31.216  1.00  0.00    -0.262 N 
HETATM    3  O   UNL     1      -4.701   5.152 -31.366  1.00  0.00    -0.264 OA
HETATM    4  H   UNL     1      -2.183   3.162 -31.300  1.00  0.00     0.190 HD
ENDROOT
BRANCH   1   5
HETATM    5  C   UNL     1      -4.680   2.898 -31.996  1.00  0.00     0.121 A 
HETATM    6  N   UNL     1      -6.026   2.803 -32.213  1.00  0.00    -0.272 N 
HETATM    7  N   UNL     1      -6.421   1.628 -32.723  1.00  0.00    -0.174 NA
HETATM    8  H   UNL     1      -6.722   3.523 -32.044  1.00  0.00     0.189 HD
HETATM    9  C   UNL     1      -5.293   0.908 -32.832  1.00  0.00     0.089 A 
HETATM   10  C   UNL     1      -4.179   1.667 -32.371  1.00  0.00     0.071 A 
BRANCH   9  11
HETATM   11  C   UNL     1      -5.291  -0.445 -33.394  1.00  0.00    -0.005 A 
HETATM   12  C   UNL     1      -4.135  -1.238 -33.328  1.00  0.00     0.016 A 
HETATM   13  C   UNL     1      -4.132  -2.551 -33.813  1.00  0.00     0.037 A 
HETATM   14  C   UNL     1      -5.286  -3.092 -34.377  1.00  0.00     0.068 A 
HETATM   15  C   UNL     1      -6.432  -2.300 -34.473  1.00  0.00     0.037 A 
HETATM   16  C   UNL     1      -6.439  -0.989 -33.983  1.00  0.00     0.016 A 
BRANCH  14  17
HETATM   17  O   UNL     1      -5.421  -4.359 -34.874  1.00  0.00    -0.356 OA
HETATM   18  C   UNL     1      -6.637  -4.651 -35.552  1.00  0.00     0.210 C 
ENDBRANCH  14  17
ENDBRANCH   9  11
ENDBRANCH   1   5
BRANCH   2  19
HETATM   19  N   UNL     1      -2.050   5.152 -30.773  1.00  0.00    -0.267 N 
HETATM   20  C   UNL     1      -1.268   5.830 -31.682  1.00  0.00     0.236 C 
HETATM   21  O   UNL     1      -1.109   5.439 -32.837  1.00  0.00    -0.272 OA
HETATM   22  H   UNL     1      -2.276   5.493 -29.841  1.00  0.00     0.190 HD
BRANCH  20  23
HETATM   23  C   UNL     1      -0.642   7.101 -31.156  1.00  0.00     0.109 C 
BRANCH  23  24
HETATM   24  C   UNL     1       0.645   6.816 -30.385  1.00  0.00     0.048 C 
BRANCH  24  25
HETATM   25  C   UNL     1       0.616   7.151 -28.909  1.00  0.00    -0.056 A 
HETATM   26  C   UNL     1      -0.059   6.282 -28.033  1.00  0.00     0.031 A 
HETATM   27  C   UNL     1      -0.078   6.529 -26.660  1.00  0.00     0.034 A 
HETATM   28 CL   UNL     1      -0.913   5.450 -25.610  1.00  0.00    -0.084 Cl
HETATM   29  C   UNL     1       0.579   7.635 -26.132  1.00  0.00     0.024 A 
HETATM   30  C   UNL     1       1.263   8.497 -26.985  1.00  0.00     0.002 A 
HETATM   31  C   UNL     1       1.288   8.253 -28.362  1.00  0.00     0.007 A 
ENDBRANCH  24  25
ENDBRANCH  23  24
ENDBRANCH  20  23
ENDBRANCH   2  19
TORSDOF 7
ENDMDL
MODEL 2
REMARK VINA RESULT:      -8.4      3.452     11.405
REMARK  7 active torsions:
REMARK  status: ('A' for Active; 'I' for Inactive)
REMARK    1  A    between atoms: O_2  and  C_3 
REMARK    2  A    between atoms: C_6  and  C_7 
REMARK    3  A    between atoms: C_11  and  C_12 
REMARK       I    between atoms: C_12  and  N_13 
REMARK    4  A    between atoms: N_13  and  N_14 
REMARK       I    between atoms: N_14  and  C_15 
REMARK    5  A    between atoms: C_15  and  C_16 
REMARK    6  A    between atoms: C_16  and  C_17 
REMARK    7  A    between atoms: C_17  and  C_18 
ROOT
HETATM    1  C   UNL     1      -1.640   5.035 -31.407  1.00  0.00     0.288 C 
HETATM    2  N   UNL     1      -2.820   4.410 -31.069  1.00  0.00    -0.262 N 
HETATM    3  O   UNL     1      -0.982   4.694 -32.389  1.00  0.00    -0.264 OA
HETATM    4  H   UNL     1      -3.380   4.650 -30.254  1.00  0.00     0.190 HD
ENDROOT
BRANCH   1   5
HETATM    5  C   UNL     1      -1.244   6.113 -30.546  1.00  0.00     0.121 A 
HETATM    6  N   UNL     1      -1.844   7.340 -30.603  1.00  0.00    -0.272 N 
HETATM    7  N   UNL     1      -1.394   8.216 -29.693  1.00  0.00    -0.174 NA
HETATM    8  H   UNL     1      -2.583   7.628 -31.237  1.00  0.00     0.189 HD
HETATM    9  C   UNL     1      -0.445   7.549 -29.018  1.00  0.00     0.089 A 
HETATM   10  C   UNL     1      -0.311   6.228 -29.534  1.00  0.00     0.071 A 
BRANCH   9  11
HETATM   11  C   UNL     1       0.276   8.154 -27.895  1.00  0.00    -0.005 A 
HETATM   12  C   UNL     1      -0.058   9.442 -27.451  1.00  0.00     0.016 A 
HETATM   13  C   UNL     1       0.586  10.015 -26.347  1.00  0.00     0.037 A 
HETATM   14  C   UNL     1       1.580   9.308 -25.672  1.00  0.00     0.068 A 
HETATM   15  C   UNL     1       1.938   8.037 -26.126  1.00  0.00     0.037 A 
HETATM   16  C   UNL     1       1.291   7.461 -27.225  1.00  0.00     0.016 A 
BRANCH  14  17
HETATM   17  O   UNL     1       2.274   9.743 -24.578  1.00  0.00    -0.356 OA
HETATM   18  C   UNL     1       3.312   8.895 -24.103  1.00  0.00     0.210 C 
ENDBRANCH  14  17
ENDBRANCH   9  11
ENDBRANCH   1   5
BRANCH   2  19
HETATM   19  N   UNL     1      -3.302   3.376 -31.875  1.00  0.00    -0.267 N 
HETATM   20  C   UNL     1      -4.412   2.686 -31.442  1.00  0.00     0.236 C 
HETATM   21  O   UNL     1      -4.948   2.911 -30.359  1.00  0.00    -0.272 OA
HETATM   22  H   UNL     1      -2.888   3.280 -32.800  1.00  0.00     0.190 HD
BRANCH  20  23
HETATM   23  C   UNL     1      -4.931   1.649 -32.411  1.00  0.00     0.109 C 
BRANCH  23  24
HETATM   24  C   UNL     1      -4.134   0.349 -32.323  1.00  0.00     0.048 C 
BRANCH  24  25
HETATM   25  C   UNL     1      -4.629  -0.787 -33.193  1.00  0.00    -0.056 A 
HETATM   26  C   UNL     1      -3.937  -2.010 -33.164  1.00  0.00     0.031 A 
HETATM   27  C   UNL     1      -4.380  -3.098 -33.918  1.00  0.00     0.034 A 
HETATM   28 CL   UNL     1      -3.513  -4.584 -33.866  1.00  0.00    -0.084 Cl
HETATM   29  C   UNL     1      -5.522  -2.992 -34.706  1.00  0.00     0.024 A 
HETATM   30  C   UNL     1      -6.226  -1.791 -34.734  1.00  0.00     0.002 A 
HETATM   31  C   UNL     1      -5.788  -0.699 -33.978  1.00  0.00     0.007 A 
ENDBRANCH  24  25
ENDBRANCH  23  24
ENDBRANCH  20  23
ENDBRANCH   2  19
TORSDOF 7
ENDMDL
MODEL 3
REMARK VINA RESULT:      -8.2      1.597      2.163
REMARK  7 active torsions:
REMARK  status: ('A' for Active; 'I' for Inactive)
REMARK    1  A    between atoms: O_2  and  C_3 
REMARK    2  A    between atoms: C_6  and  C_7 
REMARK    3  A    between atoms: C_11  and  C_12 
REMARK       I    between atoms: C_12  and  N_13 
REMARK    4  A    between atoms: N_13  and  N_14 
REMARK       I    between atoms: N_14  and  C_15 
REMARK    5  A    between atoms: C_15  and  C_16 
REMARK    6  A    between atoms: C_16  and  C_17 
REMARK    7  A    between atoms: C_17  and  C_18 
ROOT
HETATM    1  C   UNL     1      -2.951   4.023 -31.551  1.00  0.00     0.288 C 
HETATM    2  N   UNL     1      -3.576   4.913 -30.706  1.00  0.00    -0.262 N 
HETATM    3  O   UNL     1      -1.778   4.166 -31.893  1.00  0.00    -0.264 OA
HETATM    4  H   UNL     1      -4.548   4.841 -30.417  1.00  0.00     0.190 HD
ENDROOT
BRANCH   1   5
HETATM    5  C   UNL     1      -3.757   2.919 -31.988  1.00  0.00     0.121 A 
HETATM    6  N   UNL     1      -5.103   3.044 -32.195  1.00  0.00    -0.272 N 
HETATM    7  N   UNL     1      -5.695   1.933 -32.656  1.00  0.00    -0.174 NA
HETATM    8  H   UNL     1      -5.666   3.877 -32.052  1.00  0.00     0.189 HD
HETATM    9  C   UNL     1      -4.706   1.030 -32.741  1.00  0.00     0.089 A 
HETATM   10  C   UNL     1      -3.475   1.607 -32.316  1.00  0.00     0.071 A 
BRANCH   9  11
HETATM   11  C   UNL     1      -4.937  -0.325 -33.248  1.00  0.00    -0.005 A 
HETATM   12  C   UNL     1      -6.145  -0.647 -33.884  1.00  0.00     0.016 A 
HETATM   13  C   UNL     1      -6.362  -1.923 -34.418  1.00  0.00     0.037 A 
HETATM   14  C   UNL     1      -5.374  -2.900 -34.322  1.00  0.00     0.068 A 
HETATM   15  C   UNL     1      -4.179  -2.596 -33.665  1.00  0.00     0.037 A 
HETATM   16  C   UNL     1      -3.958  -1.320 -33.134  1.00  0.00     0.016 A 
BRANCH  14  17
HETATM   17  O   UNL     1      -5.451  -4.174 -34.811  1.00  0.00    -0.356 OA
HETATM   18  C   UNL     1      -6.668  -4.539 -35.450  1.00  0.00     0.210 C 
ENDBRANCH  14  17
ENDBRANCH   9  11
ENDBRANCH   1   5
BRANCH   2  19
HETATM   19  N   UNL     1      -2.854   5.997 -30.199  1.00  0.00    -0.267 N 
HETATM   20  C   UNL     1      -3.562   7.083 -29.736  1.00  0.00     0.236 C 
HETATM   21  O   UNL     1      -4.788   7.151 -29.807  1.00  0.00    -0.272 OA
HETATM   22  H   UNL     1      -1.852   5.867 -30.075  1.00  0.00     0.190 HD
BRANCH  20  23
HETATM   23  C   UNL     1      -2.719   8.173 -29.115  1.00  0.00     0.109 C 
BRANCH  23  24
HETATM   24  C   UNL     1      -1.228   7.912 -29.317  1.00  0.00     0.048 C 
BRANCH  24  25
HETATM   25  C   UNL     1      -0.331   8.298 -28.159  1.00  0.00    -0.056 A 
HETATM   26  C   UNL     1      -0.926   8.695 -26.948  1.00  0.00     0.031 A 
HETATM   27  C   UNL     1      -0.140   9.020 -25.842  1.00  0.00     0.034 A 
HETATM   28 CL   UNL     1      -0.893   9.504 -24.372  1.00  0.00    -0.084 Cl
HETATM   29  C   UNL     1       1.248   8.947 -25.915  1.00  0.00     0.024 A 
HETATM   30  C   UNL     1       1.851   8.543 -27.104  1.00  0.00     0.002 A 
HETATM   31  C   UNL     1       1.068   8.213 -28.215  1.00  0.00     0.007 A 
ENDBRANCH  24  25
ENDBRANCH  23  24
ENDBRANCH  20  23
ENDBRANCH   2  19
TORSDOF 7
ENDMDL
MODEL 4
REMARK VINA RESULT:      -8.2      1.622      2.372
REMARK  7 active torsions:
REMARK  status: ('A' for Active; 'I' for Inactive)
REMARK    1  A    between atoms: O_2  and  C_3 
REMARK    2  A    between atoms: C_6  and  C_7 
REMARK    3  A    between atoms: C_11  and  C_12 
REMARK       I    between atoms: C_12  and  N_13 
REMARK    4  A    between atoms: N_13  and  N_14 
REMARK       I    between atoms: N_14  and  C_15 
REMARK    5  A    between atoms: C_15  and  C_16 
REMARK    6  A    between atoms: C_16  and  C_17 
REMARK    7  A    between atoms: C_17  and  C_18 
ROOT
HETATM    1  C   UNL     1      -5.492   4.174 -32.146  1.00  0.00     0.288 C 
HETATM    2  N   UNL     1      -4.143   4.453 -32.134  1.00  0.00    -0.262 N 
HETATM    3  O   UNL     1      -6.322   4.956 -31.685  1.00  0.00    -0.264 OA
HETATM    4  H   UNL     1      -3.426   3.823 -32.485  1.00  0.00     0.190 HD
ENDROOT
BRANCH   1   5
HETATM    5  C   UNL     1      -5.856   2.919 -32.742  1.00  0.00     0.121 A 
HETATM    6  N   UNL     1      -6.873   2.821 -33.651  1.00  0.00    -0.272 N 
HETATM    7  N   UNL     1      -7.046   1.590 -34.152  1.00  0.00    -0.174 NA
HETATM    8  H   UNL     1      -7.471   3.573 -33.979  1.00  0.00     0.189 HD
HETATM    9  C   UNL     1      -6.119   0.838 -33.537  1.00  0.00     0.089 A 
HETATM   10  C   UNL     1      -5.362   1.635 -32.632  1.00  0.00     0.071 A 
BRANCH   9  11
HETATM   11  C   UNL     1      -5.952  -0.586 -33.841  1.00  0.00    -0.005 A 
HETATM   12  C   UNL     1      -6.997  -1.312 -34.431  1.00  0.00     0.016 A 
HETATM   13  C   UNL     1      -6.836  -2.659 -34.775  1.00  0.00     0.037 A 
HETATM   14  C   UNL     1      -5.625  -3.304 -34.529  1.00  0.00     0.068 A 
HETATM   15  C   UNL     1      -4.589  -2.596 -33.915  1.00  0.00     0.037 A 
HETATM   16  C   UNL     1      -4.747  -1.248 -33.576  1.00  0.00     0.016 A 
BRANCH  14  17
HETATM   17  O   UNL     1      -5.332  -4.607 -34.826  1.00  0.00    -0.356 OA
HETATM   18  C   UNL     1      -4.200  -5.170 -34.176  1.00  0.00     0.210 C 
ENDBRANCH  14  17
ENDBRANCH   9  11
ENDBRANCH   1   5
BRANCH   2  19
HETATM   19  N   UNL     1      -3.702   5.670 -31.609  1.00  0.00    -0.267 N 
HETATM   20  C   UNL     1      -3.325   6.655 -32.495  1.00  0.00     0.236 C 
HETATM   21  O   UNL     1      -3.312   6.479 -33.711  1.00  0.00    -0.272 OA
HETATM   22  H   UNL     1      -3.811   5.808 -30.606  1.00  0.00     0.190 HD
BRANCH  20  23
HETATM   23  C   UNL     1      -2.952   7.973 -31.857  1.00  0.00     0.109 C 
BRANCH  23  24
HETATM   24  C   UNL     1      -1.439   8.178 -31.833  1.00  0.00     0.048 C 
BRANCH  24  25
HETATM   25  C   UNL     1      -0.653   7.181 -31.007  1.00  0.00    -0.056 A 
HETATM   26  C   UNL     1      -0.773   7.223 -29.607  1.00  0.00     0.031 A 
HETATM   27  C   UNL     1      -0.099   6.299 -28.806  1.00  0.00     0.034 A 
HETATM   28 CL   UNL     1      -0.261   6.373 -27.094  1.00  0.00    -0.084 Cl
HETATM   29  C   UNL     1       0.695   5.312 -29.383  1.00  0.00     0.024 A 
HETATM   30  C   UNL     1       0.812   5.250 -30.769  1.00  0.00     0.002 A 
HETATM   31  C   UNL     1       0.137   6.172 -31.576  1.00  0.00     0.007 A 
ENDBRANCH  24  25
ENDBRANCH  23  24
ENDBRANCH  20  23
ENDBRANCH   2  19
TORSDOF 7
ENDMDL
MODEL 5
REMARK VINA RESULT:      -8.1      3.090      3.831
REMARK  7 active torsions:
REMARK  status: ('A' for Active; 'I' for Inactive)
REMARK    1  A    between atoms: O_2  and  C_3 
REMARK    2  A    between atoms: C_6  and  C_7 
REMARK    3  A    between atoms: C_11  and  C_12 
REMARK       I    between atoms: C_12  and  N_13 
REMARK    4  A    between atoms: N_13  and  N_14 
REMARK       I    between atoms: N_14  and  C_15 
REMARK    5  A    between atoms: C_15  and  C_16 
REMARK    6  A    between atoms: C_16  and  C_17 
REMARK    7  A    between atoms: C_17  and  C_18 
ROOT
HETATM    1  C   UNL     1      -3.532   3.076 -31.646  1.00  0.00     0.288 C 
HETATM    2  N   UNL     1      -3.065   4.370 -31.586  1.00  0.00    -0.262 N 
HETATM    3  O   UNL     1      -2.874   2.127 -31.223  1.00  0.00    -0.264 OA
HETATM    4  H   UNL     1      -3.570   5.177 -31.944  1.00  0.00     0.190 HD
ENDROOT
BRANCH   1   5
HETATM    5  C   UNL     1      -4.838   2.918 -32.220  1.00  0.00     0.121 A 
HETATM    6  N   UNL     1      -5.199   3.548 -33.379  1.00  0.00    -0.272 N 
HETATM    7  N   UNL     1      -6.433   3.249 -33.808  1.00  0.00    -0.174 NA
HETATM    8  H   UNL     1      -4.629   4.184 -33.929  1.00  0.00     0.189 HD
HETATM    9  C   UNL     1      -6.917   2.400 -32.887  1.00  0.00     0.089 A 
HETATM   10  C   UNL     1      -5.950   2.179 -31.865  1.00  0.00     0.071 A 
BRANCH   9  11
HETATM   11  C   UNL     1      -8.248   1.801 -33.011  1.00  0.00    -0.005 A 
HETATM   12  C   UNL     1      -9.256   2.455 -33.735  1.00  0.00     0.016 A 
HETATM   13  C   UNL     1     -10.517   1.873 -33.907  1.00  0.00     0.037 A 
HETATM   14  C   UNL     1     -10.792   0.625 -33.353  1.00  0.00     0.068 A 
HETATM   15  C   UNL     1      -9.805  -0.022 -32.607  1.00  0.00     0.037 A 
HETATM   16  C   UNL     1      -8.541   0.557 -32.438  1.00  0.00     0.016 A 
BRANCH  14  17
HETATM   17  O   UNL     1     -11.972  -0.059 -33.457  1.00  0.00    -0.356 OA
HETATM   18  C   UNL     1     -13.144   0.719 -33.667  1.00  0.00     0.210 C 
ENDBRANCH  14  17
ENDBRANCH   9  11
ENDBRANCH   1   5
BRANCH   2  19
HETATM   19  N   UNL     1      -1.819   4.621 -31.006  1.00  0.00    -0.267 N 
HETATM   20  C   UNL     1      -0.820   5.119 -31.813  1.00  0.00     0.236 C 
HETATM   21  O   UNL     1      -0.973   5.292 -33.021  1.00  0.00    -0.272 OA
HETATM   22  H   UNL     1      -1.758   4.550 -29.992  1.00  0.00     0.190 HD
BRANCH  20  23
HETATM   23  C   UNL     1       0.466   5.455 -31.096  1.00  0.00     0.109 C 
BRANCH  23  24
HETATM   24  C   UNL     1       0.447   6.881 -30.548  1.00  0.00     0.048 C 
BRANCH  24  25
HETATM   25  C   UNL     1       0.484   7.006 -29.039  1.00  0.00    -0.056 A 
HETATM   26  C   UNL     1       0.985   8.191 -28.472  1.00  0.00     0.031 A 
HETATM   27  C   UNL     1       1.000   8.368 -27.088  1.00  0.00     0.034 A 
HETATM   28 CL   UNL     1       1.620   9.828 -26.420  1.00  0.00    -0.084 Cl
HETATM   29  C   UNL     1       0.512   7.375 -26.244  1.00  0.00     0.024 A 
HETATM   30  C   UNL     1       0.001   6.201 -26.791  1.00  0.00     0.002 A 
HETATM   31  C   UNL     1      -0.020   6.021 -28.178  1.00  0.00     0.007 A 
ENDBRANCH  24  25
ENDBRANCH  23  24
ENDBRANCH  20  23
ENDBRANCH   2  19
TORSDOF 7
ENDMDL
MODEL 6
REMARK VINA RESULT:      -8.0      7.724     10.641
REMARK  7 active torsions:
REMARK  status: ('A' for Active; 'I' for Inactive)
REMARK    1  A    between atoms: O_2  and  C_3 
REMARK    2  A    between atoms: C_6  and  C_7 
REMARK    3  A    between atoms: C_11  and  C_12 
REMARK       I    between atoms: C_12  and  N_13 
REMARK    4  A    between atoms: N_13  and  N_14 
REMARK       I    between atoms: N_14  and  C_15 
REMARK    5  A    between atoms: C_15  and  C_16 
REMARK    6  A    between atoms: C_16  and  C_17 
REMARK    7  A    between atoms: C_17  and  C_18 
ROOT
HETATM    1  C   UNL     1     -10.627   1.514 -33.145  1.00  0.00     0.288 C 
HETATM    2  N   UNL     1     -11.845   1.015 -33.553  1.00  0.00    -0.262 N 
HETATM    3  O   UNL     1     -10.541   2.445 -32.345  1.00  0.00    -0.264 OA
HETATM    4  H   UNL     1     -11.956   0.262 -34.227  1.00  0.00     0.190 HD
ENDROOT
BRANCH   1   5
HETATM    5  C   UNL     1      -9.476   0.865 -33.705  1.00  0.00     0.121 A 
HETATM    6  N   UNL     1      -8.858   1.335 -34.831  1.00  0.00    -0.272 N 
HETATM    7  N   UNL     1      -7.765   0.646 -35.188  1.00  0.00    -0.174 NA
HETATM    8  H   UNL     1      -9.135   2.138 -35.386  1.00  0.00     0.189 HD
HETATM    9  C   UNL     1      -7.664  -0.331 -34.272  1.00  0.00     0.089 A 
HETATM   10  C   UNL     1      -8.730  -0.236 -33.332  1.00  0.00     0.071 A 
BRANCH   9  11
HETATM   11  C   UNL     1      -6.560  -1.295 -34.288  1.00  0.00    -0.005 A 
HETATM   12  C   UNL     1      -5.313  -0.952 -33.747  1.00  0.00     0.016 A 
HETATM   13  C   UNL     1      -4.263  -1.877 -33.708  1.00  0.00     0.037 A 
HETATM   14  C   UNL     1      -4.445  -3.163 -34.215  1.00  0.00     0.068 A 
HETATM   15  C   UNL     1      -5.675  -3.503 -34.781  1.00  0.00     0.037 A 
HETATM   16  C   UNL     1      -6.727  -2.581 -34.816  1.00  0.00     0.016 A 
BRANCH  14  17
HETATM   17  O   UNL     1      -3.511  -4.162 -34.226  1.00  0.00    -0.356 OA
HETATM   18  C   UNL     1      -3.642  -5.167 -33.228  1.00  0.00     0.210 C 
ENDBRANCH  14  17
ENDBRANCH   9  11
ENDBRANCH   1   5
BRANCH   2  19
HETATM   19  N   UNL     1     -13.018   1.560 -33.027  1.00  0.00    -0.267 N 
HETATM   20  C   UNL     1     -14.187   1.375 -33.731  1.00  0.00     0.236 C 
HETATM   21  O   UNL     1     -14.218   0.804 -34.820  1.00  0.00    -0.272 OA
HETATM   22  H   UNL     1     -12.968   1.947 -32.086  1.00  0.00     0.190 HD
BRANCH  20  23
HETATM   23  C   UNL     1     -15.427   1.909 -33.054  1.00  0.00     0.109 C 
BRANCH  23  24
HETATM   24  C   UNL     1     -15.105   2.516 -31.690  1.00  0.00     0.048 C 
BRANCH  24  25
HETATM   25  C   UNL     1     -15.196   4.026 -31.604  1.00  0.00    -0.056 A 
HETATM   26  C   UNL     1     -14.069   4.745 -31.168  1.00  0.00     0.031 A 
HETATM   27  C   UNL     1     -14.093   6.139 -31.112  1.00  0.00     0.034 A 
HETATM   28 CL   UNL     1     -12.701   6.996 -30.574  1.00  0.00    -0.084 Cl
HETATM   29  C   UNL     1     -15.231   6.842 -31.494  1.00  0.00     0.024 A 
HETATM   30  C   UNL     1     -16.350   6.144 -31.940  1.00  0.00     0.002 A 
HETATM   31  C   UNL     1     -16.331   4.746 -32.002  1.00  0.00     0.007 A 
ENDBRANCH  24  25
ENDBRANCH  23  24
ENDBRANCH  20  23
ENDBRANCH   2  19
TORSDOF 7
ENDMDL
MODEL 7
REMARK VINA RESULT:      -7.9      3.340      4.234
REMARK  7 active torsions:
REMARK  status: ('A' for Active; 'I' for Inactive)
REMARK    1  A    between atoms: O_2  and  C_3 
REMARK    2  A    between atoms: C_6  and  C_7 
REMARK    3  A    between atoms: C_11  and  C_12 
REMARK       I    between atoms: C_12  and  N_13 
REMARK    4  A    between atoms: N_13  and  N_14 
REMARK       I    between atoms: N_14  and  C_15 
REMARK    5  A    between atoms: C_15  and  C_16 
REMARK    6  A    between atoms: C_16  and  C_17 
REMARK    7  A    between atoms: C_17  and  C_18 
ROOT
HETATM    1  C   UNL     1      -3.668   2.840 -32.328  1.00  0.00     0.288 C 
HETATM    2  N   UNL     1      -3.470   3.856 -33.236  1.00  0.00    -0.262 N 
HETATM    3  O   UNL     1      -2.823   2.551 -31.481  1.00  0.00    -0.264 OA
HETATM    4  H   UNL     1      -4.134   4.109 -33.963  1.00  0.00     0.190 HD
ENDROOT
BRANCH   1   5
HETATM    5  C   UNL     1      -4.926   2.156 -32.431  1.00  0.00     0.121 A 
HETATM    6  N   UNL     1      -5.156   0.966 -31.798  1.00  0.00    -0.272 N 
HETATM    7  N   UNL     1      -6.400   0.491 -31.951  1.00  0.00    -0.174 NA
HETATM    8  H   UNL     1      -4.497   0.442 -31.229  1.00  0.00     0.189 HD
HETATM    9  C   UNL     1      -7.014   1.393 -32.734  1.00  0.00     0.089 A 
HETATM   10  C   UNL     1      -6.116   2.447 -33.069  1.00  0.00     0.071 A 
BRANCH   9  11
HETATM   11  C   UNL     1      -8.423   1.257 -33.111  1.00  0.00    -0.005 A 
HETATM   12  C   UNL     1      -9.174   0.160 -32.662  1.00  0.00     0.016 A 
HETATM   13  C   UNL     1     -10.534   0.042 -32.971  1.00  0.00     0.037 A 
HETATM   14  C   UNL     1     -11.166   1.018 -33.739  1.00  0.00     0.068 A 
HETATM   15  C   UNL     1     -10.419   2.099 -34.214  1.00  0.00     0.037 A 
HETATM   16  C   UNL     1      -9.060   2.221 -33.901  1.00  0.00     0.016 A 
BRANCH  14  17
HETATM   17  O   UNL     1     -12.485   1.031 -34.099  1.00  0.00    -0.356 OA
HETATM   18  C   UNL     1     -13.250   2.154 -33.679  1.00  0.00     0.210 C 
ENDBRANCH  14  17
ENDBRANCH   9  11
ENDBRANCH   1   5
BRANCH   2  19
HETATM   19  N   UNL     1      -2.290   4.602 -33.182  1.00  0.00    -0.267 N 
HETATM   20  C   UNL     1      -2.270   5.823 -33.817  1.00  0.00     0.236 C 
HETATM   21  O   UNL     1      -3.224   6.244 -34.468  1.00  0.00    -0.272 OA
HETATM   22  H   UNL     1      -1.556   4.262 -32.563  1.00  0.00     0.190 HD
BRANCH  20  23
HETATM   23  C   UNL     1      -0.994   6.612 -33.634  1.00  0.00     0.109 C 
BRANCH  23  24
HETATM   24  C   UNL     1      -1.041   7.469 -32.371  1.00  0.00     0.048 C 
BRANCH  24  25
HETATM   25  C   UNL     1      -0.437   6.845 -31.130  1.00  0.00    -0.056 A 
HETATM   26  C   UNL     1      -0.694   7.441 -29.882  1.00  0.00     0.031 A 
HETATM   27  C   UNL     1      -0.193   6.878 -28.708  1.00  0.00     0.034 A 
HETATM   28 CL   UNL     1      -0.520   7.628 -27.194  1.00  0.00    -0.084 Cl
HETATM   29  C   UNL     1       0.563   5.710 -28.751  1.00  0.00     0.024 A 
HETATM   30  C   UNL     1       0.814   5.102 -29.978  1.00  0.00     0.002 A 
HETATM   31  C   UNL     1       0.312   5.660 -31.158  1.00  0.00     0.007 A 
ENDBRANCH  24  25
ENDBRANCH  23  24
ENDBRANCH  20  23
ENDBRANCH   2  19
TORSDOF 7
ENDMDL
MODEL 8
REMARK VINA RESULT:      -7.9      2.093      2.866
REMARK  7 active torsions:
REMARK  status: ('A' for Active; 'I' for Inactive)
REMARK    1  A    between atoms: O_2  and  C_3 
REMARK    2  A    between atoms: C_6  and  C_7 
REMARK    3  A    between atoms: C_11  and  C_12 
REMARK       I    between atoms: C_12  and  N_13 
REMARK    4  A    between atoms: N_13  and  N_14 
REMARK       I    between atoms: N_14  and  C_15 
REMARK    5  A    between atoms: C_15  and  C_16 
REMARK    6  A    between atoms: C_16  and  C_17 
REMARK    7  A    between atoms: C_17  and  C_18 
ROOT
HETATM    1  C   UNL     1      -4.602   4.510 -31.046  1.00  0.00     0.288 C 
HETATM    2  N   UNL     1      -4.801   4.865 -29.731  1.00  0.00    -0.262 N 
HETATM    3  O   UNL     1      -4.022   5.251 -31.839  1.00  0.00    -0.264 OA
HETATM    4  H   UNL     1      -5.293   4.290 -29.052  1.00  0.00     0.190 HD
ENDROOT
BRANCH   1   5
HETATM    5  C   UNL     1      -5.105   3.218 -31.419  1.00  0.00     0.121 A 
HETATM    6  N   UNL     1      -6.303   2.748 -30.957  1.00  0.00    -0.272 N 
HETATM    7  N   UNL     1      -6.650   1.549 -31.446  1.00  0.00    -0.174 NA
HETATM    8  H   UNL     1      -6.935   3.218 -30.316  1.00  0.00     0.189 HD
HETATM    9  C   UNL     1      -5.632   1.202 -32.250  1.00  0.00     0.089 A 
HETATM   10  C   UNL     1      -4.634   2.218 -32.248  1.00  0.00     0.071 A 
BRANCH   9  11
HETATM   11  C   UNL     1      -5.643  -0.047 -33.016  1.00  0.00    -0.005 A 
HETATM   12  C   UNL     1      -6.814  -0.473 -33.660  1.00  0.00     0.016 A 
HETATM   13  C   UNL     1      -6.829  -1.637 -34.438  1.00  0.00     0.037 A 
HETATM   14  C   UNL     1      -5.670  -2.398 -34.581  1.00  0.00     0.068 A 
HETATM   15  C   UNL     1      -4.507  -1.996 -33.920  1.00  0.00     0.037 A 
HETATM   16  C   UNL     1      -4.490  -0.830 -33.146  1.00  0.00     0.016 A 
BRANCH  14  17
HETATM   17  O   UNL     1      -5.544  -3.542 -35.319  1.00  0.00    -0.356 OA
HETATM   18  C   UNL     1      -6.629  -4.460 -35.261  1.00  0.00     0.210 C 
ENDBRANCH  14  17
ENDBRANCH   9  11
ENDBRANCH   1   5
BRANCH   2  19
HETATM   19  N   UNL     1      -4.308   6.089 -29.271  1.00  0.00    -0.267 N 
HETATM   20  C   UNL     1      -4.536   6.421 -27.954  1.00  0.00     0.236 C 
HETATM   21  O   UNL     1      -5.198   5.711 -27.199  1.00  0.00    -0.272 OA
HETATM   22  H   UNL     1      -3.693   6.605 -29.897  1.00  0.00     0.190 HD
BRANCH  20  23
HETATM   23  C   UNL     1      -3.892   7.712 -27.505  1.00  0.00     0.109 C 
BRANCH  23  24
HETATM   24  C   UNL     1      -2.734   7.457 -26.542  1.00  0.00     0.048 C 
BRANCH  24  25
HETATM   25  C   UNL     1      -1.349   7.715 -27.097  1.00  0.00    -0.056 A 
HETATM   26  C   UNL     1      -1.047   7.263 -28.394  1.00  0.00     0.031 A 
HETATM   27  C   UNL     1       0.202   7.513 -28.963  1.00  0.00     0.034 A 
HETATM   28 CL   UNL     1       0.547   6.948 -30.551  1.00  0.00    -0.084 Cl
HETATM   29  C   UNL     1       1.170   8.223 -28.258  1.00  0.00     0.024 A 
HETATM   30  C   UNL     1       0.880   8.688 -26.977  1.00  0.00     0.002 A 
HETATM   31  C   UNL     1      -0.372   8.443 -26.404  1.00  0.00     0.007 A 
ENDBRANCH  24  25
ENDBRANCH  23  24
ENDBRANCH  20  23
ENDBRANCH   2  19
TORSDOF 7
ENDMDL
MODEL 9
REMARK VINA RESULT:      -7.9      8.144     10.220
REMARK  7 active torsions:
REMARK  status: ('A' for Active; 'I' for Inactive)
REMARK    1  A    between atoms: O_2  and  C_3 
REMARK    2  A    between atoms: C_6  and  C_7 
REMARK    3  A    between atoms: C_11  and  C_12 
REMARK       I    between atoms: C_12  and  N_13 
REMARK    4  A    between atoms: N_13  and  N_14 
REMARK       I    between atoms: N_14  and  C_15 
REMARK    5  A    between atoms: C_15  and  C_16 
REMARK    6  A    between atoms: C_16  and  C_17 
REMARK    7  A    between atoms: C_17  and  C_18 
ROOT
HETATM    1  C   UNL     1     -10.885   2.633 -34.272  1.00  0.00     0.288 C 
HETATM    2  N   UNL     1     -10.538   3.908 -33.887  1.00  0.00    -0.262 N 
HETATM    3  O   UNL     1     -11.902   2.404 -34.925  1.00  0.00    -0.264 OA
HETATM    4  H   UNL     1      -9.718   4.134 -33.330  1.00  0.00     0.190 HD
ENDROOT
BRANCH   1   5
HETATM    5  C   UNL     1      -9.974   1.598 -33.872  1.00  0.00     0.121 A 
HETATM    6  N   UNL     1     -10.240   0.769 -32.818  1.00  0.00    -0.272 N 
HETATM    7  N   UNL     1      -9.313  -0.177 -32.613  1.00  0.00    -0.174 NA
HETATM    8  H   UNL     1     -11.056   0.796 -32.213  1.00  0.00     0.189 HD
HETATM    9  C   UNL     1      -8.385   0.045 -33.558  1.00  0.00     0.089 A 
HETATM   10  C   UNL     1      -8.757   1.162 -34.359  1.00  0.00     0.071 A 
BRANCH   9  11
HETATM   11  C   UNL     1      -7.205  -0.812 -33.700  1.00  0.00    -0.005 A 
HETATM   12  C   UNL     1      -6.049  -0.557 -32.948  1.00  0.00     0.016 A 
HETATM   13  C   UNL     1      -4.932  -1.396 -33.033  1.00  0.00     0.037 A 
HETATM   14  C   UNL     1      -4.952  -2.504 -33.878  1.00  0.00     0.068 A 
HETATM   15  C   UNL     1      -6.089  -2.750 -34.651  1.00  0.00     0.037 A 
HETATM   16  C   UNL     1      -7.209  -1.915 -34.562  1.00  0.00     0.016 A 
BRANCH  14  17
HETATM   17  O   UNL     1      -3.939  -3.408 -34.044  1.00  0.00    -0.356 OA
HETATM   18  C   UNL     1      -4.319  -4.769 -34.205  1.00  0.00     0.210 C 
ENDBRANCH  14  17
ENDBRANCH   9  11
ENDBRANCH   1   5
BRANCH   2  19
HETATM   19  N   UNL     1     -11.348   4.982 -34.269  1.00  0.00    -0.267 N 
HETATM   20  C   UNL     1     -10.851   5.861 -35.205  1.00  0.00     0.236 C 
HETATM   21  O   UNL     1      -9.715   5.765 -35.665  1.00  0.00    -0.272 OA
HETATM   22  H   UNL     1     -12.309   4.977 -33.935  1.00  0.00     0.190 HD
BRANCH  20  23
HETATM   23  C   UNL     1     -11.819   6.939 -35.638  1.00  0.00     0.109 C 
BRANCH  23  24
HETATM   24  C   UNL     1     -11.124   8.291 -35.787  1.00  0.00     0.048 C 
BRANCH  24  25
HETATM   25  C   UNL     1     -11.138   8.888 -37.179  1.00  0.00    -0.056 A 
HETATM   26  C   UNL     1     -12.304   8.762 -37.954  1.00  0.00     0.031 A 
HETATM   27  C   UNL     1     -12.378   9.331 -39.226  1.00  0.00     0.034 A 
HETATM   28 CL   UNL     1     -13.816   9.161 -40.156  1.00  0.00    -0.084 Cl
HETATM   29  C   UNL     1     -11.300  10.041 -39.746  1.00  0.00     0.024 A 
HETATM   30  C   UNL     1     -10.144  10.186 -38.983  1.00  0.00     0.002 A 
HETATM   31  C   UNL     1     -10.066   9.620 -37.706  1.00  0.00     0.007 A 
ENDBRANCH  24  25
ENDBRANCH  23  24
ENDBRANCH  20  23
ENDBRANCH   2  19
TORSDOF 7
ENDMDL
MODEL 10
REMARK VINA RESULT:      -7.9      3.603     10.654
REMARK  7 active torsions:
REMARK  status: ('A' for Active; 'I' for Inactive)
REMARK    1  A    between atoms: O_2  and  C_3 
REMARK    2  A    between atoms: C_6  and  C_7 
REMARK    3  A    between atoms: C_11  and  C_12 
REMARK       I    between atoms: C_12  and  N_13 
REMARK    4  A    between atoms: N_13  and  N_14 
REMARK       I    between atoms: N_14  and  C_15 
REMARK    5  A    between atoms: C_15  and  C_16 
REMARK    6  A    between atoms: C_16  and  C_17 
REMARK    7  A    between atoms: C_17  and  C_18 
ROOT
HETATM    1  C   UNL     1      -4.906   4.286 -32.451  1.00  0.00     0.288 C 
HETATM    2  N   UNL     1      -5.569   3.546 -31.497  1.00  0.00    -0.262 N 
HETATM    3  O   UNL     1      -5.045   4.070 -33.654  1.00  0.00    -0.264 OA
HETATM    4  H   UNL     1      -5.463   3.681 -30.495  1.00  0.00     0.190 HD
ENDROOT
BRANCH   1   5
HETATM    5  C   UNL     1      -4.059   5.329 -31.944  1.00  0.00     0.121 A 
HETATM    6  N   UNL     1      -4.258   6.642 -32.269  1.00  0.00    -0.272 N 
HETATM    7  N   UNL     1      -3.414   7.492 -31.666  1.00  0.00    -0.174 NA
HETATM    8  H   UNL     1      -4.972   7.015 -32.887  1.00  0.00     0.189 HD
HETATM    9  C   UNL     1      -2.612   6.709 -30.928  1.00  0.00     0.089 A 
HETATM   10  C   UNL     1      -2.976   5.342 -31.088  1.00  0.00     0.071 A 
BRANCH   9  11
HETATM   11  C   UNL     1      -1.559   7.267 -30.074  1.00  0.00    -0.005 A 
HETATM   12  C   UNL     1      -1.879   8.181 -29.060  1.00  0.00     0.016 A 
HETATM   13  C   UNL     1      -0.893   8.684 -28.204  1.00  0.00     0.037 A 
HETATM   14  C   UNL     1       0.434   8.283 -28.351  1.00  0.00     0.068 A 
HETATM   15  C   UNL     1       0.765   7.394 -29.377  1.00  0.00     0.037 A 
HETATM   16  C   UNL     1      -0.221   6.887 -30.230  1.00  0.00     0.016 A 
BRANCH  14  17
HETATM   17  O   UNL     1       1.487   8.685 -27.578  1.00  0.00    -0.356 OA
HETATM   18  C   UNL     1       1.735   7.932 -26.397  1.00  0.00     0.210 C 
ENDBRANCH  14  17
ENDBRANCH   9  11
ENDBRANCH   1   5
BRANCH   2  19
HETATM   19  N   UNL     1      -6.446   2.536 -31.902  1.00  0.00    -0.267 N 
HETATM   20  C   UNL     1      -6.451   1.362 -31.184  1.00  0.00     0.236 C 
HETATM   21  O   UNL     1      -5.680   1.156 -30.248  1.00  0.00    -0.272 OA
HETATM   22  H   UNL     1      -7.126   2.776 -32.621  1.00  0.00     0.190 HD
BRANCH  20  23
HETATM   23  C   UNL     1      -7.491   0.356 -31.621  1.00  0.00     0.109 C 
BRANCH  23  24
HETATM   24  C   UNL     1      -7.410   0.080 -33.121  1.00  0.00     0.048 C 
BRANCH  24  25
HETATM   25  C   UNL     1      -6.455  -1.020 -33.537  1.00  0.00    -0.056 A 
HETATM   26  C   UNL     1      -6.968  -2.130 -34.232  1.00  0.00     0.031 A 
HETATM   27  C   UNL     1      -6.120  -3.148 -34.671  1.00  0.00     0.034 A 
HETATM   28 CL   UNL     1      -6.772  -4.496 -35.518  1.00  0.00    -0.084 Cl
HETATM   29  C   UNL     1      -4.750  -3.077 -34.436  1.00  0.00     0.024 A 
HETATM   30  C   UNL     1      -4.227  -1.977 -33.760  1.00  0.00     0.002 A 
HETATM   31  C   UNL     1      -5.072  -0.952 -33.321  1.00  0.00     0.007 A 
ENDBRANCH  24  25
ENDBRANCH  23  24
ENDBRANCH  20  23
ENDBRANCH   2  19
TORSDOF 7
ENDMDL
