MODEL 1
REMARK VINA RESULT:      -8.4      0.000      0.000
REMARK  4 active torsions:
REMARK  status: ('A' for Active; 'I' for Inactive)
REMARK    1  A    between atoms: O_2  and  C_3 
REMARK    2  A    between atoms: C_7  and  N_8 
REMARK       I    between atoms: N_8  and  C_9 
REMARK    3  A    between atoms: C_9  and  C_10 
REMARK    4  A    between atoms: C_12  and  C_13 
ROOT
HETATM    1  N   UNL     1      -4.369   2.819 -33.033  1.00  0.00    -0.320 N 
HETATM    2  C   UNL     1      -4.678   1.580 -32.502  1.00  0.00     0.256 C 
HETATM    3  O   UNL     1      -4.316   1.161 -31.408  1.00  0.00    -0.267 OA
HETATM    4  H   UNL     1      -4.636   3.016 -33.990  1.00  0.00     0.169 HD
ENDROOT
BRANCH   2   5
HETATM    5  C   UNL     1      -5.521   0.688 -33.359  1.00  0.00     0.033 A 
HETATM    6  C   UNL     1      -5.254  -0.681 -33.521  1.00  0.00     0.029 A 
HETATM    7  C   UNL     1      -6.060  -1.478 -34.351  1.00  0.00    -0.023 A 
HETATM    8  C   UNL     1      -7.126  -0.874 -35.036  1.00  0.00     0.012 A 
HETATM    9  C   UNL     1      -7.385   0.489 -34.894  1.00  0.00     0.002 A 
HETATM   10  C   UNL     1      -6.587   1.268 -34.059  1.00  0.00     0.017 A 
BRANCH   7  11
HETATM   11  C   UNL     1      -5.775  -2.901 -34.495  1.00  0.00    -0.002 A 
HETATM   12  C   UNL     1      -6.681  -3.843 -34.943  1.00  0.00     0.153 A 
HETATM   13  O   UNL     1      -6.130  -5.084 -34.951  1.00  0.00    -0.334 OA
HETATM   14  C   UNL     1      -4.859  -4.954 -34.502  1.00  0.00     0.142 A 
HETATM   15  C   UNL     1      -4.590  -3.638 -34.205  1.00  0.00     0.038 A 
ENDBRANCH   7  11
ENDBRANCH   2   5
BRANCH   1  16
HETATM   16  C   UNL     1      -3.679   3.876 -32.395  1.00  0.00     0.077 A 
HETATM   17  C   UNL     1      -2.320   4.141 -32.546  1.00  0.00     0.077 A 
HETATM   18  C   UNL     1      -1.728   5.194 -31.843  1.00  0.00     0.152 A 
HETATM   19  C   UNL     1      -2.473   5.999 -30.974  1.00  0.00     0.109 A 
HETATM   20  F   UNL     1      -0.419   5.406 -32.036  1.00  0.00    -0.203 F 
HETATM   21  C   UNL     1      -3.838   5.742 -30.831  1.00  0.00     0.084 A 
HETATM   22  C   UNL     1      -4.423   4.693 -31.536  1.00  0.00     0.145 A 
HETATM   23  F   UNL     1      -5.735   4.453 -31.371  1.00  0.00    -0.204 F 
BRANCH  19  24
HETATM   24  O   UNL     1      -2.020   7.044 -30.218  1.00  0.00    -0.353 OA
HETATM   25  C   UNL     1      -1.194   6.726 -29.102  1.00  0.00     0.210 C 
ENDBRANCH  19  24
ENDBRANCH   1  16
TORSDOF 4
ENDMDL
MODEL 2
REMARK VINA RESULT:      -8.3      0.922      1.698
REMARK  4 active torsions:
REMARK  status: ('A' for Active; 'I' for Inactive)
REMARK    1  A    between atoms: O_2  and  C_3 
REMARK    2  A    between atoms: C_7  and  N_8 
REMARK       I    between atoms: N_8  and  C_9 
REMARK    3  A    between atoms: C_9  and  C_10 
REMARK    4  A    between atoms: C_12  and  C_13 
ROOT
HETATM    1  N   UNL     1      -4.686   2.898 -32.859  1.00  0.00    -0.320 N 
HETATM    2  C   UNL     1      -4.794   1.577 -32.465  1.00  0.00     0.256 C 
HETATM    3  O   UNL     1      -4.290   1.088 -31.460  1.00  0.00    -0.267 OA
HETATM    4  H   UNL     1      -5.057   3.166 -33.763  1.00  0.00     0.169 HD
ENDROOT
BRANCH   2   5
HETATM    5  C   UNL     1      -5.591   0.685 -33.364  1.00  0.00     0.033 A 
HETATM    6  C   UNL     1      -5.314  -0.684 -33.514  1.00  0.00     0.029 A 
HETATM    7  C   UNL     1      -6.077  -1.481 -34.383  1.00  0.00    -0.023 A 
HETATM    8  C   UNL     1      -7.107  -0.878 -35.121  1.00  0.00     0.012 A 
HETATM    9  C   UNL     1      -7.375   0.485 -34.991  1.00  0.00     0.002 A 
HETATM   10  C   UNL     1      -6.621   1.264 -34.116  1.00  0.00     0.017 A 
BRANCH   7  11
HETATM   11  C   UNL     1      -5.782  -2.904 -34.514  1.00  0.00    -0.002 A 
HETATM   12  C   UNL     1      -6.682  -3.855 -34.955  1.00  0.00     0.153 A 
HETATM   13  O   UNL     1      -6.124  -5.093 -34.951  1.00  0.00    -0.334 OA
HETATM   14  C   UNL     1      -4.854  -4.951 -34.501  1.00  0.00     0.142 A 
HETATM   15  C   UNL     1      -4.594  -3.631 -34.216  1.00  0.00     0.038 A 
ENDBRANCH   7  11
ENDBRANCH   2   5
BRANCH   1  16
HETATM   16  C   UNL     1      -4.079   3.957 -32.145  1.00  0.00     0.077 A 
HETATM   17  C   UNL     1      -4.683   4.660 -31.105  1.00  0.00     0.077 A 
HETATM   18  C   UNL     1      -4.006   5.714 -30.484  1.00  0.00     0.152 A 
HETATM   19  C   UNL     1      -2.722   6.093 -30.889  1.00  0.00     0.109 A 
HETATM   20  F   UNL     1      -4.635   6.348 -29.484  1.00  0.00    -0.203 F 
HETATM   21  C   UNL     1      -2.111   5.381 -31.923  1.00  0.00     0.084 A 
HETATM   22  C   UNL     1      -2.787   4.330 -32.535  1.00  0.00     0.145 A 
HETATM   23  F   UNL     1      -2.187   3.669 -33.539  1.00  0.00    -0.204 F 
BRANCH  19  24
HETATM   24  O   UNL     1      -1.958   7.109 -30.383  1.00  0.00    -0.353 OA
HETATM   25  C   UNL     1      -0.544   6.945 -30.440  1.00  0.00     0.210 C 
ENDBRANCH  19  24
ENDBRANCH   1  16
TORSDOF 4
ENDMDL
MODEL 3
REMARK VINA RESULT:      -8.1      4.983      8.322
REMARK  4 active torsions:
REMARK  status: ('A' for Active; 'I' for Inactive)
REMARK    1  A    between atoms: O_2  and  C_3 
REMARK    2  A    between atoms: C_7  and  N_8 
REMARK       I    between atoms: N_8  and  C_9 
REMARK    3  A    between atoms: C_9  and  C_10 
REMARK    4  A    between atoms: C_12  and  C_13 
ROOT
HETATM    1  N   UNL     1      -7.693  -0.495 -33.807  1.00  0.00    -0.320 N 
HETATM    2  C   UNL     1      -7.912   0.618 -34.596  1.00  0.00     0.256 C 
HETATM    3  O   UNL     1      -7.280   0.916 -35.603  1.00  0.00    -0.267 OA
HETATM    4  H   UNL     1      -8.209  -0.584 -32.939  1.00  0.00     0.169 HD
ENDROOT
BRANCH   2   5
HETATM    5  C   UNL     1      -9.015   1.530 -34.156  1.00  0.00     0.033 A 
HETATM    6  C   UNL     1     -10.365   1.145 -34.160  1.00  0.00     0.029 A 
HETATM    7  C   UNL     1     -11.370   2.039 -33.756  1.00  0.00    -0.023 A 
HETATM    8  C   UNL     1     -11.002   3.337 -33.372  1.00  0.00     0.012 A 
HETATM    9  C   UNL     1      -9.664   3.733 -33.382  1.00  0.00     0.002 A 
HETATM   10  C   UNL     1      -8.674   2.834 -33.773  1.00  0.00     0.017 A 
BRANCH   7  11
HETATM   11  C   UNL     1     -12.766   1.615 -33.754  1.00  0.00    -0.002 A 
HETATM   12  C   UNL     1     -13.764   2.200 -32.999  1.00  0.00     0.153 A 
HETATM   13  O   UNL     1     -14.954   1.575 -33.195  1.00  0.00    -0.334 OA
HETATM   14  C   UNL     1     -14.731   0.573 -34.080  1.00  0.00     0.142 A 
HETATM   15  C   UNL     1     -13.407   0.551 -34.453  1.00  0.00     0.038 A 
ENDBRANCH   7  11
ENDBRANCH   2   5
BRANCH   1  16
HETATM   16  C   UNL     1      -6.789  -1.555 -34.053  1.00  0.00     0.077 A 
HETATM   17  C   UNL     1      -7.130  -2.763 -34.655  1.00  0.00     0.077 A 
HETATM   18  C   UNL     1      -6.164  -3.760 -34.825  1.00  0.00     0.152 A 
HETATM   19  C   UNL     1      -4.846  -3.577 -34.395  1.00  0.00     0.109 A 
HETATM   20  F   UNL     1      -6.550  -4.898 -35.418  1.00  0.00    -0.203 F 
HETATM   21  C   UNL     1      -4.500  -2.361 -33.802  1.00  0.00     0.084 A 
HETATM   22  C   UNL     1      -5.465  -1.370 -33.639  1.00  0.00     0.145 A 
HETATM   23  F   UNL     1      -5.114  -0.214 -33.051  1.00  0.00    -0.204 F 
BRANCH  19  24
HETATM   24  O   UNL     1      -3.813  -4.469 -34.483  1.00  0.00    -0.353 OA
HETATM   25  C   UNL     1      -3.249  -4.928 -33.259  1.00  0.00     0.210 C 
ENDBRANCH  19  24
ENDBRANCH   1  16
TORSDOF 4
ENDMDL
MODEL 4
REMARK VINA RESULT:      -8.1      5.031      7.746
REMARK  4 active torsions:
REMARK  status: ('A' for Active; 'I' for Inactive)
REMARK    1  A    between atoms: O_2  and  C_3 
REMARK    2  A    between atoms: C_7  and  N_8 
REMARK       I    between atoms: N_8  and  C_9 
REMARK    3  A    between atoms: C_9  and  C_10 
REMARK    4  A    between atoms: C_12  and  C_13 
ROOT
HETATM    1  N   UNL     1      -9.906   0.744 -33.658  1.00  0.00    -0.320 N 
HETATM    2  C   UNL     1      -9.016   0.387 -32.663  1.00  0.00     0.256 C 
HETATM    3  O   UNL     1      -9.245   0.406 -31.459  1.00  0.00    -0.267 OA
HETATM    4  H   UNL     1      -9.572   0.788 -34.614  1.00  0.00     0.169 HD
ENDROOT
BRANCH   2   5
HETATM    5  C   UNL     1      -7.658  -0.048 -33.119  1.00  0.00     0.033 A 
HETATM    6  C   UNL     1      -7.382  -1.360 -33.537  1.00  0.00     0.029 A 
HETATM    7  C   UNL     1      -6.089  -1.730 -33.939  1.00  0.00    -0.023 A 
HETATM    8  C   UNL     1      -5.068  -0.769 -33.894  1.00  0.00     0.012 A 
HETATM    9  C   UNL     1      -5.331   0.532 -33.463  1.00  0.00     0.002 A 
HETATM   10  C   UNL     1      -6.620   0.891 -33.077  1.00  0.00     0.017 A 
BRANCH   7  11
HETATM   11  C   UNL     1      -5.826  -3.095 -34.383  1.00  0.00    -0.002 A 
HETATM   12  C   UNL     1      -6.761  -3.923 -34.975  1.00  0.00     0.153 A 
HETATM   13  O   UNL     1      -6.225  -5.138 -35.260  1.00  0.00    -0.334 OA
HETATM   14  C   UNL     1      -4.934  -5.105 -34.849  1.00  0.00     0.142 A 
HETATM   15  C   UNL     1      -4.638  -3.878 -34.302  1.00  0.00     0.038 A 
ENDBRANCH   7  11
ENDBRANCH   2   5
BRANCH   1  16
HETATM   16  C   UNL     1     -11.268   1.092 -33.503  1.00  0.00     0.077 A 
HETATM   17  C   UNL     1     -12.335   0.216 -33.684  1.00  0.00     0.077 A 
HETATM   18  C   UNL     1     -13.649   0.671 -33.536  1.00  0.00     0.152 A 
HETATM   19  C   UNL     1     -13.926   2.003 -33.214  1.00  0.00     0.109 A 
HETATM   20  F   UNL     1     -14.634  -0.221 -33.714  1.00  0.00    -0.203 F 
HETATM   21  C   UNL     1     -12.857   2.880 -33.021  1.00  0.00     0.084 A 
HETATM   22  C   UNL     1     -11.550   2.421 -33.165  1.00  0.00     0.145 A 
HETATM   23  F   UNL     1     -10.536   3.285 -32.992  1.00  0.00    -0.204 F 
BRANCH  19  24
HETATM   24  O   UNL     1     -15.157   2.581 -33.057  1.00  0.00    -0.353 OA
HETATM   25  C   UNL     1     -15.298   3.524 -32.000  1.00  0.00     0.210 C 
ENDBRANCH  19  24
ENDBRANCH   1  16
TORSDOF 4
ENDMDL
MODEL 5
REMARK VINA RESULT:      -8.0      4.544      7.124
REMARK  4 active torsions:
REMARK  status: ('A' for Active; 'I' for Inactive)
REMARK    1  A    between atoms: O_2  and  C_3 
REMARK    2  A    between atoms: C_7  and  N_8 
REMARK       I    between atoms: N_8  and  C_9 
REMARK    3  A    between atoms: C_9  and  C_10 
REMARK    4  A    between atoms: C_12  and  C_13 
ROOT
HETATM    1  N   UNL     1      -8.486   0.695 -33.939  1.00  0.00    -0.320 N 
HETATM    2  C   UNL     1      -7.524   1.068 -33.019  1.00  0.00     0.256 C 
HETATM    3  O   UNL     1      -7.646   1.949 -32.174  1.00  0.00    -0.267 OA
HETATM    4  H   UNL     1      -8.235   0.026 -34.657  1.00  0.00     0.169 HD
ENDROOT
BRANCH   2   5
HETATM    5  C   UNL     1      -6.225   0.328 -33.087  1.00  0.00     0.033 A 
HETATM    6  C   UNL     1      -6.138  -1.018 -33.481  1.00  0.00     0.029 A 
HETATM    7  C   UNL     1      -4.900  -1.680 -33.512  1.00  0.00    -0.023 A 
HETATM    8  C   UNL     1      -3.750  -0.978 -33.118  1.00  0.00     0.012 A 
HETATM    9  C   UNL     1      -3.831   0.354 -32.709  1.00  0.00     0.002 A 
HETATM   10  C   UNL     1      -5.063   1.004 -32.693  1.00  0.00     0.017 A 
BRANCH   7  11
HETATM   11  C   UNL     1      -4.829  -3.073 -33.938  1.00  0.00    -0.002 A 
HETATM   12  C   UNL     1      -5.773  -3.703 -34.727  1.00  0.00     0.153 A 
HETATM   13  O   UNL     1      -5.442  -5.003 -34.940  1.00  0.00    -0.334 OA
HETATM   14  C   UNL     1      -4.279  -5.225 -34.282  1.00  0.00     0.142 A 
HETATM   15  C   UNL     1      -3.861  -4.077 -33.650  1.00  0.00     0.038 A 
ENDBRANCH   7  11
ENDBRANCH   2   5
BRANCH   1  16
HETATM   16  C   UNL     1      -9.818   1.162 -34.022  1.00  0.00     0.077 A 
HETATM   17  C   UNL     1     -10.204   2.346 -34.646  1.00  0.00     0.077 A 
HETATM   18  C   UNL     1     -11.548   2.733 -34.645  1.00  0.00     0.152 A 
HETATM   19  C   UNL     1     -12.528   1.957 -34.019  1.00  0.00     0.109 A 
HETATM   20  F   UNL     1     -11.860   3.878 -35.270  1.00  0.00    -0.203 F 
HETATM   21  C   UNL     1     -12.144   0.765 -33.403  1.00  0.00     0.084 A 
HETATM   22  C   UNL     1     -10.805   0.381 -33.411  1.00  0.00     0.145 A 
HETATM   23  F   UNL     1     -10.454  -0.762 -32.798  1.00  0.00    -0.204 F 
BRANCH  19  24
HETATM   24  O   UNL     1     -13.867   2.226 -33.929  1.00  0.00    -0.353 OA
HETATM   25  C   UNL     1     -14.758   1.121 -34.049  1.00  0.00     0.210 C 
ENDBRANCH  19  24
ENDBRANCH   1  16
TORSDOF 4
ENDMDL
MODEL 6
REMARK VINA RESULT:      -7.8      2.637      8.353
REMARK  4 active torsions:
REMARK  status: ('A' for Active; 'I' for Inactive)
REMARK    1  A    between atoms: O_2  and  C_3 
REMARK    2  A    between atoms: C_7  and  N_8 
REMARK       I    between atoms: N_8  and  C_9 
REMARK    3  A    between atoms: C_9  and  C_10 
REMARK    4  A    between atoms: C_12  and  C_13 
ROOT
HETATM    1  N   UNL     1      -4.613   0.942 -32.879  1.00  0.00    -0.320 N 
HETATM    2  C   UNL     1      -5.223   1.548 -31.797  1.00  0.00     0.256 C 
HETATM    3  O   UNL     1      -6.031   1.018 -31.042  1.00  0.00    -0.267 OA
HETATM    4  H   UNL     1      -4.042   1.510 -33.494  1.00  0.00     0.169 HD
ENDROOT
BRANCH   2   5
HETATM    5  C   UNL     1      -4.858   2.979 -31.551  1.00  0.00     0.033 A 
HETATM    6  C   UNL     1      -3.936   3.675 -32.350  1.00  0.00     0.029 A 
HETATM    7  C   UNL     1      -3.608   5.012 -32.072  1.00  0.00    -0.023 A 
HETATM    8  C   UNL     1      -4.202   5.635 -30.964  1.00  0.00     0.012 A 
HETATM    9  C   UNL     1      -5.105   4.944 -30.155  1.00  0.00     0.002 A 
HETATM   10  C   UNL     1      -5.432   3.622 -30.447  1.00  0.00     0.017 A 
BRANCH   7  11
HETATM   11  C   UNL     1      -2.658   5.721 -32.922  1.00  0.00    -0.002 A 
HETATM   12  C   UNL     1      -2.555   7.097 -33.007  1.00  0.00     0.153 A 
HETATM   13  O   UNL     1      -1.593   7.459 -33.895  1.00  0.00    -0.334 OA
HETATM   14  C   UNL     1      -1.068   6.315 -34.396  1.00  0.00     0.142 A 
HETATM   15  C   UNL     1      -1.687   5.221 -33.836  1.00  0.00     0.038 A 
ENDBRANCH   7  11
ENDBRANCH   2   5
BRANCH   1  16
HETATM   16  C   UNL     1      -4.707  -0.415 -33.266  1.00  0.00     0.077 A 
HETATM   17  C   UNL     1      -3.860  -1.426 -32.820  1.00  0.00     0.077 A 
HETATM   18  C   UNL     1      -4.021  -2.734 -33.290  1.00  0.00     0.152 A 
HETATM   19  C   UNL     1      -5.020  -3.058 -34.213  1.00  0.00     0.109 A 
HETATM   20  F   UNL     1      -3.180  -3.666 -32.819  1.00  0.00    -0.203 F 
HETATM   21  C   UNL     1      -5.877  -2.047 -34.651  1.00  0.00     0.084 A 
HETATM   22  C   UNL     1      -5.716  -0.748 -34.178  1.00  0.00     0.145 A 
HETATM   23  F   UNL     1      -6.541   0.213 -34.625  1.00  0.00    -0.204 F 
BRANCH  19  24
HETATM   24  O   UNL     1      -5.275  -4.284 -34.764  1.00  0.00    -0.353 OA
HETATM   25  C   UNL     1      -6.569  -4.485 -35.323  1.00  0.00     0.210 C 
ENDBRANCH  19  24
ENDBRANCH   1  16
TORSDOF 4
ENDMDL
MODEL 7
REMARK VINA RESULT:      -7.8      1.876      2.130
REMARK  4 active torsions:
REMARK  status: ('A' for Active; 'I' for Inactive)
REMARK    1  A    between atoms: O_2  and  C_3 
REMARK    2  A    between atoms: C_7  and  N_8 
REMARK       I    between atoms: N_8  and  C_9 
REMARK    3  A    between atoms: C_9  and  C_10 
REMARK    4  A    between atoms: C_12  and  C_13 
ROOT
HETATM    1  N   UNL     1      -4.542   2.759 -32.974  1.00  0.00    -0.320 N 
HETATM    2  C   UNL     1      -5.921   2.846 -32.941  1.00  0.00     0.256 C 
HETATM    3  O   UNL     1      -6.568   3.860 -32.703  1.00  0.00    -0.267 OA
HETATM    4  H   UNL     1      -4.116   1.845 -33.077  1.00  0.00     0.169 HD
ENDROOT
BRANCH   2   5
HETATM    5  C   UNL     1      -6.667   1.577 -33.211  1.00  0.00     0.033 A 
HETATM    6  C   UNL     1      -6.025   0.380 -33.570  1.00  0.00     0.029 A 
HETATM    7  C   UNL     1      -6.767  -0.783 -33.833  1.00  0.00    -0.023 A 
HETATM    8  C   UNL     1      -8.166  -0.723 -33.755  1.00  0.00     0.012 A 
HETATM    9  C   UNL     1      -8.812   0.467 -33.416  1.00  0.00     0.002 A 
HETATM   10  C   UNL     1      -8.066   1.613 -33.145  1.00  0.00     0.017 A 
BRANCH   7  11
HETATM   11  C   UNL     1      -6.080  -2.019 -34.190  1.00  0.00    -0.002 A 
HETATM   12  C   UNL     1      -4.716  -2.220 -34.085  1.00  0.00     0.153 A 
HETATM   13  O   UNL     1      -4.372  -3.463 -34.510  1.00  0.00    -0.334 OA
HETATM   14  C   UNL     1      -5.516  -4.077 -34.898  1.00  0.00     0.142 A 
HETATM   15  C   UNL     1      -6.591  -3.237 -34.726  1.00  0.00     0.038 A 
ENDBRANCH   7  11
ENDBRANCH   2   5
BRANCH   1  16
HETATM   16  C   UNL     1      -3.614   3.819 -32.852  1.00  0.00     0.077 A 
HETATM   17  C   UNL     1      -3.500   4.879 -33.749  1.00  0.00     0.077 A 
HETATM   18  C   UNL     1      -2.526   5.862 -33.553  1.00  0.00     0.152 A 
HETATM   19  C   UNL     1      -1.644   5.808 -32.469  1.00  0.00     0.109 A 
HETATM   20  F   UNL     1      -2.470   6.862 -34.445  1.00  0.00    -0.203 F 
HETATM   21  C   UNL     1      -1.766   4.753 -31.563  1.00  0.00     0.084 A 
HETATM   22  C   UNL     1      -2.740   3.778 -31.760  1.00  0.00     0.145 A 
HETATM   23  F   UNL     1      -2.828   2.762 -30.885  1.00  0.00    -0.204 F 
BRANCH  19  24
HETATM   24  O   UNL     1      -0.641   6.688 -32.170  1.00  0.00    -0.353 OA
HETATM   25  C   UNL     1       0.298   6.286 -31.178  1.00  0.00     0.210 C 
ENDBRANCH  19  24
ENDBRANCH   1  16
TORSDOF 4
ENDMDL
MODEL 8
REMARK VINA RESULT:      -7.7      4.145      6.106
REMARK  4 active torsions:
REMARK  status: ('A' for Active; 'I' for Inactive)
REMARK    1  A    between atoms: O_2  and  C_3 
REMARK    2  A    between atoms: C_7  and  N_8 
REMARK       I    between atoms: N_8  and  C_9 
REMARK    3  A    between atoms: C_9  and  C_10 
REMARK    4  A    between atoms: C_12  and  C_13 
ROOT
HETATM    1  N   UNL     1      -8.035   1.201 -32.690  1.00  0.00    -0.320 N 
HETATM    2  C   UNL     1      -6.764   1.569 -33.088  1.00  0.00     0.256 C 
HETATM    3  O   UNL     1      -6.404   2.707 -33.368  1.00  0.00    -0.267 OA
HETATM    4  H   UNL     1      -8.244   0.215 -32.586  1.00  0.00     0.169 HD
ENDROOT
BRANCH   2   5
HETATM    5  C   UNL     1      -5.760   0.463 -33.190  1.00  0.00     0.033 A 
HETATM    6  C   UNL     1      -6.073  -0.800 -33.716  1.00  0.00     0.029 A 
HETATM    7  C   UNL     1      -5.104  -1.815 -33.776  1.00  0.00    -0.023 A 
HETATM    8  C   UNL     1      -3.820  -1.551 -33.276  1.00  0.00     0.012 A 
HETATM    9  C   UNL     1      -3.507  -0.303 -32.735  1.00  0.00     0.002 A 
HETATM   10  C   UNL     1      -4.472   0.700 -32.692  1.00  0.00     0.017 A 
BRANCH   7  11
HETATM   11  C   UNL     1      -5.446  -3.117 -34.339  1.00  0.00    -0.002 A 
HETATM   12  C   UNL     1      -4.632  -4.233 -34.291  1.00  0.00     0.153 A 
HETATM   13  O   UNL     1      -5.214  -5.289 -34.915  1.00  0.00    -0.334 OA
HETATM   14  C   UNL     1      -6.414  -4.860 -35.377  1.00  0.00     0.142 A 
HETATM   15  C   UNL     1      -6.604  -3.537 -35.054  1.00  0.00     0.038 A 
ENDBRANCH   7  11
ENDBRANCH   2   5
BRANCH   1  16
HETATM   16  C   UNL     1      -9.129   2.056 -32.422  1.00  0.00     0.077 A 
HETATM   17  C   UNL     1      -9.211   2.920 -31.333  1.00  0.00     0.077 A 
HETATM   18  C   UNL     1     -10.354   3.702 -31.142  1.00  0.00     0.152 A 
HETATM   19  C   UNL     1     -11.438   3.635 -32.025  1.00  0.00     0.109 A 
HETATM   20  F   UNL     1     -10.371   4.522 -30.081  1.00  0.00    -0.203 F 
HETATM   21  C   UNL     1     -11.352   2.778 -33.123  1.00  0.00     0.084 A 
HETATM   22  C   UNL     1     -10.210   2.004 -33.311  1.00  0.00     0.145 A 
HETATM   23  F   UNL     1     -10.155   1.173 -34.365  1.00  0.00    -0.204 F 
BRANCH  19  24
HETATM   24  O   UNL     1     -12.615   4.327 -31.947  1.00  0.00    -0.353 OA
HETATM   25  C   UNL     1     -13.720   3.807 -32.679  1.00  0.00     0.210 C 
ENDBRANCH  19  24
ENDBRANCH   1  16
TORSDOF 4
ENDMDL
MODEL 9
REMARK VINA RESULT:      -7.7      5.648      8.256
REMARK  4 active torsions:
REMARK  status: ('A' for Active; 'I' for Inactive)
REMARK    1  A    between atoms: O_2  and  C_3 
REMARK    2  A    between atoms: C_7  and  N_8 
REMARK       I    between atoms: N_8  and  C_9 
REMARK    3  A    between atoms: C_9  and  C_10 
REMARK    4  A    between atoms: C_12  and  C_13 
ROOT
HETATM    1  N   UNL     1      -8.475   0.646 -34.057  1.00  0.00    -0.320 N 
HETATM    2  C   UNL     1      -9.710   0.484 -33.458  1.00  0.00     0.256 C 
HETATM    3  O   UNL     1     -10.031  -0.442 -32.721  1.00  0.00    -0.267 OA
HETATM    4  H   UNL     1      -8.357   1.394 -34.730  1.00  0.00     0.169 HD
ENDROOT
BRANCH   2   5
HETATM    5  C   UNL     1     -10.731   1.536 -33.760  1.00  0.00     0.033 A 
HETATM    6  C   UNL     1     -12.056   1.463 -33.299  1.00  0.00     0.029 A 
HETATM    7  C   UNL     1     -12.987   2.464 -33.622  1.00  0.00    -0.023 A 
HETATM    8  C   UNL     1     -12.575   3.530 -34.437  1.00  0.00     0.012 A 
HETATM    9  C   UNL     1     -11.265   3.600 -34.913  1.00  0.00     0.002 A 
HETATM   10  C   UNL     1     -10.347   2.607 -34.577  1.00  0.00     0.017 A 
BRANCH   7  11
HETATM   11  C   UNL     1     -14.354   2.376 -33.122  1.00  0.00    -0.002 A 
HETATM   12  C   UNL     1     -15.306   1.488 -33.586  1.00  0.00     0.153 A 
HETATM   13  O   UNL     1     -16.488   1.658 -32.940  1.00  0.00    -0.334 OA
HETATM   14  C   UNL     1     -16.309   2.665 -32.051  1.00  0.00     0.142 A 
HETATM   15  C   UNL     1     -15.021   3.142 -32.123  1.00  0.00     0.038 A 
ENDBRANCH   7  11
ENDBRANCH   2   5
BRANCH   1  16
HETATM   16  C   UNL     1      -7.318  -0.143 -33.859  1.00  0.00     0.077 A 
HETATM   17  C   UNL     1      -6.850  -1.101 -34.755  1.00  0.00     0.077 A 
HETATM   18  C   UNL     1      -5.710  -1.851 -34.449  1.00  0.00     0.152 A 
HETATM   19  C   UNL     1      -5.020  -1.668 -33.246  1.00  0.00     0.109 A 
HETATM   20  F   UNL     1      -5.303  -2.752 -35.354  1.00  0.00    -0.203 F 
HETATM   21  C   UNL     1      -5.482  -0.700 -32.353  1.00  0.00     0.084 A 
HETATM   22  C   UNL     1      -6.615   0.047 -32.664  1.00  0.00     0.145 A 
HETATM   23  F   UNL     1      -7.051   0.962 -31.783  1.00  0.00    -0.204 F 
BRANCH  19  24
HETATM   24  O   UNL     1      -3.910  -2.341 -32.816  1.00  0.00    -0.353 OA
HETATM   25  C   UNL     1      -2.984  -1.615 -32.014  1.00  0.00     0.210 C 
ENDBRANCH  19  24
ENDBRANCH   1  16
TORSDOF 4
ENDMDL
MODEL 10
REMARK VINA RESULT:      -7.5      3.286      8.563
REMARK  4 active torsions:
REMARK  status: ('A' for Active; 'I' for Inactive)
REMARK    1  A    between atoms: O_2  and  C_3 
REMARK    2  A    between atoms: C_7  and  N_8 
REMARK       I    between atoms: N_8  and  C_9 
REMARK    3  A    between atoms: C_9  and  C_10 
REMARK    4  A    between atoms: C_12  and  C_13 
ROOT
HETATM    1  N   UNL     1      -4.973   3.286 -33.062  1.00  0.00    -0.320 N 
HETATM    2  C   UNL     1      -3.712   2.956 -32.600  1.00  0.00     0.256 C 
HETATM    3  O   UNL     1      -3.379   1.865 -32.151  1.00  0.00    -0.267 OA
HETATM    4  H   UNL     1      -5.160   4.249 -33.314  1.00  0.00     0.169 HD
ENDROOT
BRANCH   2   5
HETATM    5  C   UNL     1      -2.686   4.043 -32.654  1.00  0.00     0.033 A 
HETATM    6  C   UNL     1      -1.997   4.494 -31.516  1.00  0.00     0.029 A 
HETATM    7  C   UNL     1      -1.054   5.531 -31.609  1.00  0.00    -0.023 A 
HETATM    8  C   UNL     1      -0.830   6.127 -32.859  1.00  0.00     0.012 A 
HETATM    9  C   UNL     1      -1.523   5.697 -33.991  1.00  0.00     0.002 A 
HETATM   10  C   UNL     1      -2.447   4.659 -33.889  1.00  0.00     0.017 A 
BRANCH   7  11
HETATM   11  C   UNL     1      -0.340   5.975 -30.417  1.00  0.00    -0.002 A 
HETATM   12  C   UNL     1       0.376   5.145 -29.574  1.00  0.00     0.153 A 
HETATM   13  O   UNL     1       0.914   5.845 -28.543  1.00  0.00    -0.334 OA
HETATM   14  C   UNL     1       0.545   7.138 -28.709  1.00  0.00     0.142 A 
HETATM   15  C   UNL     1      -0.226   7.272 -29.840  1.00  0.00     0.038 A 
ENDBRANCH   7  11
ENDBRANCH   2   5
BRANCH   1  16
HETATM   16  C   UNL     1      -6.083   2.423 -33.211  1.00  0.00     0.077 A 
HETATM   17  C   UNL     1      -6.380   1.705 -34.367  1.00  0.00     0.077 A 
HETATM   18  C   UNL     1      -7.523   0.902 -34.421  1.00  0.00     0.152 A 
HETATM   19  C   UNL     1      -8.393   0.801 -33.332  1.00  0.00     0.109 A 
HETATM   20  F   UNL     1      -7.751   0.229 -35.558  1.00  0.00    -0.203 F 
HETATM   21  C   UNL     1      -8.091   1.510 -32.168  1.00  0.00     0.084 A 
HETATM   22  C   UNL     1      -6.950   2.306 -32.118  1.00  0.00     0.145 A 
HETATM   23  F   UNL     1      -6.686   2.993 -30.994  1.00  0.00    -0.204 F 
BRANCH  19  24
HETATM   24  O   UNL     1      -9.548   0.070 -33.256  1.00  0.00    -0.353 OA
HETATM   25  C   UNL     1     -10.774   0.787 -33.351  1.00  0.00     0.210 C 
ENDBRANCH  19  24
ENDBRANCH   1  16
TORSDOF 4
ENDMDL
