MODEL 1
REMARK VINA RESULT:      -9.3      0.000      0.000
REMARK  6 active torsions:
REMARK  status: ('A' for Active; 'I' for Inactive)
REMARK    1  A    between atoms: O_2  and  C_3 
REMARK    2  A    between atoms: C_6  and  C_7 
REMARK    3  A    between atoms: C_12  and  C_13 
REMARK       I    between atoms: C_13  and  N_14 
REMARK    4  A    between atoms: N_14  and  C_15 
REMARK    5  A    between atoms: C_17  and  O_18 
REMARK    6  A    between atoms: C_24  and  C_25 
ROOT
HETATM    1  C   UNL     1      -7.192   0.722 -33.757  1.00  0.00     0.118 C 
HETATM    2  N   UNL     1      -6.355   1.854 -34.143  1.00  0.00    -0.366 N 
HETATM    3  C   UNL     1      -5.806   2.697 -33.246  1.00  0.00     0.123 A 
HETATM    4  N   UNL     1      -6.047   2.581 -31.906  1.00  0.00    -0.240 N 
HETATM    5  N   UNL     1      -5.505   3.565 -31.164  1.00  0.00    -0.165 NA
HETATM    6  C   UNL     1      -4.795   4.282 -32.066  1.00  0.00     0.148 A 
HETATM    7  C   UNL     1      -4.966   3.769 -33.382  1.00  0.00     0.089 A 
HETATM    8  C   UNL     1      -6.855   1.531 -31.317  1.00  0.00     0.221 C 
HETATM    9  C   UNL     1      -7.816   0.948 -32.368  1.00  0.00     0.066 C 
HETATM   10  H   UNL     1      -6.091   1.887 -35.128  1.00  0.00     0.161 HD
ENDROOT
BRANCH   6  11
HETATM   11  C   UNL     1      -3.978   5.445 -31.675  1.00  0.00     0.276 C 
HETATM   12  N   UNL     1      -2.773   5.064 -31.118  1.00  0.00    -0.322 N 
HETATM   13  H   UNL     1      -2.662   4.055 -31.049  1.00  0.00     0.169 HD
HETATM   14  O   UNL     1      -4.377   6.593 -31.840  1.00  0.00    -0.266 OA
BRANCH  12  15
HETATM   15  C   UNL     1      -1.734   5.880 -30.641  1.00  0.00     0.037 A 
HETATM   16  C   UNL     1      -1.861   6.736 -29.544  1.00  0.00     0.066 A 
HETATM   17  C   UNL     1      -0.775   7.516 -29.144  1.00  0.00     0.067 A 
HETATM   18  C   UNL     1       0.439   7.454 -29.815  1.00  0.00     0.036 A 
HETATM   19  C   UNL     1       0.573   6.604 -30.910  1.00  0.00     0.005 A 
HETATM   20  C   UNL     1      -0.511   5.824 -31.323  1.00  0.00     0.029 A 
BRANCH  17  21
HETATM   21  O   UNL     1      -0.870   8.369 -28.082  1.00  0.00    -0.361 OA
HETATM   22  H   UNL     1      -0.441   9.207 -28.325  1.00  0.00     0.217 HD
ENDBRANCH  17  21
ENDBRANCH  12  15
ENDBRANCH   6  11
BRANCH   8  23
HETATM   23  C   UNL     1      -5.964   0.504 -30.656  1.00  0.00     0.409 C 
HETATM   24  F   UNL     1      -6.374  -0.767 -30.819  1.00  0.00    -0.169 F 
HETATM   25  F   UNL     1      -4.692   0.578 -31.117  1.00  0.00    -0.169 F 
HETATM   26  F   UNL     1      -5.894   0.738 -29.320  1.00  0.00    -0.169 F 
ENDBRANCH   8  23
BRANCH   1  27
HETATM   27  C   UNL     1      -6.496  -0.616 -33.941  1.00  0.00    -0.035 A 
HETATM   28  C   UNL     1      -5.108  -0.780 -33.824  1.00  0.00     0.012 A 
HETATM   29  C   UNL     1      -4.512  -2.028 -34.028  1.00  0.00     0.037 A 
HETATM   30  C   UNL     1      -5.281  -3.141 -34.362  1.00  0.00     0.068 A 
HETATM   31  C   UNL     1      -6.660  -2.995 -34.493  1.00  0.00     0.037 A 
HETATM   32  C   UNL     1      -7.259  -1.746 -34.285  1.00  0.00     0.012 A 
BRANCH  30  33
HETATM   33  O   UNL     1      -4.572  -4.296 -34.538  1.00  0.00    -0.356 OA
HETATM   34  C   UNL     1      -3.547  -4.573 -33.593  1.00  0.00     0.210 C 
ENDBRANCH  30  33
ENDBRANCH   1  27
TORSDOF 6
ENDMDL
MODEL 2
REMARK VINA RESULT:      -9.0      2.515      9.008
REMARK  6 active torsions:
REMARK  status: ('A' for Active; 'I' for Inactive)
REMARK    1  A    between atoms: O_2  and  C_3 
REMARK    2  A    between atoms: C_6  and  C_7 
REMARK    3  A    between atoms: C_12  and  C_13 
REMARK       I    between atoms: C_13  and  N_14 
REMARK    4  A    between atoms: N_14  and  C_15 
REMARK    5  A    between atoms: C_17  and  O_18 
REMARK    6  A    between atoms: C_24  and  C_25 
ROOT
HETATM    1  C   UNL     1      -5.077   5.426 -31.260  1.00  0.00     0.118 C 
HETATM    2  N   UNL     1      -5.327   3.994 -31.135  1.00  0.00    -0.366 N 
HETATM    3  C   UNL     1      -5.547   3.194 -32.198  1.00  0.00     0.123 A 
HETATM    4  N   UNL     1      -5.606   3.686 -33.471  1.00  0.00    -0.240 N 
HETATM    5  N   UNL     1      -5.935   2.769 -34.399  1.00  0.00    -0.165 NA
HETATM    6  C   UNL     1      -5.980   1.614 -33.695  1.00  0.00     0.148 A 
HETATM    7  C   UNL     1      -5.748   1.844 -32.310  1.00  0.00     0.089 A 
HETATM    8  C   UNL     1      -5.391   5.079 -33.811  1.00  0.00     0.221 C 
HETATM    9  C   UNL     1      -5.648   5.971 -32.583  1.00  0.00     0.066 C 
HETATM   10  H   UNL     1      -5.186   3.605 -30.203  1.00  0.00     0.161 HD
ENDROOT
BRANCH   6  11
HETATM   11  C   UNL     1      -6.255   0.314 -34.335  1.00  0.00     0.276 C 
HETATM   12  N   UNL     1      -5.524  -0.707 -33.761  1.00  0.00    -0.322 N 
HETATM   13  H   UNL     1      -4.907  -0.392 -33.016  1.00  0.00     0.169 HD
HETATM   14  O   UNL     1      -7.042   0.215 -35.270  1.00  0.00    -0.266 OA
BRANCH  12  15
HETATM   15  C   UNL     1      -5.526  -2.074 -34.087  1.00  0.00     0.037 A 
HETATM   16  C   UNL     1      -4.406  -2.900 -33.970  1.00  0.00     0.066 A 
HETATM   17  C   UNL     1      -4.497  -4.247 -34.325  1.00  0.00     0.067 A 
HETATM   18  C   UNL     1      -5.689  -4.787 -34.789  1.00  0.00     0.036 A 
HETATM   19  C   UNL     1      -6.810  -3.969 -34.909  1.00  0.00     0.005 A 
HETATM   20  C   UNL     1      -6.726  -2.617 -34.564  1.00  0.00     0.029 A 
BRANCH  17  21
HETATM   21  O   UNL     1      -3.419  -5.078 -34.230  1.00  0.00    -0.361 OA
HETATM   22  H   UNL     1      -3.673  -5.847 -33.691  1.00  0.00     0.217 HD
ENDBRANCH  17  21
ENDBRANCH  12  15
ENDBRANCH   6  11
BRANCH   8  23
HETATM   23  C   UNL     1      -4.022   5.254 -34.428  1.00  0.00     0.409 C 
HETATM   24  F   UNL     1      -4.014   5.196 -35.772  1.00  0.00    -0.169 F 
HETATM   25  F   UNL     1      -3.464   6.437 -34.072  1.00  0.00    -0.169 F 
HETATM   26  F   UNL     1      -3.180   4.290 -33.976  1.00  0.00    -0.169 F 
ENDBRANCH   8  23
BRANCH   1  27
HETATM   27  C   UNL     1      -3.630   5.798 -30.981  1.00  0.00    -0.035 A 
HETATM   28  C   UNL     1      -2.566   4.895 -31.121  1.00  0.00     0.012 A 
HETATM   29  C   UNL     1      -1.255   5.278 -30.826  1.00  0.00     0.037 A 
HETATM   30  C   UNL     1      -0.970   6.568 -30.378  1.00  0.00     0.068 A 
HETATM   31  C   UNL     1      -2.016   7.475 -30.223  1.00  0.00     0.037 A 
HETATM   32  C   UNL     1      -3.330   7.092 -30.521  1.00  0.00     0.012 A 
BRANCH  30  33
HETATM   33  O   UNL     1       0.350   6.807 -30.122  1.00  0.00    -0.356 OA
HETATM   34  C   UNL     1       0.654   7.575 -28.965  1.00  0.00     0.210 C 
ENDBRANCH  30  33
ENDBRANCH   1  27
TORSDOF 6
ENDMDL
MODEL 3
REMARK VINA RESULT:      -8.6      3.052      9.759
REMARK  6 active torsions:
REMARK  status: ('A' for Active; 'I' for Inactive)
REMARK    1  A    between atoms: O_2  and  C_3 
REMARK    2  A    between atoms: C_6  and  C_7 
REMARK    3  A    between atoms: C_12  and  C_13 
REMARK       I    between atoms: C_13  and  N_14 
REMARK    4  A    between atoms: N_14  and  C_15 
REMARK    5  A    between atoms: C_17  and  O_18 
REMARK    6  A    between atoms: C_24  and  C_25 
ROOT
HETATM    1  C   UNL     1      -2.954   7.625 -30.574  1.00  0.00     0.118 C 
HETATM    2  N   UNL     1      -3.842   6.471 -30.471  1.00  0.00    -0.366 N 
HETATM    3  C   UNL     1      -3.503   5.245 -30.920  1.00  0.00     0.123 A 
HETATM    4  N   UNL     1      -2.318   5.014 -31.560  1.00  0.00    -0.240 N 
HETATM    5  N   UNL     1      -2.186   3.760 -32.033  1.00  0.00    -0.165 NA
HETATM    6  C   UNL     1      -3.296   3.136 -31.577  1.00  0.00     0.148 A 
HETATM    7  C   UNL     1      -4.147   4.038 -30.880  1.00  0.00     0.089 A 
HETATM    8  C   UNL     1      -1.301   6.025 -31.770  1.00  0.00     0.221 C 
HETATM    9  C   UNL     1      -1.927   7.430 -31.705  1.00  0.00     0.066 C 
HETATM   10  H   UNL     1      -4.680   6.613 -29.909  1.00  0.00     0.161 HD
ENDROOT
BRANCH   6  11
HETATM   11  C   UNL     1      -3.544   1.702 -31.815  1.00  0.00     0.276 C 
HETATM   12  N   UNL     1      -4.575   1.500 -32.712  1.00  0.00    -0.322 N 
HETATM   13  H   UNL     1      -5.002   2.364 -33.037  1.00  0.00     0.169 HD
HETATM   14  O   UNL     1      -2.887   0.835 -31.249  1.00  0.00    -0.266 OA
BRANCH  12  15
HETATM   15  C   UNL     1      -5.088   0.284 -33.195  1.00  0.00     0.037 A 
HETATM   16  C   UNL     1      -4.298  -0.832 -33.481  1.00  0.00     0.066 A 
HETATM   17  C   UNL     1      -4.893  -1.997 -33.965  1.00  0.00     0.067 A 
HETATM   18  C   UNL     1      -6.266  -2.073 -34.162  1.00  0.00     0.036 A 
HETATM   19  C   UNL     1      -7.060  -0.964 -33.880  1.00  0.00     0.005 A 
HETATM   20  C   UNL     1      -6.472   0.210 -33.403  1.00  0.00     0.029 A 
BRANCH  17  21
HETATM   21  O   UNL     1      -4.148  -3.101 -34.262  1.00  0.00    -0.361 OA
HETATM   22  H   UNL     1      -4.017  -3.610 -33.444  1.00  0.00     0.217 HD
ENDBRANCH  17  21
ENDBRANCH  12  15
ENDBRANCH   6  11
BRANCH   8  23
HETATM   23  C   UNL     1      -0.155   5.813 -30.808  1.00  0.00     0.409 C 
HETATM   24  F   UNL     1      -0.529   5.342 -29.604  1.00  0.00    -0.169 F 
HETATM   25  F   UNL     1       0.763   4.951 -31.309  1.00  0.00    -0.169 F 
HETATM   26  F   UNL     1       0.502   6.982 -30.599  1.00  0.00    -0.169 F 
ENDBRANCH   8  23
BRANCH   1  27
HETATM   27  C   UNL     1      -2.368   8.040 -29.235  1.00  0.00    -0.035 A 
HETATM   28  C   UNL     1      -1.455   9.095 -29.093  1.00  0.00     0.012 A 
HETATM   29  C   UNL     1      -0.923   9.421 -27.842  1.00  0.00     0.037 A 
HETATM   30  C   UNL     1      -1.280   8.701 -26.703  1.00  0.00     0.068 A 
HETATM   31  C   UNL     1      -2.178   7.643 -26.827  1.00  0.00     0.037 A 
HETATM   32  C   UNL     1      -2.714   7.317 -28.080  1.00  0.00     0.012 A 
BRANCH  30  33
HETATM   33  O   UNL     1      -0.684   9.122 -25.549  1.00  0.00    -0.356 OA
HETATM   34  C   UNL     1       0.737   9.106 -25.514  1.00  0.00     0.210 C 
ENDBRANCH  30  33
ENDBRANCH   1  27
TORSDOF 6
ENDMDL
MODEL 4
REMARK VINA RESULT:      -8.5      1.559      2.074
REMARK  6 active torsions:
REMARK  status: ('A' for Active; 'I' for Inactive)
REMARK    1  A    between atoms: O_2  and  C_3 
REMARK    2  A    between atoms: C_6  and  C_7 
REMARK    3  A    between atoms: C_12  and  C_13 
REMARK       I    between atoms: C_13  and  N_14 
REMARK    4  A    between atoms: N_14  and  C_15 
REMARK    5  A    between atoms: C_17  and  O_18 
REMARK    6  A    between atoms: C_24  and  C_25 
ROOT
HETATM    1  C   UNL     1      -7.011   1.268 -33.400  1.00  0.00     0.118 C 
HETATM    2  N   UNL     1      -6.009   2.279 -33.722  1.00  0.00    -0.366 N 
HETATM    3  C   UNL     1      -5.290   2.922 -32.780  1.00  0.00     0.123 A 
HETATM    4  N   UNL     1      -5.494   2.708 -31.446  1.00  0.00    -0.240 N 
HETATM    5  N   UNL     1      -4.764   3.506 -30.645  1.00  0.00    -0.165 NA
HETATM    6  C   UNL     1      -3.978   4.186 -31.513  1.00  0.00     0.148 A 
HETATM    7  C   UNL     1      -4.285   3.848 -32.860  1.00  0.00     0.089 A 
HETATM    8  C   UNL     1      -6.445   1.750 -30.916  1.00  0.00     0.221 C 
HETATM    9  C   UNL     1      -7.533   1.448 -31.962  1.00  0.00     0.066 C 
HETATM   10  H   UNL     1      -5.783   2.370 -34.712  1.00  0.00     0.161 HD
ENDROOT
BRANCH   6  11
HETATM   11  C   UNL     1      -2.960   5.151 -31.059  1.00  0.00     0.276 C 
HETATM   12  N   UNL     1      -3.517   6.180 -30.326  1.00  0.00    -0.322 N 
HETATM   13  H   UNL     1      -4.529   6.114 -30.242  1.00  0.00     0.169 HD
HETATM   14  O   UNL     1      -1.775   5.010 -31.338  1.00  0.00    -0.266 OA
BRANCH  12  15
HETATM   15  C   UNL     1      -2.872   7.272 -29.721  1.00  0.00     0.037 A 
HETATM   16  C   UNL     1      -2.890   8.568 -30.240  1.00  0.00     0.066 A 
HETATM   17  C   UNL     1      -2.213   9.591 -29.574  1.00  0.00     0.067 A 
HETATM   18  C   UNL     1      -1.524   9.346 -28.394  1.00  0.00     0.036 A 
HETATM   19  C   UNL     1      -1.500   8.055 -27.870  1.00  0.00     0.005 A 
HETATM   20  C   UNL     1      -2.169   7.023 -28.535  1.00  0.00     0.029 A 
BRANCH  17  21
HETATM   21  O   UNL     1      -2.204  10.867 -30.060  1.00  0.00    -0.361 OA
HETATM   22  H   UNL     1      -1.280  11.162 -30.123  1.00  0.00     0.217 HD
ENDBRANCH  17  21
ENDBRANCH  12  15
ENDBRANCH   6  11
BRANCH   8  23
HETATM   23  C   UNL     1      -5.717   0.527 -30.408  1.00  0.00     0.409 C 
HETATM   24  F   UNL     1      -4.474   0.383 -30.901  1.00  0.00    -0.169 F 
HETATM   25  F   UNL     1      -5.616   0.534 -29.057  1.00  0.00    -0.169 F 
HETATM   26  F   UNL     1      -6.411  -0.595 -30.728  1.00  0.00    -0.169 F 
ENDBRANCH   8  23
BRANCH   1  27
HETATM   27  C   UNL     1      -6.561  -0.141 -33.750  1.00  0.00    -0.035 A 
HETATM   28  C   UNL     1      -7.456  -1.191 -34.001  1.00  0.00     0.012 A 
HETATM   29  C   UNL     1      -6.992  -2.477 -34.293  1.00  0.00     0.037 A 
HETATM   30  C   UNL     1      -5.626  -2.751 -34.336  1.00  0.00     0.068 A 
HETATM   31  C   UNL     1      -4.722  -1.723 -34.079  1.00  0.00     0.037 A 
HETATM   32  C   UNL     1      -5.186  -0.433 -33.789  1.00  0.00     0.012 A 
BRANCH  30  33
HETATM   33  O   UNL     1      -5.311  -4.048 -34.628  1.00  0.00    -0.356 OA
HETATM   34  C   UNL     1      -6.231  -4.768 -35.438  1.00  0.00     0.210 C 
ENDBRANCH  30  33
ENDBRANCH   1  27
TORSDOF 6
ENDMDL
MODEL 5
REMARK VINA RESULT:      -8.5      5.415      7.877
REMARK  6 active torsions:
REMARK  status: ('A' for Active; 'I' for Inactive)
REMARK    1  A    between atoms: O_2  and  C_3 
REMARK    2  A    between atoms: C_6  and  C_7 
REMARK    3  A    between atoms: C_12  and  C_13 
REMARK       I    between atoms: C_13  and  N_14 
REMARK    4  A    between atoms: N_14  and  C_15 
REMARK    5  A    between atoms: C_17  and  O_18 
REMARK    6  A    between atoms: C_24  and  C_25 
ROOT
HETATM    1  C   UNL     1      -7.712   0.317 -31.975  1.00  0.00     0.118 C 
HETATM    2  N   UNL     1      -9.021   0.381 -32.617  1.00  0.00    -0.366 N 
HETATM    3  C   UNL     1      -9.439   1.454 -33.319  1.00  0.00     0.123 A 
HETATM    4  N   UNL     1      -8.680   2.585 -33.428  1.00  0.00    -0.240 N 
HETATM    5  N   UNL     1      -9.291   3.595 -34.076  1.00  0.00    -0.165 NA
HETATM    6  C   UNL     1     -10.453   3.040 -34.493  1.00  0.00     0.148 A 
HETATM    7  C   UNL     1     -10.582   1.701 -34.032  1.00  0.00     0.089 A 
HETATM    8  C   UNL     1      -7.354   2.728 -32.859  1.00  0.00     0.221 C 
HETATM    9  C   UNL     1      -7.162   1.730 -31.704  1.00  0.00     0.066 C 
HETATM   10  H   UNL     1      -9.548  -0.492 -32.624  1.00  0.00     0.161 HD
ENDROOT
BRANCH   6  11
HETATM   11  C   UNL     1     -11.429   3.786 -35.308  1.00  0.00     0.276 C 
HETATM   12  N   UNL     1     -11.500   5.115 -34.940  1.00  0.00    -0.322 N 
HETATM   13  H   UNL     1     -10.890   5.350 -34.160  1.00  0.00     0.169 HD
HETATM   14  O   UNL     1     -12.081   3.236 -36.189  1.00  0.00    -0.266 OA
BRANCH  12  15
HETATM   15  C   UNL     1     -12.297   6.134 -35.488  1.00  0.00     0.037 A 
HETATM   16  C   UNL     1     -13.680   6.032 -35.652  1.00  0.00     0.066 A 
HETATM   17  C   UNL     1     -14.392   7.093 -36.214  1.00  0.00     0.067 A 
HETATM   18  C   UNL     1     -13.749   8.259 -36.609  1.00  0.00     0.036 A 
HETATM   19  C   UNL     1     -12.370   8.368 -36.450  1.00  0.00     0.005 A 
HETATM   20  C   UNL     1     -11.647   7.307 -35.895  1.00  0.00     0.029 A 
BRANCH  17  21
HETATM   21  O   UNL     1     -15.743   7.021 -36.397  1.00  0.00    -0.361 OA
HETATM   22  H   UNL     1     -15.917   6.437 -37.155  1.00  0.00     0.217 HD
ENDBRANCH  17  21
ENDBRANCH  12  15
ENDBRANCH   6  11
BRANCH   8  23
HETATM   23  C   UNL     1      -6.311   2.623 -33.948  1.00  0.00     0.409 C 
HETATM   24  F   UNL     1      -6.606   1.726 -34.907  1.00  0.00    -0.169 F 
HETATM   25  F   UNL     1      -6.109   3.815 -34.560  1.00  0.00    -0.169 F 
HETATM   26  F   UNL     1      -5.115   2.266 -33.415  1.00  0.00    -0.169 F 
ENDBRANCH   8  23
BRANCH   1  27
HETATM   27  C   UNL     1      -6.752  -0.623 -32.684  1.00  0.00    -0.035 A 
HETATM   28  C   UNL     1      -5.414  -0.786 -32.297  1.00  0.00     0.012 A 
HETATM   29  C   UNL     1      -4.562  -1.644 -32.999  1.00  0.00     0.037 A 
HETATM   30  C   UNL     1      -5.019  -2.356 -34.107  1.00  0.00     0.068 A 
HETATM   31  C   UNL     1      -6.343  -2.198 -34.512  1.00  0.00     0.037 A 
HETATM   32  C   UNL     1      -7.198  -1.341 -33.808  1.00  0.00     0.012 A 
BRANCH  30  33
HETATM   33  O   UNL     1      -4.083  -3.153 -34.702  1.00  0.00    -0.356 OA
HETATM   34  C   UNL     1      -3.758  -4.369 -34.041  1.00  0.00     0.210 C 
ENDBRANCH  30  33
ENDBRANCH   1  27
TORSDOF 6
ENDMDL
MODEL 6
REMARK VINA RESULT:      -8.5      6.035      9.647
REMARK  6 active torsions:
REMARK  status: ('A' for Active; 'I' for Inactive)
REMARK    1  A    between atoms: O_2  and  C_3 
REMARK    2  A    between atoms: C_6  and  C_7 
REMARK    3  A    between atoms: C_12  and  C_13 
REMARK       I    between atoms: C_13  and  N_14 
REMARK    4  A    between atoms: N_14  and  C_15 
REMARK    5  A    between atoms: C_17  and  O_18 
REMARK    6  A    between atoms: C_24  and  C_25 
ROOT
HETATM    1  C   UNL     1     -11.930   4.689 -32.697  1.00  0.00     0.118 C 
HETATM    2  N   UNL     1     -10.599   4.296 -32.245  1.00  0.00    -0.366 N 
HETATM    3  C   UNL     1     -10.084   3.070 -32.466  1.00  0.00     0.123 A 
HETATM    4  N   UNL     1     -10.802   2.087 -33.086  1.00  0.00    -0.240 N 
HETATM    5  N   UNL     1     -10.175   0.896 -33.134  1.00  0.00    -0.165 NA
HETATM    6  C   UNL     1      -8.954   1.166 -32.615  1.00  0.00     0.148 A 
HETATM    7  C   UNL     1      -8.864   2.517 -32.181  1.00  0.00     0.089 A 
HETATM    8  C   UNL     1     -12.143   2.270 -33.606  1.00  0.00     0.221 C 
HETATM    9  C   UNL     1     -12.828   3.455 -32.902  1.00  0.00     0.066 C 
HETATM   10  H   UNL     1     -10.023   5.051 -31.873  1.00  0.00     0.161 HD
ENDROOT
BRANCH   6  11
HETATM   11  C   UNL     1      -7.897   0.142 -32.525  1.00  0.00     0.276 C 
HETATM   12  N   UNL     1      -7.718  -0.519 -33.724  1.00  0.00    -0.322 N 
HETATM   13  H   UNL     1      -8.354  -0.209 -34.455  1.00  0.00     0.169 HD
HETATM   14  O   UNL     1      -7.290  -0.062 -31.480  1.00  0.00    -0.266 OA
BRANCH  12  15
HETATM   15  C   UNL     1      -6.802  -1.541 -34.031  1.00  0.00     0.037 A 
HETATM   16  C   UNL     1      -7.176  -2.795 -34.519  1.00  0.00     0.066 A 
HETATM   17  C   UNL     1      -6.198  -3.753 -34.790  1.00  0.00     0.067 A 
HETATM   18  C   UNL     1      -4.851  -3.480 -34.590  1.00  0.00     0.036 A 
HETATM   19  C   UNL     1      -4.471  -2.232 -34.103  1.00  0.00     0.005 A 
HETATM   20  C   UNL     1      -5.444  -1.269 -33.821  1.00  0.00     0.029 A 
BRANCH  17  21
HETATM   21  O   UNL     1      -6.531  -4.991 -35.258  1.00  0.00    -0.361 OA
HETATM   22  H   UNL     1      -7.315  -4.901 -35.828  1.00  0.00     0.217 HD
ENDBRANCH  17  21
ENDBRANCH  12  15
ENDBRANCH   6  11
BRANCH   8  23
HETATM   23  C   UNL     1     -12.102   2.384 -35.112  1.00  0.00     0.409 C 
HETATM   24  F   UNL     1     -13.104   3.111 -35.636  1.00  0.00    -0.169 F 
HETATM   25  F   UNL     1     -10.939   2.935 -35.537  1.00  0.00    -0.169 F 
HETATM   26  F   UNL     1     -12.160   1.150 -35.675  1.00  0.00    -0.169 F 
ENDBRANCH   8  23
BRANCH   1  27
HETATM   27  C   UNL     1     -11.893   5.660 -33.866  1.00  0.00    -0.035 A 
HETATM   28  C   UNL     1     -10.700   6.124 -34.438  1.00  0.00     0.012 A 
HETATM   29  C   UNL     1     -10.717   7.038 -35.495  1.00  0.00     0.037 A 
HETATM   30  C   UNL     1     -11.923   7.519 -36.004  1.00  0.00     0.068 A 
HETATM   31  C   UNL     1     -13.118   7.076 -35.441  1.00  0.00     0.037 A 
HETATM   32  C   UNL     1     -13.101   6.158 -34.384  1.00  0.00     0.012 A 
BRANCH  30  33
HETATM   33  O   UNL     1     -11.797   8.409 -37.033  1.00  0.00    -0.356 OA
HETATM   34  C   UNL     1     -10.476   8.742 -37.439  1.00  0.00     0.210 C 
ENDBRANCH  30  33
ENDBRANCH   1  27
TORSDOF 6
ENDMDL
MODEL 7
REMARK VINA RESULT:      -8.4      4.690      9.395
REMARK  6 active torsions:
REMARK  status: ('A' for Active; 'I' for Inactive)
REMARK    1  A    between atoms: O_2  and  C_3 
REMARK    2  A    between atoms: C_6  and  C_7 
REMARK    3  A    between atoms: C_12  and  C_13 
REMARK       I    between atoms: C_13  and  N_14 
REMARK    4  A    between atoms: N_14  and  C_15 
REMARK    5  A    between atoms: C_17  and  O_18 
REMARK    6  A    between atoms: C_24  and  C_25 
ROOT
HETATM    1  C   UNL     1      -5.106   1.844 -32.500  1.00  0.00     0.118 C 
HETATM    2  N   UNL     1      -6.060   1.835 -33.604  1.00  0.00    -0.366 N 
HETATM    3  C   UNL     1      -7.386   2.008 -33.426  1.00  0.00     0.123 A 
HETATM    4  N   UNL     1      -7.935   2.147 -32.183  1.00  0.00    -0.240 N 
HETATM    5  N   UNL     1      -9.280   2.207 -32.180  1.00  0.00    -0.165 NA
HETATM    6  C   UNL     1      -9.594   2.214 -33.497  1.00  0.00     0.148 A 
HETATM    7  C   UNL     1      -8.432   2.085 -34.306  1.00  0.00     0.089 A 
HETATM    8  C   UNL     1      -7.163   2.178 -30.956  1.00  0.00     0.221 C 
HETATM    9  C   UNL     1      -5.800   1.495 -31.169  1.00  0.00     0.066 C 
HETATM   10  H   UNL     1      -5.649   1.831 -34.537  1.00  0.00     0.161 HD
ENDROOT
BRANCH   6  11
HETATM   11  C   UNL     1     -10.986   2.329 -33.970  1.00  0.00     0.276 C 
HETATM   12  N   UNL     1     -11.884   1.808 -33.059  1.00  0.00    -0.322 N 
HETATM   13  H   UNL     1     -11.439   1.415 -32.233  1.00  0.00     0.169 HD
HETATM   14  O   UNL     1     -11.253   2.828 -35.058  1.00  0.00    -0.266 OA
BRANCH  12  15
HETATM   15  C   UNL     1     -13.285   1.750 -33.149  1.00  0.00     0.037 A 
HETATM   16  C   UNL     1     -13.970   0.969 -34.082  1.00  0.00     0.066 A 
HETATM   17  C   UNL     1     -15.366   0.978 -34.103  1.00  0.00     0.067 A 
HETATM   18  C   UNL     1     -16.092   1.747 -33.204  1.00  0.00     0.036 A 
HETATM   19  C   UNL     1     -15.416   2.530 -32.270  1.00  0.00     0.005 A 
HETATM   20  C   UNL     1     -14.018   2.533 -32.247  1.00  0.00     0.029 A 
BRANCH  17  21
HETATM   21  O   UNL     1     -16.064   0.233 -35.009  1.00  0.00    -0.361 OA
HETATM   22  H   UNL     1     -16.690  -0.331 -34.522  1.00  0.00     0.217 HD
ENDBRANCH  17  21
ENDBRANCH  12  15
ENDBRANCH   6  11
BRANCH   8  23
HETATM   23  C   UNL     1      -7.071   3.595 -30.439  1.00  0.00     0.409 C 
HETATM   24  F   UNL     1      -7.125   4.535 -31.399  1.00  0.00    -0.169 F 
HETATM   25  F   UNL     1      -8.061   3.866 -29.553  1.00  0.00    -0.169 F 
HETATM   26  F   UNL     1      -5.905   3.771 -29.766  1.00  0.00    -0.169 F 
ENDBRANCH   8  23
BRANCH   1  27
HETATM   27  C   UNL     1      -4.251   3.099 -32.470  1.00  0.00    -0.035 A 
HETATM   28  C   UNL     1      -4.494   4.211 -33.289  1.00  0.00     0.012 A 
HETATM   29  C   UNL     1      -3.661   5.333 -33.244  1.00  0.00     0.037 A 
HETATM   30  C   UNL     1      -2.561   5.373 -32.388  1.00  0.00     0.068 A 
HETATM   31  C   UNL     1      -2.298   4.273 -31.575  1.00  0.00     0.037 A 
HETATM   32  C   UNL     1      -3.134   3.150 -31.617  1.00  0.00     0.012 A 
BRANCH  30  33
HETATM   33  O   UNL     1      -1.830   6.526 -32.447  1.00  0.00    -0.356 OA
HETATM   34  C   UNL     1      -1.089   6.759 -33.638  1.00  0.00     0.210 C 
ENDBRANCH  30  33
ENDBRANCH   1  27
TORSDOF 6
ENDMDL
MODEL 8
REMARK VINA RESULT:      -8.4      2.685      9.130
REMARK  6 active torsions:
REMARK  status: ('A' for Active; 'I' for Inactive)
REMARK    1  A    between atoms: O_2  and  C_3 
REMARK    2  A    between atoms: C_6  and  C_7 
REMARK    3  A    between atoms: C_12  and  C_13 
REMARK       I    between atoms: C_13  and  N_14 
REMARK    4  A    between atoms: N_14  and  C_15 
REMARK    5  A    between atoms: C_17  and  O_18 
REMARK    6  A    between atoms: C_24  and  C_25 
ROOT
HETATM    1  C   UNL     1      -6.077   5.914 -32.090  1.00  0.00     0.118 C 
HETATM    2  N   UNL     1      -6.697   4.678 -31.625  1.00  0.00    -0.366 N 
HETATM    3  C   UNL     1      -6.250   3.456 -31.981  1.00  0.00     0.123 A 
HETATM    4  N   UNL     1      -5.213   3.295 -32.856  1.00  0.00    -0.240 N 
HETATM    5  N   UNL     1      -4.964   2.012 -33.181  1.00  0.00    -0.165 NA
HETATM    6  C   UNL     1      -5.816   1.319 -32.390  1.00  0.00     0.148 A 
HETATM    7  C   UNL     1      -6.641   2.192 -31.629  1.00  0.00     0.089 A 
HETATM    8  C   UNL     1      -4.466   4.393 -33.437  1.00  0.00     0.221 C 
HETATM    9  C   UNL     1      -5.305   5.683 -33.403  1.00  0.00     0.066 C 
HETATM   10  H   UNL     1      -7.403   4.789 -30.898  1.00  0.00     0.161 HD
ENDROOT
BRANCH   6  11
HETATM   11  C   UNL     1      -5.848  -0.155 -32.374  1.00  0.00     0.276 C 
HETATM   12  N   UNL     1      -5.593  -0.689 -33.622  1.00  0.00    -0.322 N 
HETATM   13  H   UNL     1      -5.451   0.016 -34.341  1.00  0.00     0.169 HD
HETATM   14  O   UNL     1      -6.087  -0.779 -31.346  1.00  0.00    -0.266 OA
BRANCH  12  15
HETATM   15  C   UNL     1      -5.525  -2.042 -33.997  1.00  0.00     0.037 A 
HETATM   16  C   UNL     1      -4.381  -2.829 -33.854  1.00  0.00     0.066 A 
HETATM   17  C   UNL     1      -4.402  -4.164 -34.262  1.00  0.00     0.067 A 
HETATM   18  C   UNL     1      -5.549  -4.731 -34.803  1.00  0.00     0.036 A 
HETATM   19  C   UNL     1      -6.694  -3.951 -34.949  1.00  0.00     0.005 A 
HETATM   20  C   UNL     1      -6.679  -2.611 -34.551  1.00  0.00     0.029 A 
BRANCH  17  21
HETATM   21  O   UNL     1      -3.298  -4.957 -34.144  1.00  0.00    -0.361 OA
HETATM   22  H   UNL     1      -3.485  -5.644 -33.481  1.00  0.00     0.217 HD
ENDBRANCH  17  21
ENDBRANCH  12  15
ENDBRANCH   6  11
BRANCH   8  23
HETATM   23  C   UNL     1      -3.118   4.513 -32.765  1.00  0.00     0.409 C 
HETATM   24  F   UNL     1      -2.598   5.753 -32.793  1.00  0.00    -0.169 F 
HETATM   25  F   UNL     1      -3.174   4.130 -31.466  1.00  0.00    -0.169 F 
HETATM   26  F   UNL     1      -2.223   3.686 -33.363  1.00  0.00    -0.169 F 
ENDBRANCH   8  23
BRANCH   1  27
HETATM   27  C   UNL     1      -5.295   6.628 -31.001  1.00  0.00    -0.035 A 
HETATM   28  C   UNL     1      -4.557   7.798 -31.229  1.00  0.00     0.012 A 
HETATM   29  C   UNL     1      -3.832   8.404 -30.199  1.00  0.00     0.037 A 
HETATM   30  C   UNL     1      -3.818   7.856 -28.917  1.00  0.00     0.068 A 
HETATM   31  C   UNL     1      -4.537   6.688 -28.674  1.00  0.00     0.037 A 
HETATM   32  C   UNL     1      -5.267   6.083 -29.705  1.00  0.00     0.012 A 
BRANCH  30  33
HETATM   33  O   UNL     1      -3.067   8.546 -28.008  1.00  0.00    -0.356 OA
HETATM   34  C   UNL     1      -3.503   8.515 -26.655  1.00  0.00     0.210 C 
ENDBRANCH  30  33
ENDBRANCH   1  27
TORSDOF 6
ENDMDL
MODEL 9
REMARK VINA RESULT:      -8.4     17.122     19.345
REMARK  6 active torsions:
REMARK  status: ('A' for Active; 'I' for Inactive)
REMARK    1  A    between atoms: O_2  and  C_3 
REMARK    2  A    between atoms: C_6  and  C_7 
REMARK    3  A    between atoms: C_12  and  C_13 
REMARK       I    between atoms: C_13  and  N_14 
REMARK    4  A    between atoms: N_14  and  C_15 
REMARK    5  A    between atoms: C_17  and  O_18 
REMARK    6  A    between atoms: C_24  and  C_25 
ROOT
HETATM    1  C   UNL     1      -0.653 -13.209 -39.087  1.00  0.00     0.118 C 
HETATM    2  N   UNL     1      -1.786 -12.645 -38.361  1.00  0.00    -0.366 N 
HETATM    3  C   UNL     1      -3.068 -12.920 -38.678  1.00  0.00     0.123 A 
HETATM    4  N   UNL     1      -3.394 -13.707 -39.746  1.00  0.00    -0.240 N 
HETATM    5  N   UNL     1      -4.717 -13.794 -39.980  1.00  0.00    -0.165 NA
HETATM    6  C   UNL     1      -5.262 -13.115 -38.944  1.00  0.00     0.148 A 
HETATM    7  C   UNL     1      -4.258 -12.549 -38.111  1.00  0.00     0.089 A 
HETATM    8  C   UNL     1      -2.419 -14.358 -40.599  1.00  0.00     0.221 C 
HETATM    9  C   UNL     1      -1.066 -13.631 -40.510  1.00  0.00     0.066 C 
HETATM   10  H   UNL     1      -1.551 -12.141 -37.507  1.00  0.00     0.161 HD
ENDROOT
BRANCH   6  11
HETATM   11  C   UNL     1      -6.721 -13.000 -38.762  1.00  0.00     0.276 C 
HETATM   12  N   UNL     1      -7.398 -13.099 -39.962  1.00  0.00    -0.322 N 
HETATM   13  H   UNL     1      -6.783 -13.211 -40.765  1.00  0.00     0.169 HD
HETATM   14  O   UNL     1      -7.217 -12.827 -37.655  1.00  0.00    -0.266 OA
BRANCH  12  15
HETATM   15  C   UNL     1      -8.784 -13.051 -40.191  1.00  0.00     0.037 A 
HETATM   16  C   UNL     1      -9.514 -11.864 -40.280  1.00  0.00     0.066 A 
HETATM   17  C   UNL     1     -10.890 -11.911 -40.502  1.00  0.00     0.067 A 
HETATM   18  C   UNL     1     -11.553 -13.123 -40.644  1.00  0.00     0.036 A 
HETATM   19  C   UNL     1     -10.832 -14.312 -40.555  1.00  0.00     0.005 A 
HETATM   20  C   UNL     1      -9.454 -14.274 -40.325  1.00  0.00     0.029 A 
BRANCH  17  21
HETATM   21  O   UNL     1     -11.633 -10.769 -40.585  1.00  0.00    -0.361 OA
HETATM   22  H   UNL     1     -11.578 -10.307 -39.731  1.00  0.00     0.217 HD
ENDBRANCH  17  21
ENDBRANCH  12  15
ENDBRANCH   6  11
BRANCH   8  23
HETATM   23  C   UNL     1      -2.352 -15.833 -40.273  1.00  0.00     0.409 C 
HETATM   24  F   UNL     1      -2.701 -16.133 -39.009  1.00  0.00    -0.169 F 
HETATM   25  F   UNL     1      -3.147 -16.561 -41.095  1.00  0.00    -0.169 F 
HETATM   26  F   UNL     1      -1.090 -16.295 -40.464  1.00  0.00    -0.169 F 
ENDBRANCH   8  23
BRANCH   1  27
HETATM   27  C   UNL     1       0.089 -14.269 -38.291  1.00  0.00    -0.035 A 
HETATM   28  C   UNL     1       1.357 -14.749 -38.650  1.00  0.00     0.012 A 
HETATM   29  C   UNL     1       1.988 -15.745 -37.899  1.00  0.00     0.037 A 
HETATM   30  C   UNL     1       1.369 -16.295 -36.777  1.00  0.00     0.068 A 
HETATM   31  C   UNL     1       0.104 -15.838 -36.412  1.00  0.00     0.037 A 
HETATM   32  C   UNL     1      -0.527 -14.837 -37.162  1.00  0.00     0.012 A 
BRANCH  30  33
HETATM   33  O   UNL     1       2.093 -17.262 -36.139  1.00  0.00    -0.356 OA
HETATM   34  C   UNL     1       2.756 -16.885 -34.939  1.00  0.00     0.210 C 
ENDBRANCH  30  33
ENDBRANCH   1  27
TORSDOF 6
ENDMDL
MODEL 10
REMARK VINA RESULT:      -8.3      3.011      9.574
REMARK  6 active torsions:
REMARK  status: ('A' for Active; 'I' for Inactive)
REMARK    1  A    between atoms: O_2  and  C_3 
REMARK    2  A    between atoms: C_6  and  C_7 
REMARK    3  A    between atoms: C_12  and  C_13 
REMARK       I    between atoms: C_13  and  N_14 
REMARK    4  A    between atoms: N_14  and  C_15 
REMARK    5  A    between atoms: C_17  and  O_18 
REMARK    6  A    between atoms: C_24  and  C_25 
ROOT
HETATM    1  C   UNL     1      -2.718   7.912 -29.686  1.00  0.00     0.118 C 
HETATM    2  N   UNL     1      -3.784   6.971 -29.357  1.00  0.00    -0.366 N 
HETATM    3  C   UNL     1      -4.069   5.894 -30.116  1.00  0.00     0.123 A 
HETATM    4  N   UNL     1      -3.410   5.642 -31.286  1.00  0.00    -0.240 N 
HETATM    5  N   UNL     1      -3.888   4.585 -31.969  1.00  0.00    -0.165 NA
HETATM    6  C   UNL     1      -4.828   4.076 -31.138  1.00  0.00     0.148 A 
HETATM    7  C   UNL     1      -4.972   4.875 -29.970  1.00  0.00     0.089 A 
HETATM    8  C   UNL     1      -2.323   6.457 -31.795  1.00  0.00     0.221 C 
HETATM    9  C   UNL     1      -2.392   7.870 -31.191  1.00  0.00     0.066 C 
HETATM   10  H   UNL     1      -4.211   7.097 -28.439  1.00  0.00     0.161 HD
ENDROOT
BRANCH   6  11
HETATM   11  C   UNL     1      -5.584   2.853 -31.464  1.00  0.00     0.276 C 
HETATM   12  N   UNL     1      -5.227   2.340 -32.696  1.00  0.00    -0.322 N 
HETATM   13  H   UNL     1      -4.526   2.899 -33.177  1.00  0.00     0.169 HD
HETATM   14  O   UNL     1      -6.426   2.398 -30.698  1.00  0.00    -0.266 OA
BRANCH  12  15
HETATM   15  C   UNL     1      -5.714   1.189 -33.338  1.00  0.00     0.037 A 
HETATM   16  C   UNL     1      -6.772   1.199 -34.250  1.00  0.00     0.066 A 
HETATM   17  C   UNL     1      -7.194   0.005 -34.835  1.00  0.00     0.067 A 
HETATM   18  C   UNL     1      -6.575  -1.201 -34.532  1.00  0.00     0.036 A 
HETATM   19  C   UNL     1      -5.519  -1.219 -33.624  1.00  0.00     0.005 A 
HETATM   20  C   UNL     1      -5.094  -0.028 -33.027  1.00  0.00     0.029 A 
BRANCH  17  21
HETATM   21  O   UNL     1      -8.231  -0.020 -35.722  1.00  0.00    -0.361 OA
HETATM   22  H   UNL     1      -8.499  -0.946 -35.851  1.00  0.00     0.217 HD
ENDBRANCH  17  21
ENDBRANCH  12  15
ENDBRANCH   6  11
BRANCH   8  23
HETATM   23  C   UNL     1      -1.004   5.753 -31.575  1.00  0.00     0.409 C 
HETATM   24  F   UNL     1       0.062   6.573 -31.568  1.00  0.00    -0.169 F 
HETATM   25  F   UNL     1      -0.994   5.068 -30.406  1.00  0.00    -0.169 F 
HETATM   26  F   UNL     1      -0.799   4.832 -32.552  1.00  0.00    -0.169 F 
ENDBRANCH   8  23
BRANCH   1  27
HETATM   27  C   UNL     1      -1.518   7.790 -28.763  1.00  0.00    -0.035 A 
HETATM   28  C   UNL     1      -0.269   8.360 -29.051  1.00  0.00     0.012 A 
HETATM   29  C   UNL     1       0.813   8.197 -28.181  1.00  0.00     0.037 A 
HETATM   30  C   UNL     1       0.682   7.457 -27.007  1.00  0.00     0.068 A 
HETATM   31  C   UNL     1      -0.549   6.875 -26.710  1.00  0.00     0.037 A 
HETATM   32  C   UNL     1      -1.635   7.041 -27.579  1.00  0.00     0.012 A 
BRANCH  30  33
HETATM   33  O   UNL     1       1.817   7.374 -26.252  1.00  0.00    -0.356 OA
HETATM   34  C   UNL     1       2.256   8.566 -25.613  1.00  0.00     0.210 C 
ENDBRANCH  30  33
ENDBRANCH   1  27
TORSDOF 6
ENDMDL
