MODEL 1
REMARK VINA RESULT:      -8.5      0.000      0.000
REMARK  5 active torsions:
REMARK  status: ('A' for Active; 'I' for Inactive)
REMARK    1  A    between atoms: C_4  and  C_5 
REMARK       I    between atoms: C_5  and  N_6 
REMARK    2  A    between atoms: N_6  and  C_7 
REMARK    3  A    between atoms: C_10  and  N_11 
REMARK       I    between atoms: N_11  and  C_12 
REMARK       I    between atoms: C_12  and  N_13 
REMARK    4  A    between atoms: N_13  and  C_14 
REMARK    5  A    between atoms: C_14  and  C_15 
ROOT
HETATM    1  C   UNL     1      -2.642   5.060 -31.230  1.00  0.00     0.035 A 
HETATM    2  C   UNL     1      -2.281   4.434 -32.423  1.00  0.00     0.032 A 
HETATM    3  C   UNL     1      -3.256   3.848 -33.254  1.00  0.00     0.032 A 
HETATM    4  C   UNL     1      -4.601   3.865 -32.888  1.00  0.00     0.036 A 
HETATM    5  C   UNL     1      -4.955   4.491 -31.686  1.00  0.00     0.032 A 
HETATM    6  C   UNL     1      -3.990   5.081 -30.866  1.00  0.00     0.032 A 
ENDROOT
BRANCH   4   7
HETATM    7  N   UNL     1      -5.668   3.357 -33.647  1.00  0.00    -0.309 N 
HETATM    8  C   UNL     1      -6.295   2.162 -33.742  1.00  0.00     0.321 C 
HETATM    9  N   UNL     1      -6.075   1.214 -32.803  1.00  0.00    -0.337 N 
HETATM   10  O   UNL     1      -7.074   1.988 -34.680  1.00  0.00    -0.247 OA
HETATM   11  H   UNL     1      -5.890   1.535 -31.862  1.00  0.00     0.164 HD
HETATM   12  H   UNL     1      -6.041   3.983 -34.351  1.00  0.00     0.170 HD
BRANCH   9  13
HETATM   13  C   UNL     1      -6.832  -0.018 -32.879  1.00  0.00     0.183 C 
BRANCH  13  14
HETATM   14  C   UNL     1      -6.043  -1.185 -33.426  1.00  0.00     0.053 A 
HETATM   15  N   UNL     1      -4.718  -1.273 -33.128  1.00  0.00    -0.264 NA
HETATM   16  C   UNL     1      -4.040  -2.341 -33.607  1.00  0.00     0.118 A 
HETATM   17  C   UNL     1      -4.618  -3.345 -34.358  1.00  0.00     0.043 A 
HETATM   18  C   UNL     1      -5.974  -3.243 -34.632  1.00  0.00     0.037 A 
HETATM   19 CL   UNL     1      -6.759  -4.471 -35.548  1.00  0.00    -0.084 Cl
HETATM   20  C   UNL     1      -6.704  -2.158 -34.168  1.00  0.00     0.052 A 
ENDBRANCH  13  14
ENDBRANCH   9  13
ENDBRANCH   4   7
BRANCH   1  21
HETATM   21  N   UNL     1      -1.747   5.710 -30.364  1.00  0.00    -0.321 N 
HETATM   22  C   UNL     1      -0.459   5.348 -30.013  1.00  0.00     0.279 C 
HETATM   23  O   UNL     1       0.115   4.324 -30.364  1.00  0.00    -0.265 OA
HETATM   24  H   UNL     1      -2.061   6.580 -29.945  1.00  0.00     0.169 HD
BRANCH  22  25
HETATM   25  C   UNL     1       0.172   6.337 -29.152  1.00  0.00     0.142 A 
HETATM   26  O   UNL     1       0.436   6.016 -27.842  1.00  0.00    -0.317 OA
HETATM   27  C   UNL     1       0.999   7.110 -27.266  1.00  0.00     0.143 A 
HETATM   28  C   UNL     1       1.111   8.131 -28.179  1.00  0.00     0.027 A 
HETATM   29  C   UNL     1       0.580   7.635 -29.394  1.00  0.00     0.045 A 
ENDBRANCH  22  25
ENDBRANCH   1  21
TORSDOF 5
ENDMDL
MODEL 2
REMARK VINA RESULT:      -8.3      4.885      9.016
REMARK  5 active torsions:
REMARK  status: ('A' for Active; 'I' for Inactive)
REMARK    1  A    between atoms: C_4  and  C_5 
REMARK       I    between atoms: C_5  and  N_6 
REMARK    2  A    between atoms: N_6  and  C_7 
REMARK    3  A    between atoms: C_10  and  N_11 
REMARK       I    between atoms: N_11  and  C_12 
REMARK       I    between atoms: C_12  and  N_13 
REMARK    4  A    between atoms: N_13  and  C_14 
REMARK    5  A    between atoms: C_14  and  C_15 
ROOT
HETATM    1  C   UNL     1      -9.539   1.591 -32.896  1.00  0.00     0.035 A 
HETATM    2  C   UNL     1      -8.650   1.894 -33.928  1.00  0.00     0.032 A 
HETATM    3  C   UNL     1      -7.262   1.950 -33.692  1.00  0.00     0.032 A 
HETATM    4  C   UNL     1      -6.751   1.725 -32.416  1.00  0.00     0.036 A 
HETATM    5  C   UNL     1      -7.650   1.426 -31.383  1.00  0.00     0.032 A 
HETATM    6  C   UNL     1      -9.025   1.360 -31.618  1.00  0.00     0.032 A 
ENDROOT
BRANCH   4   7
HETATM    7  N   UNL     1      -5.392   1.708 -32.063  1.00  0.00    -0.309 N 
HETATM    8  C   UNL     1      -4.408   0.780 -32.078  1.00  0.00     0.321 C 
HETATM    9  N   UNL     1      -4.590  -0.377 -32.754  1.00  0.00    -0.337 N 
HETATM   10  O   UNL     1      -3.357   1.038 -31.489  1.00  0.00    -0.247 OA
HETATM   11  H   UNL     1      -5.164  -0.337 -33.585  1.00  0.00     0.164 HD
HETATM   12  H   UNL     1      -5.043   2.553 -31.626  1.00  0.00     0.170 HD
BRANCH   9  13
HETATM   13  C   UNL     1      -3.484  -1.309 -32.832  1.00  0.00     0.183 C 
BRANCH  13  14
HETATM   14  C   UNL     1      -3.880  -2.685 -33.315  1.00  0.00     0.053 A 
HETATM   15  N   UNL     1      -3.207  -3.764 -32.832  1.00  0.00    -0.264 NA
HETATM   16  C   UNL     1      -3.599  -4.986 -33.259  1.00  0.00     0.118 A 
HETATM   17  C   UNL     1      -4.647  -5.196 -34.134  1.00  0.00     0.043 A 
HETATM   18  C   UNL     1      -5.330  -4.081 -34.596  1.00  0.00     0.037 A 
HETATM   19 CL   UNL     1      -6.658  -4.275 -35.674  1.00  0.00    -0.084 Cl
HETATM   20  C   UNL     1      -4.953  -2.808 -34.191  1.00  0.00     0.052 A 
ENDBRANCH  13  14
ENDBRANCH   9  13
ENDBRANCH   4   7
BRANCH   1  21
HETATM   21  N   UNL     1     -10.930   1.467 -33.048  1.00  0.00    -0.321 N 
HETATM   22  C   UNL     1     -11.858   2.436 -33.383  1.00  0.00     0.279 C 
HETATM   23  O   UNL     1     -11.618   3.627 -33.547  1.00  0.00    -0.265 OA
HETATM   24  H   UNL     1     -11.326   0.541 -32.920  1.00  0.00     0.169 HD
BRANCH  22  25
HETATM   25  C   UNL     1     -13.197   1.885 -33.524  1.00  0.00     0.142 A 
HETATM   26  O   UNL     1     -14.157   2.206 -32.594  1.00  0.00    -0.317 OA
HETATM   27  C   UNL     1     -15.293   1.550 -32.947  1.00  0.00     0.143 A 
HETATM   28  C   UNL     1     -15.090   0.817 -34.092  1.00  0.00     0.027 A 
HETATM   29  C   UNL     1     -13.741   1.032 -34.466  1.00  0.00     0.045 A 
ENDBRANCH  22  25
ENDBRANCH   1  21
TORSDOF 5
ENDMDL
MODEL 3
REMARK VINA RESULT:      -8.3      4.119      9.600
REMARK  5 active torsions:
REMARK  status: ('A' for Active; 'I' for Inactive)
REMARK    1  A    between atoms: C_4  and  C_5 
REMARK       I    between atoms: C_5  and  N_6 
REMARK    2  A    between atoms: N_6  and  C_7 
REMARK    3  A    between atoms: C_10  and  N_11 
REMARK       I    between atoms: N_11  and  C_12 
REMARK       I    between atoms: C_12  and  N_13 
REMARK    4  A    between atoms: N_13  and  C_14 
REMARK    5  A    between atoms: C_14  and  C_15 
ROOT
HETATM    1  C   UNL     1      -6.095   0.101 -31.822  1.00  0.00     0.035 A 
HETATM    2  C   UNL     1      -5.670   0.085 -30.493  1.00  0.00     0.032 A 
HETATM    3  C   UNL     1      -5.715   1.253 -29.707  1.00  0.00     0.032 A 
HETATM    4  C   UNL     1      -6.166   2.455 -30.250  1.00  0.00     0.036 A 
HETATM    5  C   UNL     1      -6.585   2.465 -31.586  1.00  0.00     0.032 A 
HETATM    6  C   UNL     1      -6.551   1.305 -32.364  1.00  0.00     0.032 A 
ENDROOT
BRANCH   4   7
HETATM    7  N   UNL     1      -6.300   3.672 -29.562  1.00  0.00    -0.309 N 
HETATM    8  C   UNL     1      -5.574   4.811 -29.476  1.00  0.00     0.321 C 
HETATM    9  N   UNL     1      -4.577   5.038 -30.360  1.00  0.00    -0.337 N 
HETATM   10  O   UNL     1      -5.870   5.622 -28.597  1.00  0.00    -0.247 OA
HETATM   11  H   UNL     1      -4.700   4.669 -31.293  1.00  0.00     0.164 HD
HETATM   12  H   UNL     1      -7.075   3.724 -28.912  1.00  0.00     0.170 HD
BRANCH   9  13
HETATM   13  C   UNL     1      -3.882   6.307 -30.302  1.00  0.00     0.183 C 
BRANCH  13  14
HETATM   14  C   UNL     1      -2.385   6.190 -30.479  1.00  0.00     0.053 A 
HETATM   15  N   UNL     1      -1.906   5.393 -31.472  1.00  0.00    -0.264 NA
HETATM   16  C   UNL     1      -0.565   5.326 -31.627  1.00  0.00     0.118 A 
HETATM   17  C   UNL     1       0.335   6.031 -30.851  1.00  0.00     0.043 A 
HETATM   18  C   UNL     1      -0.178   6.851 -29.858  1.00  0.00     0.037 A 
HETATM   19 CL   UNL     1       0.889   7.770 -28.868  1.00  0.00    -0.084 Cl
HETATM   20  C   UNL     1      -1.549   6.940 -29.659  1.00  0.00     0.052 A 
ENDBRANCH  13  14
ENDBRANCH   9  13
ENDBRANCH   4   7
BRANCH   1  21
HETATM   21  N   UNL     1      -6.129  -1.022 -32.665  1.00  0.00    -0.321 N 
HETATM   22  C   UNL     1      -5.148  -1.507 -33.509  1.00  0.00     0.279 C 
HETATM   23  O   UNL     1      -4.062  -0.977 -33.719  1.00  0.00    -0.265 OA
HETATM   24  H   UNL     1      -6.976  -1.582 -32.650  1.00  0.00     0.169 HD
BRANCH  22  25
HETATM   25  C   UNL     1      -5.544  -2.751 -34.151  1.00  0.00     0.142 A 
HETATM   26  O   UNL     1      -4.672  -3.815 -34.149  1.00  0.00    -0.317 OA
HETATM   27  C   UNL     1      -5.275  -4.828 -34.824  1.00  0.00     0.143 A 
HETATM   28  C   UNL     1      -6.521  -4.445 -35.257  1.00  0.00     0.027 A 
HETATM   29  C   UNL     1      -6.697  -3.108 -34.824  1.00  0.00     0.045 A 
ENDBRANCH  22  25
ENDBRANCH   1  21
TORSDOF 5
ENDMDL
MODEL 4
REMARK VINA RESULT:      -8.2      3.583      9.184
REMARK  5 active torsions:
REMARK  status: ('A' for Active; 'I' for Inactive)
REMARK    1  A    between atoms: C_4  and  C_5 
REMARK       I    between atoms: C_5  and  N_6 
REMARK    2  A    between atoms: N_6  and  C_7 
REMARK    3  A    between atoms: C_10  and  N_11 
REMARK       I    between atoms: N_11  and  C_12 
REMARK       I    between atoms: C_12  and  N_13 
REMARK    4  A    between atoms: N_13  and  C_14 
REMARK    5  A    between atoms: C_14  and  C_15 
ROOT
HETATM    1  C   UNL     1      -6.496   0.262 -31.995  1.00  0.00     0.035 A 
HETATM    2  C   UNL     1      -7.041   1.471 -32.428  1.00  0.00     0.032 A 
HETATM    3  C   UNL     1      -7.037   2.605 -31.592  1.00  0.00     0.032 A 
HETATM    4  C   UNL     1      -6.505   2.534 -30.306  1.00  0.00     0.036 A 
HETATM    5  C   UNL     1      -5.965   1.315 -29.877  1.00  0.00     0.032 A 
HETATM    6  C   UNL     1      -5.959   0.193 -30.708  1.00  0.00     0.032 A 
ENDROOT
BRANCH   4   7
HETATM    7  N   UNL     1      -6.402   3.599 -29.397  1.00  0.00    -0.309 N 
HETATM    8  C   UNL     1      -5.591   4.674 -29.267  1.00  0.00     0.321 C 
HETATM    9  N   UNL     1      -4.784   5.032 -30.292  1.00  0.00    -0.337 N 
HETATM   10  O   UNL     1      -5.635   5.312 -28.214  1.00  0.00    -0.247 OA
HETATM   11  H   UNL     1      -5.125   4.855 -31.227  1.00  0.00     0.164 HD
HETATM   12  H   UNL     1      -7.020   3.553 -28.596  1.00  0.00     0.170 HD
BRANCH   9  13
HETATM   13  C   UNL     1      -3.998   6.242 -30.159  1.00  0.00     0.183 C 
BRANCH  13  14
HETATM   14  C   UNL     1      -2.964   6.418 -31.247  1.00  0.00     0.053 A 
HETATM   15  N   UNL     1      -1.850   7.149 -30.975  1.00  0.00    -0.264 NA
HETATM   16  C   UNL     1      -0.927   7.270 -31.957  1.00  0.00     0.118 A 
HETATM   17  C   UNL     1      -1.045   6.680 -33.200  1.00  0.00     0.043 A 
HETATM   18  C   UNL     1      -2.180   5.923 -33.446  1.00  0.00     0.037 A 
HETATM   19 CL   UNL     1      -2.380   5.147 -34.969  1.00  0.00    -0.084 Cl
HETATM   20  C   UNL     1      -3.157   5.783 -32.469  1.00  0.00     0.052 A 
ENDBRANCH  13  14
ENDBRANCH   9  13
ENDBRANCH   4   7
BRANCH   1  21
HETATM   21  N   UNL     1      -6.415  -0.904 -32.775  1.00  0.00    -0.321 N 
HETATM   22  C   UNL     1      -5.357  -1.373 -33.531  1.00  0.00     0.279 C 
HETATM   23  O   UNL     1      -4.291  -0.792 -33.704  1.00  0.00    -0.265 OA
HETATM   24  H   UNL     1      -7.229  -1.511 -32.780  1.00  0.00     0.169 HD
BRANCH  22  25
HETATM   25  C   UNL     1      -5.641  -2.670 -34.126  1.00  0.00     0.142 A 
HETATM   26  O   UNL     1      -4.652  -3.624 -34.160  1.00  0.00    -0.317 OA
HETATM   27  C   UNL     1      -5.171  -4.717 -34.778  1.00  0.00     0.143 A 
HETATM   28  C   UNL     1      -6.477  -4.492 -35.140  1.00  0.00     0.027 A 
HETATM   29  C   UNL     1      -6.782  -3.174 -34.720  1.00  0.00     0.045 A 
ENDBRANCH  22  25
ENDBRANCH   1  21
TORSDOF 5
ENDMDL
MODEL 5
REMARK VINA RESULT:      -8.0      4.102      9.589
REMARK  5 active torsions:
REMARK  status: ('A' for Active; 'I' for Inactive)
REMARK    1  A    between atoms: C_4  and  C_5 
REMARK       I    between atoms: C_5  and  N_6 
REMARK    2  A    between atoms: N_6  and  C_7 
REMARK    3  A    between atoms: C_10  and  N_11 
REMARK       I    between atoms: N_11  and  C_12 
REMARK       I    between atoms: C_12  and  N_13 
REMARK    4  A    between atoms: N_13  and  C_14 
REMARK    5  A    between atoms: C_14  and  C_15 
ROOT
HETATM    1  C   UNL     1      -5.881   1.180 -33.152  1.00  0.00     0.035 A 
HETATM    2  C   UNL     1      -5.536   1.531 -31.846  1.00  0.00     0.032 A 
HETATM    3  C   UNL     1      -5.486   2.882 -31.452  1.00  0.00     0.032 A 
HETATM    4  C   UNL     1      -5.761   3.897 -32.366  1.00  0.00     0.036 A 
HETATM    5  C   UNL     1      -6.101   3.537 -33.676  1.00  0.00     0.032 A 
HETATM    6  C   UNL     1      -6.161   2.197 -34.066  1.00  0.00     0.032 A 
ENDROOT
BRANCH   4   7
HETATM    7  N   UNL     1      -5.789   5.273 -32.086  1.00  0.00    -0.309 N 
HETATM    8  C   UNL     1      -4.861   6.209 -31.779  1.00  0.00     0.321 C 
HETATM    9  N   UNL     1      -3.548   5.930 -31.946  1.00  0.00    -0.337 N 
HETATM   10  O   UNL     1      -5.253   7.305 -31.376  1.00  0.00    -0.247 OA
HETATM   11  H   UNL     1      -3.305   5.309 -32.706  1.00  0.00     0.164 HD
HETATM   12  H   UNL     1      -6.710   5.689 -32.024  1.00  0.00     0.170 HD
BRANCH   9  13
HETATM   13  C   UNL     1      -2.585   6.983 -31.700  1.00  0.00     0.183 C 
BRANCH  13  14
HETATM   14  C   UNL     1      -1.426   6.556 -30.829  1.00  0.00     0.053 A 
HETATM   15  N   UNL     1      -1.015   5.260 -30.880  1.00  0.00    -0.264 NA
HETATM   16  C   UNL     1       0.041   4.910 -30.111  1.00  0.00     0.118 A 
HETATM   17  C   UNL     1       0.729   5.791 -29.300  1.00  0.00     0.043 A 
HETATM   18  C   UNL     1       0.303   7.110 -29.280  1.00  0.00     0.037 A 
HETATM   19 CL   UNL     1       1.128   8.263 -28.304  1.00  0.00    -0.084 Cl
HETATM   20  C   UNL     1      -0.784   7.509 -30.046  1.00  0.00     0.052 A 
ENDBRANCH  13  14
ENDBRANCH   9  13
ENDBRANCH   4   7
BRANCH   1  21
HETATM   21  N   UNL     1      -6.001  -0.139 -33.621  1.00  0.00    -0.321 N 
HETATM   22  C   UNL     1      -5.014  -1.090 -33.804  1.00  0.00     0.279 C 
HETATM   23  O   UNL     1      -3.812  -0.912 -33.640  1.00  0.00    -0.265 OA
HETATM   24  H   UNL     1      -6.936  -0.465 -33.841  1.00  0.00     0.169 HD
BRANCH  22  25
HETATM   25  C   UNL     1      -5.560  -2.371 -34.227  1.00  0.00     0.142 A 
HETATM   26  O   UNL     1      -4.717  -3.448 -34.364  1.00  0.00    -0.317 OA
HETATM   27  C   UNL     1      -5.472  -4.496 -34.785  1.00  0.00     0.143 A 
HETATM   28  C   UNL     1      -6.787  -4.122 -34.917  1.00  0.00     0.027 A 
HETATM   29  C   UNL     1      -6.847  -2.753 -34.557  1.00  0.00     0.045 A 
ENDBRANCH  22  25
ENDBRANCH   1  21
TORSDOF 5
ENDMDL
MODEL 6
REMARK VINA RESULT:      -7.9      1.931      2.399
REMARK  5 active torsions:
REMARK  status: ('A' for Active; 'I' for Inactive)
REMARK    1  A    between atoms: C_4  and  C_5 
REMARK       I    between atoms: C_5  and  N_6 
REMARK    2  A    between atoms: N_6  and  C_7 
REMARK    3  A    between atoms: C_10  and  N_11 
REMARK       I    between atoms: N_11  and  C_12 
REMARK       I    between atoms: C_12  and  N_13 
REMARK    4  A    between atoms: N_13  and  C_14 
REMARK    5  A    between atoms: C_14  and  C_15 
ROOT
HETATM    1  C   UNL     1      -4.318   4.501 -31.274  1.00  0.00     0.035 A 
HETATM    2  C   UNL     1      -5.049   3.537 -30.579  1.00  0.00     0.032 A 
HETATM    3  C   UNL     1      -6.120   2.861 -31.195  1.00  0.00     0.032 A 
HETATM    4  C   UNL     1      -6.485   3.158 -32.506  1.00  0.00     0.036 A 
HETATM    5  C   UNL     1      -5.750   4.131 -33.196  1.00  0.00     0.032 A 
HETATM    6  C   UNL     1      -4.680   4.795 -32.590  1.00  0.00     0.032 A 
ENDROOT
BRANCH   4   7
HETATM    7  N   UNL     1      -7.500   2.527 -33.243  1.00  0.00    -0.309 N 
HETATM    8  C   UNL     1      -7.574   1.426 -34.026  1.00  0.00     0.321 C 
HETATM    9  N   UNL     1      -6.562   0.529 -34.018  1.00  0.00    -0.337 N 
HETATM   10  O   UNL     1      -8.587   1.267 -34.710  1.00  0.00    -0.247 OA
HETATM   11  H   UNL     1      -6.063   0.411 -33.147  1.00  0.00     0.164 HD
HETATM   12  H   UNL     1      -8.386   3.017 -33.276  1.00  0.00     0.170 HD
BRANCH   9  13
HETATM   13  C   UNL     1      -6.713  -0.685 -34.793  1.00  0.00     0.183 C 
BRANCH  13  14
HETATM   14  C   UNL     1      -5.766  -1.789 -34.385  1.00  0.00     0.053 A 
HETATM   15  N   UNL     1      -5.815  -2.972 -35.056  1.00  0.00    -0.264 NA
HETATM   16  C   UNL     1      -4.939  -3.934 -34.689  1.00  0.00     0.118 A 
HETATM   17  C   UNL     1      -3.994  -3.777 -33.694  1.00  0.00     0.043 A 
HETATM   18  C   UNL     1      -3.951  -2.555 -33.038  1.00  0.00     0.037 A 
HETATM   19 CL   UNL     1      -2.785  -2.287 -31.800  1.00  0.00    -0.084 Cl
HETATM   20  C   UNL     1      -4.840  -1.544 -33.377  1.00  0.00     0.052 A 
ENDBRANCH  13  14
ENDBRANCH   9  13
ENDBRANCH   4   7
BRANCH   1  21
HETATM   21  N   UNL     1      -3.208   5.190 -30.758  1.00  0.00    -0.321 N 
HETATM   22  C   UNL     1      -1.884   5.126 -31.153  1.00  0.00     0.279 C 
HETATM   23  O   UNL     1      -1.431   4.379 -32.013  1.00  0.00    -0.265 OA
HETATM   24  H   UNL     1      -3.384   5.846 -30.004  1.00  0.00     0.169 HD
BRANCH  22  25
HETATM   25  C   UNL     1      -1.048   6.065 -30.419  1.00  0.00     0.142 A 
HETATM   26  O   UNL     1      -1.635   6.932 -29.529  1.00  0.00    -0.317 OA
HETATM   27  C   UNL     1      -0.645   7.700 -29.005  1.00  0.00     0.143 A 
HETATM   28  C   UNL     1       0.572   7.343 -29.533  1.00  0.00     0.027 A 
HETATM   29  C   UNL     1       0.315   6.290 -30.444  1.00  0.00     0.045 A 
ENDBRANCH  22  25
ENDBRANCH   1  21
TORSDOF 5
ENDMDL
MODEL 7
REMARK VINA RESULT:      -7.7      2.355      3.382
REMARK  5 active torsions:
REMARK  status: ('A' for Active; 'I' for Inactive)
REMARK    1  A    between atoms: C_4  and  C_5 
REMARK       I    between atoms: C_5  and  N_6 
REMARK    2  A    between atoms: N_6  and  C_7 
REMARK    3  A    between atoms: C_10  and  N_11 
REMARK       I    between atoms: N_11  and  C_12 
REMARK       I    between atoms: C_12  and  N_13 
REMARK    4  A    between atoms: N_13  and  C_14 
REMARK    5  A    between atoms: C_14  and  C_15 
ROOT
HETATM    1  C   UNL     1      -1.208   7.301 -30.621  1.00  0.00     0.035 A 
HETATM    2  C   UNL     1      -2.597   7.161 -30.638  1.00  0.00     0.032 A 
HETATM    3  C   UNL     1      -3.267   6.762 -31.811  1.00  0.00     0.032 A 
HETATM    4  C   UNL     1      -2.556   6.518 -32.985  1.00  0.00     0.036 A 
HETATM    5  C   UNL     1      -1.163   6.665 -32.961  1.00  0.00     0.032 A 
HETATM    6  C   UNL     1      -0.496   7.051 -31.796  1.00  0.00     0.032 A 
ENDROOT
BRANCH   4   7
HETATM    7  N   UNL     1      -3.101   6.074 -34.201  1.00  0.00    -0.309 N 
HETATM    8  C   UNL     1      -4.110   5.246 -34.554  1.00  0.00     0.321 C 
HETATM    9  N   UNL     1      -5.008   4.849 -33.624  1.00  0.00    -0.337 N 
HETATM   10  O   UNL     1      -4.191   4.898 -35.733  1.00  0.00    -0.247 OA
HETATM   11  H   UNL     1      -5.221   5.505 -32.884  1.00  0.00     0.164 HD
HETATM   12  H   UNL     1      -2.606   6.367 -35.035  1.00  0.00     0.170 HD
BRANCH   9  13
HETATM   13  C   UNL     1      -6.131   4.041 -34.052  1.00  0.00     0.183 C 
BRANCH  13  14
HETATM   14  C   UNL     1      -6.053   2.602 -33.596  1.00  0.00     0.053 A 
HETATM   15  N   UNL     1      -5.533   2.334 -32.368  1.00  0.00    -0.264 NA
HETATM   16  C   UNL     1      -5.499   1.041 -31.973  1.00  0.00     0.118 A 
HETATM   17  C   UNL     1      -5.978  -0.009 -32.732  1.00  0.00     0.043 A 
HETATM   18  C   UNL     1      -6.522   0.292 -33.971  1.00  0.00     0.037 A 
HETATM   19 CL   UNL     1      -7.152  -0.968 -34.960  1.00  0.00    -0.084 Cl
HETATM   20  C   UNL     1      -6.566   1.605 -34.420  1.00  0.00     0.052 A 
ENDBRANCH  13  14
ENDBRANCH   9  13
ENDBRANCH   4   7
BRANCH   1  21
HETATM   21  N   UNL     1      -0.453   7.648 -29.489  1.00  0.00    -0.321 N 
HETATM   22  C   UNL     1       0.228   6.824 -28.612  1.00  0.00     0.279 C 
HETATM   23  O   UNL     1       0.233   5.598 -28.642  1.00  0.00    -0.265 OA
HETATM   24  H   UNL     1      -0.365   8.637 -29.280  1.00  0.00     0.169 HD
BRANCH  22  25
HETATM   25  C   UNL     1       0.964   7.580 -27.610  1.00  0.00     0.142 A 
HETATM   26  O   UNL     1       0.989   7.128 -26.312  1.00  0.00    -0.317 OA
HETATM   27  C   UNL     1       1.718   8.019 -25.591  1.00  0.00     0.143 A 
HETATM   28  C   UNL     1       2.171   9.036 -26.397  1.00  0.00     0.027 A 
HETATM   29  C   UNL     1       1.688   8.754 -27.698  1.00  0.00     0.045 A 
ENDBRANCH  22  25
ENDBRANCH   1  21
TORSDOF 5
ENDMDL
MODEL 8
REMARK VINA RESULT:      -7.7      4.721     10.206
REMARK  5 active torsions:
REMARK  status: ('A' for Active; 'I' for Inactive)
REMARK    1  A    between atoms: C_4  and  C_5 
REMARK       I    between atoms: C_5  and  N_6 
REMARK    2  A    between atoms: N_6  and  C_7 
REMARK    3  A    between atoms: C_10  and  N_11 
REMARK       I    between atoms: N_11  and  C_12 
REMARK       I    between atoms: C_12  and  N_13 
REMARK    4  A    between atoms: N_13  and  C_14 
REMARK    5  A    between atoms: C_14  and  C_15 
ROOT
HETATM    1  C   UNL     1      -9.187   1.457 -31.909  1.00  0.00     0.035 A 
HETATM    2  C   UNL     1      -8.650   2.442 -31.080  1.00  0.00     0.032 A 
HETATM    3  C   UNL     1      -7.289   2.419 -30.718  1.00  0.00     0.032 A 
HETATM    4  C   UNL     1      -6.455   1.397 -31.167  1.00  0.00     0.036 A 
HETATM    5  C   UNL     1      -7.002   0.408 -31.995  1.00  0.00     0.032 A 
HETATM    6  C   UNL     1      -8.349   0.436 -32.363  1.00  0.00     0.032 A 
ENDROOT
BRANCH   4   7
HETATM    7  N   UNL     1      -5.078   1.287 -30.915  1.00  0.00    -0.309 N 
HETATM    8  C   UNL     1      -3.961   1.852 -31.426  1.00  0.00     0.321 C 
HETATM    9  N   UNL     1      -4.066   2.936 -32.229  1.00  0.00    -0.337 N 
HETATM   10  O   UNL     1      -2.871   1.367 -31.118  1.00  0.00    -0.247 OA
HETATM   11  H   UNL     1      -4.829   3.572 -32.041  1.00  0.00     0.164 HD
HETATM   12  H   UNL     1      -4.811   0.576 -30.244  1.00  0.00     0.170 HD
BRANCH   9  13
HETATM   13  C   UNL     1      -2.849   3.576 -32.683  1.00  0.00     0.183 C 
BRANCH  13  14
HETATM   14  C   UNL     1      -2.307   4.607 -31.719  1.00  0.00     0.053 A 
HETATM   15  N   UNL     1      -1.019   4.492 -31.298  1.00  0.00    -0.264 NA
HETATM   16  C   UNL     1      -0.550   5.443 -30.458  1.00  0.00     0.118 A 
HETATM   17  C   UNL     1      -1.295   6.522 -30.024  1.00  0.00     0.043 A 
HETATM   18  C   UNL     1      -2.599   6.627 -30.483  1.00  0.00     0.037 A 
HETATM   19 CL   UNL     1      -3.575   7.958 -29.995  1.00  0.00    -0.084 Cl
HETATM   20  C   UNL     1      -3.122   5.667 -31.339  1.00  0.00     0.052 A 
ENDBRANCH  13  14
ENDBRANCH   9  13
ENDBRANCH   4   7
BRANCH   1  21
HETATM   21  N   UNL     1     -10.518   1.426 -32.358  1.00  0.00    -0.321 N 
HETATM   22  C   UNL     1     -11.050   1.917 -33.536  1.00  0.00     0.279 C 
HETATM   23  O   UNL     1     -10.433   2.543 -34.391  1.00  0.00    -0.265 OA
HETATM   24  H   UNL     1     -11.194   0.964 -31.759  1.00  0.00     0.169 HD
BRANCH  22  25
HETATM   25  C   UNL     1     -12.466   1.609 -33.667  1.00  0.00     0.142 A 
HETATM   26  O   UNL     1     -13.372   2.262 -32.865  1.00  0.00    -0.317 OA
HETATM   27  C   UNL     1     -14.602   1.777 -33.174  1.00  0.00     0.143 A 
HETATM   28  C   UNL     1     -14.513   0.829 -34.165  1.00  0.00     0.027 A 
HETATM   29  C   UNL     1     -13.138   0.720 -34.484  1.00  0.00     0.045 A 
ENDBRANCH  22  25
ENDBRANCH   1  21
TORSDOF 5
ENDMDL
MODEL 9
REMARK VINA RESULT:      -7.7      3.451      4.531
REMARK  5 active torsions:
REMARK  status: ('A' for Active; 'I' for Inactive)
REMARK    1  A    between atoms: C_4  and  C_5 
REMARK       I    between atoms: C_5  and  N_6 
REMARK    2  A    between atoms: N_6  and  C_7 
REMARK    3  A    between atoms: C_10  and  N_11 
REMARK       I    between atoms: N_11  and  C_12 
REMARK       I    between atoms: C_12  and  N_13 
REMARK    4  A    between atoms: N_13  and  C_14 
REMARK    5  A    between atoms: C_14  and  C_15 
ROOT
HETATM    1  C   UNL     1      -3.479   3.264 -31.548  1.00  0.00     0.035 A 
HETATM    2  C   UNL     1      -3.406   1.899 -31.267  1.00  0.00     0.032 A 
HETATM    3  C   UNL     1      -4.240   0.980 -31.934  1.00  0.00     0.032 A 
HETATM    4  C   UNL     1      -5.170   1.420 -32.874  1.00  0.00     0.036 A 
HETATM    5  C   UNL     1      -5.240   2.792 -33.147  1.00  0.00     0.032 A 
HETATM    6  C   UNL     1      -4.407   3.704 -32.494  1.00  0.00     0.032 A 
ENDROOT
BRANCH   4   7
HETATM    7  N   UNL     1      -6.022   0.604 -33.634  1.00  0.00    -0.309 N 
HETATM    8  C   UNL     1      -7.291   0.155 -33.502  1.00  0.00     0.321 C 
HETATM    9  N   UNL     1      -8.103   0.707 -32.572  1.00  0.00    -0.337 N 
HETATM   10  O   UNL     1      -7.674  -0.737 -34.261  1.00  0.00    -0.247 OA
HETATM   11  H   UNL     1      -7.964   1.687 -32.367  1.00  0.00     0.164 HD
HETATM   12  H   UNL     1      -5.603   0.175 -34.451  1.00  0.00     0.170 HD
BRANCH   9  13
HETATM   13  C   UNL     1      -9.483   0.271 -32.518  1.00  0.00     0.183 C 
BRANCH  13  14
HETATM   14  C   UNL     1     -10.427   1.139 -33.318  1.00  0.00     0.053 A 
HETATM   15  N   UNL     1      -9.949   2.290 -33.864  1.00  0.00    -0.264 NA
HETATM   16  C   UNL     1     -10.806   3.035 -34.598  1.00  0.00     0.118 A 
HETATM   17  C   UNL     1     -12.120   2.684 -34.838  1.00  0.00     0.043 A 
HETATM   18  C   UNL     1     -12.578   1.496 -34.288  1.00  0.00     0.037 A 
HETATM   19 CL   UNL     1     -14.200   0.992 -34.563  1.00  0.00    -0.084 Cl
HETATM   20  C   UNL     1     -11.733   0.707 -33.518  1.00  0.00     0.052 A 
ENDBRANCH  13  14
ENDBRANCH   9  13
ENDBRANCH   4   7
BRANCH   1  21
HETATM   21  N   UNL     1      -2.657   4.245 -30.968  1.00  0.00    -0.321 N 
HETATM   22  C   UNL     1      -1.562   4.893 -31.510  1.00  0.00     0.279 C 
HETATM   23  O   UNL     1      -1.068   4.663 -32.608  1.00  0.00    -0.265 OA
HETATM   24  H   UNL     1      -2.896   4.550 -30.030  1.00  0.00     0.169 HD
BRANCH  22  25
HETATM   25  C   UNL     1      -1.031   5.911 -30.615  1.00  0.00     0.142 A 
HETATM   26  O   UNL     1      -1.901   6.652 -29.850  1.00  0.00    -0.317 OA
HETATM   27  C   UNL     1      -1.154   7.530 -29.132  1.00  0.00     0.143 A 
HETATM   28  C   UNL     1       0.182   7.369 -29.412  1.00  0.00     0.027 A 
HETATM   29  C   UNL     1       0.263   6.326 -30.366  1.00  0.00     0.045 A 
ENDBRANCH  22  25
ENDBRANCH   1  21
TORSDOF 5
ENDMDL
MODEL 10
REMARK VINA RESULT:      -7.7     16.835     18.760
REMARK  5 active torsions:
REMARK  status: ('A' for Active; 'I' for Inactive)
REMARK    1  A    between atoms: C_4  and  C_5 
REMARK       I    between atoms: C_5  and  N_6 
REMARK    2  A    between atoms: N_6  and  C_7 
REMARK    3  A    between atoms: C_10  and  N_11 
REMARK       I    between atoms: N_11  and  C_12 
REMARK       I    between atoms: C_12  and  N_13 
REMARK    4  A    between atoms: N_13  and  C_14 
REMARK    5  A    between atoms: C_14  and  C_15 
ROOT
HETATM    1  C   UNL     1      -5.419 -15.314 -33.106  1.00  0.00     0.035 A 
HETATM    2  C   UNL     1      -4.680 -15.855 -34.159  1.00  0.00     0.032 A 
HETATM    3  C   UNL     1      -4.298 -15.058 -35.256  1.00  0.00     0.032 A 
HETATM    4  C   UNL     1      -4.670 -13.717 -35.321  1.00  0.00     0.036 A 
HETATM    5  C   UNL     1      -5.416 -13.182 -34.262  1.00  0.00     0.032 A 
HETATM    6  C   UNL     1      -5.787 -13.968 -33.169  1.00  0.00     0.032 A 
ENDROOT
BRANCH   4   7
HETATM    7  N   UNL     1      -4.316 -12.811 -36.334  1.00  0.00    -0.309 N 
HETATM    8  C   UNL     1      -4.734 -12.574 -37.598  1.00  0.00     0.321 C 
HETATM    9  N   UNL     1      -5.886 -13.131 -38.038  1.00  0.00    -0.337 N 
HETATM   10  O   UNL     1      -4.054 -11.829 -38.305  1.00  0.00    -0.247 OA
HETATM   11  H   UNL     1      -6.619 -13.266 -37.355  1.00  0.00     0.164 HD
HETATM   12  H   UNL     1      -3.517 -12.222 -36.134  1.00  0.00     0.170 HD
BRANCH   9  13
HETATM   13  C   UNL     1      -6.356 -12.783 -39.363  1.00  0.00     0.183 C 
BRANCH  13  14
HETATM   14  C   UNL     1      -7.823 -13.071 -39.583  1.00  0.00     0.053 A 
HETATM   15  N   UNL     1      -8.284 -14.327 -39.338  1.00  0.00    -0.264 NA
HETATM   16  C   UNL     1      -9.606 -14.553 -39.517  1.00  0.00     0.118 A 
HETATM   17  C   UNL     1     -10.506 -13.582 -39.911  1.00  0.00     0.043 A 
HETATM   18  C   UNL     1     -10.014 -12.305 -40.136  1.00  0.00     0.037 A 
HETATM   19 CL   UNL     1     -11.086 -11.046 -40.613  1.00  0.00    -0.084 Cl
HETATM   20  C   UNL     1      -8.662 -12.034 -39.975  1.00  0.00     0.052 A 
ENDBRANCH  13  14
ENDBRANCH   9  13
ENDBRANCH   4   7
BRANCH   1  21
HETATM   21  N   UNL     1      -5.803 -16.018 -31.952  1.00  0.00    -0.321 N 
HETATM   22  C   UNL     1      -5.242 -15.989 -30.689  1.00  0.00     0.279 C 
HETATM   23  O   UNL     1      -4.237 -15.365 -30.368  1.00  0.00    -0.265 OA
HETATM   24  H   UNL     1      -6.615 -16.622 -32.031  1.00  0.00     0.169 HD
BRANCH  22  25
HETATM   25  C   UNL     1      -5.988 -16.803 -29.741  1.00  0.00     0.142 A 
HETATM   26  O   UNL     1      -5.693 -16.712 -28.401  1.00  0.00    -0.317 OA
HETATM   27  C   UNL     1      -6.511 -17.581 -27.751  1.00  0.00     0.143 A 
HETATM   28  C   UNL     1      -7.334 -18.227 -28.642  1.00  0.00     0.027 A 
HETATM   29  C   UNL     1      -6.999 -17.727 -29.924  1.00  0.00     0.045 A 
ENDBRANCH  22  25
ENDBRANCH   1  21
TORSDOF 5
ENDMDL
