MODEL 1
REMARK VINA RESULT:      -8.6      0.000      0.000
REMARK  9 active torsions:
REMARK  status: ('A' for Active; 'I' for Inactive)
REMARK    1  A    between atoms: C_2  and  C_3 
REMARK    2  A    between atoms: C_4  and  O_5 
REMARK    3  A    between atoms: C_6  and  C_7 
REMARK    4  A    between atoms: C_12  and  C_13 
REMARK    5  A    between atoms: C_13  and  C_14 
REMARK    6  A    between atoms: C_14  and  N_15 
REMARK    7  A    between atoms: N_20  and  C_21 
REMARK    8  A    between atoms: C_21  and  C_22 
REMARK    9  A    between atoms: C_22  and  N_23 
ROOT
HETATM    1  N   UNL     1      -5.866  -0.141 -31.523  1.00  0.00    -0.174 N 
HETATM    2  C   UNL     1      -7.175   0.271 -31.647  1.00  0.00     0.681 A 
HETATM    3  N   UNL     1      -7.811   1.032 -30.752  1.00  0.00    -0.234 N 
HETATM    4  H   UNL     1      -8.783   1.286 -30.817  1.00  0.00     0.174 HD
HETATM    5  H   UNL     1      -7.413   1.071 -29.805  1.00  0.00     0.174 HD
HETATM    6  N   UNL     1      -7.785  -0.177 -32.835  1.00  0.00    -0.180 N 
HETATM    7  C   UNL     1      -6.800  -1.039 -33.426  1.00  0.00     0.079 A 
HETATM    8  C   UNL     1      -5.636  -0.999 -32.633  1.00  0.00     0.079 A 
HETATM    9  C   UNL     1      -6.849  -1.827 -34.558  1.00  0.00     0.032 A 
HETATM   10  C   UNL     1      -5.700  -2.552 -34.903  1.00  0.00     0.002 A 
HETATM   11  C   UNL     1      -4.537  -2.488 -34.119  1.00  0.00     0.002 A 
HETATM   12  C   UNL     1      -4.497  -1.706 -32.964  1.00  0.00     0.032 A 
ENDROOT
BRANCH   1  13
HETATM   13  C   UNL     1      -4.856   0.277 -30.538  1.00  0.00     0.231 C 
BRANCH  13  14
HETATM   14  C   UNL     1      -3.717   1.101 -31.095  1.00  0.00     0.178 C 
HETATM   15  O   UNL     1      -2.678   0.569 -31.483  1.00  0.00    -0.290 OA
BRANCH  14  16
HETATM   16  C   UNL     1      -3.883   2.586 -31.114  1.00  0.00     0.013 A 
HETATM   17  C   UNL     1      -2.972   3.386 -31.809  1.00  0.00     0.026 A 
HETATM   18  C   UNL     1      -3.056   4.786 -31.784  1.00  0.00    -0.016 A 
HETATM   19  C   UNL     1      -4.100   5.352 -31.008  1.00  0.00     0.079 A 
HETATM   20  C   UNL     1      -5.070   4.579 -30.314  1.00  0.00    -0.016 A 
HETATM   21  C   UNL     1      -4.935   3.176 -30.406  1.00  0.00     0.026 A 
BRANCH  18  22
HETATM   22  C   UNL     1      -2.016   5.648 -32.555  1.00  0.00    -0.021 C 
HETATM   23  C   UNL     1      -1.598   4.904 -33.839  1.00  0.00     0.019 C 
HETATM   24  C   UNL     1      -2.569   7.030 -32.997  1.00  0.00     0.019 C 
HETATM   25  C   UNL     1      -0.767   5.964 -31.698  1.00  0.00     0.019 C 
ENDBRANCH  18  22
BRANCH  19  26
HETATM   26  O   UNL     1      -4.099   6.715 -30.921  1.00  0.00    -0.360 OA
HETATM   27  H   UNL     1      -4.526   7.098 -31.700  1.00  0.00     0.217 HD
ENDBRANCH  19  26
BRANCH  20  28
HETATM   28  C   UNL     1      -6.220   5.196 -29.468  1.00  0.00    -0.021 C 
HETATM   29  C   UNL     1      -5.689   5.593 -28.073  1.00  0.00     0.019 C 
HETATM   30  C   UNL     1      -7.420   4.230 -29.330  1.00  0.00     0.019 C 
HETATM   31  C   UNL     1      -6.814   6.494 -30.082  1.00  0.00     0.019 C 
ENDBRANCH  20  28
ENDBRANCH  14  16
ENDBRANCH  13  14
ENDBRANCH   1  13
BRANCH   6  32
HETATM   32  C   UNL     1      -9.111   0.250 -33.316  1.00  0.00     0.175 C 
BRANCH  32  33
HETATM   33  C   UNL     1      -9.151   1.489 -34.238  1.00  0.00     0.255 C 
BRANCH  33  34
HETATM   34  N   UNL     1      -8.186   2.602 -33.881  1.00  0.00    -0.070 N 
HETATM   35  H   UNL     1      -7.959   2.429 -32.889  1.00  0.00     0.279 HD
HETATM   36  C   UNL     1      -6.852   2.551 -34.596  1.00  0.00     0.235 C 
HETATM   37  C   UNL     1      -5.886   3.514 -33.920  1.00  0.00     0.028 C 
HETATM   38  C   UNL     1      -6.448   4.931 -33.851  1.00  0.00     0.003 C 
HETATM   39  C   UNL     1      -7.832   4.955 -33.207  1.00  0.00     0.028 C 
HETATM   40  C   UNL     1      -8.790   3.991 -33.893  1.00  0.00     0.235 C 
ENDBRANCH  33  34
ENDBRANCH  32  33
ENDBRANCH   6  32
TORSDOF 9
ENDMDL
MODEL 2
REMARK VINA RESULT:      -8.5      1.697      2.833
REMARK  9 active torsions:
REMARK  status: ('A' for Active; 'I' for Inactive)
REMARK    1  A    between atoms: C_2  and  C_3 
REMARK    2  A    between atoms: C_4  and  O_5 
REMARK    3  A    between atoms: C_6  and  C_7 
REMARK    4  A    between atoms: C_12  and  C_13 
REMARK    5  A    between atoms: C_13  and  C_14 
REMARK    6  A    between atoms: C_14  and  N_15 
REMARK    7  A    between atoms: N_20  and  C_21 
REMARK    8  A    between atoms: C_21  and  C_22 
REMARK    9  A    between atoms: C_22  and  N_23 
ROOT
HETATM    1  N   UNL     1      -5.919  -0.097 -31.597  1.00  0.00    -0.174 N 
HETATM    2  C   UNL     1      -7.212   0.343 -31.778  1.00  0.00     0.681 A 
HETATM    3  N   UNL     1      -7.863   1.134 -30.920  1.00  0.00    -0.234 N 
HETATM    4  H   UNL     1      -8.825   1.409 -31.026  1.00  0.00     0.174 HD
HETATM    5  H   UNL     1      -7.500   1.180 -29.959  1.00  0.00     0.174 HD
HETATM    6  N   UNL     1      -7.787  -0.110 -32.981  1.00  0.00    -0.180 N 
HETATM    7  C   UNL     1      -6.801  -1.006 -33.520  1.00  0.00     0.079 A 
HETATM    8  C   UNL     1      -5.668  -0.980 -32.684  1.00  0.00     0.079 A 
HETATM    9  C   UNL     1      -6.826  -1.812 -34.639  1.00  0.00     0.032 A 
HETATM   10  C   UNL     1      -5.684  -2.569 -34.929  1.00  0.00     0.002 A 
HETATM   11  C   UNL     1      -4.550  -2.519 -34.102  1.00  0.00     0.002 A 
HETATM   12  C   UNL     1      -4.534  -1.718 -32.959  1.00  0.00     0.032 A 
ENDROOT
BRANCH   1  13
HETATM   13  C   UNL     1      -4.937   0.313 -30.581  1.00  0.00     0.231 C 
BRANCH  13  14
HETATM   14  C   UNL     1      -3.757   1.098 -31.107  1.00  0.00     0.178 C 
HETATM   15  O   UNL     1      -2.691   0.543 -31.370  1.00  0.00    -0.290 OA
BRANCH  14  16
HETATM   16  C   UNL     1      -3.919   2.576 -31.254  1.00  0.00     0.013 A 
HETATM   17  C   UNL     1      -2.996   3.314 -32.001  1.00  0.00     0.026 A 
HETATM   18  C   UNL     1      -3.077   4.711 -32.095  1.00  0.00    -0.016 A 
HETATM   19  C   UNL     1      -4.131   5.342 -31.384  1.00  0.00     0.079 A 
HETATM   20  C   UNL     1      -5.112   4.631 -30.642  1.00  0.00    -0.016 A 
HETATM   21  C   UNL     1      -4.980   3.224 -30.614  1.00  0.00     0.026 A 
BRANCH  18  22
HETATM   22  C   UNL     1      -2.024   5.504 -32.919  1.00  0.00    -0.021 C 
HETATM   23  C   UNL     1      -1.843   4.824 -34.292  1.00  0.00     0.019 C 
HETATM   24  C   UNL     1      -2.440   6.973 -33.199  1.00  0.00     0.019 C 
HETATM   25  C   UNL     1      -0.660   5.596 -32.194  1.00  0.00     0.019 C 
ENDBRANCH  18  22
BRANCH  19  26
HETATM   26  O   UNL     1      -4.127   6.707 -31.412  1.00  0.00    -0.360 OA
HETATM   27  H   UNL     1      -3.525   7.051 -30.737  1.00  0.00     0.217 HD
ENDBRANCH  19  26
BRANCH  20  28
HETATM   28  C   UNL     1      -6.273   5.318 -29.868  1.00  0.00    -0.021 C 
HETATM   29  C   UNL     1      -7.090   6.207 -30.831  1.00  0.00     0.019 C 
HETATM   30  C   UNL     1      -5.759   6.153 -28.672  1.00  0.00     0.019 C 
HETATM   31  C   UNL     1      -7.288   4.314 -29.254  1.00  0.00     0.019 C 
ENDBRANCH  20  28
ENDBRANCH  14  16
ENDBRANCH  13  14
ENDBRANCH   1  13
BRANCH   6  32
HETATM   32  C   UNL     1      -9.084   0.339 -33.519  1.00  0.00     0.175 C 
BRANCH  32  33
HETATM   33  C   UNL     1     -10.350  -0.192 -32.812  1.00  0.00     0.255 C 
BRANCH  33  34
HETATM   34  N   UNL     1     -11.654   0.461 -33.227  1.00  0.00    -0.070 N 
HETATM   35  H   UNL     1     -11.969   0.956 -32.378  1.00  0.00     0.279 HD
HETATM   36  C   UNL     1     -11.526   1.542 -34.280  1.00  0.00     0.235 C 
HETATM   37  C   UNL     1     -12.836   2.315 -34.364  1.00  0.00     0.028 C 
HETATM   38  C   UNL     1     -14.026   1.395 -34.624  1.00  0.00     0.003 C 
HETATM   39  C   UNL     1     -14.090   0.259 -33.607  1.00  0.00     0.028 C 
HETATM   40  C   UNL     1     -12.777  -0.509 -33.535  1.00  0.00     0.235 C 
ENDBRANCH  33  34
ENDBRANCH  32  33
ENDBRANCH   6  32
TORSDOF 9
ENDMDL
MODEL 3
REMARK VINA RESULT:      -8.5      1.548      3.796
REMARK  9 active torsions:
REMARK  status: ('A' for Active; 'I' for Inactive)
REMARK    1  A    between atoms: C_2  and  C_3 
REMARK    2  A    between atoms: C_4  and  O_5 
REMARK    3  A    between atoms: C_6  and  C_7 
REMARK    4  A    between atoms: C_12  and  C_13 
REMARK    5  A    between atoms: C_13  and  C_14 
REMARK    6  A    between atoms: C_14  and  N_15 
REMARK    7  A    between atoms: N_20  and  C_21 
REMARK    8  A    between atoms: C_21  and  C_22 
REMARK    9  A    between atoms: C_22  and  N_23 
ROOT
HETATM    1  N   UNL     1      -5.807  -0.160 -31.574  1.00  0.00    -0.174 N 
HETATM    2  C   UNL     1      -7.116   0.229 -31.765  1.00  0.00     0.681 A 
HETATM    3  N   UNL     1      -7.804   0.992 -30.911  1.00  0.00    -0.234 N 
HETATM    4  H   UNL     1      -8.776   1.229 -31.025  1.00  0.00     0.174 HD
HETATM    5  H   UNL     1      -7.451   1.052 -29.948  1.00  0.00     0.174 HD
HETATM    6  N   UNL     1      -7.663  -0.247 -32.972  1.00  0.00    -0.180 N 
HETATM    7  C   UNL     1      -6.639  -1.102 -33.503  1.00  0.00     0.079 A 
HETATM    8  C   UNL     1      -5.513  -1.031 -32.659  1.00  0.00     0.079 A 
HETATM    9  C   UNL     1      -6.623  -1.908 -34.623  1.00  0.00     0.032 A 
HETATM   10  C   UNL     1      -5.449  -2.619 -34.904  1.00  0.00     0.002 A 
HETATM   11  C   UNL     1      -4.324  -2.524 -34.068  1.00  0.00     0.002 A 
HETATM   12  C   UNL     1      -4.349  -1.724 -32.926  1.00  0.00     0.032 A 
ENDROOT
BRANCH   1  13
HETATM   13  C   UNL     1      -4.851   0.289 -30.551  1.00  0.00     0.231 C 
BRANCH  13  14
HETATM   14  C   UNL     1      -3.747   1.192 -31.054  1.00  0.00     0.178 C 
HETATM   15  O   UNL     1      -2.590   0.786 -31.158  1.00  0.00    -0.290 OA
BRANCH  14  16
HETATM   16  C   UNL     1      -4.105   2.607 -31.378  1.00  0.00     0.013 A 
HETATM   17  C   UNL     1      -5.172   3.229 -30.724  1.00  0.00     0.026 A 
HETATM   18  C   UNL     1      -5.580   4.529 -31.059  1.00  0.00    -0.016 A 
HETATM   19  C   UNL     1      -4.868   5.176 -32.102  1.00  0.00     0.079 A 
HETATM   20  C   UNL     1      -3.756   4.597 -32.770  1.00  0.00    -0.016 A 
HETATM   21  C   UNL     1      -3.388   3.295 -32.361  1.00  0.00     0.026 A 
BRANCH  18  22
HETATM   22  C   UNL     1      -6.783   5.186 -30.325  1.00  0.00    -0.021 C 
HETATM   23  C   UNL     1      -7.910   5.453 -31.343  1.00  0.00     0.019 C 
HETATM   24  C   UNL     1      -7.388   4.291 -29.210  1.00  0.00     0.019 C 
HETATM   25  C   UNL     1      -6.388   6.506 -29.620  1.00  0.00     0.019 C 
ENDBRANCH  18  22
BRANCH  19  26
HETATM   26  O   UNL     1      -5.349   6.399 -32.474  1.00  0.00    -0.360 OA
HETATM   27  H   UNL     1      -6.194   6.297 -32.935  1.00  0.00     0.217 HD
ENDBRANCH  19  26
BRANCH  20  28
HETATM   28  C   UNL     1      -2.968   5.306 -33.908  1.00  0.00    -0.021 C 
HETATM   29  C   UNL     1      -2.627   6.752 -33.486  1.00  0.00     0.019 C 
HETATM   30  C   UNL     1      -3.751   5.306 -35.242  1.00  0.00     0.019 C 
HETATM   31  C   UNL     1      -1.609   4.628 -34.237  1.00  0.00     0.019 C 
ENDBRANCH  20  28
ENDBRANCH  14  16
ENDBRANCH  13  14
ENDBRANCH   1  13
BRANCH   6  32
HETATM   32  C   UNL     1      -8.973   0.150 -33.519  1.00  0.00     0.175 C 
BRANCH  32  33
HETATM   33  C   UNL     1      -9.044   1.523 -34.224  1.00  0.00     0.255 C 
BRANCH  33  34
HETATM   34  N   UNL     1     -10.415   1.932 -34.725  1.00  0.00    -0.070 N 
HETATM   35  H   UNL     1     -10.449   1.566 -35.689  1.00  0.00     0.279 HD
HETATM   36  C   UNL     1     -11.581   1.273 -34.019  1.00  0.00     0.235 C 
HETATM   37  C   UNL     1     -12.853   1.521 -34.818  1.00  0.00     0.028 C 
HETATM   38  C   UNL     1     -13.093   3.009 -35.061  1.00  0.00     0.003 C 
HETATM   39  C   UNL     1     -11.876   3.678 -35.692  1.00  0.00     0.028 C 
HETATM   40  C   UNL     1     -10.610   3.426 -34.883  1.00  0.00     0.235 C 
ENDBRANCH  33  34
ENDBRANCH  32  33
ENDBRANCH   6  32
TORSDOF 9
ENDMDL
MODEL 4
REMARK VINA RESULT:      -8.3      1.905      4.777
REMARK  9 active torsions:
REMARK  status: ('A' for Active; 'I' for Inactive)
REMARK    1  A    between atoms: C_2  and  C_3 
REMARK    2  A    between atoms: C_4  and  O_5 
REMARK    3  A    between atoms: C_6  and  C_7 
REMARK    4  A    between atoms: C_12  and  C_13 
REMARK    5  A    between atoms: C_13  and  C_14 
REMARK    6  A    between atoms: C_14  and  N_15 
REMARK    7  A    between atoms: N_20  and  C_21 
REMARK    8  A    between atoms: C_21  and  C_22 
REMARK    9  A    between atoms: C_22  and  N_23 
ROOT
HETATM    1  N   UNL     1      -8.457   2.642 -32.584  1.00  0.00    -0.174 N 
HETATM    2  C   UNL     1      -8.622   1.644 -33.521  1.00  0.00     0.681 A 
HETATM    3  N   UNL     1      -9.448   1.727 -34.567  1.00  0.00    -0.234 N 
HETATM    4  H   UNL     1      -9.608   0.976 -35.219  1.00  0.00     0.174 HD
HETATM    5  H   UNL     1     -10.199   2.427 -34.516  1.00  0.00     0.174 HD
HETATM    6  N   UNL     1      -7.810   0.519 -33.278  1.00  0.00    -0.180 N 
HETATM    7  C   UNL     1      -7.189   0.806 -32.015  1.00  0.00     0.079 A 
HETATM    8  C   UNL     1      -7.574   2.099 -31.610  1.00  0.00     0.079 A 
HETATM    9  C   UNL     1      -6.350   0.047 -31.226  1.00  0.00     0.032 A 
HETATM   10  C   UNL     1      -5.875   0.615 -30.036  1.00  0.00     0.002 A 
HETATM   11  C   UNL     1      -6.246   1.914 -29.652  1.00  0.00     0.002 A 
HETATM   12  C   UNL     1      -7.111   2.672 -30.442  1.00  0.00     0.032 A 
ENDROOT
BRANCH   1  13
HETATM   13  C   UNL     1      -8.972   4.020 -32.602  1.00  0.00     0.231 C 
BRANCH  13  14
HETATM   14  C   UNL     1      -8.168   4.996 -33.430  1.00  0.00     0.178 C 
HETATM   15  O   UNL     1      -8.532   5.322 -34.560  1.00  0.00    -0.290 OA
BRANCH  14  16
HETATM   16  C   UNL     1      -6.895   5.515 -32.845  1.00  0.00     0.013 A 
HETATM   17  C   UNL     1      -5.692   5.370 -33.540  1.00  0.00     0.026 A 
HETATM   18  C   UNL     1      -4.470   5.778 -32.984  1.00  0.00    -0.016 A 
HETATM   19  C   UNL     1      -4.511   6.333 -31.679  1.00  0.00     0.079 A 
HETATM   20  C   UNL     1      -5.715   6.533 -30.950  1.00  0.00    -0.016 A 
HETATM   21  C   UNL     1      -6.908   6.120 -31.584  1.00  0.00     0.026 A 
BRANCH  18  22
HETATM   22  C   UNL     1      -3.146   5.586 -33.776  1.00  0.00    -0.021 C 
HETATM   23  C   UNL     1      -3.480   5.234 -35.240  1.00  0.00     0.019 C 
HETATM   24  C   UNL     1      -2.259   6.860 -33.813  1.00  0.00     0.019 C 
HETATM   25  C   UNL     1      -2.250   4.483 -33.162  1.00  0.00     0.019 C 
ENDBRANCH  18  22
BRANCH  19  26
HETATM   26  O   UNL     1      -3.299   6.629 -31.125  1.00  0.00    -0.360 OA
HETATM   27  H   UNL     1      -2.591   6.207 -31.631  1.00  0.00     0.217 HD
ENDBRANCH  19  26
BRANCH  20  28
HETATM   28  C   UNL     1      -5.766   7.147 -29.522  1.00  0.00    -0.021 C 
HETATM   29  C   UNL     1      -5.098   6.185 -28.514  1.00  0.00     0.019 C 
HETATM   30  C   UNL     1      -7.213   7.468 -29.080  1.00  0.00     0.019 C 
HETATM   31  C   UNL     1      -4.997   8.493 -29.398  1.00  0.00     0.019 C 
ENDBRANCH  20  28
ENDBRANCH  14  16
ENDBRANCH  13  14
ENDBRANCH   1  13
BRANCH   6  32
HETATM   32  C   UNL     1      -7.646  -0.618 -34.201  1.00  0.00     0.175 C 
BRANCH  32  33
HETATM   33  C   UNL     1      -6.242  -0.821 -34.811  1.00  0.00     0.255 C 
BRANCH  33  34
HETATM   34  N   UNL     1      -5.740  -2.251 -34.840  1.00  0.00    -0.070 N 
HETATM   35  H   UNL     1      -5.382  -2.373 -35.800  1.00  0.00     0.279 HD
HETATM   36  C   UNL     1      -4.552  -2.535 -33.945  1.00  0.00     0.235 C 
HETATM   37  C   UNL     1      -3.966  -3.893 -34.308  1.00  0.00     0.028 C 
HETATM   38  C   UNL     1      -5.013  -5.002 -34.244  1.00  0.00     0.003 C 
HETATM   39  C   UNL     1      -6.243  -4.661 -35.081  1.00  0.00     0.028 C 
HETATM   40  C   UNL     1      -6.823  -3.303 -34.707  1.00  0.00     0.235 C 
ENDBRANCH  33  34
ENDBRANCH  32  33
ENDBRANCH   6  32
TORSDOF 9
ENDMDL
MODEL 5
REMARK VINA RESULT:      -7.9      3.746      8.216
REMARK  9 active torsions:
REMARK  status: ('A' for Active; 'I' for Inactive)
REMARK    1  A    between atoms: C_2  and  C_3 
REMARK    2  A    between atoms: C_4  and  O_5 
REMARK    3  A    between atoms: C_6  and  C_7 
REMARK    4  A    between atoms: C_12  and  C_13 
REMARK    5  A    between atoms: C_13  and  C_14 
REMARK    6  A    between atoms: C_14  and  N_15 
REMARK    7  A    between atoms: N_20  and  C_21 
REMARK    8  A    between atoms: C_21  and  C_22 
REMARK    9  A    between atoms: C_22  and  N_23 
ROOT
HETATM    1  N   UNL     1      -4.390   5.854 -31.596  1.00  0.00    -0.174 N 
HETATM    2  C   UNL     1      -3.379   5.997 -30.669  1.00  0.00     0.681 A 
HETATM    3  N   UNL     1      -3.576   6.327 -29.390  1.00  0.00    -0.234 N 
HETATM    4  H   UNL     1      -2.834   6.484 -28.728  1.00  0.00     0.174 HD
HETATM    5  H   UNL     1      -4.471   6.773 -29.154  1.00  0.00     0.174 HD
HETATM    6  N   UNL     1      -2.101   5.739 -31.202  1.00  0.00    -0.180 N 
HETATM    7  C   UNL     1      -2.343   5.544 -32.604  1.00  0.00     0.079 A 
HETATM    8  C   UNL     1      -3.732   5.601 -32.831  1.00  0.00     0.079 A 
HETATM    9  C   UNL     1      -1.471   5.335 -33.653  1.00  0.00     0.032 A 
HETATM   10  C   UNL     1      -2.013   5.150 -34.931  1.00  0.00     0.002 A 
HETATM   11  C   UNL     1      -3.401   5.185 -35.144  1.00  0.00     0.002 A 
HETATM   12  C   UNL     1      -4.280   5.417 -34.085  1.00  0.00     0.032 A 
ENDROOT
BRANCH   1  13
HETATM   13  C   UNL     1      -5.845   5.848 -31.382  1.00  0.00     0.231 C 
BRANCH  13  14
HETATM   14  C   UNL     1      -6.435   4.506 -31.013  1.00  0.00     0.178 C 
HETATM   15  O   UNL     1      -6.236   4.007 -29.905  1.00  0.00    -0.290 OA
BRANCH  14  16
HETATM   16  C   UNL     1      -7.230   3.789 -32.055  1.00  0.00     0.013 A 
HETATM   17  C   UNL     1      -8.449   4.313 -32.493  1.00  0.00     0.026 A 
HETATM   18  C   UNL     1      -9.255   3.627 -33.414  1.00  0.00    -0.016 A 
HETATM   19  C   UNL     1      -8.780   2.370 -33.869  1.00  0.00     0.079 A 
HETATM   20  C   UNL     1      -7.532   1.814 -33.479  1.00  0.00    -0.016 A 
HETATM   21  C   UNL     1      -6.764   2.575 -32.569  1.00  0.00     0.026 A 
BRANCH  18  22
HETATM   22  C   UNL     1     -10.615   4.229 -33.867  1.00  0.00    -0.021 C 
HETATM   23  C   UNL     1     -10.719   5.680 -33.355  1.00  0.00     0.019 C 
HETATM   24  C   UNL     1     -10.780   4.285 -35.410  1.00  0.00     0.019 C 
HETATM   25  C   UNL     1     -11.820   3.403 -33.358  1.00  0.00     0.019 C 
ENDBRANCH  18  22
BRANCH  19  26
HETATM   26  O   UNL     1      -9.629   1.680 -34.686  1.00  0.00    -0.360 OA
HETATM   27  H   UNL     1      -9.819   0.809 -34.308  1.00  0.00     0.217 HD
ENDBRANCH  19  26
BRANCH  20  28
HETATM   28  C   UNL     1      -7.005   0.440 -33.982  1.00  0.00    -0.021 C 
HETATM   29  C   UNL     1      -5.571   0.205 -33.456  1.00  0.00     0.019 C 
HETATM   30  C   UNL     1      -7.033   0.337 -35.525  1.00  0.00     0.019 C 
HETATM   31  C   UNL     1      -7.845  -0.768 -33.480  1.00  0.00     0.019 C 
ENDBRANCH  20  28
ENDBRANCH  14  16
ENDBRANCH  13  14
ENDBRANCH   1  13
BRANCH   6  32
HETATM   32  C   UNL     1      -0.861   5.644 -30.411  1.00  0.00     0.175 C 
BRANCH  32  33
HETATM   33  C   UNL     1       0.078   6.870 -30.441  1.00  0.00     0.255 C 
BRANCH  33  34
HETATM   34  N   UNL     1       0.332   7.533 -29.101  1.00  0.00    -0.070 N 
HETATM   35  H   UNL     1       1.155   8.133 -29.270  1.00  0.00     0.279 HD
HETATM   36  C   UNL     1      -0.751   8.485 -28.638  1.00  0.00     0.235 C 
HETATM   37  C   UNL     1      -0.227   9.305 -27.466  1.00  0.00     0.028 C 
HETATM   38  C   UNL     1       0.283   8.418 -26.334  1.00  0.00     0.003 C 
HETATM   39  C   UNL     1       1.309   7.405 -26.833  1.00  0.00     0.028 C 
HETATM   40  C   UNL     1       0.774   6.589 -28.002  1.00  0.00     0.235 C 
ENDBRANCH  33  34
ENDBRANCH  32  33
ENDBRANCH   6  32
TORSDOF 9
ENDMDL
MODEL 6
REMARK VINA RESULT:      -7.8      1.887      5.362
REMARK  9 active torsions:
REMARK  status: ('A' for Active; 'I' for Inactive)
REMARK    1  A    between atoms: C_2  and  C_3 
REMARK    2  A    between atoms: C_4  and  O_5 
REMARK    3  A    between atoms: C_6  and  C_7 
REMARK    4  A    between atoms: C_12  and  C_13 
REMARK    5  A    between atoms: C_13  and  C_14 
REMARK    6  A    between atoms: C_14  and  N_15 
REMARK    7  A    between atoms: N_20  and  C_21 
REMARK    8  A    between atoms: C_21  and  C_22 
REMARK    9  A    between atoms: C_22  and  N_23 
ROOT
HETATM    1  N   UNL     1      -7.930   2.592 -32.468  1.00  0.00    -0.174 N 
HETATM    2  C   UNL     1      -8.285   1.642 -33.402  1.00  0.00     0.681 A 
HETATM    3  N   UNL     1      -9.097   1.874 -34.437  1.00  0.00    -0.234 N 
HETATM    4  H   UNL     1      -9.399   1.166 -35.085  1.00  0.00     0.174 HD
HETATM    5  H   UNL     1      -9.708   2.698 -34.377  1.00  0.00     0.174 HD
HETATM    6  N   UNL     1      -7.688   0.388 -33.169  1.00  0.00    -0.180 N 
HETATM    7  C   UNL     1      -7.008   0.557 -31.914  1.00  0.00     0.079 A 
HETATM    8  C   UNL     1      -7.147   1.898 -31.506  1.00  0.00     0.079 A 
HETATM    9  C   UNL     1      -6.310  -0.343 -31.135  1.00  0.00     0.032 A 
HETATM   10  C   UNL     1      -5.724   0.128 -29.953  1.00  0.00     0.002 A 
HETATM   11  C   UNL     1      -5.849   1.472 -29.566  1.00  0.00     0.002 A 
HETATM   12  C   UNL     1      -6.572   2.376 -30.345  1.00  0.00     0.032 A 
ENDROOT
BRANCH   1  13
HETATM   13  C   UNL     1      -8.187   4.040 -32.481  1.00  0.00     0.231 C 
BRANCH  13  14
HETATM   14  C   UNL     1      -7.133   4.875 -33.172  1.00  0.00     0.178 C 
HETATM   15  O   UNL     1      -7.198   5.111 -34.378  1.00  0.00    -0.290 OA
BRANCH  14  16
HETATM   16  C   UNL     1      -5.987   5.363 -32.347  1.00  0.00     0.013 A 
HETATM   17  C   UNL     1      -6.219   5.945 -31.098  1.00  0.00     0.026 A 
HETATM   18  C   UNL     1      -5.172   6.482 -30.332  1.00  0.00    -0.016 A 
HETATM   19  C   UNL     1      -3.870   6.418 -30.892  1.00  0.00     0.079 A 
HETATM   20  C   UNL     1      -3.582   5.805 -32.141  1.00  0.00    -0.016 A 
HETATM   21  C   UNL     1      -4.683   5.265 -32.842  1.00  0.00     0.026 A 
BRANCH  18  22
HETATM   22  C   UNL     1      -5.466   7.139 -28.954  1.00  0.00    -0.021 C 
HETATM   23  C   UNL     1      -6.965   6.980 -28.629  1.00  0.00     0.019 C 
HETATM   24  C   UNL     1      -4.682   6.488 -27.782  1.00  0.00     0.019 C 
HETATM   25  C   UNL     1      -5.077   8.636 -28.923  1.00  0.00     0.019 C 
ENDBRANCH  18  22
BRANCH  19  26
HETATM   26  O   UNL     1      -2.888   7.035 -30.172  1.00  0.00    -0.360 OA
HETATM   27  H   UNL     1      -2.122   6.450 -30.086  1.00  0.00     0.217 HD
ENDBRANCH  19  26
BRANCH  20  28
HETATM   28  C   UNL     1      -2.155   5.727 -32.755  1.00  0.00    -0.021 C 
HETATM   29  C   UNL     1      -1.678   7.141 -33.152  1.00  0.00     0.019 C 
HETATM   30  C   UNL     1      -2.100   4.779 -33.976  1.00  0.00     0.019 C 
HETATM   31  C   UNL     1      -1.086   5.178 -31.769  1.00  0.00     0.019 C 
ENDBRANCH  20  28
ENDBRANCH  14  16
ENDBRANCH  13  14
ENDBRANCH   1  13
BRANCH   6  32
HETATM   32  C   UNL     1      -7.745  -0.759 -34.092  1.00  0.00     0.175 C 
BRANCH  32  33
HETATM   33  C   UNL     1      -6.445  -1.106 -34.851  1.00  0.00     0.255 C 
BRANCH  33  34
HETATM   34  N   UNL     1      -5.673  -2.296 -34.317  1.00  0.00    -0.070 N 
HETATM   35  H   UNL     1      -6.197  -2.578 -33.474  1.00  0.00     0.279 HD
HETATM   36  C   UNL     1      -5.684  -3.521 -35.207  1.00  0.00     0.235 C 
HETATM   37  C   UNL     1      -5.157  -4.714 -34.420  1.00  0.00     0.028 C 
HETATM   38  C   UNL     1      -3.776  -4.443 -33.830  1.00  0.00     0.003 C 
HETATM   39  C   UNL     1      -3.759  -3.157 -33.008  1.00  0.00     0.028 C 
HETATM   40  C   UNL     1      -4.284  -1.971 -33.806  1.00  0.00     0.235 C 
ENDBRANCH  33  34
ENDBRANCH  32  33
ENDBRANCH   6  32
TORSDOF 9
ENDMDL
MODEL 7
REMARK VINA RESULT:      -7.8      2.168      4.917
REMARK  9 active torsions:
REMARK  status: ('A' for Active; 'I' for Inactive)
REMARK    1  A    between atoms: C_2  and  C_3 
REMARK    2  A    between atoms: C_4  and  O_5 
REMARK    3  A    between atoms: C_6  and  C_7 
REMARK    4  A    between atoms: C_12  and  C_13 
REMARK    5  A    between atoms: C_13  and  C_14 
REMARK    6  A    between atoms: C_14  and  N_15 
REMARK    7  A    between atoms: N_20  and  C_21 
REMARK    8  A    between atoms: C_21  and  C_22 
REMARK    9  A    between atoms: C_22  and  N_23 
ROOT
HETATM    1  N   UNL     1      -6.171   2.863 -32.464  1.00  0.00    -0.174 N 
HETATM    2  C   UNL     1      -5.154   1.934 -32.415  1.00  0.00     0.681 A 
HETATM    3  N   UNL     1      -3.854   2.244 -32.413  1.00  0.00    -0.234 N 
HETATM    4  H   UNL     1      -3.113   1.563 -32.433  1.00  0.00     0.174 HD
HETATM    5  H   UNL     1      -3.596   3.179 -32.751  1.00  0.00     0.174 HD
HETATM    6  N   UNL     1      -5.621   0.607 -32.349  1.00  0.00    -0.180 N 
HETATM    7  C   UNL     1      -7.044   0.733 -32.494  1.00  0.00     0.079 A 
HETATM    8  C   UNL     1      -7.370   2.103 -32.548  1.00  0.00     0.079 A 
HETATM    9  C   UNL     1      -8.034  -0.225 -32.585  1.00  0.00     0.032 A 
HETATM   10  C   UNL     1      -9.361   0.211 -32.697  1.00  0.00     0.002 A 
HETATM   11  C   UNL     1      -9.677   1.579 -32.727  1.00  0.00     0.002 A 
HETATM   12  C   UNL     1      -8.673   2.545 -32.656  1.00  0.00     0.032 A 
ENDROOT
BRANCH   1  13
HETATM   13  C   UNL     1      -6.090   4.328 -32.346  1.00  0.00     0.231 C 
BRANCH  13  14
HETATM   14  C   UNL     1      -5.987   4.854 -30.933  1.00  0.00     0.178 C 
HETATM   15  O   UNL     1      -6.906   4.702 -30.128  1.00  0.00    -0.290 OA
BRANCH  14  16
HETATM   16  C   UNL     1      -4.748   5.603 -30.562  1.00  0.00     0.013 A 
HETATM   17  C   UNL     1      -3.611   5.523 -31.370  1.00  0.00     0.026 A 
HETATM   18  C   UNL     1      -2.409   6.153 -31.011  1.00  0.00    -0.016 A 
HETATM   19  C   UNL     1      -2.400   6.863 -29.783  1.00  0.00     0.079 A 
HETATM   20  C   UNL     1      -3.541   7.001 -28.947  1.00  0.00    -0.016 A 
HETATM   21  C   UNL     1      -4.721   6.360 -29.387  1.00  0.00     0.026 A 
BRANCH  18  22
HETATM   22  C   UNL     1      -1.156   6.029 -31.923  1.00  0.00    -0.021 C 
HETATM   23  C   UNL     1      -1.471   5.064 -33.084  1.00  0.00     0.019 C 
HETATM   24  C   UNL     1      -0.726   7.377 -32.564  1.00  0.00     0.019 C 
HETATM   25  C   UNL     1       0.086   5.532 -31.148  1.00  0.00     0.019 C 
ENDBRANCH  18  22
BRANCH  19  26
HETATM   26  O   UNL     1      -1.193   7.381 -29.410  1.00  0.00    -0.360 OA
HETATM   27  H   UNL     1      -1.209   7.620 -28.473  1.00  0.00     0.217 HD
ENDBRANCH  19  26
BRANCH  20  28
HETATM   28  C   UNL     1      -3.536   7.785 -27.604  1.00  0.00    -0.021 C 
HETATM   29  C   UNL     1      -4.925   7.684 -26.935  1.00  0.00     0.019 C 
HETATM   30  C   UNL     1      -3.140   9.267 -27.798  1.00  0.00     0.019 C 
HETATM   31  C   UNL     1      -2.523   7.228 -26.565  1.00  0.00     0.019 C 
ENDBRANCH  20  28
ENDBRANCH  14  16
ENDBRANCH  13  14
ENDBRANCH   1  13
BRANCH   6  32
HETATM   32  C   UNL     1      -4.773  -0.575 -32.113  1.00  0.00     0.175 C 
BRANCH  32  33
HETATM   33  C   UNL     1      -4.202  -1.280 -33.363  1.00  0.00     0.255 C 
BRANCH  33  34
HETATM   34  N   UNL     1      -4.930  -2.538 -33.796  1.00  0.00    -0.070 N 
HETATM   35  H   UNL     1      -5.366  -2.887 -32.928  1.00  0.00     0.279 HD
HETATM   36  C   UNL     1      -6.087  -2.316 -34.747  1.00  0.00     0.235 C 
HETATM   37  C   UNL     1      -6.909  -3.595 -34.840  1.00  0.00     0.028 C 
HETATM   38  C   UNL     1      -6.054  -4.794 -35.242  1.00  0.00     0.003 C 
HETATM   39  C   UNL     1      -4.843  -4.951 -34.327  1.00  0.00     0.028 C 
HETATM   40  C   UNL     1      -4.027  -3.668 -34.244  1.00  0.00     0.235 C 
ENDBRANCH  33  34
ENDBRANCH  32  33
ENDBRANCH   6  32
TORSDOF 9
ENDMDL
MODEL 8
REMARK VINA RESULT:      -7.8      3.477      6.948
REMARK  9 active torsions:
REMARK  status: ('A' for Active; 'I' for Inactive)
REMARK    1  A    between atoms: C_2  and  C_3 
REMARK    2  A    between atoms: C_4  and  O_5 
REMARK    3  A    between atoms: C_6  and  C_7 
REMARK    4  A    between atoms: C_12  and  C_13 
REMARK    5  A    between atoms: C_13  and  C_14 
REMARK    6  A    between atoms: C_14  and  N_15 
REMARK    7  A    between atoms: N_20  and  C_21 
REMARK    8  A    between atoms: C_21  and  C_22 
REMARK    9  A    between atoms: C_22  and  N_23 
ROOT
HETATM    1  N   UNL     1      -7.215   1.012 -32.399  1.00  0.00    -0.174 N 
HETATM    2  C   UNL     1      -6.999   2.182 -31.702  1.00  0.00     0.681 A 
HETATM    3  N   UNL     1      -7.964   3.037 -31.354  1.00  0.00    -0.234 N 
HETATM    4  H   UNL     1      -7.798   3.917 -30.893  1.00  0.00     0.174 HD
HETATM    5  H   UNL     1      -8.852   2.975 -31.868  1.00  0.00     0.174 HD
HETATM    6  N   UNL     1      -5.645   2.385 -31.371  1.00  0.00    -0.180 N 
HETATM    7  C   UNL     1      -4.962   1.308 -32.031  1.00  0.00     0.079 A 
HETATM    8  C   UNL     1      -5.921   0.473 -32.638  1.00  0.00     0.079 A 
HETATM    9  C   UNL     1      -3.616   1.020 -32.138  1.00  0.00     0.032 A 
HETATM   10  C   UNL     1      -3.246  -0.137 -32.836  1.00  0.00     0.002 A 
HETATM   11  C   UNL     1      -4.211  -0.975 -33.418  1.00  0.00     0.002 A 
HETATM   12  C   UNL     1      -5.570  -0.671 -33.326  1.00  0.00     0.032 A 
ENDROOT
BRANCH   1  13
HETATM   13  C   UNL     1      -8.491   0.367 -32.746  1.00  0.00     0.231 C 
BRANCH  13  14
HETATM   14  C   UNL     1      -9.043   0.725 -34.107  1.00  0.00     0.178 C 
HETATM   15  O   UNL     1      -8.448   0.411 -35.137  1.00  0.00    -0.290 OA
BRANCH  14  16
HETATM   16  C   UNL     1     -10.313   1.511 -34.153  1.00  0.00     0.013 A 
HETATM   17  C   UNL     1     -10.278   2.889 -34.378  1.00  0.00     0.026 A 
HETATM   18  C   UNL     1     -11.445   3.668 -34.352  1.00  0.00    -0.016 A 
HETATM   19  C   UNL     1     -12.661   2.991 -34.073  1.00  0.00     0.079 A 
HETATM   20  C   UNL     1     -12.749   1.587 -33.873  1.00  0.00    -0.016 A 
HETATM   21  C   UNL     1     -11.535   0.867 -33.939  1.00  0.00     0.026 A 
BRANCH  18  22
HETATM   22  C   UNL     1     -11.370   5.202 -34.589  1.00  0.00    -0.021 C 
HETATM   23  C   UNL     1      -9.986   5.555 -35.171  1.00  0.00     0.019 C 
HETATM   24  C   UNL     1     -12.428   5.722 -35.600  1.00  0.00     0.019 C 
HETATM   25  C   UNL     1     -11.616   6.008 -33.291  1.00  0.00     0.019 C 
ENDBRANCH  18  22
BRANCH  19  26
HETATM   26  O   UNL     1     -13.765   3.786 -33.955  1.00  0.00    -0.360 OA
HETATM   27  H   UNL     1     -13.622   4.623 -34.419  1.00  0.00     0.217 HD
ENDBRANCH  19  26
BRANCH  20  28
HETATM   28  C   UNL     1     -14.081   0.841 -33.573  1.00  0.00    -0.021 C 
HETATM   29  C   UNL     1     -14.834   1.553 -32.428  1.00  0.00     0.019 C 
HETATM   30  C   UNL     1     -13.845  -0.646 -33.218  1.00  0.00     0.019 C 
HETATM   31  C   UNL     1     -15.063   0.818 -34.778  1.00  0.00     0.019 C 
ENDBRANCH  20  28
ENDBRANCH  14  16
ENDBRANCH  13  14
ENDBRANCH   1  13
BRANCH   6  32
HETATM   32  C   UNL     1      -5.144   3.451 -30.485  1.00  0.00     0.175 C 
BRANCH  32  33
HETATM   33  C   UNL     1      -4.835   4.814 -31.144  1.00  0.00     0.255 C 
BRANCH  33  34
HETATM   34  N   UNL     1      -4.101   4.749 -32.469  1.00  0.00    -0.070 N 
HETATM   35  H   UNL     1      -4.196   3.764 -32.761  1.00  0.00     0.279 HD
HETATM   36  C   UNL     1      -4.730   5.547 -33.592  1.00  0.00     0.235 C 
HETATM   37  C   UNL     1      -4.088   5.142 -34.913  1.00  0.00     0.028 C 
HETATM   38  C   UNL     1      -2.570   5.293 -34.879  1.00  0.00     0.003 C 
HETATM   39  C   UNL     1      -1.959   4.556 -33.690  1.00  0.00     0.028 C 
HETATM   40  C   UNL     1      -2.606   4.971 -32.375  1.00  0.00     0.235 C 
ENDBRANCH  33  34
ENDBRANCH  32  33
ENDBRANCH   6  32
TORSDOF 9
ENDMDL
MODEL 9
REMARK VINA RESULT:      -7.8      1.218      3.338
REMARK  9 active torsions:
REMARK  status: ('A' for Active; 'I' for Inactive)
REMARK    1  A    between atoms: C_2  and  C_3 
REMARK    2  A    between atoms: C_4  and  O_5 
REMARK    3  A    between atoms: C_6  and  C_7 
REMARK    4  A    between atoms: C_12  and  C_13 
REMARK    5  A    between atoms: C_13  and  C_14 
REMARK    6  A    between atoms: C_14  and  N_15 
REMARK    7  A    between atoms: N_20  and  C_21 
REMARK    8  A    between atoms: C_21  and  C_22 
REMARK    9  A    between atoms: C_22  and  N_23 
ROOT
HETATM    1  N   UNL     1      -5.721   0.378 -31.610  1.00  0.00    -0.174 N 
HETATM    2  C   UNL     1      -7.062   0.696 -31.590  1.00  0.00     0.681 A 
HETATM    3  N   UNL     1      -7.616   1.555 -30.729  1.00  0.00    -0.234 N 
HETATM    4  H   UNL     1      -8.603   1.744 -30.680  1.00  0.00     0.174 HD
HETATM    5  H   UNL     1      -7.089   1.763 -29.872  1.00  0.00     0.174 HD
HETATM    6  N   UNL     1      -7.802   0.035 -32.589  1.00  0.00    -0.180 N 
HETATM    7  C   UNL     1      -6.851  -0.858 -33.191  1.00  0.00     0.079 A 
HETATM    8  C   UNL     1      -5.591  -0.633 -32.603  1.00  0.00     0.079 A 
HETATM    9  C   UNL     1      -7.004  -1.816 -34.172  1.00  0.00     0.032 A 
HETATM   10  C   UNL     1      -5.867  -2.526 -34.579  1.00  0.00     0.002 A 
HETATM   11  C   UNL     1      -4.610  -2.278 -34.003  1.00  0.00     0.002 A 
HETATM   12  C   UNL     1      -4.462  -1.323 -32.997  1.00  0.00     0.032 A 
ENDROOT
BRANCH   1  13
HETATM   13  C   UNL     1      -4.613   0.997 -30.866  1.00  0.00     0.231 C 
BRANCH  13  14
HETATM   14  C   UNL     1      -3.695   1.871 -31.690  1.00  0.00     0.178 C 
HETATM   15  O   UNL     1      -2.932   1.384 -32.524  1.00  0.00    -0.290 OA
BRANCH  14  16
HETATM   16  C   UNL     1      -3.717   3.342 -31.424  1.00  0.00     0.013 A 
HETATM   17  C   UNL     1      -4.927   3.992 -31.172  1.00  0.00     0.026 A 
HETATM   18  C   UNL     1      -4.991   5.382 -30.993  1.00  0.00    -0.016 A 
HETATM   19  C   UNL     1      -3.770   6.098 -31.096  1.00  0.00     0.079 A 
HETATM   20  C   UNL     1      -2.511   5.476 -31.316  1.00  0.00    -0.016 A 
HETATM   21  C   UNL     1      -2.524   4.070 -31.461  1.00  0.00     0.026 A 
BRANCH  18  22
HETATM   22  C   UNL     1      -6.356   6.078 -30.731  1.00  0.00    -0.021 C 
HETATM   23  C   UNL     1      -7.439   5.000 -30.524  1.00  0.00     0.019 C 
HETATM   24  C   UNL     1      -6.360   6.967 -29.459  1.00  0.00     0.019 C 
HETATM   25  C   UNL     1      -6.766   7.020 -31.888  1.00  0.00     0.019 C 
ENDBRANCH  18  22
BRANCH  19  26
HETATM   26  O   UNL     1      -3.875   7.457 -31.017  1.00  0.00    -0.360 OA
HETATM   27  H   UNL     1      -4.752   7.704 -30.692  1.00  0.00     0.217 HD
ENDBRANCH  19  26
BRANCH  20  28
HETATM   28  C   UNL     1      -1.170   6.256 -31.421  1.00  0.00    -0.021 C 
HETATM   29  C   UNL     1      -0.995   7.165 -30.185  1.00  0.00     0.019 C 
HETATM   30  C   UNL     1      -1.087   7.093 -32.719  1.00  0.00     0.019 C 
HETATM   31  C   UNL     1       0.082   5.335 -31.452  1.00  0.00     0.019 C 
ENDBRANCH  20  28
ENDBRANCH  14  16
ENDBRANCH  13  14
ENDBRANCH   1  13
BRANCH   6  32
HETATM   32  C   UNL     1      -9.212   0.311 -32.916  1.00  0.00     0.175 C 
BRANCH  32  33
HETATM   33  C   UNL     1      -9.483   1.079 -34.229  1.00  0.00     0.255 C 
BRANCH  33  34
HETATM   34  N   UNL     1      -9.756   2.562 -34.075  1.00  0.00    -0.070 N 
HETATM   35  H   UNL     1     -10.091   2.854 -35.007  1.00  0.00     0.279 HD
HETATM   36  C   UNL     1     -10.887   2.914 -33.132  1.00  0.00     0.235 C 
HETATM   37  C   UNL     1     -11.255   4.381 -33.318  1.00  0.00     0.028 C 
HETATM   38  C   UNL     1     -10.048   5.298 -33.139  1.00  0.00     0.003 C 
HETATM   39  C   UNL     1      -8.885   4.877 -34.032  1.00  0.00     0.028 C 
HETATM   40  C   UNL     1      -8.524   3.410 -33.835  1.00  0.00     0.235 C 
ENDBRANCH  33  34
ENDBRANCH  32  33
ENDBRANCH   6  32
TORSDOF 9
ENDMDL
MODEL 10
REMARK VINA RESULT:      -7.7      2.205      5.613
REMARK  9 active torsions:
REMARK  status: ('A' for Active; 'I' for Inactive)
REMARK    1  A    between atoms: C_2  and  C_3 
REMARK    2  A    between atoms: C_4  and  O_5 
REMARK    3  A    between atoms: C_6  and  C_7 
REMARK    4  A    between atoms: C_12  and  C_13 
REMARK    5  A    between atoms: C_13  and  C_14 
REMARK    6  A    between atoms: C_14  and  N_15 
REMARK    7  A    between atoms: N_20  and  C_21 
REMARK    8  A    between atoms: C_21  and  C_22 
REMARK    9  A    between atoms: C_22  and  N_23 
ROOT
HETATM    1  N   UNL     1      -6.235   2.891 -32.329  1.00  0.00    -0.174 N 
HETATM    2  C   UNL     1      -5.208   1.973 -32.342  1.00  0.00     0.681 A 
HETATM    3  N   UNL     1      -3.912   2.296 -32.319  1.00  0.00    -0.234 N 
HETATM    4  H   UNL     1      -3.163   1.626 -32.384  1.00  0.00     0.174 HD
HETATM    5  H   UNL     1      -3.664   3.255 -32.595  1.00  0.00     0.174 HD
HETATM    6  N   UNL     1      -5.660   0.639 -32.362  1.00  0.00    -0.180 N 
HETATM    7  C   UNL     1      -7.085   0.758 -32.499  1.00  0.00     0.079 A 
HETATM    8  C   UNL     1      -7.426   2.125 -32.462  1.00  0.00     0.079 A 
HETATM    9  C   UNL     1      -8.063  -0.203 -32.652  1.00  0.00     0.032 A 
HETATM   10  C   UNL     1      -9.395   0.224 -32.735  1.00  0.00     0.002 A 
HETATM   11  C   UNL     1      -9.727   1.587 -32.674  1.00  0.00     0.002 A 
HETATM   12  C   UNL     1      -8.734   2.558 -32.540  1.00  0.00     0.032 A 
ENDROOT
BRANCH   1  13
HETATM   13  C   UNL     1      -6.171   4.345 -32.115  1.00  0.00     0.231 C 
BRANCH  13  14
HETATM   14  C   UNL     1      -5.985   4.776 -30.677  1.00  0.00     0.178 C 
HETATM   15  O   UNL     1      -6.847   4.549 -29.829  1.00  0.00    -0.290 OA
BRANCH  14  16
HETATM   16  C   UNL     1      -4.739   5.526 -30.336  1.00  0.00     0.013 A 
HETATM   17  C   UNL     1      -4.691   6.324 -29.190  1.00  0.00     0.026 A 
HETATM   18  C   UNL     1      -3.563   7.100 -28.881  1.00  0.00    -0.016 A 
HETATM   19  C   UNL     1      -2.479   7.047 -29.796  1.00  0.00     0.079 A 
HETATM   20  C   UNL     1      -2.469   6.224 -30.954  1.00  0.00    -0.016 A 
HETATM   21  C   UNL     1      -3.630   5.452 -31.185  1.00  0.00     0.026 A 
BRANCH  18  22
HETATM   22  C   UNL     1      -3.549   7.991 -27.607  1.00  0.00    -0.021 C 
HETATM   23  C   UNL     1      -4.843   7.745 -26.806  1.00  0.00     0.019 C 
HETATM   24  C   UNL     1      -2.364   7.680 -26.652  1.00  0.00     0.019 C 
HETATM   25  C   UNL     1      -3.416   9.495 -27.945  1.00  0.00     0.019 C 
ENDBRANCH  18  22
BRANCH  19  26
HETATM   26  O   UNL     1      -1.437   7.886 -29.524  1.00  0.00    -0.360 OA
HETATM   27  H   UNL     1      -1.409   8.602 -30.175  1.00  0.00     0.217 HD
ENDBRANCH  19  26
BRANCH  20  28
HETATM   28  C   UNL     1      -1.281   6.158 -31.955  1.00  0.00    -0.021 C 
HETATM   29  C   UNL     1       0.008   5.745 -31.209  1.00  0.00     0.019 C 
HETATM   30  C   UNL     1      -1.068   7.500 -32.692  1.00  0.00     0.019 C 
HETATM   31  C   UNL     1      -1.476   5.104 -33.081  1.00  0.00     0.019 C 
ENDBRANCH  20  28
ENDBRANCH  14  16
ENDBRANCH  13  14
ENDBRANCH   1  13
BRANCH   6  32
HETATM   32  C   UNL     1      -4.798  -0.547 -32.205  1.00  0.00     0.175 C 
BRANCH  32  33
HETATM   33  C   UNL     1      -4.295  -1.217 -33.503  1.00  0.00     0.255 C 
BRANCH  33  34
HETATM   34  N   UNL     1      -4.969  -2.525 -33.868  1.00  0.00    -0.070 N 
HETATM   35  H   UNL     1      -5.392  -2.845 -32.982  1.00  0.00     0.279 HD
HETATM   36  C   UNL     1      -6.132  -2.403 -34.830  1.00  0.00     0.235 C 
HETATM   37  C   UNL     1      -6.899  -3.719 -34.854  1.00  0.00     0.028 C 
HETATM   38  C   UNL     1      -5.994  -4.901 -35.191  1.00  0.00     0.003 C 
HETATM   39  C   UNL     1      -4.779  -4.958 -34.269  1.00  0.00     0.028 C 
HETATM   40  C   UNL     1      -4.018  -3.639 -34.255  1.00  0.00     0.235 C 
ENDBRANCH  33  34
ENDBRANCH  32  33
ENDBRANCH   6  32
TORSDOF 9
ENDMDL
