MODEL 1
REMARK VINA RESULT:      -9.0      0.000      0.000
REMARK  9 active torsions:
REMARK  status: ('A' for Active; 'I' for Inactive)
REMARK    1  A    between atoms: C_2  and  C_3 
REMARK    2  A    between atoms: C_6  and  N_7 
REMARK    3  A    between atoms: N_7  and  C_8 
REMARK    4  A    between atoms: C_12  and  C_13 
REMARK       I    between atoms: C_13  and  N_14 
REMARK    5  A    between atoms: N_14  and  C_15 
REMARK    6  A    between atoms: C_15  and  C_16 
REMARK    7  A    between atoms: C_16  and  C_17 
REMARK    8  A    between atoms: C_17  and  N_18 
REMARK    9  A    between atoms: N_22  and  C_23 
ROOT
HETATM    1  C   UNL     1      -3.620   3.089 -31.378  1.00  0.00     0.129 A 
HETATM    2  N   UNL     1      -2.367   3.571 -31.344  1.00  0.00    -0.231 NA
HETATM    3  C   UNL     1      -2.099   4.813 -31.769  1.00  0.00     0.070 A 
HETATM    4  C   UNL     1      -3.081   5.681 -32.285  1.00  0.00     0.009 A 
HETATM    5  C   UNL     1      -4.409   5.185 -32.254  1.00  0.00     0.048 A 
HETATM    6  C   UNL     1      -4.668   3.885 -31.800  1.00  0.00     0.068 A 
HETATM    7  C   UNL     1      -0.776   5.228 -31.716  1.00  0.00     0.032 A 
HETATM    8  C   UNL     1      -0.373   6.476 -32.188  1.00  0.00     0.002 A 
HETATM    9  C   UNL     1      -1.310   7.326 -32.749  1.00  0.00     0.001 A 
HETATM   10  C   UNL     1      -2.646   6.932 -32.810  1.00  0.00     0.015 A 
ENDROOT
BRANCH   5  11
HETATM   11  C   UNL     1      -5.605   5.916 -32.748  1.00  0.00     0.252 C 
HETATM   12  N   UNL     1      -6.164   6.889 -31.951  1.00  0.00    -0.357 N 
HETATM   13  H   UNL     1      -5.899   6.902 -30.969  1.00  0.00     0.162 HD
HETATM   14  O   UNL     1      -6.091   5.635 -33.844  1.00  0.00    -0.268 OA
BRANCH  12  15
HETATM   15  C   UNL     1      -7.379   7.587 -32.324  1.00  0.00     0.124 C 
BRANCH  15  16
HETATM   16  C   UNL     1      -8.586   7.275 -31.430  1.00  0.00     0.047 C 
BRANCH  16  17
HETATM   17  C   UNL     1      -8.411   6.226 -30.325  1.00  0.00     0.236 C 
BRANCH  17  18
HETATM   18  N   UNL     1      -8.947   4.873 -30.679  1.00  0.00    -0.068 N 
HETATM   19  H   UNL     1      -9.621   4.622 -29.924  1.00  0.00     0.280 HD
HETATM   20  C   UNL     1      -9.648   4.774 -32.026  1.00  0.00     0.254 C 
HETATM   21  C   UNL     1     -10.247   3.364 -32.228  1.00  0.00     0.150 C 
HETATM   22  N   UNL     1      -9.262   2.291 -31.996  1.00  0.00    -0.375 N 
HETATM   23  C   UNL     1      -8.537   2.386 -30.710  1.00  0.00     0.150 C 
HETATM   24  C   UNL     1      -7.882   3.776 -30.553  1.00  0.00     0.254 C 
BRANCH  22  25
HETATM   25  C   UNL     1      -8.563   1.724 -33.067  1.00  0.00     0.069 A 
HETATM   26  C   UNL     1      -8.947   0.553 -33.749  1.00  0.00     0.142 A 
HETATM   27  F   UNL     1     -10.081  -0.084 -33.418  1.00  0.00    -0.204 F 
HETATM   28  C   UNL     1      -8.207   0.029 -34.810  1.00  0.00     0.044 A 
HETATM   29  C   UNL     1      -7.037   0.660 -35.218  1.00  0.00     0.003 A 
HETATM   30  C   UNL     1      -6.613   1.808 -34.557  1.00  0.00     0.002 A 
HETATM   31  C   UNL     1      -7.366   2.327 -33.497  1.00  0.00     0.032 A 
ENDBRANCH  22  25
ENDBRANCH  17  18
ENDBRANCH  16  17
ENDBRANCH  15  16
ENDBRANCH  12  15
ENDBRANCH   5  11
BRANCH   1  32
HETATM   32  N   UNL     1      -3.904   1.749 -31.046  1.00  0.00    -0.341 N 
HETATM   33  H   UNL     1      -3.376   1.451 -30.234  1.00  0.00     0.167 HD
BRANCH  32  34
HETATM   34  C   UNL     1      -4.231   0.670 -31.895  1.00  0.00     0.033 A 
HETATM   35  C   UNL     1      -5.336  -0.160 -31.683  1.00  0.00     0.030 A 
HETATM   36  C   UNL     1      -5.574  -1.278 -32.494  1.00  0.00     0.010 A 
HETATM   37  C   UNL     1      -4.690  -1.616 -33.525  1.00  0.00    -0.055 A 
HETATM   38  C   UNL     1      -3.564  -0.808 -33.722  1.00  0.00     0.010 A 
HETATM   39  C   UNL     1      -3.335   0.310 -32.912  1.00  0.00     0.030 A 
BRANCH  37  40
HETATM   40  C   UNL     1      -4.928  -2.823 -34.415  1.00  0.00     0.010 C 
HETATM   41  C   UNL     1      -6.424  -3.086 -34.603  1.00  0.00     0.015 C 
HETATM   42  C   UNL     1      -4.217  -4.071 -33.887  1.00  0.00     0.015 C 
ENDBRANCH  37  40
ENDBRANCH  32  34
ENDBRANCH   1  32
TORSDOF 9
ENDMDL
MODEL 2
REMARK VINA RESULT:      -8.9      3.447      7.431
REMARK  9 active torsions:
REMARK  status: ('A' for Active; 'I' for Inactive)
REMARK    1  A    between atoms: C_2  and  C_3 
REMARK    2  A    between atoms: C_6  and  N_7 
REMARK    3  A    between atoms: N_7  and  C_8 
REMARK    4  A    between atoms: C_12  and  C_13 
REMARK       I    between atoms: C_13  and  N_14 
REMARK    5  A    between atoms: N_14  and  C_15 
REMARK    6  A    between atoms: C_15  and  C_16 
REMARK    7  A    between atoms: C_16  and  C_17 
REMARK    8  A    between atoms: C_17  and  N_18 
REMARK    9  A    between atoms: N_22  and  C_23 
ROOT
HETATM    1  C   UNL     1      -7.163   2.344 -31.917  1.00  0.00     0.129 A 
HETATM    2  N   UNL     1      -7.410   2.950 -30.745  1.00  0.00    -0.231 NA
HETATM    3  C   UNL     1      -6.797   4.098 -30.426  1.00  0.00     0.070 A 
HETATM    4  C   UNL     1      -5.861   4.733 -31.264  1.00  0.00     0.009 A 
HETATM    5  C   UNL     1      -5.659   4.118 -32.527  1.00  0.00     0.048 A 
HETATM    6  C   UNL     1      -6.315   2.921 -32.842  1.00  0.00     0.068 A 
HETATM    7  C   UNL     1      -7.095   4.651 -29.188  1.00  0.00     0.032 A 
HETATM    8  C   UNL     1      -6.472   5.809 -28.726  1.00  0.00     0.002 A 
HETATM    9  C   UNL     1      -5.509   6.422 -29.509  1.00  0.00     0.001 A 
HETATM   10  C   UNL     1      -5.195   5.887 -30.758  1.00  0.00     0.015 A 
ENDROOT
BRANCH   5  11
HETATM   11  C   UNL     1      -4.720   4.602 -33.572  1.00  0.00     0.252 C 
HETATM   12  N   UNL     1      -3.366   4.516 -33.338  1.00  0.00    -0.357 N 
HETATM   13  H   UNL     1      -3.062   4.360 -32.380  1.00  0.00     0.162 HD
HETATM   14  O   UNL     1      -5.155   5.086 -34.617  1.00  0.00    -0.268 OA
BRANCH  12  15
HETATM   15  C   UNL     1      -2.388   5.043 -34.271  1.00  0.00     0.124 C 
BRANCH  15  16
HETATM   16  C   UNL     1      -2.206   6.564 -34.200  1.00  0.00     0.047 C 
BRANCH  16  17
HETATM   17  C   UNL     1      -1.096   7.115 -33.298  1.00  0.00     0.236 C 
BRANCH  17  18
HETATM   18  N   UNL     1      -1.060   6.501 -31.931  1.00  0.00    -0.068 N 
HETATM   19  H   UNL     1      -1.729   5.702 -31.955  1.00  0.00     0.280 HD
HETATM   20  C   UNL     1       0.301   5.998 -31.471  1.00  0.00     0.254 C 
HETATM   21  C   UNL     1       0.188   5.295 -30.100  1.00  0.00     0.150 C 
HETATM   22  N   UNL     1      -0.507   6.121 -29.095  1.00  0.00    -0.375 N 
HETATM   23  C   UNL     1      -1.814   6.656 -29.531  1.00  0.00     0.150 C 
HETATM   24  C   UNL     1      -1.675   7.418 -30.867  1.00  0.00     0.254 C 
BRANCH  22  25
HETATM   25  C   UNL     1       0.222   6.907 -28.196  1.00  0.00     0.069 A 
HETATM   26  C   UNL     1       0.228   6.736 -26.798  1.00  0.00     0.142 A 
HETATM   27  F   UNL     1      -0.463   5.733 -26.234  1.00  0.00    -0.204 F 
HETATM   28  C   UNL     1       0.972   7.555 -25.947  1.00  0.00     0.044 A 
HETATM   29  C   UNL     1       1.730   8.595 -26.474  1.00  0.00     0.003 A 
HETATM   30  C   UNL     1       1.734   8.810 -27.848  1.00  0.00     0.002 A 
HETATM   31  C   UNL     1       0.988   7.979 -28.692  1.00  0.00     0.032 A 
ENDBRANCH  22  25
ENDBRANCH  17  18
ENDBRANCH  16  17
ENDBRANCH  15  16
ENDBRANCH  12  15
ENDBRANCH   5  11
BRANCH   1  32
HETATM   32  N   UNL     1      -7.706   1.079 -32.222  1.00  0.00    -0.341 N 
HETATM   33  H   UNL     1      -8.424   0.817 -31.557  1.00  0.00     0.167 HD
BRANCH  32  34
HETATM   34  C   UNL     1      -7.079  -0.046 -32.800  1.00  0.00     0.033 A 
HETATM   35  C   UNL     1      -5.823  -0.510 -32.398  1.00  0.00     0.030 A 
HETATM   36  C   UNL     1      -5.193  -1.572 -33.059  1.00  0.00     0.010 A 
HETATM   37  C   UNL     1      -5.792  -2.182 -34.168  1.00  0.00    -0.055 A 
HETATM   38  C   UNL     1      -7.034  -1.701 -34.596  1.00  0.00     0.010 A 
HETATM   39  C   UNL     1      -7.661  -0.642 -33.928  1.00  0.00     0.030 A 
BRANCH  37  40
HETATM   40  C   UNL     1      -5.127  -3.335 -34.901  1.00  0.00     0.010 C 
HETATM   41  C   UNL     1      -6.157  -4.379 -35.337  1.00  0.00     0.015 C 
HETATM   42  C   UNL     1      -4.019  -3.979 -34.065  1.00  0.00     0.015 C 
ENDBRANCH  37  40
ENDBRANCH  32  34
ENDBRANCH   1  32
TORSDOF 9
ENDMDL
MODEL 3
REMARK VINA RESULT:      -8.8      3.569      6.218
REMARK  9 active torsions:
REMARK  status: ('A' for Active; 'I' for Inactive)
REMARK    1  A    between atoms: C_2  and  C_3 
REMARK    2  A    between atoms: C_6  and  N_7 
REMARK    3  A    between atoms: N_7  and  C_8 
REMARK    4  A    between atoms: C_12  and  C_13 
REMARK       I    between atoms: C_13  and  N_14 
REMARK    5  A    between atoms: N_14  and  C_15 
REMARK    6  A    between atoms: C_15  and  C_16 
REMARK    7  A    between atoms: C_16  and  C_17 
REMARK    8  A    between atoms: C_17  and  N_18 
REMARK    9  A    between atoms: N_22  and  C_23 
ROOT
HETATM    1  C   UNL     1      -3.809   1.997 -31.262  1.00  0.00     0.129 A 
HETATM    2  N   UNL     1      -3.022   2.460 -32.246  1.00  0.00    -0.231 NA
HETATM    3  C   UNL     1      -3.044   3.756 -32.587  1.00  0.00     0.070 A 
HETATM    4  C   UNL     1      -3.881   4.704 -31.968  1.00  0.00     0.009 A 
HETATM    5  C   UNL     1      -4.659   4.215 -30.887  1.00  0.00     0.048 A 
HETATM    6  C   UNL     1      -4.616   2.857 -30.543  1.00  0.00     0.068 A 
HETATM    7  C   UNL     1      -2.212   4.151 -33.626  1.00  0.00     0.032 A 
HETATM    8  C   UNL     1      -2.197   5.460 -34.105  1.00  0.00     0.002 A 
HETATM    9  C   UNL     1      -3.050   6.397 -33.549  1.00  0.00     0.001 A 
HETATM   10  C   UNL     1      -3.893   6.025 -32.501  1.00  0.00     0.015 A 
ENDROOT
BRANCH   5  11
HETATM   11  C   UNL     1      -5.616   5.024 -30.089  1.00  0.00     0.252 C 
HETATM   12  N   UNL     1      -5.240   5.453 -28.836  1.00  0.00    -0.357 N 
HETATM   13  H   UNL     1      -4.435   5.002 -28.406  1.00  0.00     0.162 HD
HETATM   14  O   UNL     1      -6.731   5.286 -30.542  1.00  0.00    -0.268 OA
BRANCH  12  15
HETATM   15  C   UNL     1      -6.146   6.174 -27.963  1.00  0.00     0.124 C 
BRANCH  15  16
HETATM   16  C   UNL     1      -5.849   7.674 -27.845  1.00  0.00     0.047 C 
BRANCH  16  17
HETATM   17  C   UNL     1      -4.988   8.147 -26.669  1.00  0.00     0.236 C 
BRANCH  17  18
HETATM   18  N   UNL     1      -3.557   8.412 -27.028  1.00  0.00    -0.068 N 
HETATM   19  H   UNL     1      -3.335   9.359 -26.652  1.00  0.00     0.280 HD
HETATM   20  C   UNL     1      -2.547   7.412 -26.487  1.00  0.00     0.254 C 
HETATM   21  C   UNL     1      -1.106   7.850 -26.833  1.00  0.00     0.150 C 
HETATM   22  N   UNL     1      -0.932   8.147 -28.267  1.00  0.00    -0.375 N 
HETATM   23  C   UNL     1      -1.927   9.087 -28.828  1.00  0.00     0.150 C 
HETATM   24  C   UNL     1      -3.364   8.599 -28.538  1.00  0.00     0.254 C 
BRANCH  22  25
HETATM   25  C   UNL     1      -0.431   7.174 -29.138  1.00  0.00     0.069 A 
HETATM   26  C   UNL     1       0.176   5.968 -28.734  1.00  0.00     0.142 A 
HETATM   27  F   UNL     1       0.267   5.657 -27.431  1.00  0.00    -0.204 F 
HETATM   28  C   UNL     1       0.664   5.034 -29.649  1.00  0.00     0.044 A 
HETATM   29  C   UNL     1       0.573   5.287 -31.013  1.00  0.00     0.003 A 
HETATM   30  C   UNL     1       0.000   6.475 -31.451  1.00  0.00     0.002 A 
HETATM   31  C   UNL     1      -0.491   7.403 -30.525  1.00  0.00     0.032 A 
ENDBRANCH  22  25
ENDBRANCH  17  18
ENDBRANCH  16  17
ENDBRANCH  15  16
ENDBRANCH  12  15
ENDBRANCH   5  11
BRANCH   1  32
HETATM   32  N   UNL     1      -3.888   0.621 -30.967  1.00  0.00    -0.341 N 
HETATM   33  H   UNL     1      -3.207   0.356 -30.265  1.00  0.00     0.167 HD
BRANCH  32  34
HETATM   34  C   UNL     1      -4.226  -0.456 -31.815  1.00  0.00     0.033 A 
HETATM   35  C   UNL     1      -3.409  -1.577 -31.988  1.00  0.00     0.030 A 
HETATM   36  C   UNL     1      -3.735  -2.581 -32.909  1.00  0.00     0.010 A 
HETATM   37  C   UNL     1      -4.877  -2.474 -33.711  1.00  0.00    -0.055 A 
HETATM   38  C   UNL     1      -5.682  -1.338 -33.567  1.00  0.00     0.010 A 
HETATM   39  C   UNL     1      -5.354  -0.341 -32.641  1.00  0.00     0.030 A 
BRANCH  37  40
HETATM   40  C   UNL     1      -5.250  -3.549 -34.717  1.00  0.00     0.010 C 
HETATM   41  C   UNL     1      -6.767  -3.627 -34.906  1.00  0.00     0.015 C 
HETATM   42  C   UNL     1      -4.678  -4.915 -34.330  1.00  0.00     0.015 C 
ENDBRANCH  37  40
ENDBRANCH  32  34
ENDBRANCH   1  32
TORSDOF 9
ENDMDL
MODEL 4
REMARK VINA RESULT:      -8.7      2.000      6.736
REMARK  9 active torsions:
REMARK  status: ('A' for Active; 'I' for Inactive)
REMARK    1  A    between atoms: C_2  and  C_3 
REMARK    2  A    between atoms: C_6  and  N_7 
REMARK    3  A    between atoms: N_7  and  C_8 
REMARK    4  A    between atoms: C_12  and  C_13 
REMARK       I    between atoms: C_13  and  N_14 
REMARK    5  A    between atoms: N_14  and  C_15 
REMARK    6  A    between atoms: C_15  and  C_16 
REMARK    7  A    between atoms: C_16  and  C_17 
REMARK    8  A    between atoms: C_17  and  N_18 
REMARK    9  A    between atoms: N_22  and  C_23 
ROOT
HETATM    1  C   UNL     1      -4.928   0.704 -32.577  1.00  0.00     0.129 A 
HETATM    2  N   UNL     1      -4.279  -0.428 -32.891  1.00  0.00    -0.231 NA
HETATM    3  C   UNL     1      -4.895  -1.403 -33.574  1.00  0.00     0.070 A 
HETATM    4  C   UNL     1      -6.238  -1.324 -33.991  1.00  0.00     0.009 A 
HETATM    5  C   UNL     1      -6.891  -0.096 -33.711  1.00  0.00     0.048 A 
HETATM    6  C   UNL     1      -6.226   0.912 -33.001  1.00  0.00     0.068 A 
HETATM    7  C   UNL     1      -4.160  -2.549 -33.843  1.00  0.00     0.032 A 
HETATM    8  C   UNL     1      -4.717  -3.649 -34.493  1.00  0.00     0.002 A 
HETATM    9  C   UNL     1      -6.050  -3.617 -34.865  1.00  0.00     0.001 A 
HETATM   10  C   UNL     1      -6.808  -2.475 -34.608  1.00  0.00     0.015 A 
ENDROOT
BRANCH   5  11
HETATM   11  C   UNL     1      -8.304   0.216 -34.050  1.00  0.00     0.252 C 
HETATM   12  N   UNL     1      -9.233   0.270 -33.036  1.00  0.00    -0.357 N 
HETATM   13  H   UNL     1      -8.978  -0.142 -32.141  1.00  0.00     0.162 HD
HETATM   14  O   UNL     1      -8.631   0.403 -35.222  1.00  0.00    -0.268 OA
BRANCH  12  15
HETATM   15  C   UNL     1     -10.644   0.485 -33.293  1.00  0.00     0.124 C 
BRANCH  15  16
HETATM   16  C   UNL     1     -11.116   1.925 -33.056  1.00  0.00     0.047 C 
BRANCH  16  17
HETATM   17  C   UNL     1     -10.936   2.938 -34.191  1.00  0.00     0.236 C 
BRANCH  17  18
HETATM   18  N   UNL     1     -10.136   4.147 -33.809  1.00  0.00    -0.068 N 
HETATM   19  H   UNL     1     -10.343   4.871 -34.529  1.00  0.00     0.280 HD
HETATM   20  C   UNL     1     -10.426   4.718 -32.429  1.00  0.00     0.254 C 
HETATM   21  C   UNL     1      -9.621   6.016 -32.195  1.00  0.00     0.150 C 
HETATM   22  N   UNL     1      -8.182   5.849 -32.473  1.00  0.00    -0.375 N 
HETATM   23  C   UNL     1      -7.873   5.257 -33.793  1.00  0.00     0.150 C 
HETATM   24  C   UNL     1      -8.629   3.924 -33.985  1.00  0.00     0.254 C 
BRANCH  22  25
HETATM   25  C   UNL     1      -7.287   5.566 -31.436  1.00  0.00     0.069 A 
HETATM   26  C   UNL     1      -7.282   4.379 -30.678  1.00  0.00     0.142 A 
HETATM   27  F   UNL     1      -8.148   3.392 -30.957  1.00  0.00    -0.204 F 
HETATM   28  C   UNL     1      -6.367   4.152 -29.649  1.00  0.00     0.044 A 
HETATM   29  C   UNL     1      -5.426   5.126 -29.332  1.00  0.00     0.003 A 
HETATM   30  C   UNL     1      -5.412   6.321 -30.042  1.00  0.00     0.002 A 
HETATM   31  C   UNL     1      -6.332   6.535 -31.076  1.00  0.00     0.032 A 
ENDBRANCH  22  25
ENDBRANCH  17  18
ENDBRANCH  16  17
ENDBRANCH  15  16
ENDBRANCH  12  15
ENDBRANCH   5  11
BRANCH   1  32
HETATM   32  N   UNL     1      -4.337   1.690 -31.760  1.00  0.00    -0.341 N 
HETATM   33  H   UNL     1      -4.662   1.617 -30.803  1.00  0.00     0.167 HD
BRANCH  32  34
HETATM   34  C   UNL     1      -3.942   3.004 -32.091  1.00  0.00     0.033 A 
HETATM   35  C   UNL     1      -4.569   3.763 -33.083  1.00  0.00     0.030 A 
HETATM   36  C   UNL     1      -4.088   5.027 -33.446  1.00  0.00     0.010 A 
HETATM   37  C   UNL     1      -2.940   5.557 -32.846  1.00  0.00    -0.055 A 
HETATM   38  C   UNL     1      -2.288   4.789 -31.875  1.00  0.00     0.010 A 
HETATM   39  C   UNL     1      -2.776   3.527 -31.513  1.00  0.00     0.030 A 
BRANCH  37  40
HETATM   40  C   UNL     1      -2.400   6.925 -33.224  1.00  0.00     0.010 C 
HETATM   41  C   UNL     1      -0.976   6.824 -33.776  1.00  0.00     0.015 C 
HETATM   42  C   UNL     1      -2.462   7.907 -32.052  1.00  0.00     0.015 C 
ENDBRANCH  37  40
ENDBRANCH  32  34
ENDBRANCH   1  32
TORSDOF 9
ENDMDL
MODEL 5
REMARK VINA RESULT:      -8.7      2.794      6.790
REMARK  9 active torsions:
REMARK  status: ('A' for Active; 'I' for Inactive)
REMARK    1  A    between atoms: C_2  and  C_3 
REMARK    2  A    between atoms: C_6  and  N_7 
REMARK    3  A    between atoms: N_7  and  C_8 
REMARK    4  A    between atoms: C_12  and  C_13 
REMARK       I    between atoms: C_13  and  N_14 
REMARK    5  A    between atoms: N_14  and  C_15 
REMARK    6  A    between atoms: C_15  and  C_16 
REMARK    7  A    between atoms: C_16  and  C_17 
REMARK    8  A    between atoms: C_17  and  N_18 
REMARK    9  A    between atoms: N_22  and  C_23 
ROOT
HETATM    1  C   UNL     1     -10.393   2.264 -34.107  1.00  0.00     0.129 A 
HETATM    2  N   UNL     1     -11.452   1.570 -34.554  1.00  0.00    -0.231 NA
HETATM    3  C   UNL     1     -12.660   1.730 -33.996  1.00  0.00     0.070 A 
HETATM    4  C   UNL     1     -12.903   2.601 -32.916  1.00  0.00     0.009 A 
HETATM    5  C   UNL     1     -11.791   3.376 -32.497  1.00  0.00     0.048 A 
HETATM    6  C   UNL     1     -10.538   3.198 -33.099  1.00  0.00     0.068 A 
HETATM    7  C   UNL     1     -13.698   0.963 -34.505  1.00  0.00     0.032 A 
HETATM    8  C   UNL     1     -14.981   1.001 -33.963  1.00  0.00     0.002 A 
HETATM    9  C   UNL     1     -15.233   1.809 -32.867  1.00  0.00     0.001 A 
HETATM   10  C   UNL     1     -14.206   2.592 -32.340  1.00  0.00     0.015 A 
ENDROOT
BRANCH   5  11
HETATM   11  C   UNL     1     -11.805   4.355 -31.379  1.00  0.00     0.252 C 
HETATM   12  N   UNL     1     -11.308   5.619 -31.598  1.00  0.00    -0.357 N 
HETATM   13  H   UNL     1     -10.730   5.762 -32.424  1.00  0.00     0.162 HD
HETATM   14  O   UNL     1     -12.240   4.025 -30.275  1.00  0.00    -0.268 OA
BRANCH  12  15
HETATM   15  C   UNL     1     -11.209   6.603 -30.537  1.00  0.00     0.124 C 
BRANCH  15  16
HETATM   16  C   UNL     1      -9.771   6.956 -30.135  1.00  0.00     0.047 C 
BRANCH  16  17
HETATM   17  C   UNL     1      -8.926   5.870 -29.460  1.00  0.00     0.236 C 
BRANCH  17  18
HETATM   18  N   UNL     1      -7.685   5.504 -30.217  1.00  0.00    -0.068 N 
HETATM   19  H   UNL     1      -7.361   6.379 -30.682  1.00  0.00     0.280 HD
HETATM   20  C   UNL     1      -6.549   4.934 -29.381  1.00  0.00     0.254 C 
HETATM   21  C   UNL     1      -5.295   4.698 -30.252  1.00  0.00     0.150 C 
HETATM   22  N   UNL     1      -5.588   3.911 -31.465  1.00  0.00    -0.375 N 
HETATM   23  C   UNL     1      -6.714   4.420 -32.275  1.00  0.00     0.150 C 
HETATM   24  C   UNL     1      -7.982   4.584 -31.407  1.00  0.00     0.254 C 
BRANCH  22  25
HETATM   25  C   UNL     1      -5.382   2.527 -31.480  1.00  0.00     0.069 A 
HETATM   26  C   UNL     1      -5.994   1.613 -30.599  1.00  0.00     0.142 A 
HETATM   27  F   UNL     1      -6.882   2.040 -29.688  1.00  0.00    -0.204 F 
HETATM   28  C   UNL     1      -5.748   0.241 -30.656  1.00  0.00     0.044 A 
HETATM   29  C   UNL     1      -4.858  -0.265 -31.598  1.00  0.00     0.003 A 
HETATM   30  C   UNL     1      -4.218   0.607 -32.471  1.00  0.00     0.002 A 
HETATM   31  C   UNL     1      -4.476   1.981 -32.408  1.00  0.00     0.032 A 
ENDBRANCH  22  25
ENDBRANCH  17  18
ENDBRANCH  16  17
ENDBRANCH  15  16
ENDBRANCH  12  15
ENDBRANCH   5  11
BRANCH   1  32
HETATM   32  N   UNL     1      -9.094   2.026 -34.600  1.00  0.00    -0.341 N 
HETATM   33  H   UNL     1      -8.941   2.507 -35.479  1.00  0.00     0.167 HD
BRANCH  32  34
HETATM   34  C   UNL     1      -8.289   0.873 -34.476  1.00  0.00     0.033 A 
HETATM   35  C   UNL     1      -7.287   0.539 -35.391  1.00  0.00     0.030 A 
HETATM   36  C   UNL     1      -6.573  -0.661 -35.285  1.00  0.00     0.010 A 
HETATM   37  C   UNL     1      -6.866  -1.581 -34.271  1.00  0.00    -0.055 A 
HETATM   38  C   UNL     1      -7.890  -1.269 -33.370  1.00  0.00     0.010 A 
HETATM   39  C   UNL     1      -8.597  -0.065 -33.479  1.00  0.00     0.030 A 
BRANCH  37  40
HETATM   40  C   UNL     1      -6.105  -2.889 -34.137  1.00  0.00     0.010 C 
HETATM   41  C   UNL     1      -4.648  -2.728 -34.576  1.00  0.00     0.015 C 
HETATM   42  C   UNL     1      -6.784  -4.026 -34.905  1.00  0.00     0.015 C 
ENDBRANCH  37  40
ENDBRANCH  32  34
ENDBRANCH   1  32
TORSDOF 9
ENDMDL
MODEL 6
REMARK VINA RESULT:      -8.4      2.334      7.108
REMARK  9 active torsions:
REMARK  status: ('A' for Active; 'I' for Inactive)
REMARK    1  A    between atoms: C_2  and  C_3 
REMARK    2  A    between atoms: C_6  and  N_7 
REMARK    3  A    between atoms: N_7  and  C_8 
REMARK    4  A    between atoms: C_12  and  C_13 
REMARK       I    between atoms: C_13  and  N_14 
REMARK    5  A    between atoms: N_14  and  C_15 
REMARK    6  A    between atoms: C_15  and  C_16 
REMARK    7  A    between atoms: C_16  and  C_17 
REMARK    8  A    between atoms: C_17  and  N_18 
REMARK    9  A    between atoms: N_22  and  C_23 
ROOT
HETATM    1  C   UNL     1      -7.606  -0.010 -34.458  1.00  0.00     0.129 A 
HETATM    2  N   UNL     1      -7.304  -1.238 -34.906  1.00  0.00    -0.231 NA
HETATM    3  C   UNL     1      -6.236  -1.896 -34.434  1.00  0.00     0.070 A 
HETATM    4  C   UNL     1      -5.363  -1.359 -33.468  1.00  0.00     0.009 A 
HETATM    5  C   UNL     1      -5.731  -0.089 -32.955  1.00  0.00     0.048 A 
HETATM    6  C   UNL     1      -6.855   0.579 -33.459  1.00  0.00     0.068 A 
HETATM    7  C   UNL     1      -5.983  -3.154 -34.962  1.00  0.00     0.032 A 
HETATM    8  C   UNL     1      -4.868  -3.903 -34.590  1.00  0.00     0.002 A 
HETATM    9  C   UNL     1      -3.966  -3.374 -33.683  1.00  0.00     0.001 A 
HETATM   10  C   UNL     1      -4.200  -2.112 -33.136  1.00  0.00     0.015 A 
ENDROOT
BRANCH   5  11
HETATM   11  C   UNL     1      -4.964   0.676 -31.937  1.00  0.00     0.252 C 
HETATM   12  N   UNL     1      -3.924   1.477 -32.353  1.00  0.00    -0.357 N 
HETATM   13  H   UNL     1      -3.563   1.329 -33.292  1.00  0.00     0.162 HD
HETATM   14  O   UNL     1      -5.249   0.573 -30.744  1.00  0.00    -0.268 OA
BRANCH  12  15
HETATM   15  C   UNL     1      -3.076   2.186 -31.415  1.00  0.00     0.124 C 
BRANCH  15  16
HETATM   16  C   UNL     1      -3.267   3.708 -31.419  1.00  0.00     0.047 C 
BRANCH  16  17
HETATM   17  C   UNL     1      -3.430   4.410 -32.772  1.00  0.00     0.236 C 
BRANCH  17  18
HETATM   18  N   UNL     1      -4.761   5.073 -32.959  1.00  0.00    -0.068 N 
HETATM   19  H   UNL     1      -4.582   5.927 -33.528  1.00  0.00     0.280 HD
HETATM   20  C   UNL     1      -5.825   4.230 -33.647  1.00  0.00     0.254 C 
HETATM   21  C   UNL     1      -7.111   5.055 -33.876  1.00  0.00     0.150 C 
HETATM   22  N   UNL     1      -7.587   5.717 -32.647  1.00  0.00    -0.375 N 
HETATM   23  C   UNL     1      -6.561   6.510 -31.936  1.00  0.00     0.150 C 
HETATM   24  C   UNL     1      -5.308   5.653 -31.649  1.00  0.00     0.254 C 
BRANCH  22  25
HETATM   25  C   UNL     1      -8.575   5.120 -31.856  1.00  0.00     0.069 A 
HETATM   26  C   UNL     1      -8.489   3.829 -31.300  1.00  0.00     0.142 A 
HETATM   27  F   UNL     1      -7.383   3.087 -31.472  1.00  0.00    -0.204 F 
HETATM   28  C   UNL     1      -9.510   3.281 -30.522  1.00  0.00     0.044 A 
HETATM   29  C   UNL     1     -10.669   4.011 -30.285  1.00  0.00     0.003 A 
HETATM   30  C   UNL     1     -10.800   5.282 -30.833  1.00  0.00     0.002 A 
HETATM   31  C   UNL     1      -9.768   5.823 -31.608  1.00  0.00     0.032 A 
ENDBRANCH  22  25
ENDBRANCH  17  18
ENDBRANCH  16  17
ENDBRANCH  15  16
ENDBRANCH  12  15
ENDBRANCH   5  11
BRANCH   1  32
HETATM   32  N   UNL     1      -8.653   0.744 -35.024  1.00  0.00    -0.341 N 
HETATM   33  H   UNL     1      -8.336   1.265 -35.833  1.00  0.00     0.167 HD
BRANCH  32  34
HETATM   34  C   UNL     1      -9.753   1.363 -34.390  1.00  0.00     0.033 A 
HETATM   35  C   UNL     1     -10.760   0.646 -33.737  1.00  0.00     0.030 A 
HETATM   36  C   UNL     1     -11.882   1.290 -33.201  1.00  0.00     0.010 A 
HETATM   37  C   UNL     1     -12.045   2.673 -33.332  1.00  0.00    -0.055 A 
HETATM   38  C   UNL     1     -11.057   3.394 -34.013  1.00  0.00     0.010 A 
HETATM   39  C   UNL     1      -9.935   2.745 -34.543  1.00  0.00     0.030 A 
BRANCH  37  40
HETATM   40  C   UNL     1     -13.254   3.393 -32.760  1.00  0.00     0.010 C 
HETATM   41  C   UNL     1     -14.495   2.497 -32.789  1.00  0.00     0.015 C 
HETATM   42  C   UNL     1     -13.522   4.718 -33.476  1.00  0.00     0.015 C 
ENDBRANCH  37  40
ENDBRANCH  32  34
ENDBRANCH   1  32
TORSDOF 9
ENDMDL
MODEL 7
REMARK VINA RESULT:      -8.3      3.622      6.133
REMARK  9 active torsions:
REMARK  status: ('A' for Active; 'I' for Inactive)
REMARK    1  A    between atoms: C_2  and  C_3 
REMARK    2  A    between atoms: C_6  and  N_7 
REMARK    3  A    between atoms: N_7  and  C_8 
REMARK    4  A    between atoms: C_12  and  C_13 
REMARK       I    between atoms: C_13  and  N_14 
REMARK    5  A    between atoms: N_14  and  C_15 
REMARK    6  A    between atoms: C_15  and  C_16 
REMARK    7  A    between atoms: C_16  and  C_17 
REMARK    8  A    between atoms: C_17  and  N_18 
REMARK    9  A    between atoms: N_22  and  C_23 
ROOT
HETATM    1  C   UNL     1      -3.643   3.117 -31.393  1.00  0.00     0.129 A 
HETATM    2  N   UNL     1      -2.470   3.569 -31.865  1.00  0.00    -0.231 NA
HETATM    3  C   UNL     1      -2.313   4.861 -32.184  1.00  0.00     0.070 A 
HETATM    4  C   UNL     1      -3.342   5.816 -32.068  1.00  0.00     0.009 A 
HETATM    5  C   UNL     1      -4.554   5.338 -31.507  1.00  0.00     0.048 A 
HETATM    6  C   UNL     1      -4.695   3.985 -31.174  1.00  0.00     0.068 A 
HETATM    7  C   UNL     1      -1.075   5.244 -32.681  1.00  0.00     0.032 A 
HETATM    8  C   UNL     1      -0.818   6.547 -33.102  1.00  0.00     0.002 A 
HETATM    9  C   UNL     1      -1.829   7.491 -33.049  1.00  0.00     0.001 A 
HETATM   10  C   UNL     1      -3.081   7.131 -32.550  1.00  0.00     0.015 A 
ENDROOT
BRANCH   5  11
HETATM   11  C   UNL     1      -5.776   6.157 -31.293  1.00  0.00     0.252 C 
HETATM   12  N   UNL     1      -5.814   7.027 -30.227  1.00  0.00    -0.357 N 
HETATM   13  H   UNL     1      -5.121   6.902 -29.492  1.00  0.00     0.162 HD
HETATM   14  O   UNL     1      -6.739   6.038 -32.050  1.00  0.00    -0.268 OA
BRANCH  12  15
HETATM   15  C   UNL     1      -6.999   7.796 -29.901  1.00  0.00     0.124 C 
BRANCH  15  16
HETATM   16  C   UNL     1      -6.750   8.960 -28.934  1.00  0.00     0.047 C 
BRANCH  16  17
HETATM   17  C   UNL     1      -6.609   8.639 -27.442  1.00  0.00     0.236 C 
BRANCH  17  18
HETATM   18  N   UNL     1      -5.221   8.821 -26.907  1.00  0.00    -0.068 N 
HETATM   19  H   UNL     1      -5.312   9.428 -26.065  1.00  0.00     0.280 HD
HETATM   20  C   UNL     1      -4.491   7.542 -26.523  1.00  0.00     0.254 C 
HETATM   21  C   UNL     1      -3.119   7.866 -25.889  1.00  0.00     0.150 C 
HETATM   22  N   UNL     1      -2.312   8.778 -26.720  1.00  0.00    -0.375 N 
HETATM   23  C   UNL     1      -3.011  10.011 -27.142  1.00  0.00     0.150 C 
HETATM   24  C   UNL     1      -4.348   9.671 -27.838  1.00  0.00     0.254 C 
BRANCH  22  25
HETATM   25  C   UNL     1      -1.350   8.272 -27.602  1.00  0.00     0.069 A 
HETATM   26  C   UNL     1      -1.624   7.419 -28.688  1.00  0.00     0.142 A 
HETATM   27  F   UNL     1      -2.888   7.068 -28.974  1.00  0.00    -0.204 F 
HETATM   28  C   UNL     1      -0.623   6.939 -29.533  1.00  0.00     0.044 A 
HETATM   29  C   UNL     1       0.703   7.290 -29.305  1.00  0.00     0.003 A 
HETATM   30  C   UNL     1       1.017   8.114 -28.230  1.00  0.00     0.002 A 
HETATM   31  C   UNL     1       0.004   8.593 -27.392  1.00  0.00     0.032 A 
ENDBRANCH  22  25
ENDBRANCH  17  18
ENDBRANCH  16  17
ENDBRANCH  15  16
ENDBRANCH  12  15
ENDBRANCH   5  11
BRANCH   1  32
HETATM   32  N   UNL     1      -3.864   1.744 -31.162  1.00  0.00    -0.341 N 
HETATM   33  H   UNL     1      -3.289   1.401 -30.402  1.00  0.00     0.167 HD
BRANCH  32  34
HETATM   34  C   UNL     1      -4.193   0.726 -32.083  1.00  0.00     0.033 A 
HETATM   35  C   UNL     1      -5.254   0.827 -32.987  1.00  0.00     0.030 A 
HETATM   36  C   UNL     1      -5.606  -0.242 -33.821  1.00  0.00     0.010 A 
HETATM   37  C   UNL     1      -4.923  -1.461 -33.749  1.00  0.00    -0.055 A 
HETATM   38  C   UNL     1      -3.880  -1.581 -32.823  1.00  0.00     0.010 A 
HETATM   39  C   UNL     1      -3.530  -0.507 -31.997  1.00  0.00     0.030 A 
BRANCH  37  40
HETATM   40  C   UNL     1      -5.288  -2.634 -34.642  1.00  0.00     0.010 C 
HETATM   41  C   UNL     1      -6.790  -2.923 -34.589  1.00  0.00     0.015 C 
HETATM   42  C   UNL     1      -4.480  -3.887 -34.298  1.00  0.00     0.015 C 
ENDBRANCH  37  40
ENDBRANCH  32  34
ENDBRANCH   1  32
TORSDOF 9
ENDMDL
MODEL 8
REMARK VINA RESULT:      -8.3      2.420      6.271
REMARK  9 active torsions:
REMARK  status: ('A' for Active; 'I' for Inactive)
REMARK    1  A    between atoms: C_2  and  C_3 
REMARK    2  A    between atoms: C_6  and  N_7 
REMARK    3  A    between atoms: N_7  and  C_8 
REMARK    4  A    between atoms: C_12  and  C_13 
REMARK       I    between atoms: C_13  and  N_14 
REMARK    5  A    between atoms: N_14  and  C_15 
REMARK    6  A    between atoms: C_15  and  C_16 
REMARK    7  A    between atoms: C_16  and  C_17 
REMARK    8  A    between atoms: C_17  and  N_18 
REMARK    9  A    between atoms: N_22  and  C_23 
ROOT
HETATM    1  C   UNL     1      -2.824   4.280 -31.654  1.00  0.00     0.129 A 
HETATM    2  N   UNL     1      -2.635   2.957 -31.774  1.00  0.00    -0.231 NA
HETATM    3  C   UNL     1      -3.653   2.101 -31.606  1.00  0.00     0.070 A 
HETATM    4  C   UNL     1      -4.961   2.511 -31.284  1.00  0.00     0.009 A 
HETATM    5  C   UNL     1      -5.162   3.914 -31.225  1.00  0.00     0.048 A 
HETATM    6  C   UNL     1      -4.085   4.791 -31.411  1.00  0.00     0.068 A 
HETATM    7  C   UNL     1      -3.370   0.748 -31.731  1.00  0.00     0.032 A 
HETATM    8  C   UNL     1      -4.336  -0.233 -31.517  1.00  0.00     0.002 A 
HETATM    9  C   UNL     1      -5.616   0.143 -31.146  1.00  0.00     0.001 A 
HETATM   10  C   UNL     1      -5.926   1.497 -31.018  1.00  0.00     0.015 A 
ENDROOT
BRANCH   5  11
HETATM   11  C   UNL     1      -6.450   4.580 -30.899  1.00  0.00     0.252 C 
HETATM   12  N   UNL     1      -7.211   5.091 -31.926  1.00  0.00    -0.357 N 
HETATM   13  H   UNL     1      -6.759   5.218 -32.829  1.00  0.00     0.162 HD
HETATM   14  O   UNL     1      -6.813   4.682 -29.727  1.00  0.00    -0.268 OA
BRANCH  12  15
HETATM   15  C   UNL     1      -8.437   5.828 -31.684  1.00  0.00     0.124 C 
BRANCH  15  16
HETATM   16  C   UNL     1      -9.668   5.254 -32.395  1.00  0.00     0.047 C 
BRANCH  16  17
HETATM   17  C   UNL     1     -10.658   4.428 -31.566  1.00  0.00     0.236 C 
BRANCH  17  18
HETATM   18  N   UNL     1     -10.606   2.956 -31.842  1.00  0.00    -0.068 N 
HETATM   19  H   UNL     1     -11.373   2.528 -31.281  1.00  0.00     0.280 HD
HETATM   20  C   UNL     1     -10.772   2.554 -33.301  1.00  0.00     0.254 C 
HETATM   21  C   UNL     1     -10.807   1.016 -33.443  1.00  0.00     0.150 C 
HETATM   22  N   UNL     1      -9.667   0.359 -32.776  1.00  0.00    -0.375 N 
HETATM   23  C   UNL     1      -9.458   0.762 -31.369  1.00  0.00     0.150 C 
HETATM   24  C   UNL     1      -9.353   2.299 -31.250  1.00  0.00     0.254 C 
BRANCH  22  25
HETATM   25  C   UNL     1      -8.523   0.012 -33.503  1.00  0.00     0.069 A 
HETATM   26  C   UNL     1      -7.759   0.907 -34.278  1.00  0.00     0.142 A 
HETATM   27  F   UNL     1      -8.080   2.210 -34.323  1.00  0.00    -0.204 F 
HETATM   28  C   UNL     1      -6.628   0.504 -34.988  1.00  0.00     0.044 A 
HETATM   29  C   UNL     1      -6.229  -0.828 -34.958  1.00  0.00     0.003 A 
HETATM   30  C   UNL     1      -6.968  -1.746 -34.222  1.00  0.00     0.002 A 
HETATM   31  C   UNL     1      -8.098  -1.330 -33.509  1.00  0.00     0.032 A 
ENDBRANCH  22  25
ENDBRANCH  17  18
ENDBRANCH  16  17
ENDBRANCH  15  16
ENDBRANCH  12  15
ENDBRANCH   5  11
BRANCH   1  32
HETATM   32  N   UNL     1      -1.747   5.187 -31.711  1.00  0.00    -0.341 N 
HETATM   33  H   UNL     1      -1.171   5.023 -32.528  1.00  0.00     0.167 HD
BRANCH  32  34
HETATM   34  C   UNL     1      -1.019   5.775 -30.654  1.00  0.00     0.033 A 
HETATM   35  C   UNL     1       0.057   5.143 -30.024  1.00  0.00     0.030 A 
HETATM   36  C   UNL     1       0.695   5.720 -28.918  1.00  0.00     0.010 A 
HETATM   37  C   UNL     1       0.250   6.936 -28.389  1.00  0.00    -0.055 A 
HETATM   38  C   UNL     1      -0.848   7.559 -28.994  1.00  0.00     0.010 A 
HETATM   39  C   UNL     1      -1.478   6.980 -30.102  1.00  0.00     0.030 A 
BRANCH  37  40
HETATM   40  C   UNL     1       0.925   7.579 -27.190  1.00  0.00     0.010 C 
HETATM   41  C   UNL     1      -0.097   7.950 -26.113  1.00  0.00     0.015 C 
HETATM   42  C   UNL     1       1.760   8.798 -27.591  1.00  0.00     0.015 C 
ENDBRANCH  37  40
ENDBRANCH  32  34
ENDBRANCH   1  32
TORSDOF 9
ENDMDL
MODEL 9
REMARK VINA RESULT:      -8.2      1.904      2.500
REMARK  9 active torsions:
REMARK  status: ('A' for Active; 'I' for Inactive)
REMARK    1  A    between atoms: C_2  and  C_3 
REMARK    2  A    between atoms: C_6  and  N_7 
REMARK    3  A    between atoms: N_7  and  C_8 
REMARK    4  A    between atoms: C_12  and  C_13 
REMARK       I    between atoms: C_13  and  N_14 
REMARK    5  A    between atoms: N_14  and  C_15 
REMARK    6  A    between atoms: C_15  and  C_16 
REMARK    7  A    between atoms: C_16  and  C_17 
REMARK    8  A    between atoms: C_17  and  N_18 
REMARK    9  A    between atoms: N_22  and  C_23 
ROOT
HETATM    1  C   UNL     1      -5.173   2.851 -32.116  1.00  0.00     0.129 A 
HETATM    2  N   UNL     1      -3.957   2.986 -32.669  1.00  0.00    -0.231 NA
HETATM    3  C   UNL     1      -3.438   4.201 -32.895  1.00  0.00     0.070 A 
HETATM    4  C   UNL     1      -4.116   5.399 -32.593  1.00  0.00     0.009 A 
HETATM    5  C   UNL     1      -5.371   5.242 -31.950  1.00  0.00     0.048 A 
HETATM    6  C   UNL     1      -5.891   3.962 -31.718  1.00  0.00     0.068 A 
HETATM    7  C   UNL     1      -2.183   4.254 -33.485  1.00  0.00     0.032 A 
HETATM    8  C   UNL     1      -1.574   5.462 -33.821  1.00  0.00     0.002 A 
HETATM    9  C   UNL     1      -2.243   6.650 -33.584  1.00  0.00     0.001 A 
HETATM   10  C   UNL     1      -3.504   6.623 -32.989  1.00  0.00     0.015 A 
ENDROOT
BRANCH   5  11
HETATM   11  C   UNL     1      -6.267   6.356 -31.542  1.00  0.00     0.252 C 
HETATM   12  N   UNL     1      -7.085   6.929 -32.489  1.00  0.00    -0.357 N 
HETATM   13  H   UNL     1      -6.874   6.746 -33.467  1.00  0.00     0.162 HD
HETATM   14  O   UNL     1      -6.255   6.763 -30.381  1.00  0.00    -0.268 OA
BRANCH  12  15
HETATM   15  C   UNL     1      -7.924   8.074 -32.191  1.00  0.00     0.124 C 
BRANCH  15  16
HETATM   16  C   UNL     1      -9.429   7.794 -32.284  1.00  0.00     0.047 C 
BRANCH  16  17
HETATM   17  C   UNL     1     -10.074   7.786 -33.674  1.00  0.00     0.236 C 
BRANCH  17  18
HETATM   18  N   UNL     1     -10.733   6.488 -34.033  1.00  0.00    -0.068 N 
HETATM   19  H   UNL     1     -11.594   6.737 -34.566  1.00  0.00     0.280 HD
HETATM   20  C   UNL     1      -9.892   5.531 -34.864  1.00  0.00     0.254 C 
HETATM   21  C   UNL     1     -10.713   4.283 -35.257  1.00  0.00     0.150 C 
HETATM   22  N   UNL     1     -11.362   3.643 -34.097  1.00  0.00    -0.375 N 
HETATM   23  C   UNL     1     -12.154   4.559 -33.249  1.00  0.00     0.150 C 
HETATM   24  C   UNL     1     -11.300   5.767 -32.804  1.00  0.00     0.254 C 
BRANCH  22  25
HETATM   25  C   UNL     1     -10.754   2.561 -33.451  1.00  0.00     0.069 A 
HETATM   26  C   UNL     1     -11.060   1.207 -33.688  1.00  0.00     0.142 A 
HETATM   27  F   UNL     1     -11.962   0.868 -34.623  1.00  0.00    -0.204 F 
HETATM   28  C   UNL     1     -10.424   0.166 -33.009  1.00  0.00     0.044 A 
HETATM   29  C   UNL     1      -9.461   0.453 -32.048  1.00  0.00     0.003 A 
HETATM   30  C   UNL     1      -9.145   1.778 -31.771  1.00  0.00     0.002 A 
HETATM   31  C   UNL     1      -9.786   2.813 -32.461  1.00  0.00     0.032 A 
ENDBRANCH  22  25
ENDBRANCH  17  18
ENDBRANCH  16  17
ENDBRANCH  15  16
ENDBRANCH  12  15
ENDBRANCH   5  11
BRANCH   1  32
HETATM   32  N   UNL     1      -5.784   1.589 -31.979  1.00  0.00    -0.341 N 
HETATM   33  H   UNL     1      -5.971   1.375 -31.006  1.00  0.00     0.167 HD
BRANCH  32  34
HETATM   34  C   UNL     1      -5.611   0.423 -32.757  1.00  0.00     0.033 A 
HETATM   35  C   UNL     1      -6.403   0.124 -33.869  1.00  0.00     0.030 A 
HETATM   36  C   UNL     1      -6.262  -1.087 -34.559  1.00  0.00     0.010 A 
HETATM   37  C   UNL     1      -5.341  -2.051 -34.134  1.00  0.00    -0.055 A 
HETATM   38  C   UNL     1      -4.567  -1.771 -33.001  1.00  0.00     0.010 A 
HETATM   39  C   UNL     1      -4.709  -0.557 -32.319  1.00  0.00     0.030 A 
BRANCH  37  40
HETATM   40  C   UNL     1      -5.171  -3.371 -34.866  1.00  0.00     0.010 C 
HETATM   41  C   UNL     1      -6.520  -4.061 -35.080  1.00  0.00     0.015 C 
HETATM   42  C   UNL     1      -4.191  -4.301 -34.147  1.00  0.00     0.015 C 
ENDBRANCH  37  40
ENDBRANCH  32  34
ENDBRANCH   1  32
TORSDOF 9
ENDMDL
MODEL 10
REMARK VINA RESULT:      -8.1      3.071      7.210
REMARK  9 active torsions:
REMARK  status: ('A' for Active; 'I' for Inactive)
REMARK    1  A    between atoms: C_2  and  C_3 
REMARK    2  A    between atoms: C_6  and  N_7 
REMARK    3  A    between atoms: N_7  and  C_8 
REMARK    4  A    between atoms: C_12  and  C_13 
REMARK       I    between atoms: C_13  and  N_14 
REMARK    5  A    between atoms: N_14  and  C_15 
REMARK    6  A    between atoms: C_15  and  C_16 
REMARK    7  A    between atoms: C_16  and  C_17 
REMARK    8  A    between atoms: C_17  and  N_18 
REMARK    9  A    between atoms: N_22  and  C_23 
ROOT
HETATM    1  C   UNL     1     -10.781   1.904 -34.253  1.00  0.00     0.129 A 
HETATM    2  N   UNL     1     -11.980   1.343 -34.469  1.00  0.00    -0.231 NA
HETATM    3  C   UNL     1     -13.055   1.732 -33.769  1.00  0.00     0.070 A 
HETATM    4  C   UNL     1     -13.008   2.723 -32.769  1.00  0.00     0.009 A 
HETATM    5  C   UNL     1     -11.749   3.354 -32.597  1.00  0.00     0.048 A 
HETATM    6  C   UNL     1     -10.640   2.935 -33.344  1.00  0.00     0.068 A 
HETATM    7  C   UNL     1     -14.254   1.089 -34.041  1.00  0.00     0.032 A 
HETATM    8  C   UNL     1     -15.421   1.370 -33.333  1.00  0.00     0.002 A 
HETATM    9  C   UNL     1     -15.388   2.301 -32.309  1.00  0.00     0.001 A 
HETATM   10  C   UNL     1     -14.195   2.962 -32.019  1.00  0.00     0.015 A 
ENDROOT
BRANCH   5  11
HETATM   11  C   UNL     1     -11.457   4.419 -31.603  1.00  0.00     0.252 C 
HETATM   12  N   UNL     1     -10.615   5.448 -31.961  1.00  0.00    -0.357 N 
HETATM   13  H   UNL     1     -10.036   5.317 -32.787  1.00  0.00     0.162 HD
HETATM   14  O   UNL     1     -11.949   4.363 -30.476  1.00  0.00    -0.268 OA
BRANCH  12  15
HETATM   15  C   UNL     1     -10.215   6.478 -31.022  1.00  0.00     0.124 C 
BRANCH  15  16
HETATM   16  C   UNL     1      -8.800   6.301 -30.457  1.00  0.00     0.047 C 
BRANCH  16  17
HETATM   17  C   UNL     1      -8.434   4.945 -29.845  1.00  0.00     0.236 C 
BRANCH  17  18
HETATM   18  N   UNL     1      -6.986   4.583 -29.985  1.00  0.00    -0.068 N 
HETATM   19  H   UNL     1      -6.654   4.341 -29.027  1.00  0.00     0.280 HD
HETATM   20  C   UNL     1      -6.686   3.424 -30.924  1.00  0.00     0.254 C 
HETATM   21  C   UNL     1      -5.179   3.080 -30.902  1.00  0.00     0.150 C 
HETATM   22  N   UNL     1      -4.325   4.260 -31.129  1.00  0.00    -0.375 N 
HETATM   23  C   UNL     1      -4.623   5.416 -30.256  1.00  0.00     0.150 C 
HETATM   24  C   UNL     1      -6.118   5.795 -30.342  1.00  0.00     0.254 C 
BRANCH  22  25
HETATM   25  C   UNL     1      -3.843   4.552 -32.409  1.00  0.00     0.069 A 
HETATM   26  C   UNL     1      -2.482   4.683 -32.747  1.00  0.00     0.142 A 
HETATM   27  F   UNL     1      -1.530   4.480 -31.821  1.00  0.00    -0.204 F 
HETATM   28  C   UNL     1      -2.057   4.981 -34.042  1.00  0.00     0.044 A 
HETATM   29  C   UNL     1      -2.995   5.174 -35.051  1.00  0.00     0.003 A 
HETATM   30  C   UNL     1      -4.349   5.074 -34.754  1.00  0.00     0.002 A 
HETATM   31  C   UNL     1      -4.763   4.771 -33.452  1.00  0.00     0.032 A 
ENDBRANCH  22  25
ENDBRANCH  17  18
ENDBRANCH  16  17
ENDBRANCH  15  16
ENDBRANCH  12  15
ENDBRANCH   5  11
BRANCH   1  32
HETATM   32  N   UNL     1      -9.618   1.430 -34.894  1.00  0.00    -0.341 N 
HETATM   33  H   UNL     1      -9.792   1.231 -35.872  1.00  0.00     0.167 HD
BRANCH  32  34
HETATM   34  C   UNL     1      -8.567   0.647 -34.370  1.00  0.00     0.033 A 
HETATM   35  C   UNL     1      -8.253   0.602 -33.008  1.00  0.00     0.030 A 
HETATM   36  C   UNL     1      -7.145  -0.113 -32.539  1.00  0.00     0.010 A 
HETATM   37  C   UNL     1      -6.294  -0.781 -33.427  1.00  0.00    -0.055 A 
HETATM   38  C   UNL     1      -6.583  -0.714 -34.795  1.00  0.00     0.010 A 
HETATM   39  C   UNL     1      -7.696  -0.001 -35.258  1.00  0.00     0.030 A 
BRANCH  37  40
HETATM   40  C   UNL     1      -5.086  -1.562 -32.941  1.00  0.00     0.010 C 
HETATM   41  C   UNL     1      -4.048  -0.635 -32.304  1.00  0.00     0.015 C 
HETATM   42  C   UNL     1      -4.457  -2.396 -34.060  1.00  0.00     0.015 C 
ENDBRANCH  37  40
ENDBRANCH  32  34
ENDBRANCH   1  32
TORSDOF 9
ENDMDL
