MODEL 1
REMARK VINA RESULT:      -9.1      0.000      0.000
REMARK  7 active torsions:
REMARK  status: ('A' for Active; 'I' for Inactive)
REMARK    1  A    between atoms: C_2  and  O_3 
REMARK    2  A    between atoms: O_3  and  C_4 
REMARK    3  A    between atoms: C_5  and  C_6 
REMARK       I    between atoms: C_6  and  N_7 
REMARK    4  A    between atoms: N_7  and  C_8 
REMARK    5  A    between atoms: C_8  and  C_9 
REMARK    6  A    between atoms: C_9  and  N_10 
REMARK    7  A    between atoms: N_14  and  C_15 
ROOT
HETATM    1  C   UNL     1      -4.453   0.051 -32.520  1.00  0.00     0.255 C 
HETATM    2  N   UNL     1      -5.119   0.469 -31.387  1.00  0.00    -0.355 N 
HETATM    3  O   UNL     1      -3.301   0.392 -32.766  1.00  0.00    -0.268 OA
HETATM    4  H   UNL     1      -6.090   0.174 -31.288  1.00  0.00     0.162 HD
ENDROOT
BRANCH   2   5
HETATM    5  C   UNL     1      -4.652   1.563 -30.546  1.00  0.00     0.150 C 
BRANCH   5   6
HETATM    6  C   UNL     1      -5.393   2.905 -30.730  1.00  0.00     0.254 C 
BRANCH   6   7
HETATM    7  N   UNL     1      -4.589   3.934 -31.481  1.00  0.00    -0.067 N 
HETATM    8  H   UNL     1      -4.968   3.955 -32.451  1.00  0.00     0.280 HD
HETATM    9  C   UNL     1      -4.769   5.370 -30.991  1.00  0.00     0.254 C 
HETATM   10  C   UNL     1      -3.983   6.342 -31.899  1.00  0.00     0.150 C 
HETATM   11  N   UNL     1      -2.556   5.966 -31.951  1.00  0.00    -0.378 N 
HETATM   12  C   UNL     1      -2.346   4.589 -32.453  1.00  0.00     0.150 C 
HETATM   13  C   UNL     1      -3.114   3.566 -31.585  1.00  0.00     0.254 C 
BRANCH  11  14
HETATM   14  C   UNL     1      -1.631   6.520 -31.069  1.00  0.00     0.030 A 
HETATM   15  C   UNL     1      -0.242   6.474 -31.288  1.00  0.00     0.031 A 
HETATM   16  C   UNL     1       0.675   7.009 -30.370  1.00  0.00     0.026 A 
HETATM   17  C   UNL     1       0.221   7.599 -29.200  1.00  0.00     0.034 A 
HETATM   18 CL   UNL     1       1.342   8.249 -28.073  1.00  0.00    -0.084 Cl
HETATM   19  C   UNL     1      -1.140   7.648 -28.938  1.00  0.00     0.026 A 
HETATM   20  C   UNL     1      -2.047   7.107 -29.860  1.00  0.00     0.031 A 
ENDBRANCH  11  14
ENDBRANCH   6   7
ENDBRANCH   5   6
ENDBRANCH   2   5
BRANCH   1  21
HETATM   21  C   UNL     1      -5.204  -0.860 -33.410  1.00  0.00     0.076 A 
HETATM   22  C   UNL     1      -6.320  -0.340 -34.091  1.00  0.00     0.085 A 
HETATM   23  C   UNL     1      -7.018  -1.171 -34.965  1.00  0.00     0.039 A 
HETATM   24  C   UNL     1      -6.626  -2.502 -35.136  1.00  0.00     0.015 A 
HETATM   25  C   UNL     1      -5.535  -3.036 -34.436  1.00  0.00    -0.025 A 
HETATM   26  C   UNL     1      -4.803  -2.218 -33.544  1.00  0.00    -0.007 A 
HETATM   27  C   UNL     1      -5.174  -4.382 -34.613  1.00  0.00     0.012 A 
HETATM   28  C   UNL     1      -3.731  -2.817 -32.833  1.00  0.00     0.013 A 
HETATM   29  C   UNL     1      -3.385  -4.157 -33.019  1.00  0.00     0.001 A 
HETATM   30  C   UNL     1      -4.105  -4.938 -33.914  1.00  0.00     0.001 A 
BRANCH  22  31
HETATM   31  O   UNL     1      -6.624   0.983 -33.893  1.00  0.00    -0.350 OA
BRANCH  31  32
HETATM   32  C   UNL     1      -8.017   1.311 -33.885  1.00  0.00     0.171 C 
HETATM   33  C   UNL     1      -8.528   1.135 -32.466  1.00  0.00     0.034 C 
ENDBRANCH  31  32
ENDBRANCH  22  31
ENDBRANCH   1  21
TORSDOF 7
ENDMDL
MODEL 2
REMARK VINA RESULT:      -9.0      2.799      4.388
REMARK  7 active torsions:
REMARK  status: ('A' for Active; 'I' for Inactive)
REMARK    1  A    between atoms: C_2  and  O_3 
REMARK    2  A    between atoms: O_3  and  C_4 
REMARK    3  A    between atoms: C_5  and  C_6 
REMARK       I    between atoms: C_6  and  N_7 
REMARK    4  A    between atoms: N_7  and  C_8 
REMARK    5  A    between atoms: C_8  and  C_9 
REMARK    6  A    between atoms: C_9  and  N_10 
REMARK    7  A    between atoms: N_14  and  C_15 
ROOT
HETATM    1  C   UNL     1      -6.651   0.040 -34.207  1.00  0.00     0.255 C 
HETATM    2  N   UNL     1      -7.526   0.501 -33.246  1.00  0.00    -0.355 N 
HETATM    3  O   UNL     1      -6.798   0.288 -35.400  1.00  0.00    -0.268 OA
HETATM    4  H   UNL     1      -7.352   0.207 -32.286  1.00  0.00     0.162 HD
ENDROOT
BRANCH   2   5
HETATM    5  C   UNL     1      -8.837   1.054 -33.560  1.00  0.00     0.150 C 
BRANCH   5   6
HETATM    6  C   UNL     1      -9.497   1.879 -32.434  1.00  0.00     0.254 C 
BRANCH   6   7
HETATM    7  N   UNL     1      -8.997   3.299 -32.362  1.00  0.00    -0.067 N 
HETATM    8  H   UNL     1      -9.768   3.863 -31.945  1.00  0.00     0.280 HD
HETATM    9  C   UNL     1      -7.828   3.519 -31.404  1.00  0.00     0.254 C 
HETATM   10  C   UNL     1      -7.475   5.022 -31.335  1.00  0.00     0.150 C 
HETATM   11  N   UNL     1      -7.174   5.548 -32.682  1.00  0.00    -0.378 N 
HETATM   12  C   UNL     1      -8.302   5.378 -33.627  1.00  0.00     0.150 C 
HETATM   13  C   UNL     1      -8.706   3.890 -33.736  1.00  0.00     0.254 C 
BRANCH  11  14
HETATM   14  C   UNL     1      -5.871   5.574 -33.173  1.00  0.00     0.030 A 
HETATM   15  C   UNL     1      -5.456   4.821 -34.287  1.00  0.00     0.031 A 
HETATM   16  C   UNL     1      -4.130   4.837 -34.745  1.00  0.00     0.026 A 
HETATM   17  C   UNL     1      -3.178   5.604 -34.089  1.00  0.00     0.034 A 
HETATM   18 CL   UNL     1      -1.553   5.619 -34.644  1.00  0.00    -0.084 Cl
HETATM   19  C   UNL     1      -3.543   6.346 -32.975  1.00  0.00     0.026 A 
HETATM   20  C   UNL     1      -4.869   6.320 -32.524  1.00  0.00     0.031 A 
ENDBRANCH  11  14
ENDBRANCH   6   7
ENDBRANCH   5   6
ENDBRANCH   2   5
BRANCH   1  21
HETATM   21  C   UNL     1      -5.505  -0.749 -33.711  1.00  0.00     0.076 A 
HETATM   22  C   UNL     1      -4.530  -0.082 -32.945  1.00  0.00     0.085 A 
HETATM   23  C   UNL     1      -3.462  -0.815 -32.433  1.00  0.00     0.039 A 
HETATM   24  C   UNL     1      -3.354  -2.183 -32.703  1.00  0.00     0.015 A 
HETATM   25  C   UNL     1      -4.303  -2.848 -33.493  1.00  0.00    -0.025 A 
HETATM   26  C   UNL     1      -5.402  -2.133 -34.023  1.00  0.00    -0.007 A 
HETATM   27  C   UNL     1      -4.160  -4.219 -33.762  1.00  0.00     0.012 A 
HETATM   28  C   UNL     1      -6.313  -2.845 -34.845  1.00  0.00     0.013 A 
HETATM   29  C   UNL     1      -6.156  -4.207 -35.105  1.00  0.00     0.001 A 
HETATM   30  C   UNL     1      -5.081  -4.895 -34.559  1.00  0.00     0.001 A 
BRANCH  22  31
HETATM   31  O   UNL     1      -4.722   1.255 -32.700  1.00  0.00    -0.350 OA
BRANCH  31  32
HETATM   32  C   UNL     1      -3.558   1.996 -32.326  1.00  0.00     0.171 C 
HETATM   33  C   UNL     1      -3.957   2.968 -31.230  1.00  0.00     0.034 C 
ENDBRANCH  31  32
ENDBRANCH  22  31
ENDBRANCH   1  21
TORSDOF 7
ENDMDL
MODEL 3
REMARK VINA RESULT:      -9.0      3.336      9.452
REMARK  7 active torsions:
REMARK  status: ('A' for Active; 'I' for Inactive)
REMARK    1  A    between atoms: C_2  and  O_3 
REMARK    2  A    between atoms: O_3  and  C_4 
REMARK    3  A    between atoms: C_5  and  C_6 
REMARK       I    between atoms: C_6  and  N_7 
REMARK    4  A    between atoms: N_7  and  C_8 
REMARK    5  A    between atoms: C_8  and  C_9 
REMARK    6  A    between atoms: C_9  and  N_10 
REMARK    7  A    between atoms: N_14  and  C_15 
ROOT
HETATM    1  C   UNL     1      -3.559   6.097 -30.927  1.00  0.00     0.255 C 
HETATM    2  N   UNL     1      -4.173   4.974 -30.412  1.00  0.00    -0.355 N 
HETATM    3  O   UNL     1      -4.197   7.041 -31.383  1.00  0.00    -0.268 OA
HETATM    4  H   UNL     1      -3.564   4.220 -30.098  1.00  0.00     0.162 HD
ENDROOT
BRANCH   2   5
HETATM    5  C   UNL     1      -5.582   4.667 -30.623  1.00  0.00     0.150 C 
BRANCH   5   6
HETATM    6  C   UNL     1      -5.999   3.215 -30.307  1.00  0.00     0.254 C 
BRANCH   6   7
HETATM    7  N   UNL     1      -6.558   2.480 -31.498  1.00  0.00    -0.067 N 
HETATM    8  H   UNL     1      -7.352   3.055 -31.853  1.00  0.00     0.280 HD
HETATM    9  C   UNL     1      -5.613   2.389 -32.695  1.00  0.00     0.254 C 
HETATM   10  C   UNL     1      -6.331   1.713 -33.885  1.00  0.00     0.150 C 
HETATM   11  N   UNL     1      -6.840   0.382 -33.497  1.00  0.00    -0.378 N 
HETATM   12  C   UNL     1      -7.784   0.441 -32.359  1.00  0.00     0.150 C 
HETATM   13  C   UNL     1      -7.124   1.114 -31.134  1.00  0.00     0.254 C 
BRANCH  11  14
HETATM   14  C   UNL     1      -6.079  -0.768 -33.693  1.00  0.00     0.030 A 
HETATM   15  C   UNL     1      -6.533  -1.870 -34.440  1.00  0.00     0.031 A 
HETATM   16  C   UNL     1      -5.763  -3.032 -34.599  1.00  0.00     0.026 A 
HETATM   17  C   UNL     1      -4.515  -3.124 -34.001  1.00  0.00     0.034 A 
HETATM   18 CL   UNL     1      -3.574  -4.548 -34.188  1.00  0.00    -0.084 Cl
HETATM   19  C   UNL     1      -4.038  -2.067 -33.241  1.00  0.00     0.026 A 
HETATM   20  C   UNL     1      -4.817  -0.912 -33.086  1.00  0.00     0.031 A 
ENDBRANCH  11  14
ENDBRANCH   6   7
ENDBRANCH   5   6
ENDBRANCH   2   5
BRANCH   1  21
HETATM   21  C   UNL     1      -2.082   6.108 -30.872  1.00  0.00     0.076 A 
HETATM   22  C   UNL     1      -1.385   5.286 -31.777  1.00  0.00     0.085 A 
HETATM   23  C   UNL     1       0.008   5.311 -31.768  1.00  0.00     0.039 A 
HETATM   24  C   UNL     1       0.692   6.120 -30.855  1.00  0.00     0.015 A 
HETATM   25  C   UNL     1       0.004   6.916 -29.928  1.00  0.00    -0.025 A 
HETATM   26  C   UNL     1      -1.410   6.917 -29.914  1.00  0.00    -0.007 A 
HETATM   27  C   UNL     1       0.717   7.705 -29.011  1.00  0.00     0.012 A 
HETATM   28  C   UNL     1      -2.057   7.712 -28.933  1.00  0.00     0.013 A 
HETATM   29  C   UNL     1      -1.334   8.489 -28.026  1.00  0.00     0.001 A 
HETATM   30  C   UNL     1       0.054   8.490 -28.070  1.00  0.00     0.001 A 
BRANCH  22  31
HETATM   31  O   UNL     1      -2.127   4.543 -32.660  1.00  0.00    -0.350 OA
BRANCH  31  32
HETATM   32  C   UNL     1      -1.896   4.806 -34.048  1.00  0.00     0.171 C 
HETATM   33  C   UNL     1      -3.143   5.464 -34.610  1.00  0.00     0.034 C 
ENDBRANCH  31  32
ENDBRANCH  22  31
ENDBRANCH   1  21
TORSDOF 7
ENDMDL
MODEL 4
REMARK VINA RESULT:      -8.5      5.054      7.933
REMARK  7 active torsions:
REMARK  status: ('A' for Active; 'I' for Inactive)
REMARK    1  A    between atoms: C_2  and  O_3 
REMARK    2  A    between atoms: O_3  and  C_4 
REMARK    3  A    between atoms: C_5  and  C_6 
REMARK       I    between atoms: C_6  and  N_7 
REMARK    4  A    between atoms: N_7  and  C_8 
REMARK    5  A    between atoms: C_8  and  C_9 
REMARK    6  A    between atoms: C_9  and  N_10 
REMARK    7  A    between atoms: N_14  and  C_15 
ROOT
HETATM    1  C   UNL     1      -7.562  -0.133 -33.910  1.00  0.00     0.255 C 
HETATM    2  N   UNL     1      -8.314  -0.032 -32.758  1.00  0.00    -0.355 N 
HETATM    3  O   UNL     1      -7.969   0.268 -34.996  1.00  0.00    -0.268 OA
HETATM    4  H   UNL     1      -7.915  -0.434 -31.912  1.00  0.00     0.162 HD
ENDROOT
BRANCH   2   5
HETATM    5  C   UNL     1      -9.739   0.273 -32.760  1.00  0.00     0.150 C 
BRANCH   5   6
HETATM    6  C   UNL     1     -10.110   1.711 -32.338  1.00  0.00     0.254 C 
BRANCH   6   7
HETATM    7  N   UNL     1     -11.302   2.262 -33.077  1.00  0.00    -0.067 N 
HETATM    8  H   UNL     1     -12.074   1.575 -32.947  1.00  0.00     0.280 HD
HETATM    9  C   UNL     1     -11.870   3.558 -32.500  1.00  0.00     0.254 C 
HETATM   10  C   UNL     1     -13.145   3.967 -33.271  1.00  0.00     0.150 C 
HETATM   11  N   UNL     1     -12.860   4.099 -34.714  1.00  0.00    -0.378 N 
HETATM   12  C   UNL     1     -12.338   2.849 -35.311  1.00  0.00     0.150 C 
HETATM   13  C   UNL     1     -11.059   2.384 -34.576  1.00  0.00     0.254 C 
BRANCH  11  14
HETATM   14  C   UNL     1     -12.496   5.324 -35.269  1.00  0.00     0.030 A 
HETATM   15  C   UNL     1     -11.194   5.848 -35.182  1.00  0.00     0.031 A 
HETATM   16  C   UNL     1     -10.857   7.099 -35.720  1.00  0.00     0.026 A 
HETATM   17  C   UNL     1     -11.824   7.865 -36.354  1.00  0.00     0.034 A 
HETATM   18 CL   UNL     1     -11.415   9.400 -37.007  1.00  0.00    -0.084 Cl
HETATM   19  C   UNL     1     -13.124   7.393 -36.444  1.00  0.00     0.026 A 
HETATM   20  C   UNL     1     -13.451   6.143 -35.900  1.00  0.00     0.031 A 
ENDBRANCH  11  14
ENDBRANCH   6   7
ENDBRANCH   5   6
ENDBRANCH   2   5
BRANCH   1  21
HETATM   21  C   UNL     1      -6.220  -0.731 -33.754  1.00  0.00     0.076 A 
HETATM   22  C   UNL     1      -5.187   0.093 -33.269  1.00  0.00     0.085 A 
HETATM   23  C   UNL     1      -3.923  -0.460 -33.076  1.00  0.00     0.039 A 
HETATM   24  C   UNL     1      -3.687  -1.803 -33.387  1.00  0.00     0.015 A 
HETATM   25  C   UNL     1      -4.703  -2.622 -33.901  1.00  0.00    -0.025 A 
HETATM   26  C   UNL     1      -5.998  -2.092 -34.104  1.00  0.00    -0.007 A 
HETATM   27  C   UNL     1      -4.434  -3.962 -34.221  1.00  0.00     0.012 A 
HETATM   28  C   UNL     1      -6.980  -2.951 -34.661  1.00  0.00     0.013 A 
HETATM   29  C   UNL     1      -6.696  -4.282 -34.976  1.00  0.00     0.001 A 
HETATM   30  C   UNL     1      -5.423  -4.788 -34.750  1.00  0.00     0.001 A 
BRANCH  22  31
HETATM   31  O   UNL     1      -5.504   1.392 -32.960  1.00  0.00    -0.350 OA
BRANCH  31  32
HETATM   32  C   UNL     1      -4.465   2.161 -32.348  1.00  0.00     0.171 C 
HETATM   33  C   UNL     1      -4.863   2.416 -30.906  1.00  0.00     0.034 C 
ENDBRANCH  31  32
ENDBRANCH  22  31
ENDBRANCH   1  21
TORSDOF 7
ENDMDL
MODEL 5
REMARK VINA RESULT:      -8.4      1.555      2.382
REMARK  7 active torsions:
REMARK  status: ('A' for Active; 'I' for Inactive)
REMARK    1  A    between atoms: C_2  and  O_3 
REMARK    2  A    between atoms: O_3  and  C_4 
REMARK    3  A    between atoms: C_5  and  C_6 
REMARK       I    between atoms: C_6  and  N_7 
REMARK    4  A    between atoms: N_7  and  C_8 
REMARK    5  A    between atoms: C_8  and  C_9 
REMARK    6  A    between atoms: C_9  and  N_10 
REMARK    7  A    between atoms: N_14  and  C_15 
ROOT
HETATM    1  C   UNL     1      -5.056   1.080 -31.572  1.00  0.00     0.255 C 
HETATM    2  N   UNL     1      -4.566   2.238 -32.138  1.00  0.00    -0.355 N 
HETATM    3  O   UNL     1      -4.628   0.637 -30.510  1.00  0.00    -0.268 OA
HETATM    4  H   UNL     1      -4.949   2.504 -33.044  1.00  0.00     0.162 HD
ENDROOT
BRANCH   2   5
HETATM    5  C   UNL     1      -3.326   2.872 -31.711  1.00  0.00     0.150 C 
BRANCH   5   6
HETATM    6  C   UNL     1      -2.633   3.756 -32.770  1.00  0.00     0.254 C 
BRANCH   6   7
HETATM    7  N   UNL     1      -2.584   5.214 -32.393  1.00  0.00    -0.067 N 
HETATM    8  H   UNL     1      -3.152   5.722 -33.103  1.00  0.00     0.280 HD
HETATM    9  C   UNL     1      -3.267   5.557 -31.070  1.00  0.00     0.254 C 
HETATM   10  C   UNL     1      -3.246   7.085 -30.843  1.00  0.00     0.150 C 
HETATM   11  N   UNL     1      -1.861   7.597 -30.882  1.00  0.00    -0.378 N 
HETATM   12  C   UNL     1      -1.181   7.309 -32.165  1.00  0.00     0.150 C 
HETATM   13  C   UNL     1      -1.174   5.790 -32.452  1.00  0.00     0.254 C 
BRANCH  11  14
HETATM   14  C   UNL     1      -1.103   7.718 -29.720  1.00  0.00     0.030 A 
HETATM   15  C   UNL     1       0.268   7.407 -29.664  1.00  0.00     0.031 A 
HETATM   16  C   UNL     1       1.007   7.505 -28.474  1.00  0.00     0.026 A 
HETATM   17  C   UNL     1       0.383   7.910 -27.303  1.00  0.00     0.034 A 
HETATM   18 CL   UNL     1       1.284   8.024 -25.845  1.00  0.00    -0.084 Cl
HETATM   19  C   UNL     1      -0.971   8.208 -27.312  1.00  0.00     0.026 A 
HETATM   20  C   UNL     1      -1.699   8.103 -28.505  1.00  0.00     0.031 A 
ENDBRANCH  11  14
ENDBRANCH   6   7
ENDBRANCH   5   6
ENDBRANCH   2   5
BRANCH   1  21
HETATM   21  C   UNL     1      -6.153   0.416 -32.308  1.00  0.00     0.076 A 
HETATM   22  C   UNL     1      -7.454   0.927 -32.149  1.00  0.00     0.085 A 
HETATM   23  C   UNL     1      -8.497   0.342 -32.864  1.00  0.00     0.039 A 
HETATM   24  C   UNL     1      -8.249  -0.751 -33.701  1.00  0.00     0.015 A 
HETATM   25  C   UNL     1      -6.961  -1.287 -33.838  1.00  0.00    -0.025 A 
HETATM   26  C   UNL     1      -5.880  -0.713 -33.130  1.00  0.00    -0.007 A 
HETATM   27  C   UNL     1      -6.744  -2.396 -34.673  1.00  0.00     0.012 A 
HETATM   28  C   UNL     1      -4.604  -1.315 -33.276  1.00  0.00     0.013 A 
HETATM   29  C   UNL     1      -4.406  -2.419 -34.107  1.00  0.00     0.001 A 
HETATM   30  C   UNL     1      -5.476  -2.956 -34.810  1.00  0.00     0.001 A 
BRANCH  22  31
HETATM   31  O   UNL     1      -7.611   2.019 -31.333  1.00  0.00    -0.350 OA
BRANCH  31  32
HETATM   32  C   UNL     1      -8.961   2.396 -31.044  1.00  0.00     0.171 C 
HETATM   33  C   UNL     1      -9.073   3.899 -31.226  1.00  0.00     0.034 C 
ENDBRANCH  31  32
ENDBRANCH  22  31
ENDBRANCH   1  21
TORSDOF 7
ENDMDL
MODEL 6
REMARK VINA RESULT:      -8.2      5.166      9.062
REMARK  7 active torsions:
REMARK  status: ('A' for Active; 'I' for Inactive)
REMARK    1  A    between atoms: C_2  and  O_3 
REMARK    2  A    between atoms: O_3  and  C_4 
REMARK    3  A    between atoms: C_5  and  C_6 
REMARK       I    between atoms: C_6  and  N_7 
REMARK    4  A    between atoms: N_7  and  C_8 
REMARK    5  A    between atoms: C_8  and  C_9 
REMARK    6  A    between atoms: C_9  and  N_10 
REMARK    7  A    between atoms: N_14  and  C_15 
ROOT
HETATM    1  C   UNL     1      -6.112   3.838 -33.567  1.00  0.00     0.255 C 
HETATM    2  N   UNL     1      -7.031   4.338 -32.668  1.00  0.00    -0.355 N 
HETATM    3  O   UNL     1      -5.769   4.459 -34.568  1.00  0.00    -0.268 OA
HETATM    4  H   UNL     1      -7.291   3.732 -31.891  1.00  0.00     0.162 HD
ENDROOT
BRANCH   2   5
HETATM    5  C   UNL     1      -7.890   5.479 -32.957  1.00  0.00     0.150 C 
BRANCH   5   6
HETATM    6  C   UNL     1      -8.942   5.254 -34.065  1.00  0.00     0.254 C 
BRANCH   6   7
HETATM    7  N   UNL     1      -9.571   3.886 -34.023  1.00  0.00    -0.067 N 
HETATM    8  H   UNL     1      -8.830   3.211 -34.305  1.00  0.00     0.280 HD
HETATM    9  C   UNL     1      -9.981   3.412 -32.629  1.00  0.00     0.254 C 
HETATM   10  C   UNL     1     -10.513   1.963 -32.698  1.00  0.00     0.150 C 
HETATM   11  N   UNL     1     -11.636   1.866 -33.652  1.00  0.00    -0.378 N 
HETATM   12  C   UNL     1     -11.262   2.288 -35.021  1.00  0.00     0.150 C 
HETATM   13  C   UNL     1     -10.715   3.734 -35.018  1.00  0.00     0.254 C 
BRANCH  11  14
HETATM   14  C   UNL     1     -12.956   2.010 -33.231  1.00  0.00     0.030 A 
HETATM   15  C   UNL     1     -14.000   1.185 -33.687  1.00  0.00     0.031 A 
HETATM   16  C   UNL     1     -15.329   1.367 -33.275  1.00  0.00     0.026 A 
HETATM   17  C   UNL     1     -15.648   2.393 -32.397  1.00  0.00     0.034 A 
HETATM   18 CL   UNL     1     -17.275   2.622 -31.897  1.00  0.00    -0.084 Cl
HETATM   19  C   UNL     1     -14.650   3.240 -31.938  1.00  0.00     0.026 A 
HETATM   20  C   UNL     1     -13.327   3.051 -32.359  1.00  0.00     0.031 A 
ENDBRANCH  11  14
ENDBRANCH   6   7
ENDBRANCH   5   6
ENDBRANCH   2   5
BRANCH   1  21
HETATM   21  C   UNL     1      -5.540   2.516 -33.236  1.00  0.00     0.076 A 
HETATM   22  C   UNL     1      -4.431   2.478 -32.371  1.00  0.00     0.085 A 
HETATM   23  C   UNL     1      -3.901   1.240 -32.014  1.00  0.00     0.039 A 
HETATM   24  C   UNL     1      -4.450   0.063 -32.533  1.00  0.00     0.015 A 
HETATM   25  C   UNL     1      -5.535   0.094 -33.421  1.00  0.00    -0.025 A 
HETATM   26  C   UNL     1      -6.099   1.335 -33.799  1.00  0.00    -0.007 A 
HETATM   27  C   UNL     1      -6.056  -1.102 -33.940  1.00  0.00     0.012 A 
HETATM   28  C   UNL     1      -7.170   1.313 -34.729  1.00  0.00     0.013 A 
HETATM   29  C   UNL     1      -7.675   0.115 -35.238  1.00  0.00     0.001 A 
HETATM   30  C   UNL     1      -7.121  -1.093 -34.838  1.00  0.00     0.001 A 
BRANCH  22  31
HETATM   31  O   UNL     1      -3.967   3.673 -31.881  1.00  0.00    -0.350 OA
BRANCH  31  32
HETATM   32  C   UNL     1      -2.558   3.890 -31.992  1.00  0.00     0.171 C 
HETATM   33  C   UNL     1      -2.303   4.647 -33.282  1.00  0.00     0.034 C 
ENDBRANCH  31  32
ENDBRANCH  22  31
ENDBRANCH   1  21
TORSDOF 7
ENDMDL
MODEL 7
REMARK VINA RESULT:      -8.1      1.760      2.287
REMARK  7 active torsions:
REMARK  status: ('A' for Active; 'I' for Inactive)
REMARK    1  A    between atoms: C_2  and  O_3 
REMARK    2  A    between atoms: O_3  and  C_4 
REMARK    3  A    between atoms: C_5  and  C_6 
REMARK       I    between atoms: C_6  and  N_7 
REMARK    4  A    between atoms: N_7  and  C_8 
REMARK    5  A    between atoms: C_8  and  C_9 
REMARK    6  A    between atoms: C_9  and  N_10 
REMARK    7  A    between atoms: N_14  and  C_15 
ROOT
HETATM    1  C   UNL     1      -5.733   1.355 -32.176  1.00  0.00     0.255 C 
HETATM    2  N   UNL     1      -6.590   1.429 -31.097  1.00  0.00    -0.355 N 
HETATM    3  O   UNL     1      -4.824   2.162 -32.348  1.00  0.00    -0.268 OA
HETATM    4  H   UNL     1      -7.343   0.745 -31.061  1.00  0.00     0.162 HD
ENDROOT
BRANCH   2   5
HETATM    5  C   UNL     1      -6.697   2.605 -30.243  1.00  0.00     0.150 C 
BRANCH   5   6
HETATM    6  C   UNL     1      -7.783   3.624 -30.650  1.00  0.00     0.254 C 
BRANCH   6   7
HETATM    7  N   UNL     1      -7.256   5.027 -30.813  1.00  0.00    -0.067 N 
HETATM    8  H   UNL     1      -8.087   5.654 -30.832  1.00  0.00     0.280 HD
HETATM    9  C   UNL     1      -6.438   5.545 -29.631  1.00  0.00     0.254 C 
HETATM   10  C   UNL     1      -6.044   7.021 -29.866  1.00  0.00     0.150 C 
HETATM   11  N   UNL     1      -5.307   7.166 -31.138  1.00  0.00    -0.378 N 
HETATM   12  C   UNL     1      -6.086   6.701 -32.308  1.00  0.00     0.150 C 
HETATM   13  C   UNL     1      -6.515   5.227 -32.129  1.00  0.00     0.254 C 
BRANCH  11  14
HETATM   14  C   UNL     1      -3.915   7.104 -31.176  1.00  0.00     0.030 A 
HETATM   15  C   UNL     1      -3.191   6.888 -32.362  1.00  0.00     0.031 A 
HETATM   16  C   UNL     1      -1.790   6.796 -32.374  1.00  0.00     0.026 A 
HETATM   17  C   UNL     1      -1.078   6.910 -31.189  1.00  0.00     0.034 A 
HETATM   18 CL   UNL     1       0.635   6.792 -31.201  1.00  0.00    -0.084 Cl
HETATM   19  C   UNL     1      -1.756   7.106 -29.996  1.00  0.00     0.026 A 
HETATM   20  C   UNL     1      -3.155   7.192 -29.995  1.00  0.00     0.031 A 
ENDBRANCH  11  14
ENDBRANCH   6   7
ENDBRANCH   5   6
ENDBRANCH   2   5
BRANCH   1  21
HETATM   21  C   UNL     1      -5.957   0.224 -33.100  1.00  0.00     0.076 A 
HETATM   22  C   UNL     1      -7.012   0.331 -34.025  1.00  0.00     0.085 A 
HETATM   23  C   UNL     1      -7.216  -0.707 -34.932  1.00  0.00     0.039 A 
HETATM   24  C   UNL     1      -6.399  -1.841 -34.899  1.00  0.00     0.015 A 
HETATM   25  C   UNL     1      -5.366  -1.969 -33.959  1.00  0.00    -0.025 A 
HETATM   26  C   UNL     1      -5.130  -0.932 -33.028  1.00  0.00    -0.007 A 
HETATM   27  C   UNL     1      -4.572  -3.127 -33.938  1.00  0.00     0.012 A 
HETATM   28  C   UNL     1      -4.098  -1.127 -32.075  1.00  0.00     0.013 A 
HETATM   29  C   UNL     1      -3.318  -2.285 -32.065  1.00  0.00     0.001 A 
HETATM   30  C   UNL     1      -3.553  -3.283 -33.001  1.00  0.00     0.001 A 
BRANCH  22  31
HETATM   31  O   UNL     1      -7.751   1.487 -34.014  1.00  0.00    -0.350 OA
BRANCH  31  32
HETATM   32  C   UNL     1      -9.161   1.331 -34.194  1.00  0.00     0.171 C 
HETATM   33  C   UNL     1      -9.795   1.212 -32.820  1.00  0.00     0.034 C 
ENDBRANCH  31  32
ENDBRANCH  22  31
ENDBRANCH   1  21
TORSDOF 7
ENDMDL
MODEL 8
REMARK VINA RESULT:      -8.1      3.600      5.128
REMARK  7 active torsions:
REMARK  status: ('A' for Active; 'I' for Inactive)
REMARK    1  A    between atoms: C_2  and  O_3 
REMARK    2  A    between atoms: O_3  and  C_4 
REMARK    3  A    between atoms: C_5  and  C_6 
REMARK       I    between atoms: C_6  and  N_7 
REMARK    4  A    between atoms: N_7  and  C_8 
REMARK    5  A    between atoms: C_8  and  C_9 
REMARK    6  A    between atoms: C_9  and  N_10 
REMARK    7  A    between atoms: N_14  and  C_15 
ROOT
HETATM    1  C   UNL     1      -7.170  -0.065 -34.267  1.00  0.00     0.255 C 
HETATM    2  N   UNL     1      -8.103   0.083 -33.263  1.00  0.00    -0.355 N 
HETATM    3  O   UNL     1      -7.328   0.414 -35.386  1.00  0.00    -0.268 OA
HETATM    4  H   UNL     1      -7.909  -0.388 -32.381  1.00  0.00     0.162 HD
ENDROOT
BRANCH   2   5
HETATM    5  C   UNL     1      -9.464   0.547 -33.501  1.00  0.00     0.150 C 
BRANCH   5   6
HETATM    6  C   UNL     1      -9.819   1.912 -32.873  1.00  0.00     0.254 C 
BRANCH   6   7
HETATM    7  N   UNL     1      -8.654   2.575 -32.184  1.00  0.00    -0.067 N 
HETATM    8  H   UNL     1      -7.829   1.956 -32.336  1.00  0.00     0.280 HD
HETATM    9  C   UNL     1      -8.223   3.908 -32.795  1.00  0.00     0.254 C 
HETATM   10  C   UNL     1      -6.961   4.436 -32.077  1.00  0.00     0.150 C 
HETATM   11  N   UNL     1      -7.203   4.562 -30.625  1.00  0.00    -0.378 N 
HETATM   12  C   UNL     1      -7.592   3.279 -29.997  1.00  0.00     0.150 C 
HETATM   13  C   UNL     1      -8.851   2.695 -30.679  1.00  0.00     0.254 C 
BRANCH  11  14
HETATM   14  C   UNL     1      -7.652   5.758 -30.069  1.00  0.00     0.030 A 
HETATM   15  C   UNL     1      -7.574   6.992 -30.739  1.00  0.00     0.031 A 
HETATM   16  C   UNL     1      -8.002   8.190 -30.148  1.00  0.00     0.026 A 
HETATM   17  C   UNL     1      -8.514   8.183 -28.859  1.00  0.00     0.034 A 
HETATM   18 CL   UNL     1      -9.032   9.649 -28.131  1.00  0.00    -0.084 Cl
HETATM   19  C   UNL     1      -8.591   6.990 -28.157  1.00  0.00     0.026 A 
HETATM   20  C   UNL     1      -8.157   5.799 -28.756  1.00  0.00     0.031 A 
ENDBRANCH  11  14
ENDBRANCH   6   7
ENDBRANCH   5   6
ENDBRANCH   2   5
BRANCH   1  21
HETATM   21  C   UNL     1      -5.948  -0.816 -33.907  1.00  0.00     0.076 A 
HETATM   22  C   UNL     1      -4.913  -0.114 -33.261  1.00  0.00     0.085 A 
HETATM   23  C   UNL     1      -3.770  -0.811 -32.876  1.00  0.00     0.039 A 
HETATM   24  C   UNL     1      -3.650  -2.176 -33.155  1.00  0.00     0.015 A 
HETATM   25  C   UNL     1      -4.663  -2.875 -33.828  1.00  0.00    -0.025 A 
HETATM   26  C   UNL     1      -5.839  -2.197 -34.227  1.00  0.00    -0.007 A 
HETATM   27  C   UNL     1      -4.509  -4.242 -34.110  1.00  0.00     0.012 A 
HETATM   28  C   UNL     1      -6.817  -2.941 -34.936  1.00  0.00     0.013 A 
HETATM   29  C   UNL     1      -6.647  -4.300 -35.211  1.00  0.00     0.001 A 
HETATM   30  C   UNL     1      -5.495  -4.951 -34.793  1.00  0.00     0.001 A 
BRANCH  22  31
HETATM   31  O   UNL     1      -5.118   1.217 -32.997  1.00  0.00    -0.350 OA
BRANCH  31  32
HETATM   32  C   UNL     1      -4.470   1.730 -31.830  1.00  0.00     0.171 C 
HETATM   33  C   UNL     1      -3.532   2.840 -32.269  1.00  0.00     0.034 C 
ENDBRANCH  31  32
ENDBRANCH  22  31
ENDBRANCH   1  21
TORSDOF 7
ENDMDL
MODEL 9
REMARK VINA RESULT:      -8.1      5.787      7.993
REMARK  7 active torsions:
REMARK  status: ('A' for Active; 'I' for Inactive)
REMARK    1  A    between atoms: C_2  and  O_3 
REMARK    2  A    between atoms: O_3  and  C_4 
REMARK    3  A    between atoms: C_5  and  C_6 
REMARK       I    between atoms: C_6  and  N_7 
REMARK    4  A    between atoms: N_7  and  C_8 
REMARK    5  A    between atoms: C_8  and  C_9 
REMARK    6  A    between atoms: C_9  and  N_10 
REMARK    7  A    between atoms: N_14  and  C_15 
ROOT
HETATM    1  C   UNL     1      -7.685   0.443 -33.264  1.00  0.00     0.255 C 
HETATM    2  N   UNL     1      -7.940   1.401 -34.223  1.00  0.00    -0.355 N 
HETATM    3  O   UNL     1      -8.544   0.063 -32.474  1.00  0.00    -0.268 OA
HETATM    4  H   UNL     1      -7.155   1.689 -34.806  1.00  0.00     0.162 HD
ENDROOT
BRANCH   2   5
HETATM    5  C   UNL     1      -9.122   2.254 -34.205  1.00  0.00     0.150 C 
BRANCH   5   6
HETATM    6  C   UNL     1      -8.863   3.739 -33.874  1.00  0.00     0.254 C 
BRANCH   6   7
HETATM    7  N   UNL     1     -10.094   4.601 -33.990  1.00  0.00    -0.067 N 
HETATM    8  H   UNL     1     -10.712   4.342 -33.193  1.00  0.00     0.280 HD
HETATM    9  C   UNL     1      -9.850   6.096 -33.789  1.00  0.00     0.254 C 
HETATM   10  C   UNL     1     -11.193   6.861 -33.824  1.00  0.00     0.150 C 
HETATM   11  N   UNL     1     -11.908   6.597 -35.089  1.00  0.00    -0.378 N 
HETATM   12  C   UNL     1     -12.188   5.158 -35.299  1.00  0.00     0.150 C 
HETATM   13  C   UNL     1     -10.879   4.336 -35.269  1.00  0.00     0.254 C 
BRANCH  11  14
HETATM   14  C   UNL     1     -11.751   7.429 -36.195  1.00  0.00     0.030 A 
HETATM   15  C   UNL     1     -10.509   7.965 -36.581  1.00  0.00     0.031 A 
HETATM   16  C   UNL     1     -10.378   8.828 -37.679  1.00  0.00     0.026 A 
HETATM   17  C   UNL     1     -11.497   9.186 -38.417  1.00  0.00     0.034 A 
HETATM   18 CL   UNL     1     -11.340  10.248 -39.757  1.00  0.00    -0.084 Cl
HETATM   19  C   UNL     1     -12.743   8.695 -38.058  1.00  0.00     0.026 A 
HETATM   20  C   UNL     1     -12.863   7.836 -36.957  1.00  0.00     0.031 A 
ENDBRANCH  11  14
ENDBRANCH   6   7
ENDBRANCH   5   6
ENDBRANCH   2   5
BRANCH   1  21
HETATM   21  C   UNL     1      -6.320  -0.122 -33.264  1.00  0.00     0.076 A 
HETATM   22  C   UNL     1      -5.279   0.674 -32.752  1.00  0.00     0.085 A 
HETATM   23  C   UNL     1      -3.991   0.146 -32.705  1.00  0.00     0.039 A 
HETATM   24  C   UNL     1      -3.741  -1.143 -33.187  1.00  0.00     0.015 A 
HETATM   25  C   UNL     1      -4.767  -1.930 -33.730  1.00  0.00    -0.025 A 
HETATM   26  C   UNL     1      -6.086  -1.425 -33.787  1.00  0.00    -0.007 A 
HETATM   27  C   UNL     1      -4.484  -3.215 -34.222  1.00  0.00     0.012 A 
HETATM   28  C   UNL     1      -7.080  -2.247 -34.378  1.00  0.00     0.013 A 
HETATM   29  C   UNL     1      -6.782  -3.521 -34.865  1.00  0.00     0.001 A 
HETATM   30  C   UNL     1      -5.484  -4.007 -34.782  1.00  0.00     0.001 A 
BRANCH  22  31
HETATM   31  O   UNL     1      -5.610   1.917 -32.272  1.00  0.00    -0.350 OA
BRANCH  31  32
HETATM   32  C   UNL     1      -5.368   2.134 -30.878  1.00  0.00     0.171 C 
HETATM   33  C   UNL     1      -6.698   2.456 -30.221  1.00  0.00     0.034 C 
ENDBRANCH  31  32
ENDBRANCH  22  31
ENDBRANCH   1  21
TORSDOF 7
ENDMDL
MODEL 10
REMARK VINA RESULT:      -8.0      3.824      9.145
REMARK  7 active torsions:
REMARK  status: ('A' for Active; 'I' for Inactive)
REMARK    1  A    between atoms: C_2  and  O_3 
REMARK    2  A    between atoms: O_3  and  C_4 
REMARK    3  A    between atoms: C_5  and  C_6 
REMARK       I    between atoms: C_6  and  N_7 
REMARK    4  A    between atoms: N_7  and  C_8 
REMARK    5  A    between atoms: C_8  and  C_9 
REMARK    6  A    between atoms: C_9  and  N_10 
REMARK    7  A    between atoms: N_14  and  C_15 
ROOT
HETATM    1  C   UNL     1      -5.565   6.346 -31.839  1.00  0.00     0.255 C 
HETATM    2  N   UNL     1      -5.758   5.616 -30.685  1.00  0.00    -0.355 N 
HETATM    3  O   UNL     1      -6.438   6.466 -32.692  1.00  0.00    -0.268 OA
HETATM    4  H   UNL     1      -4.962   5.532 -30.055  1.00  0.00     0.162 HD
ENDROOT
BRANCH   2   5
HETATM    5  C   UNL     1      -6.869   4.691 -30.502  1.00  0.00     0.150 C 
BRANCH   5   6
HETATM    6  C   UNL     1      -6.494   3.193 -30.511  1.00  0.00     0.254 C 
BRANCH   6   7
HETATM    7  N   UNL     1      -6.912   2.479 -31.771  1.00  0.00    -0.067 N 
HETATM    8  H   UNL     1      -7.653   3.065 -32.210  1.00  0.00     0.280 HD
HETATM    9  C   UNL     1      -5.831   2.394 -32.848  1.00  0.00     0.254 C 
HETATM   10  C   UNL     1      -6.406   1.740 -34.124  1.00  0.00     0.150 C 
HETATM   11  N   UNL     1      -6.967   0.408 -33.818  1.00  0.00    -0.378 N 
HETATM   12  C   UNL     1      -8.041   0.461 -32.799  1.00  0.00     0.150 C 
HETATM   13  C   UNL     1      -7.527   1.113 -31.495  1.00  0.00     0.254 C 
BRANCH  11  14
HETATM   14  C   UNL     1      -6.196  -0.745 -33.938  1.00  0.00     0.030 A 
HETATM   15  C   UNL     1      -6.599  -1.862 -34.692  1.00  0.00     0.031 A 
HETATM   16  C   UNL     1      -5.822  -3.027 -34.773  1.00  0.00     0.026 A 
HETATM   17  C   UNL     1      -4.618  -3.107 -34.088  1.00  0.00     0.034 A 
HETATM   18 CL   UNL     1      -3.668  -4.535 -34.181  1.00  0.00    -0.084 Cl
HETATM   19  C   UNL     1      -4.193  -2.034 -33.318  1.00  0.00     0.026 A 
HETATM   20  C   UNL     1      -4.979  -0.877 -33.242  1.00  0.00     0.031 A 
ENDBRANCH  11  14
ENDBRANCH   6   7
ENDBRANCH   5   6
ENDBRANCH   2   5
BRANCH   1  21
HETATM   21  C   UNL     1      -4.248   7.003 -31.973  1.00  0.00     0.076 A 
HETATM   22  C   UNL     1      -3.995   8.136 -31.178  1.00  0.00     0.085 A 
HETATM   23  C   UNL     1      -2.745   8.747 -31.260  1.00  0.00     0.039 A 
HETATM   24  C   UNL     1      -1.777   8.253 -32.140  1.00  0.00     0.015 A 
HETATM   25  C   UNL     1      -2.033   7.145 -32.959  1.00  0.00    -0.025 A 
HETATM   26  C   UNL     1      -3.290   6.499 -32.896  1.00  0.00    -0.007 A 
HETATM   27  C   UNL     1      -1.048   6.681 -33.845  1.00  0.00     0.012 A 
HETATM   28  C   UNL     1      -3.511   5.405 -33.772  1.00  0.00     0.013 A 
HETATM   29  C   UNL     1      -2.522   4.957 -34.650  1.00  0.00     0.001 A 
HETATM   30  C   UNL     1      -1.287   5.593 -34.682  1.00  0.00     0.001 A 
BRANCH  22  31
HETATM   31  O   UNL     1      -4.986   8.542 -30.320  1.00  0.00    -0.350 OA
BRANCH  31  32
HETATM   32  C   UNL     1      -5.142   9.956 -30.169  1.00  0.00     0.171 C 
HETATM   33  C   UNL     1      -5.047  10.279 -28.689  1.00  0.00     0.034 C 
ENDBRANCH  31  32
ENDBRANCH  22  31
ENDBRANCH   1  21
TORSDOF 7
ENDMDL
