MODEL 1
REMARK VINA RESULT:      -8.8      0.000      0.000
REMARK  4 active torsions:
REMARK  status: ('A' for Active; 'I' for Inactive)
REMARK    1  A    between atoms: C_3  and  O_4 
REMARK    2  A    between atoms: O_4  and  C_5 
REMARK    3  A    between atoms: C_11  and  C_12 
REMARK    4  A    between atoms: C_23  and  N_24 
ROOT
HETATM    1  C   UNL     1      -6.126   1.730 -31.104  1.00  0.00     0.244 A 
HETATM    2  N   UNL     1      -5.899   2.995 -31.762  1.00  0.00    -0.151 N 
HETATM    3  C   UNL     1      -6.921   3.895 -31.924  1.00  0.00     0.734 A 
HETATM    4  N   UNL     1      -6.471   4.967 -32.536  1.00  0.00    -0.060 NA
HETATM    5  C   UNL     1      -5.125   4.771 -32.722  1.00  0.00     0.103 A 
HETATM    6  C   UNL     1      -4.730   3.532 -32.229  1.00  0.00     0.083 A 
HETATM    7  C   UNL     1      -4.171   5.620 -33.301  1.00  0.00     0.034 A 
HETATM    8  C   UNL     1      -2.840   5.192 -33.360  1.00  0.00     0.002 A 
HETATM    9  C   UNL     1      -2.468   3.945 -32.855  1.00  0.00     0.002 A 
HETATM   10  C   UNL     1      -3.406   3.080 -32.278  1.00  0.00     0.033 A 
HETATM   11  N   UNL     1      -8.182   3.656 -31.497  1.00  0.00    -0.033 NA
HETATM   12  C   UNL     1      -8.428   2.569 -30.857  1.00  0.00     0.193 A 
HETATM   13  N   UNL     1      -7.479   1.582 -30.576  1.00  0.00    -0.339 N 
HETATM   14  H   UNL     1      -7.720   0.778 -30.018  1.00  0.00     0.164 HD
ENDROOT
BRANCH   1  15
HETATM   15  C   UNL     1      -5.895   0.536 -32.016  1.00  0.00    -0.014 A 
HETATM   16  C   UNL     1      -6.657   0.397 -33.189  1.00  0.00     0.020 A 
HETATM   17  C   UNL     1      -6.418  -0.646 -34.099  1.00  0.00    -0.027 A 
HETATM   18  C   UNL     1      -5.402  -1.569 -33.814  1.00  0.00     0.086 A 
HETATM   19  C   UNL     1      -7.229  -0.695 -35.365  1.00  0.00     0.051 C 
HETATM   20  C   UNL     1      -4.594  -1.431 -32.674  1.00  0.00    -0.027 A 
HETATM   21  C   UNL     1      -3.470  -2.390 -32.386  1.00  0.00     0.051 C 
HETATM   22  C   UNL     1      -4.860  -0.388 -31.777  1.00  0.00     0.020 A 
BRANCH  18  23
HETATM   23  O   UNL     1      -5.127  -2.567 -34.711  1.00  0.00    -0.289 OA
BRANCH  23  24
HETATM   24  C   UNL     1      -5.964  -3.695 -34.478  1.00  0.00     0.505 C 
HETATM   25  F   UNL     1      -6.597  -3.990 -35.640  1.00  0.00    -0.184 F 
HETATM   26  F   UNL     1      -5.155  -4.745 -34.192  1.00  0.00    -0.184 F 
ENDBRANCH  23  24
ENDBRANCH  18  23
ENDBRANCH   1  15
BRANCH  12  27
HETATM   27  N   UNL     1      -9.649   2.262 -30.377  1.00  0.00    -0.272 NA
HETATM   28  H   UNL     1     -10.374   2.785 -30.864  1.00  0.00     0.127 HD
HETATM   29  H   UNL     1      -9.883   1.279 -30.335  1.00  0.00     0.127 HD
ENDBRANCH  12  27
TORSDOF 4
ENDMDL
MODEL 2
REMARK VINA RESULT:      -8.6      1.593      2.387
REMARK  4 active torsions:
REMARK  status: ('A' for Active; 'I' for Inactive)
REMARK    1  A    between atoms: C_3  and  O_4 
REMARK    2  A    between atoms: O_4  and  C_5 
REMARK    3  A    between atoms: C_11  and  C_12 
REMARK    4  A    between atoms: C_23  and  N_24 
ROOT
HETATM    1  C   UNL     1      -6.873   0.809 -32.116  1.00  0.00     0.244 A 
HETATM    2  N   UNL     1      -6.731   2.066 -32.814  1.00  0.00    -0.151 N 
HETATM    3  C   UNL     1      -7.814   2.665 -33.407  1.00  0.00     0.734 A 
HETATM    4  N   UNL     1      -7.440   3.794 -33.966  1.00  0.00    -0.060 NA
HETATM    5  C   UNL     1      -6.106   3.945 -33.681  1.00  0.00     0.103 A 
HETATM    6  C   UNL     1      -5.631   2.868 -32.939  1.00  0.00     0.083 A 
HETATM    7  C   UNL     1      -5.234   4.989 -34.018  1.00  0.00     0.034 A 
HETATM    8  C   UNL     1      -3.904   4.919 -33.590  1.00  0.00     0.002 A 
HETATM    9  C   UNL     1      -3.451   3.828 -32.844  1.00  0.00     0.002 A 
HETATM   10  C   UNL     1      -4.304   2.773 -32.501  1.00  0.00     0.033 A 
HETATM   11  N   UNL     1      -9.052   2.123 -33.385  1.00  0.00    -0.033 NA
HETATM   12  C   UNL     1      -9.246   1.034 -32.733  1.00  0.00     0.193 A 
HETATM   13  N   UNL     1      -8.252   0.336 -32.040  1.00  0.00    -0.339 N 
HETATM   14  H   UNL     1      -8.478  -0.482 -31.497  1.00  0.00     0.164 HD
ENDROOT
BRANCH   1  15
HETATM   15  C   UNL     1      -6.073  -0.317 -32.751  1.00  0.00    -0.014 A 
HETATM   16  C   UNL     1      -4.882  -0.752 -32.146  1.00  0.00     0.020 A 
HETATM   17  C   UNL     1      -4.157  -1.843 -32.655  1.00  0.00    -0.027 A 
HETATM   18  C   UNL     1      -4.638  -2.497 -33.797  1.00  0.00     0.086 A 
HETATM   19  C   UNL     1      -2.925  -2.294 -31.918  1.00  0.00     0.051 C 
HETATM   20  C   UNL     1      -5.849  -2.114 -34.397  1.00  0.00    -0.027 A 
HETATM   21  C   UNL     1      -6.397  -2.842 -35.596  1.00  0.00     0.051 C 
HETATM   22  C   UNL     1      -6.547  -1.016 -33.876  1.00  0.00     0.020 A 
BRANCH  18  23
HETATM   23  O   UNL     1      -3.968  -3.588 -34.282  1.00  0.00    -0.289 OA
BRANCH  23  24
HETATM   24  C   UNL     1      -4.563  -4.793 -33.811  1.00  0.00     0.505 C 
HETATM   25  F   UNL     1      -4.833  -5.572 -34.886  1.00  0.00    -0.184 F 
HETATM   26  F   UNL     1      -3.626  -5.445 -33.077  1.00  0.00    -0.184 F 
ENDBRANCH  23  24
ENDBRANCH  18  23
ENDBRANCH   1  15
BRANCH  12  27
HETATM   27  N   UNL     1     -10.452   0.439 -32.639  1.00  0.00    -0.272 NA
HETATM   28  H   UNL     1     -10.688   0.246 -31.668  1.00  0.00     0.127 HD
HETATM   29  H   UNL     1     -11.220   0.899 -33.110  1.00  0.00     0.127 HD
ENDBRANCH  12  27
TORSDOF 4
ENDMDL
MODEL 3
REMARK VINA RESULT:      -8.2      4.301      6.449
REMARK  4 active torsions:
REMARK  status: ('A' for Active; 'I' for Inactive)
REMARK    1  A    between atoms: C_3  and  O_4 
REMARK    2  A    between atoms: O_4  and  C_5 
REMARK    3  A    between atoms: C_11  and  C_12 
REMARK    4  A    between atoms: C_23  and  N_24 
ROOT
HETATM    1  C   UNL     1      -7.836   0.373 -31.599  1.00  0.00     0.244 A 
HETATM    2  N   UNL     1      -6.628  -0.037 -32.277  1.00  0.00    -0.151 N 
HETATM    3  C   UNL     1      -5.425   0.556 -31.988  1.00  0.00     0.734 A 
HETATM    4  N   UNL     1      -4.479   0.011 -32.720  1.00  0.00    -0.060 NA
HETATM    5  C   UNL     1      -5.079  -0.982 -33.452  1.00  0.00     0.103 A 
HETATM    6  C   UNL     1      -6.443  -1.045 -33.183  1.00  0.00     0.083 A 
HETATM    7  C   UNL     1      -4.515  -1.882 -34.366  1.00  0.00     0.034 A 
HETATM    8  C   UNL     1      -5.345  -2.827 -34.980  1.00  0.00     0.002 A 
HETATM    9  C   UNL     1      -6.711  -2.871 -34.691  1.00  0.00     0.002 A 
HETATM   10  C   UNL     1      -7.295  -1.978 -33.785  1.00  0.00     0.033 A 
HETATM   11  N   UNL     1      -5.298   1.547 -31.077  1.00  0.00    -0.033 NA
HETATM   12  C   UNL     1      -6.330   1.914 -30.405  1.00  0.00     0.193 A 
HETATM   13  N   UNL     1      -7.609   1.370 -30.557  1.00  0.00    -0.339 N 
HETATM   14  H   UNL     1      -8.367   1.659 -29.959  1.00  0.00     0.164 HD
ENDROOT
BRANCH   1  15
HETATM   15  C   UNL     1      -8.871   0.971 -32.538  1.00  0.00    -0.014 A 
HETATM   16  C   UNL     1     -10.083   0.295 -32.760  1.00  0.00     0.020 A 
HETATM   17  C   UNL     1     -11.098   0.852 -33.555  1.00  0.00    -0.027 A 
HETATM   18  C   UNL     1     -10.882   2.107 -34.142  1.00  0.00     0.086 A 
HETATM   19  C   UNL     1     -12.394   0.101 -33.697  1.00  0.00     0.051 C 
HETATM   20  C   UNL     1      -9.701   2.827 -33.902  1.00  0.00    -0.027 A 
HETATM   21  C   UNL     1      -9.481   4.195 -34.489  1.00  0.00     0.051 C 
HETATM   22  C   UNL     1      -8.700   2.244 -33.114  1.00  0.00     0.020 A 
BRANCH  18  23
HETATM   23  O   UNL     1     -11.878   2.684 -34.884  1.00  0.00    -0.289 OA
BRANCH  23  24
HETATM   24  C   UNL     1     -12.649   3.574 -34.085  1.00  0.00     0.505 C 
HETATM   25  F   UNL     1     -12.935   4.666 -34.834  1.00  0.00    -0.184 F 
HETATM   26  F   UNL     1     -13.828   2.958 -33.820  1.00  0.00    -0.184 F 
ENDBRANCH  23  24
ENDBRANCH  18  23
ENDBRANCH   1  15
BRANCH  12  27
HETATM   27  N   UNL     1      -6.287   2.876 -29.463  1.00  0.00    -0.272 NA
HETATM   28  H   UNL     1      -7.196   3.325 -29.362  1.00  0.00     0.127 HD
HETATM   29  H   UNL     1      -5.918   2.608 -28.560  1.00  0.00     0.127 HD
ENDBRANCH  12  27
TORSDOF 4
ENDMDL
MODEL 4
REMARK VINA RESULT:      -7.9      2.055      3.128
REMARK  4 active torsions:
REMARK  status: ('A' for Active; 'I' for Inactive)
REMARK    1  A    between atoms: C_3  and  O_4 
REMARK    2  A    between atoms: O_4  and  C_5 
REMARK    3  A    between atoms: C_11  and  C_12 
REMARK    4  A    between atoms: C_23  and  N_24 
ROOT
HETATM    1  C   UNL     1      -4.670   3.318 -30.498  1.00  0.00     0.244 A 
HETATM    2  N   UNL     1      -4.393   4.525 -31.240  1.00  0.00    -0.151 N 
HETATM    3  C   UNL     1      -4.974   5.716 -30.884  1.00  0.00     0.734 A 
HETATM    4  N   UNL     1      -4.563   6.665 -31.695  1.00  0.00    -0.060 NA
HETATM    5  C   UNL     1      -3.663   6.082 -32.551  1.00  0.00     0.103 A 
HETATM    6  C   UNL     1      -3.525   4.724 -32.278  1.00  0.00     0.083 A 
HETATM    7  C   UNL     1      -2.914   6.657 -33.587  1.00  0.00     0.034 A 
HETATM    8  C   UNL     1      -2.040   5.843 -34.316  1.00  0.00     0.002 A 
HETATM    9  C   UNL     1      -1.917   4.484 -34.022  1.00  0.00     0.002 A 
HETATM   10  C   UNL     1      -2.659   3.889 -32.995  1.00  0.00     0.033 A 
HETATM   11  N   UNL     1      -5.833   5.830 -29.847  1.00  0.00    -0.033 NA
HETATM   12  C   UNL     1      -6.074   4.799 -29.120  1.00  0.00     0.193 A 
HETATM   13  N   UNL     1      -5.520   3.532 -29.331  1.00  0.00    -0.339 N 
HETATM   14  H   UNL     1      -5.702   2.776 -28.691  1.00  0.00     0.164 HD
ENDROOT
BRANCH   1  15
HETATM   15  C   UNL     1      -5.362   2.252 -31.334  1.00  0.00    -0.014 A 
HETATM   16  C   UNL     1      -4.685   1.060 -31.641  1.00  0.00     0.020 A 
HETATM   17  C   UNL     1      -5.317   0.018 -32.340  1.00  0.00    -0.027 A 
HETATM   18  C   UNL     1      -6.649   0.188 -32.744  1.00  0.00     0.086 A 
HETATM   19  C   UNL     1      -4.553  -1.256 -32.577  1.00  0.00     0.051 C 
HETATM   20  C   UNL     1      -7.365   1.350 -32.414  1.00  0.00    -0.027 A 
HETATM   21  C   UNL     1      -8.809   1.520 -32.802  1.00  0.00     0.051 C 
HETATM   22  C   UNL     1      -6.709   2.378 -31.725  1.00  0.00     0.020 A 
BRANCH  18  23
HETATM   23  O   UNL     1      -7.294  -0.834 -33.389  1.00  0.00    -0.289 OA
BRANCH  23  24
HETATM   24  C   UNL     1      -6.958  -0.846 -34.772  1.00  0.00     0.505 C 
HETATM   25  F   UNL     1      -6.902  -2.139 -35.176  1.00  0.00    -0.184 F 
HETATM   26  F   UNL     1      -7.986  -0.268 -35.442  1.00  0.00    -0.184 F 
ENDBRANCH  23  24
ENDBRANCH  18  23
ENDBRANCH   1  15
BRANCH  12  27
HETATM   27  N   UNL     1      -6.898   4.829 -28.053  1.00  0.00    -0.272 NA
HETATM   28  H   UNL     1      -6.854   5.733 -27.586  1.00  0.00     0.127 HD
HETATM   29  H   UNL     1      -7.858   4.556 -28.217  1.00  0.00     0.127 HD
ENDBRANCH  12  27
TORSDOF 4
ENDMDL
MODEL 5
REMARK VINA RESULT:      -7.8      8.112     10.029
REMARK  4 active torsions:
REMARK  status: ('A' for Active; 'I' for Inactive)
REMARK    1  A    between atoms: C_3  and  O_4 
REMARK    2  A    between atoms: O_4  and  C_5 
REMARK    3  A    between atoms: C_11  and  C_12 
REMARK    4  A    between atoms: C_23  and  N_24 
ROOT
HETATM    1  C   UNL     1      -1.391   6.803 -26.782  1.00  0.00     0.244 A 
HETATM    2  N   UNL     1      -1.002   7.950 -25.995  1.00  0.00    -0.151 N 
HETATM    3  C   UNL     1      -1.943   8.695 -25.330  1.00  0.00     0.734 A 
HETATM    4  N   UNL     1      -1.350   9.672 -24.680  1.00  0.00    -0.060 NA
HETATM    5  C   UNL     1      -0.003   9.518 -24.892  1.00  0.00     0.103 A 
HETATM    6  C   UNL     1       0.250   8.425 -25.714  1.00  0.00     0.083 A 
HETATM    7  C   UNL     1       1.070  10.275 -24.402  1.00  0.00     0.034 A 
HETATM    8  C   UNL     1       2.372   9.902 -24.753  1.00  0.00     0.002 A 
HETATM    9  C   UNL     1       2.600   8.798 -25.578  1.00  0.00     0.002 A 
HETATM   10  C   UNL     1       1.542   8.031 -26.081  1.00  0.00     0.033 A 
HETATM   11  N   UNL     1      -3.264   8.415 -25.376  1.00  0.00    -0.033 NA
HETATM   12  C   UNL     1      -3.660   7.375 -26.017  1.00  0.00     0.193 A 
HETATM   13  N   UNL     1      -2.816   6.496 -26.703  1.00  0.00    -0.339 N 
HETATM   14  H   UNL     1      -3.180   5.664 -27.138  1.00  0.00     0.164 HD
ENDROOT
BRANCH   1  15
HETATM   15  C   UNL     1      -1.074   6.961 -28.261  1.00  0.00    -0.014 A 
HETATM   16  C   UNL     1      -0.172   6.078 -28.878  1.00  0.00     0.020 A 
HETATM   17  C   UNL     1       0.085   6.139 -30.258  1.00  0.00    -0.027 A 
HETATM   18  C   UNL     1      -0.572   7.113 -31.023  1.00  0.00     0.086 A 
HETATM   19  C   UNL     1       1.013   5.121 -30.863  1.00  0.00     0.051 C 
HETATM   20  C   UNL     1      -1.512   7.981 -30.443  1.00  0.00    -0.027 A 
HETATM   21  C   UNL     1      -2.257   8.998 -31.266  1.00  0.00     0.051 C 
HETATM   22  C   UNL     1      -1.742   7.906 -29.063  1.00  0.00     0.020 A 
BRANCH  18  23
HETATM   23  O   UNL     1      -0.366   7.160 -32.376  1.00  0.00    -0.289 OA
BRANCH  23  24
HETATM   24  C   UNL     1      -1.412   6.484 -33.066  1.00  0.00     0.505 C 
HETATM   25  F   UNL     1      -1.761   7.240 -34.137  1.00  0.00    -0.184 F 
HETATM   26  F   UNL     1      -0.893   5.329 -33.552  1.00  0.00    -0.184 F 
ENDBRANCH  23  24
ENDBRANCH  18  23
ENDBRANCH   1  15
BRANCH  12  27
HETATM   27  N   UNL     1      -4.955   7.009 -26.094  1.00  0.00    -0.272 NA
HETATM   28  H   UNL     1      -5.552   7.819 -26.251  1.00  0.00     0.127 HD
HETATM   29  H   UNL     1      -5.177   6.269 -26.746  1.00  0.00     0.127 HD
ENDBRANCH  12  27
TORSDOF 4
ENDMDL
MODEL 6
REMARK VINA RESULT:      -7.8      4.588      7.118
REMARK  4 active torsions:
REMARK  status: ('A' for Active; 'I' for Inactive)
REMARK    1  A    between atoms: C_3  and  O_4 
REMARK    2  A    between atoms: O_4  and  C_5 
REMARK    3  A    between atoms: C_11  and  C_12 
REMARK    4  A    between atoms: C_23  and  N_24 
ROOT
HETATM    1  C   UNL     1      -4.528   0.905 -31.303  1.00  0.00     0.244 A 
HETATM    2  N   UNL     1      -5.144   0.356 -32.488  1.00  0.00    -0.151 N 
HETATM    3  C   UNL     1      -4.519  -0.629 -33.211  1.00  0.00     0.734 A 
HETATM    4  N   UNL     1      -5.273  -0.971 -34.231  1.00  0.00    -0.060 NA
HETATM    5  C   UNL     1      -6.423  -0.230 -34.130  1.00  0.00     0.103 A 
HETATM    6  C   UNL     1      -6.375   0.614 -33.024  1.00  0.00     0.083 A 
HETATM    7  C   UNL     1      -7.562  -0.232 -34.946  1.00  0.00     0.034 A 
HETATM    8  C   UNL     1      -8.626   0.616 -34.619  1.00  0.00     0.002 A 
HETATM    9  C   UNL     1      -8.555   1.452 -33.502  1.00  0.00     0.002 A 
HETATM   10  C   UNL     1      -7.425   1.473 -32.676  1.00  0.00     0.033 A 
HETATM   11  N   UNL     1      -3.309  -1.128 -32.873  1.00  0.00    -0.033 NA
HETATM   12  C   UNL     1      -2.740  -0.715 -31.799  1.00  0.00     0.193 A 
HETATM   13  N   UNL     1      -3.277   0.248 -30.937  1.00  0.00    -0.339 N 
HETATM   14  H   UNL     1      -2.810   0.489 -30.078  1.00  0.00     0.164 HD
ENDROOT
BRANCH   1  15
HETATM   15  C   UNL     1      -4.207   2.386 -31.431  1.00  0.00    -0.014 A 
HETATM   16  C   UNL     1      -3.293   2.817 -32.408  1.00  0.00     0.020 A 
HETATM   17  C   UNL     1      -3.031   4.182 -32.613  1.00  0.00    -0.027 A 
HETATM   18  C   UNL     1      -3.694   5.123 -31.814  1.00  0.00     0.086 A 
HETATM   19  C   UNL     1      -2.089   4.575 -33.720  1.00  0.00     0.051 C 
HETATM   20  C   UNL     1      -4.645   4.725 -30.861  1.00  0.00    -0.027 A 
HETATM   21  C   UNL     1      -5.397   5.732 -30.032  1.00  0.00     0.051 C 
HETATM   22  C   UNL     1      -4.881   3.357 -30.669  1.00  0.00     0.020 A 
BRANCH  18  23
HETATM   23  O   UNL     1      -3.482   6.460 -32.029  1.00  0.00    -0.289 OA
BRANCH  23  24
HETATM   24  C   UNL     1      -2.435   6.943 -31.195  1.00  0.00     0.505 C 
HETATM   25  F   UNL     1      -1.953   5.895 -30.483  1.00  0.00    -0.184 F 
HETATM   26  F   UNL     1      -1.433   7.361 -32.009  1.00  0.00    -0.184 F 
ENDBRANCH  23  24
ENDBRANCH  18  23
ENDBRANCH   1  15
BRANCH  12  27
HETATM   27  N   UNL     1      -1.546  -1.175 -31.375  1.00  0.00    -0.272 NA
HETATM   28  H   UNL     1      -1.508  -2.191 -31.434  1.00  0.00     0.127 HD
HETATM   29  H   UNL     1      -0.727  -0.761 -31.798  1.00  0.00     0.127 HD
ENDBRANCH  12  27
TORSDOF 4
ENDMDL
MODEL 7
REMARK VINA RESULT:      -7.7      4.268      5.653
REMARK  4 active torsions:
REMARK  status: ('A' for Active; 'I' for Inactive)
REMARK    1  A    between atoms: C_3  and  O_4 
REMARK    2  A    between atoms: O_4  and  C_5 
REMARK    3  A    between atoms: C_11  and  C_12 
REMARK    4  A    between atoms: C_23  and  N_24 
ROOT
HETATM    1  C   UNL     1     -11.509   2.255 -32.997  1.00  0.00     0.244 A 
HETATM    2  N   UNL     1     -11.697   3.288 -33.989  1.00  0.00    -0.151 N 
HETATM    3  C   UNL     1     -12.558   3.101 -35.041  1.00  0.00     0.734 A 
HETATM    4  N   UNL     1     -12.566   4.176 -35.798  1.00  0.00    -0.060 NA
HETATM    5  C   UNL     1     -11.736   5.084 -35.191  1.00  0.00     0.103 A 
HETATM    6  C   UNL     1     -11.178   4.553 -34.033  1.00  0.00     0.083 A 
HETATM    7  C   UNL     1     -11.417   6.395 -35.572  1.00  0.00     0.034 A 
HETATM    8  C   UNL     1     -10.545   7.135 -34.766  1.00  0.00     0.002 A 
HETATM    9  C   UNL     1     -10.000   6.581 -33.606  1.00  0.00     0.002 A 
HETATM   10  C   UNL     1     -10.302   5.272 -33.211  1.00  0.00     0.033 A 
HETATM   11  N   UNL     1     -13.261   1.961 -35.217  1.00  0.00    -0.033 NA
HETATM   12  C   UNL     1     -13.174   1.031 -34.336  1.00  0.00     0.193 A 
HETATM   13  N   UNL     1     -12.376   1.097 -33.189  1.00  0.00    -0.339 N 
HETATM   14  H   UNL     1     -12.394   0.359 -32.504  1.00  0.00     0.164 HD
ENDROOT
BRANCH   1  15
HETATM   15  C   UNL     1     -10.087   1.718 -32.960  1.00  0.00    -0.014 A 
HETATM   16  C   UNL     1      -9.556   1.075 -34.091  1.00  0.00     0.020 A 
HETATM   17  C   UNL     1      -8.221   0.638 -34.126  1.00  0.00    -0.027 A 
HETATM   18  C   UNL     1      -7.415   0.844 -32.998  1.00  0.00     0.086 A 
HETATM   19  C   UNL     1      -7.701   0.016 -35.393  1.00  0.00     0.051 C 
HETATM   20  C   UNL     1      -7.904   1.522 -31.870  1.00  0.00    -0.027 A 
HETATM   21  C   UNL     1      -7.031   1.790 -30.673  1.00  0.00     0.051 C 
HETATM   22  C   UNL     1      -9.242   1.939 -31.857  1.00  0.00     0.020 A 
BRANCH  18  23
HETATM   23  O   UNL     1      -6.100   0.462 -33.030  1.00  0.00    -0.289 OA
BRANCH  23  24
HETATM   24  C   UNL     1      -5.956  -0.881 -32.581  1.00  0.00     0.505 C 
HETATM   25  F   UNL     1      -5.368  -1.591 -33.575  1.00  0.00    -0.184 F 
HETATM   26  F   UNL     1      -5.086  -0.867 -31.539  1.00  0.00    -0.184 F 
ENDBRANCH  23  24
ENDBRANCH  18  23
ENDBRANCH   1  15
BRANCH  12  27
HETATM   27  N   UNL     1     -13.858  -0.128 -34.420  1.00  0.00    -0.272 NA
HETATM   28  H   UNL     1     -14.420  -0.279 -33.585  1.00  0.00     0.127 HD
HETATM   29  H   UNL     1     -14.412  -0.265 -35.255  1.00  0.00     0.127 HD
ENDBRANCH  12  27
TORSDOF 4
ENDMDL
MODEL 8
REMARK VINA RESULT:      -7.6      2.168      4.328
REMARK  4 active torsions:
REMARK  status: ('A' for Active; 'I' for Inactive)
REMARK    1  A    between atoms: C_3  and  O_4 
REMARK    2  A    between atoms: O_4  and  C_5 
REMARK    3  A    between atoms: C_11  and  C_12 
REMARK    4  A    between atoms: C_23  and  N_24 
ROOT
HETATM    1  C   UNL     1      -5.809   4.284 -33.517  1.00  0.00     0.244 A 
HETATM    2  N   UNL     1      -5.519   4.863 -32.226  1.00  0.00    -0.151 N 
HETATM    3  C   UNL     1      -4.426   5.674 -32.051  1.00  0.00     0.734 A 
HETATM    4  N   UNL     1      -4.379   6.085 -30.803  1.00  0.00    -0.060 NA
HETATM    5  C   UNL     1      -5.490   5.570 -30.183  1.00  0.00     0.103 A 
HETATM    6  C   UNL     1      -6.240   4.799 -31.066  1.00  0.00     0.083 A 
HETATM    7  C   UNL     1      -5.928   5.729 -28.862  1.00  0.00     0.034 A 
HETATM    8  C   UNL     1      -7.119   5.107 -28.469  1.00  0.00     0.002 A 
HETATM    9  C   UNL     1      -7.856   4.341 -29.374  1.00  0.00     0.002 A 
HETATM   10  C   UNL     1      -7.433   4.166 -30.697  1.00  0.00     0.033 A 
HETATM   11  N   UNL     1      -3.564   5.966 -33.050  1.00  0.00    -0.033 NA
HETATM   12  C   UNL     1      -3.804   5.522 -34.231  1.00  0.00     0.193 A 
HETATM   13  N   UNL     1      -4.901   4.725 -34.572  1.00  0.00    -0.339 N 
HETATM   14  H   UNL     1      -5.067   4.456 -35.528  1.00  0.00     0.164 HD
ENDROOT
BRANCH   1  15
HETATM   15  C   UNL     1      -5.747   2.764 -33.514  1.00  0.00    -0.014 A 
HETATM   16  C   UNL     1      -4.891   2.104 -32.616  1.00  0.00     0.020 A 
HETATM   17  C   UNL     1      -4.865   0.702 -32.525  1.00  0.00    -0.027 A 
HETATM   18  C   UNL     1      -5.709  -0.043 -33.361  1.00  0.00     0.086 A 
HETATM   19  C   UNL     1      -3.971   0.065 -31.496  1.00  0.00     0.051 C 
HETATM   20  C   UNL     1      -6.607   0.589 -34.236  1.00  0.00    -0.027 A 
HETATM   21  C   UNL     1      -7.550  -0.203 -35.102  1.00  0.00     0.051 C 
HETATM   22  C   UNL     1      -6.606   1.988 -34.315  1.00  0.00     0.020 A 
BRANCH  18  23
HETATM   23  O   UNL     1      -5.727  -1.408 -33.256  1.00  0.00    -0.289 OA
BRANCH  23  24
HETATM   24  C   UNL     1      -4.689  -1.986 -34.040  1.00  0.00     0.505 C 
HETATM   25  F   UNL     1      -4.090  -2.946 -33.294  1.00  0.00    -0.184 F 
HETATM   26  F   UNL     1      -5.278  -2.613 -35.089  1.00  0.00    -0.184 F 
ENDBRANCH  23  24
ENDBRANCH  18  23
ENDBRANCH   1  15
BRANCH  12  27
HETATM   27  N   UNL     1      -3.011   5.785 -35.289  1.00  0.00    -0.272 NA
HETATM   28  H   UNL     1      -2.726   4.923 -35.752  1.00  0.00     0.127 HD
HETATM   29  H   UNL     1      -3.362   6.453 -35.961  1.00  0.00     0.127 HD
ENDBRANCH  12  27
TORSDOF 4
ENDMDL
MODEL 9
REMARK VINA RESULT:      -7.5      3.715      6.052
REMARK  4 active torsions:
REMARK  status: ('A' for Active; 'I' for Inactive)
REMARK    1  A    between atoms: C_3  and  O_4 
REMARK    2  A    between atoms: O_4  and  C_5 
REMARK    3  A    between atoms: C_11  and  C_12 
REMARK    4  A    between atoms: C_23  and  N_24 
ROOT
HETATM    1  C   UNL     1      -9.620   3.101 -34.277  1.00  0.00     0.244 A 
HETATM    2  N   UNL     1     -10.921   3.187 -33.656  1.00  0.00    -0.151 N 
HETATM    3  C   UNL     1     -11.307   4.322 -32.990  1.00  0.00     0.734 A 
HETATM    4  N   UNL     1     -12.526   4.165 -32.523  1.00  0.00    -0.060 NA
HETATM    5  C   UNL     1     -12.946   2.928 -32.943  1.00  0.00     0.103 A 
HETATM    6  C   UNL     1     -11.952   2.287 -33.676  1.00  0.00     0.083 A 
HETATM    7  C   UNL     1     -14.176   2.287 -32.742  1.00  0.00     0.034 A 
HETATM    8  C   UNL     1     -14.370   1.016 -33.293  1.00  0.00     0.002 A 
HETATM    9  C   UNL     1     -13.357   0.394 -34.027  1.00  0.00     0.002 A 
HETATM   10  C   UNL     1     -12.120   1.015 -34.236  1.00  0.00     0.033 A 
HETATM   11  N   UNL     1     -10.508   5.405 -32.865  1.00  0.00    -0.033 NA
HETATM   12  C   UNL     1      -9.361   5.404 -33.444  1.00  0.00     0.193 A 
HETATM   13  N   UNL     1      -8.852   4.340 -34.195  1.00  0.00    -0.339 N 
HETATM   14  H   UNL     1      -7.970   4.421 -34.674  1.00  0.00     0.164 HD
ENDROOT
BRANCH   1  15
HETATM   15  C   UNL     1      -8.742   2.018 -33.669  1.00  0.00    -0.014 A 
HETATM   16  C   UNL     1      -8.367   0.909 -34.446  1.00  0.00     0.020 A 
HETATM   17  C   UNL     1      -7.491  -0.071 -33.950  1.00  0.00    -0.027 A 
HETATM   18  C   UNL     1      -6.994   0.068 -32.646  1.00  0.00     0.086 A 
HETATM   19  C   UNL     1      -7.082  -1.197 -34.860  1.00  0.00     0.051 C 
HETATM   20  C   UNL     1      -7.315   1.188 -31.862  1.00  0.00    -0.027 A 
HETATM   21  C   UNL     1      -6.749   1.368 -30.479  1.00  0.00     0.051 C 
HETATM   22  C   UNL     1      -8.199   2.145 -32.377  1.00  0.00     0.020 A 
BRANCH  18  23
HETATM   23  O   UNL     1      -6.106  -0.855 -32.161  1.00  0.00    -0.289 OA
BRANCH  23  24
HETATM   24  C   UNL     1      -4.767  -0.421 -32.371  1.00  0.00     0.505 C 
HETATM   25  F   UNL     1      -4.090  -0.581 -31.208  1.00  0.00    -0.184 F 
HETATM   26  F   UNL     1      -4.206  -1.265 -33.273  1.00  0.00    -0.184 F 
ENDBRANCH  23  24
ENDBRANCH  18  23
ENDBRANCH   1  15
BRANCH  12  27
HETATM   27  N   UNL     1      -8.512   6.449 -33.391  1.00  0.00    -0.272 NA
HETATM   28  H   UNL     1      -8.489   6.944 -34.281  1.00  0.00     0.127 HD
HETATM   29  H   UNL     1      -8.639   7.096 -32.625  1.00  0.00     0.127 HD
ENDBRANCH  12  27
TORSDOF 4
ENDMDL
MODEL 10
REMARK VINA RESULT:      -7.4      3.193      4.868
REMARK  4 active torsions:
REMARK  status: ('A' for Active; 'I' for Inactive)
REMARK    1  A    between atoms: C_3  and  O_4 
REMARK    2  A    between atoms: O_4  and  C_5 
REMARK    3  A    between atoms: C_11  and  C_12 
REMARK    4  A    between atoms: C_23  and  N_24 
ROOT
HETATM    1  C   UNL     1      -3.895   5.156 -33.317  1.00  0.00     0.244 A 
HETATM    2  N   UNL     1      -3.263   5.745 -32.160  1.00  0.00    -0.151 N 
HETATM    3  C   UNL     1      -1.933   6.081 -32.182  1.00  0.00     0.734 A 
HETATM    4  N   UNL     1      -1.593   6.605 -31.026  1.00  0.00    -0.060 NA
HETATM    5  C   UNL     1      -2.737   6.654 -30.270  1.00  0.00     0.103 A 
HETATM    6  C   UNL     1      -3.818   6.125 -30.969  1.00  0.00     0.083 A 
HETATM    7  C   UNL     1      -2.930   7.148 -28.973  1.00  0.00     0.034 A 
HETATM    8  C   UNL     1      -4.214   7.100 -28.419  1.00  0.00     0.002 A 
HETATM    9  C   UNL     1      -5.283   6.567 -29.142  1.00  0.00     0.002 A 
HETATM   10  C   UNL     1      -5.111   6.063 -30.437  1.00  0.00     0.033 A 
HETATM   11  N   UNL     1      -1.144   5.876 -33.261  1.00  0.00    -0.033 NA
HETATM   12  C   UNL     1      -1.667   5.405 -34.336  1.00  0.00     0.193 A 
HETATM   13  N   UNL     1      -3.015   5.061 -34.478  1.00  0.00    -0.339 N 
HETATM   14  H   UNL     1      -3.378   4.751 -35.365  1.00  0.00     0.164 HD
ENDROOT
BRANCH   1  15
HETATM   15  C   UNL     1      -4.411   3.748 -33.061  1.00  0.00    -0.014 A 
HETATM   16  C   UNL     1      -5.643   3.348 -33.606  1.00  0.00     0.020 A 
HETATM   17  C   UNL     1      -6.115   2.033 -33.462  1.00  0.00    -0.027 A 
HETATM   18  C   UNL     1      -5.336   1.112 -32.749  1.00  0.00     0.086 A 
HETATM   19  C   UNL     1      -7.412   1.658 -34.126  1.00  0.00     0.051 C 
HETATM   20  C   UNL     1      -4.080   1.469 -32.231  1.00  0.00    -0.027 A 
HETATM   21  C   UNL     1      -3.216   0.473 -31.506  1.00  0.00     0.051 C 
HETATM   22  C   UNL     1      -3.637   2.790 -32.380  1.00  0.00     0.020 A 
BRANCH  18  23
HETATM   23  O   UNL     1      -5.761  -0.185 -32.635  1.00  0.00    -0.289 OA
BRANCH  23  24
HETATM   24  C   UNL     1      -5.578  -0.883 -33.862  1.00  0.00     0.505 C 
HETATM   25  F   UNL     1      -4.372  -1.501 -33.814  1.00  0.00    -0.184 F 
HETATM   26  F   UNL     1      -6.519  -1.859 -33.915  1.00  0.00    -0.184 F 
ENDBRANCH  23  24
ENDBRANCH  18  23
ENDBRANCH   1  15
BRANCH  12  27
HETATM   27  N   UNL     1      -0.960   5.192 -35.463  1.00  0.00    -0.272 NA
HETATM   28  H   UNL     1      -0.189   5.853 -35.539  1.00  0.00     0.127 HD
HETATM   29  H   UNL     1      -0.637   4.246 -35.622  1.00  0.00     0.127 HD
ENDBRANCH  12  27
TORSDOF 4
ENDMDL
