MODEL 1
REMARK VINA RESULT:      -9.5      0.000      0.000
REMARK  2 active torsions:
REMARK  status: ('A' for Active; 'I' for Inactive)
REMARK    1  A    between atoms: O_2  and  C_3 
REMARK    2  A    between atoms: N_21  and  C_22 
ROOT
HETATM    1  C   UNL     1     -10.966   0.445 -33.261  1.00  0.00     0.069 A 
HETATM    2  C   UNL     1      -9.582   0.617 -33.134  1.00  0.00     0.049 A 
HETATM    3  C   UNL     1      -9.064   1.904 -33.227  1.00  0.00     0.018 A 
HETATM    4  C   UNL     1      -9.928   2.989 -33.415  1.00  0.00     0.044 A 
HETATM    5  N   UNL     1      -9.222   4.179 -33.437  1.00  0.00    -0.324 N 
HETATM    6  C   UNL     1      -7.869   3.958 -33.270  1.00  0.00     0.264 A 
HETATM    7  O   UNL     1      -6.997   4.809 -33.201  1.00  0.00    -0.270 OA
HETATM    8  C   UNL     1      -7.651   2.409 -33.099  1.00  0.00     0.250 A 
HETATM    9  N   UNL     1      -7.031   2.055 -31.759  1.00  0.00    -0.043 N 
HETATM   10  H   UNL     1      -7.170   1.045 -31.616  1.00  0.00     0.282 HD
HETATM   11  C   UNL     1      -5.564   2.361 -31.907  1.00  0.00     0.204 C 
HETATM   12  C   UNL     1      -5.056   1.871 -30.571  1.00  0.00     0.036 C 
HETATM   13  C   UNL     1      -6.148   2.379 -29.600  1.00  0.00     0.030 C 
HETATM   14  C   UNL     1      -7.398   2.678 -30.451  1.00  0.00     0.237 C 
HETATM   15  C   UNL     1      -5.237   1.838 -33.287  1.00  0.00     0.126 C 
HETATM   16  C   UNL     1      -6.535   1.984 -34.092  1.00  0.00     0.145 C 
HETATM   17  C   UNL     1      -6.738   0.621 -34.675  1.00  0.00     0.239 C 
HETATM   18  O   UNL     1      -7.590   0.437 -35.530  1.00  0.00    -0.272 OA
HETATM   19  N   UNL     1      -5.883  -0.278 -34.070  1.00  0.00    -0.252 N 
HETATM   20  C   UNL     1      -4.948   0.372 -33.295  1.00  0.00     0.238 C 
HETATM   21  O   UNL     1      -4.030  -0.073 -32.626  1.00  0.00    -0.272 OA
HETATM   22  C   UNL     1     -11.293   2.851 -33.528  1.00  0.00     0.033 A 
HETATM   23  C   UNL     1     -11.809   1.558 -33.444  1.00  0.00     0.039 A 
HETATM   24  H   UNL     1      -9.629   5.099 -33.563  1.00  0.00     0.169 HD
ENDROOT
BRANCH   1  25
HETATM   25  O   UNL     1     -11.623  -0.751 -33.187  1.00  0.00    -0.356 OA
HETATM   26  C   UNL     1     -13.009  -0.749 -33.512  1.00  0.00     0.210 C 
ENDBRANCH   1  25
BRANCH  19  27
HETATM   27  C   UNL     1      -5.961  -1.706 -34.218  1.00  0.00     0.045 A 
HETATM   28  C   UNL     1      -4.812  -2.496 -34.402  1.00  0.00     0.030 A 
HETATM   29  C   UNL     1      -4.892  -3.879 -34.613  1.00  0.00     0.002 A 
HETATM   30  C   UNL     1      -6.126  -4.513 -34.642  1.00  0.00     0.000 A 
HETATM   31  C   UNL     1      -7.278  -3.766 -34.448  1.00  0.00     0.002 A 
HETATM   32  C   UNL     1      -7.195  -2.384 -34.237  1.00  0.00     0.030 A 
ENDBRANCH  19  27
TORSDOF 2
ENDMDL
MODEL 2
REMARK VINA RESULT:      -9.1      2.760      5.932
REMARK  2 active torsions:
REMARK  status: ('A' for Active; 'I' for Inactive)
REMARK    1  A    between atoms: O_2  and  C_3 
REMARK    2  A    between atoms: N_21  and  C_22 
ROOT
HETATM    1  C   UNL     1      -5.660   0.310 -33.804  1.00  0.00     0.069 A 
HETATM    2  C   UNL     1      -5.995   1.603 -33.385  1.00  0.00     0.049 A 
HETATM    3  C   UNL     1      -7.240   2.111 -33.740  1.00  0.00     0.018 A 
HETATM    4  C   UNL     1      -8.131   1.319 -34.473  1.00  0.00     0.044 A 
HETATM    5  N   UNL     1      -9.324   1.990 -34.683  1.00  0.00    -0.324 N 
HETATM    6  C   UNL     1      -9.295   3.247 -34.113  1.00  0.00     0.264 A 
HETATM    7  O   UNL     1     -10.208   4.056 -34.091  1.00  0.00    -0.270 OA
HETATM    8  C   UNL     1      -7.895   3.429 -33.416  1.00  0.00     0.250 A 
HETATM    9  N   UNL     1      -8.018   3.660 -31.921  1.00  0.00    -0.043 N 
HETATM   10  H   UNL     1      -7.088   3.499 -31.510  1.00  0.00     0.282 HD
HETATM   11  C   UNL     1      -8.407   5.108 -31.773  1.00  0.00     0.204 C 
HETATM   12  C   UNL     1      -8.388   5.234 -30.268  1.00  0.00     0.036 C 
HETATM   13  C   UNL     1      -9.054   3.911 -29.820  1.00  0.00     0.030 C 
HETATM   14  C   UNL     1      -8.963   2.940 -31.014  1.00  0.00     0.237 C 
HETATM   15  C   UNL     1      -7.531   5.808 -32.787  1.00  0.00     0.126 C 
HETATM   16  C   UNL     1      -7.305   4.779 -33.904  1.00  0.00     0.145 C 
HETATM   17  C   UNL     1      -5.817   4.761 -34.063  1.00  0.00     0.239 C 
HETATM   18  O   UNL     1      -5.305   4.180 -35.007  1.00  0.00    -0.272 OA
HETATM   19  N   UNL     1      -5.226   5.427 -33.008  1.00  0.00    -0.252 N 
HETATM   20  C   UNL     1      -6.165   6.105 -32.261  1.00  0.00     0.238 C 
HETATM   21  O   UNL     1      -6.030   6.809 -31.274  1.00  0.00    -0.272 OA
HETATM   22  C   UNL     1      -7.833   0.040 -34.885  1.00  0.00     0.033 A 
HETATM   23  C   UNL     1      -6.580  -0.463 -34.537  1.00  0.00     0.039 A 
HETATM   24  H   UNL     1     -10.120   1.622 -35.191  1.00  0.00     0.169 HD
ENDROOT
BRANCH   1  25
HETATM   25  O   UNL     1      -4.482  -0.328 -33.532  1.00  0.00    -0.356 OA
HETATM   26  C   UNL     1      -4.479  -1.748 -33.622  1.00  0.00     0.210 C 
ENDBRANCH   1  25
BRANCH  19  27
HETATM   27  C   UNL     1      -3.818   5.411 -32.717  1.00  0.00     0.045 A 
HETATM   28  C   UNL     1      -2.905   6.212 -33.425  1.00  0.00     0.030 A 
HETATM   29  C   UNL     1      -1.525   6.147 -33.187  1.00  0.00     0.002 A 
HETATM   30  C   UNL     1      -1.019   5.280 -32.230  1.00  0.00     0.000 A 
HETATM   31  C   UNL     1      -1.895   4.487 -31.502  1.00  0.00     0.002 A 
HETATM   32  C   UNL     1      -3.272   4.554 -31.741  1.00  0.00     0.030 A 
ENDBRANCH  19  27
TORSDOF 2
ENDMDL
MODEL 3
REMARK VINA RESULT:      -9.1      2.371      5.709
REMARK  2 active torsions:
REMARK  status: ('A' for Active; 'I' for Inactive)
REMARK    1  A    between atoms: O_2  and  C_3 
REMARK    2  A    between atoms: N_21  and  C_22 
ROOT
HETATM    1  C   UNL     1     -10.118   4.609 -34.963  1.00  0.00     0.069 A 
HETATM    2  C   UNL     1      -9.329   3.715 -34.228  1.00  0.00     0.049 A 
HETATM    3  C   UNL     1      -9.887   2.500 -33.845  1.00  0.00     0.018 A 
HETATM    4  C   UNL     1     -11.198   2.188 -34.222  1.00  0.00     0.044 A 
HETATM    5  N   UNL     1     -11.546   0.923 -33.783  1.00  0.00    -0.324 N 
HETATM    6  C   UNL     1     -10.504   0.331 -33.096  1.00  0.00     0.264 A 
HETATM    7  O   UNL     1     -10.491  -0.796 -32.627  1.00  0.00    -0.270 OA
HETATM    8  C   UNL     1      -9.294   1.337 -33.094  1.00  0.00     0.250 A 
HETATM    9  N   UNL     1      -8.067   0.769 -33.785  1.00  0.00    -0.043 N 
HETATM   10  H   UNL     1      -7.434   1.558 -33.978  1.00  0.00     0.282 HD
HETATM   11  C   UNL     1      -7.442  -0.163 -32.781  1.00  0.00     0.204 C 
HETATM   12  C   UNL     1      -6.197  -0.567 -33.535  1.00  0.00     0.036 C 
HETATM   13  C   UNL     1      -6.736  -0.769 -34.971  1.00  0.00     0.030 C 
HETATM   14  C   UNL     1      -8.083  -0.024 -35.051  1.00  0.00     0.237 C 
HETATM   15  C   UNL     1      -7.548   0.604 -31.482  1.00  0.00     0.126 C 
HETATM   16  C   UNL     1      -8.805   1.472 -31.627  1.00  0.00     0.145 C 
HETATM   17  C   UNL     1      -8.320   2.845 -31.280  1.00  0.00     0.239 C 
HETATM   18  O   UNL     1      -9.117   3.756 -31.113  1.00  0.00    -0.272 OA
HETATM   19  N   UNL     1      -6.941   2.858 -31.241  1.00  0.00    -0.252 N 
HETATM   20  C   UNL     1      -6.431   1.579 -31.295  1.00  0.00     0.238 C 
HETATM   21  O   UNL     1      -5.276   1.187 -31.270  1.00  0.00    -0.272 OA
HETATM   22  C   UNL     1     -11.990   3.041 -34.957  1.00  0.00     0.033 A 
HETATM   23  C   UNL     1     -11.432   4.263 -35.331  1.00  0.00     0.039 A 
HETATM   24  H   UNL     1     -12.445   0.478 -33.933  1.00  0.00     0.169 HD
ENDROOT
BRANCH   1  25
HETATM   25  O   UNL     1      -9.712   5.833 -35.414  1.00  0.00    -0.356 OA
HETATM   26  C   UNL     1     -10.631   6.911 -35.274  1.00  0.00     0.210 C 
ENDBRANCH   1  25
BRANCH  19  27
HETATM   27  C   UNL     1      -6.136   4.047 -31.164  1.00  0.00     0.045 A 
HETATM   28  C   UNL     1      -5.615   4.665 -32.315  1.00  0.00     0.030 A 
HETATM   29  C   UNL     1      -4.776   5.785 -32.237  1.00  0.00     0.002 A 
HETATM   30  C   UNL     1      -4.437   6.321 -31.003  1.00  0.00     0.000 A 
HETATM   31  C   UNL     1      -4.948   5.746 -29.849  1.00  0.00     0.002 A 
HETATM   32  C   UNL     1      -5.786   4.628 -29.930  1.00  0.00     0.030 A 
ENDBRANCH  19  27
TORSDOF 2
ENDMDL
MODEL 4
REMARK VINA RESULT:      -9.1      3.208      6.191
REMARK  2 active torsions:
REMARK  status: ('A' for Active; 'I' for Inactive)
REMARK    1  A    between atoms: O_2  and  C_3 
REMARK    2  A    between atoms: N_21  and  C_22 
ROOT
HETATM    1  C   UNL     1      -3.156   5.151 -33.286  1.00  0.00     0.069 A 
HETATM    2  C   UNL     1      -4.297   4.666 -32.635  1.00  0.00     0.049 A 
HETATM    3  C   UNL     1      -4.525   5.058 -31.320  1.00  0.00     0.018 A 
HETATM    4  C   UNL     1      -3.637   5.940 -30.694  1.00  0.00     0.044 A 
HETATM    5  N   UNL     1      -4.064   6.238 -29.411  1.00  0.00    -0.324 N 
HETATM    6  C   UNL     1      -5.241   5.579 -29.114  1.00  0.00     0.264 A 
HETATM    7  O   UNL     1      -5.885   5.673 -28.082  1.00  0.00    -0.270 OA
HETATM    8  C   UNL     1      -5.659   4.741 -30.380  1.00  0.00     0.250 A 
HETATM    9  N   UNL     1      -7.005   5.166 -30.937  1.00  0.00    -0.043 N 
HETATM   10  H   UNL     1      -7.078   4.777 -31.888  1.00  0.00     0.282 HD
HETATM   11  C   UNL     1      -8.028   4.526 -30.035  1.00  0.00     0.204 C 
HETATM   12  C   UNL     1      -9.297   4.926 -30.750  1.00  0.00     0.036 C 
HETATM   13  C   UNL     1      -9.004   6.395 -31.139  1.00  0.00     0.030 C 
HETATM   14  C   UNL     1      -7.475   6.578 -31.069  1.00  0.00     0.237 C 
HETATM   15  C   UNL     1      -7.473   3.138 -29.811  1.00  0.00     0.126 C 
HETATM   16  C   UNL     1      -5.949   3.293 -29.903  1.00  0.00     0.145 C 
HETATM   17  C   UNL     1      -5.553   2.244 -30.895  1.00  0.00     0.239 C 
HETATM   18  O   UNL     1      -4.375   1.969 -31.064  1.00  0.00    -0.272 OA
HETATM   19  N   UNL     1      -6.676   1.753 -31.531  1.00  0.00    -0.252 N 
HETATM   20  C   UNL     1      -7.826   2.190 -30.910  1.00  0.00     0.238 C 
HETATM   21  O   UNL     1      -8.998   1.962 -31.166  1.00  0.00    -0.272 OA
HETATM   22  C   UNL     1      -2.516   6.443 -31.315  1.00  0.00     0.033 A 
HETATM   23  C   UNL     1      -2.285   6.041 -32.630  1.00  0.00     0.039 A 
HETATM   24  H   UNL     1      -3.585   6.852 -28.763  1.00  0.00     0.169 HD
ENDROOT
BRANCH   1  25
HETATM   25  O   UNL     1      -2.799   4.862 -34.574  1.00  0.00    -0.356 OA
HETATM   26  C   UNL     1      -1.477   5.205 -34.971  1.00  0.00     0.210 C 
ENDBRANCH   1  25
BRANCH  19  27
HETATM   27  C   UNL     1      -6.654   0.907 -32.692  1.00  0.00     0.045 A 
HETATM   28  C   UNL     1      -6.924   1.407 -33.979  1.00  0.00     0.030 A 
HETATM   29  C   UNL     1      -6.969   0.570 -35.102  1.00  0.00     0.002 A 
HETATM   30  C   UNL     1      -6.741  -0.792 -34.971  1.00  0.00     0.000 A 
HETATM   31  C   UNL     1      -6.456  -1.315 -33.718  1.00  0.00     0.002 A 
HETATM   32  C   UNL     1      -6.411  -0.477 -32.598  1.00  0.00     0.030 A 
ENDBRANCH  19  27
TORSDOF 2
ENDMDL
MODEL 5
REMARK VINA RESULT:      -8.9      3.883      7.168
REMARK  2 active torsions:
REMARK  status: ('A' for Active; 'I' for Inactive)
REMARK    1  A    between atoms: O_2  and  C_3 
REMARK    2  A    between atoms: N_21  and  C_22 
ROOT
HETATM    1  C   UNL     1      -3.791   0.909 -32.165  1.00  0.00     0.069 A 
HETATM    2  C   UNL     1      -4.080   2.276 -32.082  1.00  0.00     0.049 A 
HETATM    3  C   UNL     1      -5.181   2.764 -32.777  1.00  0.00     0.018 A 
HETATM    4  C   UNL     1      -5.984   1.884 -33.512  1.00  0.00     0.044 A 
HETATM    5  N   UNL     1      -7.047   2.557 -34.090  1.00  0.00    -0.324 N 
HETATM    6  C   UNL     1      -7.011   3.902 -33.779  1.00  0.00     0.264 A 
HETATM    7  O   UNL     1      -7.833   4.744 -34.103  1.00  0.00    -0.270 OA
HETATM    8  C   UNL     1      -5.761   4.152 -32.855  1.00  0.00     0.250 A 
HETATM    9  N   UNL     1      -6.147   4.694 -31.491  1.00  0.00    -0.043 N 
HETATM   10  H   UNL     1      -5.332   4.574 -30.874  1.00  0.00     0.282 HD
HETATM   11  C   UNL     1      -6.422   6.159 -31.709  1.00  0.00     0.204 C 
HETATM   12  C   UNL     1      -6.681   6.594 -30.286  1.00  0.00     0.036 C 
HETATM   13  C   UNL     1      -7.539   5.428 -29.740  1.00  0.00     0.030 C 
HETATM   14  C   UNL     1      -7.311   4.227 -30.678  1.00  0.00     0.237 C 
HETATM   15  C   UNL     1      -5.306   6.587 -32.636  1.00  0.00     0.126 C 
HETATM   16  C   UNL     1      -4.966   5.339 -33.462  1.00  0.00     0.145 C 
HETATM   17  C   UNL     1      -3.483   5.212 -33.303  1.00  0.00     0.239 C 
HETATM   18  O   UNL     1      -2.855   4.421 -33.990  1.00  0.00    -0.272 OA
HETATM   19  N   UNL     1      -3.046   6.051 -32.297  1.00  0.00    -0.252 N 
HETATM   20  C   UNL     1      -4.045   6.916 -31.906  1.00  0.00     0.238 C 
HETATM   21  O   UNL     1      -4.038   7.802 -31.066  1.00  0.00    -0.272 OA
HETATM   22  C   UNL     1      -5.732   0.534 -33.600  1.00  0.00     0.033 A 
HETATM   23  C   UNL     1      -4.621   0.049 -32.910  1.00  0.00     0.039 A 
HETATM   24  H   UNL     1      -7.761   2.134 -34.671  1.00  0.00     0.169 HD
ENDROOT
BRANCH   1  25
HETATM   25  O   UNL     1      -2.752   0.281 -31.537  1.00  0.00    -0.356 OA
HETATM   26  C   UNL     1      -2.555  -1.097 -31.833  1.00  0.00     0.210 C 
ENDBRANCH   1  25
BRANCH  19  27
HETATM   27  C   UNL     1      -1.729   6.022 -31.723  1.00  0.00     0.045 A 
HETATM   28  C   UNL     1      -1.320   4.994 -30.855  1.00  0.00     0.030 A 
HETATM   29  C   UNL     1      -0.060   5.001 -30.242  1.00  0.00     0.002 A 
HETATM   30  C   UNL     1       0.831   6.036 -30.484  1.00  0.00     0.000 A 
HETATM   31  C   UNL     1       0.465   7.058 -31.348  1.00  0.00     0.002 A 
HETATM   32  C   UNL     1      -0.794   7.048 -31.959  1.00  0.00     0.030 A 
ENDBRANCH  19  27
TORSDOF 2
ENDMDL
MODEL 6
REMARK VINA RESULT:      -8.8      2.605      5.479
REMARK  2 active torsions:
REMARK  status: ('A' for Active; 'I' for Inactive)
REMARK    1  A    between atoms: O_2  and  C_3 
REMARK    2  A    between atoms: N_21  and  C_22 
ROOT
HETATM    1  C   UNL     1      -8.769   4.329 -33.802  1.00  0.00     0.069 A 
HETATM    2  C   UNL     1      -7.701   3.494 -33.450  1.00  0.00     0.049 A 
HETATM    3  C   UNL     1      -7.931   2.477 -32.531  1.00  0.00     0.018 A 
HETATM    4  C   UNL     1      -9.215   2.293 -32.004  1.00  0.00     0.044 A 
HETATM    5  N   UNL     1      -9.241   1.207 -31.146  1.00  0.00    -0.324 N 
HETATM    6  C   UNL     1      -7.997   0.618 -31.051  1.00  0.00     0.264 A 
HETATM    7  O   UNL     1      -7.713  -0.382 -30.410  1.00  0.00    -0.270 OA
HETATM    8  C   UNL     1      -7.013   1.413 -31.988  1.00  0.00     0.250 A 
HETATM    9  N   UNL     1      -6.427   0.543 -33.085  1.00  0.00    -0.043 N 
HETATM   10  H   UNL     1      -6.026   1.174 -33.793  1.00  0.00     0.282 HD
HETATM   11  C   UNL     1      -5.333  -0.251 -32.421  1.00  0.00     0.204 C 
HETATM   12  C   UNL     1      -4.769  -0.978 -33.619  1.00  0.00     0.036 C 
HETATM   13  C   UNL     1      -6.049  -1.382 -34.388  1.00  0.00     0.030 C 
HETATM   14  C   UNL     1      -7.185  -0.477 -33.872  1.00  0.00     0.237 C 
HETATM   15  C   UNL     1      -4.655   0.767 -31.533  1.00  0.00     0.126 C 
HETATM   16  C   UNL     1      -5.755   1.765 -31.149  1.00  0.00     0.145 C 
HETATM   17  C   UNL     1      -5.156   3.093 -31.494  1.00  0.00     0.239 C 
HETATM   18  O   UNL     1      -5.701   4.126 -31.138  1.00  0.00    -0.272 OA
HETATM   19  N   UNL     1      -4.016   2.909 -32.251  1.00  0.00    -0.252 N 
HETATM   20  C   UNL     1      -3.639   1.584 -32.264  1.00  0.00     0.238 C 
HETATM   21  O   UNL     1      -2.690   1.038 -32.803  1.00  0.00    -0.272 OA
HETATM   22  C   UNL     1     -10.286   3.089 -32.343  1.00  0.00     0.033 A 
HETATM   23  C   UNL     1     -10.050   4.115 -33.258  1.00  0.00     0.039 A 
HETATM   24  H   UNL     1     -10.058   0.880 -30.642  1.00  0.00     0.169 HD
ENDROOT
BRANCH   1  25
HETATM   25  O   UNL     1      -8.703   5.364 -34.692  1.00  0.00    -0.356 OA
HETATM   26  C   UNL     1      -9.938   5.895 -35.160  1.00  0.00     0.210 C 
ENDBRANCH   1  25
BRANCH  19  27
HETATM   27  C   UNL     1      -3.318   3.957 -32.944  1.00  0.00     0.045 A 
HETATM   28  C   UNL     1      -2.066   4.427 -32.509  1.00  0.00     0.030 A 
HETATM   29  C   UNL     1      -1.416   5.494 -33.144  1.00  0.00     0.002 A 
HETATM   30  C   UNL     1      -1.998   6.119 -34.237  1.00  0.00     0.000 A 
HETATM   31  C   UNL     1      -3.225   5.669 -34.702  1.00  0.00     0.002 A 
HETATM   32  C   UNL     1      -3.872   4.603 -34.066  1.00  0.00     0.030 A 
ENDBRANCH  19  27
TORSDOF 2
ENDMDL
MODEL 7
REMARK VINA RESULT:      -8.8      1.971      5.694
REMARK  2 active torsions:
REMARK  status: ('A' for Active; 'I' for Inactive)
REMARK    1  A    between atoms: O_2  and  C_3 
REMARK    2  A    between atoms: N_21  and  C_22 
ROOT
HETATM    1  C   UNL     1      -6.558  -0.945 -33.814  1.00  0.00     0.069 A 
HETATM    2  C   UNL     1      -6.996   0.319 -33.403  1.00  0.00     0.049 A 
HETATM    3  C   UNL     1      -6.328   0.943 -32.355  1.00  0.00     0.018 A 
HETATM    4  C   UNL     1      -5.229   0.314 -31.760  1.00  0.00     0.044 A 
HETATM    5  N   UNL     1      -4.681   1.115 -30.772  1.00  0.00    -0.324 N 
HETATM    6  C   UNL     1      -5.376   2.302 -30.653  1.00  0.00     0.264 A 
HETATM    7  O   UNL     1      -5.110   3.227 -29.904  1.00  0.00    -0.270 OA
HETATM    8  C   UNL     1      -6.534   2.293 -31.720  1.00  0.00     0.250 A 
HETATM    9  N   UNL     1      -6.408   3.427 -32.721  1.00  0.00    -0.043 N 
HETATM   10  H   UNL     1      -7.020   3.199 -33.518  1.00  0.00     0.282 HD
HETATM   11  C   UNL     1      -6.923   4.648 -32.006  1.00  0.00     0.204 C 
HETATM   12  C   UNL     1      -6.849   5.660 -33.124  1.00  0.00     0.036 C 
HETATM   13  C   UNL     1      -5.494   5.317 -33.787  1.00  0.00     0.030 C 
HETATM   14  C   UNL     1      -5.130   3.887 -33.344  1.00  0.00     0.237 C 
HETATM   15  C   UNL     1      -8.146   4.135 -31.280  1.00  0.00     0.126 C 
HETATM   16  C   UNL     1      -7.849   2.660 -30.981  1.00  0.00     0.145 C 
HETATM   17  C   UNL     1      -9.054   1.949 -31.513  1.00  0.00     0.239 C 
HETATM   18  O   UNL     1      -9.229   0.765 -31.268  1.00  0.00    -0.272 OA
HETATM   19  N   UNL     1      -9.805   2.813 -32.284  1.00  0.00    -0.252 N 
HETATM   20  C   UNL     1      -9.363   4.111 -32.145  1.00  0.00     0.238 C 
HETATM   21  O   UNL     1      -9.775   5.144 -32.649  1.00  0.00    -0.272 OA
HETATM   22  C   UNL     1      -4.767  -0.922 -32.154  1.00  0.00     0.033 A 
HETATM   23  C   UNL     1      -5.445  -1.549 -33.199  1.00  0.00     0.039 A 
HETATM   24  H   UNL     1      -3.880   0.873 -30.200  1.00  0.00     0.169 HD
ENDROOT
BRANCH   1  25
HETATM   25  O   UNL     1      -7.106  -1.680 -34.829  1.00  0.00    -0.356 OA
HETATM   26  C   UNL     1      -6.864  -3.082 -34.816  1.00  0.00     0.210 C 
ENDBRANCH   1  25
BRANCH  19  27
HETATM   27  C   UNL     1     -10.897   2.416 -33.129  1.00  0.00     0.045 A 
HETATM   28  C   UNL     1     -10.695   1.650 -34.291  1.00  0.00     0.030 A 
HETATM   29  C   UNL     1     -11.750   1.320 -35.152  1.00  0.00     0.002 A 
HETATM   30  C   UNL     1     -13.041   1.743 -34.872  1.00  0.00     0.000 A 
HETATM   31  C   UNL     1     -13.278   2.486 -33.725  1.00  0.00     0.002 A 
HETATM   32  C   UNL     1     -12.222   2.814 -32.867  1.00  0.00     0.030 A 
ENDBRANCH  19  27
TORSDOF 2
ENDMDL
MODEL 8
REMARK VINA RESULT:      -8.8     14.677     16.662
REMARK  2 active torsions:
REMARK  status: ('A' for Active; 'I' for Inactive)
REMARK    1  A    between atoms: O_2  and  C_3 
REMARK    2  A    between atoms: N_21  and  C_22 
ROOT
HETATM    1  C   UNL     1      -6.728 -16.175 -35.670  1.00  0.00     0.069 A 
HETATM    2  C   UNL     1      -6.386 -15.431 -36.805  1.00  0.00     0.049 A 
HETATM    3  C   UNL     1      -5.213 -14.684 -36.779  1.00  0.00     0.018 A 
HETATM    4  C   UNL     1      -4.395 -14.716 -35.644  1.00  0.00     0.044 A 
HETATM    5  N   UNL     1      -3.261 -13.945 -35.836  1.00  0.00    -0.324 N 
HETATM    6  C   UNL     1      -3.261 -13.364 -37.088  1.00  0.00     0.264 A 
HETATM    7  O   UNL     1      -2.379 -12.668 -37.566  1.00  0.00    -0.270 OA
HETATM    8  C   UNL     1      -4.568 -13.826 -37.835  1.00  0.00     0.250 A 
HETATM    9  N   UNL     1      -4.266 -14.601 -39.104  1.00  0.00    -0.043 N 
HETATM   10  H   UNL     1      -5.133 -15.087 -39.378  1.00  0.00     0.282 HD
HETATM   11  C   UNL     1      -3.911 -13.558 -40.132  1.00  0.00     0.204 C 
HETATM   12  C   UNL     1      -3.746 -14.434 -41.351  1.00  0.00     0.036 C 
HETATM   13  C   UNL     1      -2.986 -15.654 -40.777  1.00  0.00     0.030 C 
HETATM   14  C   UNL     1      -3.192 -15.630 -39.250  1.00  0.00     0.237 C 
HETATM   15  C   UNL     1      -4.930 -12.468 -39.888  1.00  0.00     0.126 C 
HETATM   16  C   UNL     1      -5.259 -12.552 -38.391  1.00  0.00     0.145 C 
HETATM   17  C   UNL     1      -6.754 -12.622 -38.368  1.00  0.00     0.239 C 
HETATM   18  O   UNL     1      -7.360 -12.508 -37.313  1.00  0.00    -0.272 OA
HETATM   19  N   UNL     1      -7.231 -12.860 -39.641  1.00  0.00    -0.252 N 
HETATM   20  C   UNL     1      -6.229 -12.728 -40.578  1.00  0.00     0.238 C 
HETATM   21  O   UNL     1      -6.263 -12.846 -41.792  1.00  0.00    -0.272 OA
HETATM   22  C   UNL     1      -4.698 -15.451 -34.520  1.00  0.00     0.033 A 
HETATM   23  C   UNL     1      -5.881 -16.190 -34.546  1.00  0.00     0.039 A 
HETATM   24  H   UNL     1      -2.522 -13.812 -35.155  1.00  0.00     0.169 HD
ENDROOT
BRANCH   1  25
HETATM   25  O   UNL     1      -7.841 -16.959 -35.545  1.00  0.00    -0.356 OA
HETATM   26  C   UNL     1      -8.211 -17.741 -36.675  1.00  0.00     0.210 C 
ENDBRANCH   1  25
BRANCH  19  27
HETATM   27  C   UNL     1      -8.590 -13.211 -39.953  1.00  0.00     0.045 A 
HETATM   28  C   UNL     1      -8.959 -14.528 -40.279  1.00  0.00     0.030 A 
HETATM   29  C   UNL     1     -10.270 -14.858 -40.648  1.00  0.00     0.002 A 
HETATM   30  C   UNL     1     -11.251 -13.879 -40.698  1.00  0.00     0.000 A 
HETATM   31  C   UNL     1     -10.924 -12.572 -40.366  1.00  0.00     0.002 A 
HETATM   32  C   UNL     1      -9.614 -12.246 -39.997  1.00  0.00     0.030 A 
ENDBRANCH  19  27
TORSDOF 2
ENDMDL
MODEL 9
REMARK VINA RESULT:      -8.2      2.442      6.105
REMARK  2 active torsions:
REMARK  status: ('A' for Active; 'I' for Inactive)
REMARK    1  A    between atoms: O_2  and  C_3 
REMARK    2  A    between atoms: N_21  and  C_22 
ROOT
HETATM    1  C   UNL     1      -7.689   5.618 -29.486  1.00  0.00     0.069 A 
HETATM    2  C   UNL     1      -7.579   4.644 -30.485  1.00  0.00     0.049 A 
HETATM    3  C   UNL     1      -6.310   4.301 -30.938  1.00  0.00     0.018 A 
HETATM    4  C   UNL     1      -5.183   4.907 -30.372  1.00  0.00     0.044 A 
HETATM    5  N   UNL     1      -4.021   4.397 -30.927  1.00  0.00    -0.324 N 
HETATM    6  C   UNL     1      -4.305   3.440 -31.881  1.00  0.00     0.264 A 
HETATM    7  O   UNL     1      -3.494   2.781 -32.511  1.00  0.00    -0.270 OA
HETATM    8  C   UNL     1      -5.869   3.283 -31.957  1.00  0.00     0.250 A 
HETATM    9  N   UNL     1      -6.328   1.879 -31.606  1.00  0.00    -0.043 N 
HETATM   10  H   UNL     1      -7.339   1.928 -31.417  1.00  0.00     0.282 HD
HETATM   11  C   UNL     1      -6.071   1.057 -32.842  1.00  0.00     0.204 C 
HETATM   12  C   UNL     1      -6.662  -0.264 -32.408  1.00  0.00     0.036 C 
HETATM   13  C   UNL     1      -6.173  -0.376 -30.945  1.00  0.00     0.030 C 
HETATM   14  C   UNL     1      -5.774   1.045 -30.498  1.00  0.00     0.237 C 
HETATM   15  C   UNL     1      -6.521   1.965 -33.964  1.00  0.00     0.126 C 
HETATM   16  C   UNL     1      -6.274   3.391 -33.452  1.00  0.00     0.145 C 
HETATM   17  C   UNL     1      -7.590   4.070 -33.669  1.00  0.00     0.239 C 
HETATM   18  O   UNL     1      -7.688   5.280 -33.540  1.00  0.00    -0.272 OA
HETATM   19  N   UNL     1      -8.558   3.131 -33.966  1.00  0.00    -0.252 N 
HETATM   20  C   UNL     1      -7.993   1.897 -34.206  1.00  0.00     0.238 C 
HETATM   21  O   UNL     1      -8.514   0.836 -34.509  1.00  0.00    -0.272 OA
HETATM   22  C   UNL     1      -5.261   5.857 -29.378  1.00  0.00     0.033 A 
HETATM   23  C   UNL     1      -6.535   6.206 -28.934  1.00  0.00     0.039 A 
HETATM   24  H   UNL     1      -3.081   4.683 -30.680  1.00  0.00     0.169 HD
ENDROOT
BRANCH   1  25
HETATM   25  O   UNL     1      -8.861   6.058 -28.937  1.00  0.00    -0.356 OA
HETATM   26  C   UNL     1      -8.780   7.146 -28.023  1.00  0.00     0.210 C 
ENDBRANCH   1  25
BRANCH  19  27
HETATM   27  C   UNL     1      -9.970   3.398 -34.009  1.00  0.00     0.045 A 
HETATM   28  C   UNL     1     -10.816   3.091 -32.929  1.00  0.00     0.030 A 
HETATM   29  C   UNL     1     -12.202   3.288 -32.996  1.00  0.00     0.002 A 
HETATM   30  C   UNL     1     -12.781   3.803 -34.147  1.00  0.00     0.000 A 
HETATM   31  C   UNL     1     -11.973   4.131 -35.225  1.00  0.00     0.002 A 
HETATM   32  C   UNL     1     -10.589   3.933 -35.155  1.00  0.00     0.030 A 
ENDBRANCH  19  27
TORSDOF 2
ENDMDL
MODEL 10
REMARK VINA RESULT:      -8.2     14.823     17.588
REMARK  2 active torsions:
REMARK  status: ('A' for Active; 'I' for Inactive)
REMARK    1  A    between atoms: O_2  and  C_3 
REMARK    2  A    between atoms: N_21  and  C_22 
ROOT
HETATM    1  C   UNL     1      -0.693 -14.934 -37.598  1.00  0.00     0.069 A 
HETATM    2  C   UNL     1      -2.056 -14.896 -37.914  1.00  0.00     0.049 A 
HETATM    3  C   UNL     1      -2.429 -14.476 -39.186  1.00  0.00     0.018 A 
HETATM    4  C   UNL     1      -1.446 -14.133 -40.121  1.00  0.00     0.044 A 
HETATM    5  N   UNL     1      -2.020 -13.786 -41.332  1.00  0.00    -0.324 N 
HETATM    6  C   UNL     1      -3.397 -13.875 -41.273  1.00  0.00     0.264 A 
HETATM    7  O   UNL     1      -4.177 -13.677 -42.190  1.00  0.00    -0.270 OA
HETATM    8  C   UNL     1      -3.788 -14.362 -39.828  1.00  0.00     0.250 A 
HETATM    9  N   UNL     1      -4.530 -15.686 -39.843  1.00  0.00    -0.043 N 
HETATM   10  H   UNL     1      -4.508 -16.059 -38.884  1.00  0.00     0.282 HD
HETATM   11  C   UNL     1      -5.944 -15.343 -40.234  1.00  0.00     0.204 C 
HETATM   12  C   UNL     1      -6.590 -16.702 -40.106  1.00  0.00     0.036 C 
HETATM   13  C   UNL     1      -5.520 -17.632 -40.725  1.00  0.00     0.030 C 
HETATM   14  C   UNL     1      -4.190 -16.853 -40.713  1.00  0.00     0.237 C 
HETATM   15  C   UNL     1      -6.229 -14.088 -39.441  1.00  0.00     0.126 C 
HETATM   16  C   UNL     1      -4.871 -13.390 -39.287  1.00  0.00     0.145 C 
HETATM   17  C   UNL     1      -4.773 -13.142 -37.815  1.00  0.00     0.239 C 
HETATM   18  O   UNL     1      -3.888 -12.428 -37.368  1.00  0.00    -0.272 OA
HETATM   19  N   UNL     1      -5.756 -13.850 -37.154  1.00  0.00    -0.252 N 
HETATM   20  C   UNL     1      -6.669 -14.376 -38.043  1.00  0.00     0.238 C 
HETATM   21  O   UNL     1      -7.672 -15.041 -37.843  1.00  0.00    -0.272 OA
HETATM   22  C   UNL     1      -0.098 -14.175 -39.842  1.00  0.00     0.033 A 
HETATM   23  C   UNL     1       0.272 -14.587 -38.563  1.00  0.00     0.039 A 
HETATM   24  H   UNL     1      -1.511 -13.499 -42.160  1.00  0.00     0.169 HD
ENDROOT
BRANCH   1  25
HETATM   25  O   UNL     1      -0.171 -15.328 -36.397  1.00  0.00    -0.356 OA
HETATM   26  C   UNL     1      -1.028 -15.251 -35.264  1.00  0.00     0.210 C 
ENDBRANCH   1  25
BRANCH  19  27
HETATM   27  C   UNL     1      -5.819 -14.027 -35.729  1.00  0.00     0.045 A 
HETATM   28  C   UNL     1      -4.869 -14.797 -35.035  1.00  0.00     0.030 A 
HETATM   29  C   UNL     1      -4.967 -15.025 -33.656  1.00  0.00     0.002 A 
HETATM   30  C   UNL     1      -6.019 -14.486 -32.930  1.00  0.00     0.000 A 
HETATM   31  C   UNL     1      -6.965 -13.708 -33.581  1.00  0.00     0.002 A 
HETATM   32  C   UNL     1      -6.864 -13.481 -34.959  1.00  0.00     0.030 A 
ENDBRANCH  19  27
TORSDOF 2
ENDMDL
