MODEL 1
REMARK VINA RESULT:      -8.2      0.000      0.000
REMARK  3 active torsions:
REMARK  status: ('A' for Active; 'I' for Inactive)
REMARK    1  A    between atoms: C_2  and  N_3 
REMARK       I    between atoms: N_3  and  C_4 
REMARK    2  A    between atoms: C_4  and  C_5 
REMARK    3  A    between atoms: C_5  and  C_6 
ROOT
HETATM    1  C   UNL     1      -5.148   1.570 -31.510  1.00  0.00     0.286 C 
HETATM    2  N   UNL     1      -4.147   2.158 -32.511  1.00  0.00    -0.056 N 
HETATM    3  H   UNL     1      -3.505   1.405 -32.822  1.00  0.00     0.278 HD
HETATM    4  H   UNL     1      -4.656   2.470 -33.349  1.00  0.00     0.278 HD
HETATM    5  C   UNL     1      -3.298   3.281 -31.973  1.00  0.00     0.209 C 
HETATM    6  C   UNL     1      -4.203   4.333 -31.306  1.00  0.00     0.115 C 
HETATM    7  N   UNL     1      -5.024   3.735 -30.267  1.00  0.00    -0.353 N 
HETATM    8  C   UNL     1      -5.661   2.533 -30.424  1.00  0.00     0.249 C 
HETATM    9  O   UNL     1      -6.595   2.233 -29.687  1.00  0.00    -0.271 OA
HETATM   10  C   UNL     1      -2.480   3.891 -33.106  1.00  0.00     0.035 C 
HETATM   11  C   UNL     1      -1.636   5.054 -32.583  1.00  0.00     0.002 C 
HETATM   12  C   UNL     1      -2.481   6.097 -31.850  1.00  0.00     0.002 C 
HETATM   13  C   UNL     1      -3.349   5.476 -30.754  1.00  0.00     0.027 C 
HETATM   14  H   UNL     1      -5.475   4.340 -29.583  1.00  0.00     0.163 HD
ENDROOT
BRANCH   1  15
HETATM   15  C   UNL     1      -4.677   0.242 -30.910  1.00  0.00     0.146 C 
BRANCH  15  16
HETATM   16  C   UNL     1      -3.473  -0.291 -31.622  1.00  0.00     0.224 C 
HETATM   17  N   UNL     1      -3.472  -1.156 -32.659  1.00  0.00    -0.327 N 
HETATM   18  H   UNL     1      -2.514  -1.346 -32.944  1.00  0.00     0.169 HD
HETATM   19  O   UNL     1      -2.372   0.002 -31.125  1.00  0.00    -0.273 OA
BRANCH  17  20
HETATM   20  C   UNL     1      -4.437  -1.845 -33.419  1.00  0.00     0.034 A 
HETATM   21  C   UNL     1      -5.670  -1.354 -33.844  1.00  0.00     0.032 A 
HETATM   22  C   UNL     1      -6.552  -2.167 -34.570  1.00  0.00     0.044 A 
HETATM   23  C   UNL     1      -6.202  -3.472 -34.881  1.00  0.00     0.116 A 
HETATM   24  C   UNL     1      -4.978  -3.982 -34.485  1.00  0.00     0.044 A 
HETATM   25  F   UNL     1      -7.051  -4.241 -35.570  1.00  0.00    -0.206 F 
HETATM   26  C   UNL     1      -4.100  -3.170 -33.759  1.00  0.00     0.032 A 
ENDBRANCH  17  20
ENDBRANCH  15  16
ENDBRANCH   1  15
TORSDOF 3
ENDMDL
MODEL 2
REMARK VINA RESULT:      -8.1      3.324      5.947
REMARK  3 active torsions:
REMARK  status: ('A' for Active; 'I' for Inactive)
REMARK    1  A    between atoms: C_2  and  N_3 
REMARK       I    between atoms: N_3  and  C_4 
REMARK    2  A    between atoms: C_4  and  C_5 
REMARK    3  A    between atoms: C_5  and  C_6 
ROOT
HETATM    1  C   UNL     1      -5.015   1.875 -32.444  1.00  0.00     0.286 C 
HETATM    2  N   UNL     1      -5.884   1.202 -33.513  1.00  0.00    -0.056 N 
HETATM    3  H   UNL     1      -6.872   1.483 -33.364  1.00  0.00     0.278 HD
HETATM    4  H   UNL     1      -5.616   1.564 -34.438  1.00  0.00     0.278 HD
HETATM    5  C   UNL     1      -5.839  -0.304 -33.512  1.00  0.00     0.209 C 
HETATM    6  C   UNL     1      -4.371  -0.771 -33.517  1.00  0.00     0.115 C 
HETATM    7  N   UNL     1      -3.639  -0.211 -32.395  1.00  0.00    -0.353 N 
HETATM    8  C   UNL     1      -3.761   1.097 -32.008  1.00  0.00     0.249 C 
HETATM    9  O   UNL     1      -2.898   1.611 -31.302  1.00  0.00    -0.271 OA
HETATM   10  C   UNL     1      -6.596  -0.839 -34.723  1.00  0.00     0.035 C 
HETATM   11  C   UNL     1      -6.532  -2.367 -34.754  1.00  0.00     0.002 C 
HETATM   12  C   UNL     1      -5.094  -2.886 -34.692  1.00  0.00     0.002 C 
HETATM   13  C   UNL     1      -4.315  -2.300 -33.513  1.00  0.00     0.027 C 
HETATM   14  H   UNL     1      -2.746  -0.625 -32.130  1.00  0.00     0.163 HD
ENDROOT
BRANCH   1  15
HETATM   15  C   UNL     1      -5.826   2.361 -31.239  1.00  0.00     0.146 C 
BRANCH  15  16
HETATM   16  C   UNL     1      -6.545   1.234 -30.565  1.00  0.00     0.224 C 
HETATM   17  N   UNL     1      -7.814   0.838 -30.799  1.00  0.00    -0.327 N 
HETATM   18  H   UNL     1      -8.042   0.050 -30.197  1.00  0.00     0.169 HD
HETATM   19  O   UNL     1      -5.947   0.698 -29.616  1.00  0.00    -0.273 OA
BRANCH  17  20
HETATM   20  C   UNL     1      -8.873   1.237 -31.637  1.00  0.00     0.034 A 
HETATM   21  C   UNL     1      -9.421   2.514 -31.738  1.00  0.00     0.032 A 
HETATM   22  C   UNL     1     -10.502   2.764 -32.595  1.00  0.00     0.044 A 
HETATM   23  C   UNL     1     -11.035   1.738 -33.362  1.00  0.00     0.116 A 
HETATM   24  C   UNL     1     -10.502   0.463 -33.293  1.00  0.00     0.044 A 
HETATM   25  F   UNL     1     -12.069   1.984 -34.173  1.00  0.00    -0.206 F 
HETATM   26  C   UNL     1      -9.424   0.216 -32.436  1.00  0.00     0.032 A 
ENDBRANCH  17  20
ENDBRANCH  15  16
ENDBRANCH   1  15
TORSDOF 3
ENDMDL
MODEL 3
REMARK VINA RESULT:      -7.9      1.956      2.632
REMARK  3 active torsions:
REMARK  status: ('A' for Active; 'I' for Inactive)
REMARK    1  A    between atoms: C_2  and  N_3 
REMARK       I    between atoms: N_3  and  C_4 
REMARK    2  A    between atoms: C_4  and  C_5 
REMARK    3  A    between atoms: C_5  and  C_6 
ROOT
HETATM    1  C   UNL     1      -5.318   3.449 -32.335  1.00  0.00     0.286 C 
HETATM    2  N   UNL     1      -4.716   4.142 -33.562  1.00  0.00    -0.056 N 
HETATM    3  H   UNL     1      -4.826   3.520 -34.385  1.00  0.00     0.278 HD
HETATM    4  H   UNL     1      -5.259   4.992 -33.767  1.00  0.00     0.278 HD
HETATM    5  C   UNL     1      -3.252   4.479 -33.446  1.00  0.00     0.209 C 
HETATM    6  C   UNL     1      -3.002   5.227 -32.123  1.00  0.00     0.115 C 
HETATM    7  N   UNL     1      -3.467   4.451 -30.987  1.00  0.00    -0.353 N 
HETATM    8  C   UNL     1      -4.663   3.783 -30.983  1.00  0.00     0.249 C 
HETATM    9  O   UNL     1      -5.169   3.437 -29.920  1.00  0.00    -0.271 OA
HETATM   10  C   UNL     1      -2.822   5.317 -34.646  1.00  0.00     0.035 C 
HETATM   11  C   UNL     1      -1.345   5.695 -34.527  1.00  0.00     0.002 C 
HETATM   12  C   UNL     1      -1.031   6.381 -33.196  1.00  0.00     0.002 C 
HETATM   13  C   UNL     1      -1.517   5.571 -31.994  1.00  0.00     0.027 C 
HETATM   14  H   UNL     1      -3.145   4.699 -30.053  1.00  0.00     0.163 HD
ENDROOT
BRANCH   1  15
HETATM   15  C   UNL     1      -5.480   1.938 -32.526  1.00  0.00     0.146 C 
BRANCH  15  16
HETATM   16  C   UNL     1      -6.488   1.619 -33.587  1.00  0.00     0.224 C 
HETATM   17  N   UNL     1      -6.637   0.437 -34.222  1.00  0.00    -0.327 N 
HETATM   18  H   UNL     1      -7.397   0.505 -34.895  1.00  0.00     0.169 HD
HETATM   19  O   UNL     1      -7.165   2.577 -33.999  1.00  0.00    -0.273 OA
BRANCH  17  20
HETATM   20  C   UNL     1      -6.016  -0.826 -34.194  1.00  0.00     0.034 A 
HETATM   21  C   UNL     1      -4.742  -1.118 -33.711  1.00  0.00     0.032 A 
HETATM   22  C   UNL     1      -4.235  -2.424 -33.775  1.00  0.00     0.044 A 
HETATM   23  C   UNL     1      -5.002  -3.445 -34.315  1.00  0.00     0.116 A 
HETATM   24  C   UNL     1      -6.277  -3.187 -34.788  1.00  0.00     0.044 A 
HETATM   25  F   UNL     1      -4.508  -4.686 -34.376  1.00  0.00    -0.206 F 
HETATM   26  C   UNL     1      -6.781  -1.884 -34.724  1.00  0.00     0.032 A 
ENDBRANCH  17  20
ENDBRANCH  15  16
ENDBRANCH   1  15
TORSDOF 3
ENDMDL
MODEL 4
REMARK VINA RESULT:      -7.8     15.546     17.232
REMARK  3 active torsions:
REMARK  status: ('A' for Active; 'I' for Inactive)
REMARK    1  A    between atoms: C_2  and  N_3 
REMARK       I    between atoms: N_3  and  C_4 
REMARK    2  A    between atoms: C_4  and  C_5 
REMARK    3  A    between atoms: C_5  and  C_6 
ROOT
HETATM    1  C   UNL     1      -4.616 -14.017 -40.517  1.00  0.00     0.286 C 
HETATM    2  N   UNL     1      -3.870 -14.400 -39.234  1.00  0.00    -0.056 N 
HETATM    3  H   UNL     1      -4.306 -13.903 -38.434  1.00  0.00     0.278 HD
HETATM    4  H   UNL     1      -4.002 -15.405 -39.057  1.00  0.00     0.278 HD
HETATM    5  C   UNL     1      -2.402 -14.061 -39.229  1.00  0.00     0.209 C 
HETATM    6  C   UNL     1      -1.748 -14.601 -40.514  1.00  0.00     0.115 C 
HETATM    7  N   UNL     1      -2.414 -14.085 -41.697  1.00  0.00    -0.353 N 
HETATM    8  C   UNL     1      -3.777 -14.007 -41.807  1.00  0.00     0.249 C 
HETATM    9  O   UNL     1      -4.298 -13.897 -42.912  1.00  0.00    -0.271 OA
HETATM   10  C   UNL     1      -1.746 -14.649 -37.983  1.00  0.00     0.035 C 
HETATM   11  C   UNL     1      -0.248 -14.342 -37.979  1.00  0.00     0.002 C 
HETATM   12  C   UNL     1       0.439 -14.797 -39.268  1.00  0.00     0.002 C 
HETATM   13  C   UNL     1      -0.256 -14.259 -40.519  1.00  0.00     0.027 C 
HETATM   14  H   UNL     1      -1.943 -14.150 -42.598  1.00  0.00     0.163 HD
ENDROOT
BRANCH   1  15
HETATM   15  C   UNL     1      -5.436 -12.732 -40.366  1.00  0.00     0.146 C 
BRANCH  15  16
HETATM   16  C   UNL     1      -5.950 -12.565 -38.970  1.00  0.00     0.224 C 
HETATM   17  N   UNL     1      -7.222 -12.751 -38.555  1.00  0.00    -0.327 N 
HETATM   18  H   UNL     1      -7.286 -12.565 -37.557  1.00  0.00     0.169 HD
HETATM   19  O   UNL     1      -5.147 -12.090 -38.148  1.00  0.00    -0.273 OA
BRANCH  17  20
HETATM   20  C   UNL     1      -8.447 -13.121 -39.143  1.00  0.00     0.034 A 
HETATM   21  C   UNL     1      -8.956 -14.412 -39.268  1.00  0.00     0.032 A 
HETATM   22  C   UNL     1     -10.182 -14.639 -39.909  1.00  0.00     0.044 A 
HETATM   23  C   UNL     1     -10.908 -13.575 -40.423  1.00  0.00     0.116 A 
HETATM   24  C   UNL     1     -10.433 -12.280 -40.301  1.00  0.00     0.044 A 
HETATM   25  F   UNL     1     -12.074 -13.801 -41.038  1.00  0.00    -0.206 F 
HETATM   26  C   UNL     1      -9.210 -12.056 -39.661  1.00  0.00     0.032 A 
ENDBRANCH  17  20
ENDBRANCH  15  16
ENDBRANCH   1  15
TORSDOF 3
ENDMDL
MODEL 5
REMARK VINA RESULT:      -7.8      2.739      4.332
REMARK  3 active torsions:
REMARK  status: ('A' for Active; 'I' for Inactive)
REMARK    1  A    between atoms: C_2  and  N_3 
REMARK       I    between atoms: N_3  and  C_4 
REMARK    2  A    between atoms: C_4  and  C_5 
REMARK    3  A    between atoms: C_5  and  C_6 
ROOT
HETATM    1  C   UNL     1      -6.327   0.813 -30.393  1.00  0.00     0.286 C 
HETATM    2  N   UNL     1      -7.534   0.108 -31.021  1.00  0.00    -0.056 N 
HETATM    3  H   UNL     1      -7.205  -0.747 -31.508  1.00  0.00     0.278 HD
HETATM    4  H   UNL     1      -8.164  -0.210 -30.272  1.00  0.00     0.278 HD
HETATM    5  C   UNL     1      -8.299   0.932 -32.025  1.00  0.00     0.209 C 
HETATM    6  C   UNL     1      -8.629   2.306 -31.413  1.00  0.00     0.115 C 
HETATM    7  N   UNL     1      -7.423   2.984 -30.968  1.00  0.00    -0.353 N 
HETATM    8  C   UNL     1      -6.421   2.345 -30.288  1.00  0.00     0.249 C 
HETATM    9  O   UNL     1      -5.606   2.997 -29.643  1.00  0.00    -0.271 OA
HETATM   10  C   UNL     1      -9.566   0.189 -32.437  1.00  0.00     0.035 C 
HETATM   11  C   UNL     1     -10.370   1.028 -33.432  1.00  0.00     0.002 C 
HETATM   12  C   UNL     1     -10.666   2.430 -32.899  1.00  0.00     0.002 C 
HETATM   13  C   UNL     1      -9.403   3.152 -32.427  1.00  0.00     0.027 C 
HETATM   14  H   UNL     1      -7.459   3.985 -30.781  1.00  0.00     0.163 HD
ENDROOT
BRANCH   1  15
HETATM   15  C   UNL     1      -4.995   0.369 -31.006  1.00  0.00     0.146 C 
BRANCH  15  16
HETATM   16  C   UNL     1      -4.827   0.890 -32.400  1.00  0.00     0.224 C 
HETATM   17  N   UNL     1      -4.964   0.183 -33.542  1.00  0.00    -0.327 N 
HETATM   18  H   UNL     1      -4.791   0.788 -34.341  1.00  0.00     0.169 HD
HETATM   19  O   UNL     1      -4.402   2.053 -32.499  1.00  0.00    -0.273 OA
BRANCH  17  20
HETATM   20  C   UNL     1      -5.269  -1.147 -33.894  1.00  0.00     0.034 A 
HETATM   21  C   UNL     1      -4.377  -2.215 -33.968  1.00  0.00     0.032 A 
HETATM   22  C   UNL     1      -4.814  -3.486 -34.366  1.00  0.00     0.044 A 
HETATM   23  C   UNL     1      -6.147  -3.697 -34.684  1.00  0.00     0.116 A 
HETATM   24  C   UNL     1      -7.058  -2.658 -34.605  1.00  0.00     0.044 A 
HETATM   25  F   UNL     1      -6.555  -4.911 -35.067  1.00  0.00    -0.206 F 
HETATM   26  C   UNL     1      -6.619  -1.390 -34.209  1.00  0.00     0.032 A 
ENDBRANCH  17  20
ENDBRANCH  15  16
ENDBRANCH   1  15
TORSDOF 3
ENDMDL
MODEL 6
REMARK VINA RESULT:      -7.8      3.354      4.940
REMARK  3 active torsions:
REMARK  status: ('A' for Active; 'I' for Inactive)
REMARK    1  A    between atoms: C_2  and  N_3 
REMARK       I    between atoms: N_3  and  C_4 
REMARK    2  A    between atoms: C_4  and  C_5 
REMARK    3  A    between atoms: C_5  and  C_6 
ROOT
HETATM    1  C   UNL     1      -6.583   2.959 -32.601  1.00  0.00     0.286 C 
HETATM    2  N   UNL     1      -7.486   1.898 -31.961  1.00  0.00    -0.056 N 
HETATM    3  H   UNL     1      -6.901   1.087 -31.682  1.00  0.00     0.278 HD
HETATM    4  H   UNL     1      -7.887   2.279 -31.094  1.00  0.00     0.278 HD
HETATM    5  C   UNL     1      -8.583   1.376 -32.853  1.00  0.00     0.209 C 
HETATM    6  C   UNL     1      -9.352   2.562 -33.465  1.00  0.00     0.115 C 
HETATM    7  N   UNL     1      -8.456   3.454 -34.180  1.00  0.00    -0.353 N 
HETATM    8  C   UNL     1      -7.235   3.832 -33.688  1.00  0.00     0.249 C 
HETATM    9  O   UNL     1      -6.673   4.826 -34.137  1.00  0.00    -0.271 OA
HETATM   10  C   UNL     1      -9.509   0.470 -32.049  1.00  0.00     0.035 C 
HETATM   11  C   UNL     1     -10.647  -0.042 -32.932  1.00  0.00     0.002 C 
HETATM   12  C   UNL     1     -11.401   1.097 -33.620  1.00  0.00     0.002 C 
HETATM   13  C   UNL     1     -10.466   2.042 -34.375  1.00  0.00     0.027 C 
HETATM   14  H   UNL     1      -8.848   4.128 -34.836  1.00  0.00     0.163 HD
ENDROOT
BRANCH   1  15
HETATM   15  C   UNL     1      -5.237   2.392 -33.064  1.00  0.00     0.146 C 
BRANCH  15  16
HETATM   16  C   UNL     1      -4.668   1.432 -32.065  1.00  0.00     0.224 C 
HETATM   17  N   UNL     1      -4.640   0.086 -32.172  1.00  0.00    -0.327 N 
HETATM   18  H   UNL     1      -4.197  -0.312 -31.347  1.00  0.00     0.169 HD
HETATM   19  O   UNL     1      -4.300   1.926 -30.986  1.00  0.00    -0.273 OA
BRANCH  17  20
HETATM   20  C   UNL     1      -5.066  -0.876 -33.108  1.00  0.00     0.034 A 
HETATM   21  C   UNL     1      -6.338  -0.989 -33.667  1.00  0.00     0.032 A 
HETATM   22  C   UNL     1      -6.634  -2.022 -34.567  1.00  0.00     0.044 A 
HETATM   23  C   UNL     1      -5.658  -2.943 -34.917  1.00  0.00     0.116 A 
HETATM   24  C   UNL     1      -4.383  -2.847 -34.389  1.00  0.00     0.044 A 
HETATM   25  F   UNL     1      -5.951  -3.928 -35.773  1.00  0.00    -0.206 F 
HETATM   26  C   UNL     1      -4.090  -1.816 -33.490  1.00  0.00     0.032 A 
ENDBRANCH  17  20
ENDBRANCH  15  16
ENDBRANCH   1  15
TORSDOF 3
ENDMDL
MODEL 7
REMARK VINA RESULT:      -7.7      3.120      6.895
REMARK  3 active torsions:
REMARK  status: ('A' for Active; 'I' for Inactive)
REMARK    1  A    between atoms: C_2  and  N_3 
REMARK       I    between atoms: N_3  and  C_4 
REMARK    2  A    between atoms: C_4  and  C_5 
REMARK    3  A    between atoms: C_5  and  C_6 
ROOT
HETATM    1  C   UNL     1      -6.608   1.383 -31.698  1.00  0.00     0.286 C 
HETATM    2  N   UNL     1      -5.527   0.297 -31.756  1.00  0.00    -0.056 N 
HETATM    3  H   UNL     1      -4.599   0.743 -31.625  1.00  0.00     0.278 HD
HETATM    4  H   UNL     1      -5.655  -0.345 -30.962  1.00  0.00     0.278 HD
HETATM    5  C   UNL     1      -5.476  -0.479 -33.046  1.00  0.00     0.209 C 
HETATM    6  C   UNL     1      -6.889  -0.986 -33.394  1.00  0.00     0.115 C 
HETATM    7  N   UNL     1      -7.836   0.112 -33.465  1.00  0.00    -0.353 N 
HETATM    8  C   UNL     1      -7.866   1.128 -32.546  1.00  0.00     0.249 C 
HETATM    9  O   UNL     1      -8.867   1.829 -32.439  1.00  0.00    -0.271 OA
HETATM   10  C   UNL     1      -4.490  -1.635 -32.910  1.00  0.00     0.035 C 
HETATM   11  C   UNL     1      -4.451  -2.453 -34.201  1.00  0.00     0.002 C 
HETATM   12  C   UNL     1      -5.842  -2.923 -34.629  1.00  0.00     0.002 C 
HETATM   13  C   UNL     1      -6.848  -1.774 -34.705  1.00  0.00     0.027 C 
HETATM   14  H   UNL     1      -8.733  -0.037 -33.925  1.00  0.00     0.163 HD
ENDROOT
BRANCH   1  15
HETATM   15  C   UNL     1      -6.048   2.790 -31.928  1.00  0.00     0.146 C 
BRANCH  15  16
HETATM   16  C   UNL     1      -5.083   3.184 -30.852  1.00  0.00     0.224 C 
HETATM   17  N   UNL     1      -3.919   3.847 -31.023  1.00  0.00    -0.327 N 
HETATM   18  H   UNL     1      -3.467   3.979 -30.121  1.00  0.00     0.169 HD
HETATM   19  O   UNL     1      -5.328   2.748 -29.715  1.00  0.00    -0.273 OA
BRANCH  17  20
HETATM   20  C   UNL     1      -3.192   4.378 -32.105  1.00  0.00     0.034 A 
HETATM   21  C   UNL     1      -3.641   4.533 -33.415  1.00  0.00     0.032 A 
HETATM   22  C   UNL     1      -2.794   5.049 -34.406  1.00  0.00     0.044 A 
HETATM   23  C   UNL     1      -1.496   5.420 -34.090  1.00  0.00     0.116 A 
HETATM   24  C   UNL     1      -1.027   5.291 -32.794  1.00  0.00     0.044 A 
HETATM   25  F   UNL     1      -0.693   5.907 -35.042  1.00  0.00    -0.206 F 
HETATM   26  C   UNL     1      -1.874   4.775 -31.807  1.00  0.00     0.032 A 
ENDBRANCH  17  20
ENDBRANCH  15  16
ENDBRANCH   1  15
TORSDOF 3
ENDMDL
MODEL 8
REMARK VINA RESULT:      -7.5      1.922      3.192
REMARK  3 active torsions:
REMARK  status: ('A' for Active; 'I' for Inactive)
REMARK    1  A    between atoms: C_2  and  N_3 
REMARK       I    between atoms: N_3  and  C_4 
REMARK    2  A    between atoms: C_4  and  C_5 
REMARK    3  A    between atoms: C_5  and  C_6 
ROOT
HETATM    1  C   UNL     1      -6.132   0.751 -30.235  1.00  0.00     0.286 C 
HETATM    2  N   UNL     1      -6.891   1.936 -29.627  1.00  0.00    -0.056 N 
HETATM    3  H   UNL     1      -7.908   1.794 -29.778  1.00  0.00     0.278 HD
HETATM    4  H   UNL     1      -6.747   1.938 -28.608  1.00  0.00     0.278 HD
HETATM    5  C   UNL     1      -6.533   3.282 -30.203  1.00  0.00     0.209 C 
HETATM    6  C   UNL     1      -5.002   3.451 -30.194  1.00  0.00     0.115 C 
HETATM    7  N   UNL     1      -4.352   2.369 -30.912  1.00  0.00    -0.353 N 
HETATM    8  C   UNL     1      -4.725   1.058 -30.777  1.00  0.00     0.249 C 
HETATM    9  O   UNL     1      -3.957   0.163 -31.116  1.00  0.00    -0.271 OA
HETATM   10  C   UNL     1      -7.217   4.382 -29.398  1.00  0.00     0.035 C 
HETATM   11  C   UNL     1      -6.838   5.756 -29.950  1.00  0.00     0.002 C 
HETATM   12  C   UNL     1      -5.323   5.949 -30.027  1.00  0.00     0.002 C 
HETATM   13  C   UNL     1      -4.629   4.814 -30.781  1.00  0.00     0.027 C 
HETATM   14  H   UNL     1      -3.381   2.480 -31.202  1.00  0.00     0.163 HD
ENDROOT
BRANCH   1  15
HETATM   15  C   UNL     1      -6.970  -0.032 -31.250  1.00  0.00     0.146 C 
BRANCH  15  16
HETATM   16  C   UNL     1      -6.804   0.507 -32.638  1.00  0.00     0.224 C 
HETATM   17  N   UNL     1      -6.366  -0.177 -33.717  1.00  0.00    -0.327 N 
HETATM   18  H   UNL     1      -6.351   0.438 -34.527  1.00  0.00     0.169 HD
HETATM   19  O   UNL     1      -6.971   1.731 -32.769  1.00  0.00    -0.273 OA
BRANCH  17  20
HETATM   20  C   UNL     1      -5.931  -1.488 -33.991  1.00  0.00     0.034 A 
HETATM   21  C   UNL     1      -4.632  -1.978 -33.867  1.00  0.00     0.032 A 
HETATM   22  C   UNL     1      -4.333  -3.305 -34.208  1.00  0.00     0.044 A 
HETATM   23  C   UNL     1      -5.332  -4.150 -34.668  1.00  0.00     0.116 A 
HETATM   24  C   UNL     1      -6.634  -3.694 -34.786  1.00  0.00     0.044 A 
HETATM   25  F   UNL     1      -5.037  -5.412 -34.995  1.00  0.00    -0.206 F 
HETATM   26  C   UNL     1      -6.930  -2.370 -34.447  1.00  0.00     0.032 A 
ENDBRANCH  17  20
ENDBRANCH  15  16
ENDBRANCH   1  15
TORSDOF 3
ENDMDL
MODEL 9
REMARK VINA RESULT:      -7.4      5.390      7.608
REMARK  3 active torsions:
REMARK  status: ('A' for Active; 'I' for Inactive)
REMARK    1  A    between atoms: C_2  and  N_3 
REMARK       I    between atoms: N_3  and  C_4 
REMARK    2  A    between atoms: C_4  and  C_5 
REMARK    3  A    between atoms: C_5  and  C_6 
ROOT
HETATM    1  C   UNL     1      -7.888   0.933 -33.305  1.00  0.00     0.286 C 
HETATM    2  N   UNL     1      -7.882  -0.308 -34.204  1.00  0.00    -0.056 N 
HETATM    3  H   UNL     1      -8.815  -0.761 -34.155  1.00  0.00     0.278 HD
HETATM    4  H   UNL     1      -7.755  -0.013 -35.182  1.00  0.00     0.278 HD
HETATM    5  C   UNL     1      -6.856  -1.351 -33.841  1.00  0.00     0.209 C 
HETATM    6  C   UNL     1      -5.477  -0.681 -33.693  1.00  0.00     0.115 C 
HETATM    7  N   UNL     1      -5.519   0.395 -32.719  1.00  0.00    -0.353 N 
HETATM    8  C   UNL     1      -6.542   1.305 -32.660  1.00  0.00     0.249 C 
HETATM    9  O   UNL     1      -6.381   2.371 -32.075  1.00  0.00    -0.271 OA
HETATM   10  C   UNL     1      -6.833  -2.440 -34.908  1.00  0.00     0.035 C 
HETATM   11  C   UNL     1      -5.773  -3.489 -34.570  1.00  0.00     0.002 C 
HETATM   12  C   UNL     1      -4.395  -2.866 -34.345  1.00  0.00     0.002 C 
HETATM   13  C   UNL     1      -4.429  -1.731 -33.321  1.00  0.00     0.027 C 
HETATM   14  H   UNL     1      -4.644   0.752 -32.338  1.00  0.00     0.163 HD
ENDROOT
BRANCH   1  15
HETATM   15  C   UNL     1      -9.022   0.914 -32.275  1.00  0.00     0.146 C 
BRANCH  15  16
HETATM   16  C   UNL     1     -10.198   0.123 -32.760  1.00  0.00     0.224 C 
HETATM   17  N   UNL     1     -11.283   0.611 -33.398  1.00  0.00    -0.327 N 
HETATM   18  H   UNL     1     -11.925  -0.150 -33.609  1.00  0.00     0.169 HD
HETATM   19  O   UNL     1     -10.221  -1.074 -32.430  1.00  0.00    -0.273 OA
BRANCH  17  20
HETATM   20  C   UNL     1     -11.740   1.873 -33.824  1.00  0.00     0.034 A 
HETATM   21  C   UNL     1     -11.963   2.992 -33.025  1.00  0.00     0.032 A 
HETATM   22  C   UNL     1     -12.454   4.182 -33.582  1.00  0.00     0.044 A 
HETATM   23  C   UNL     1     -12.716   4.260 -34.941  1.00  0.00     0.116 A 
HETATM   24  C   UNL     1     -12.490   3.169 -35.761  1.00  0.00     0.044 A 
HETATM   25  F   UNL     1     -13.188   5.398 -35.462  1.00  0.00    -0.206 F 
HETATM   26  C   UNL     1     -12.002   1.982 -35.204  1.00  0.00     0.032 A 
ENDBRANCH  17  20
ENDBRANCH  15  16
ENDBRANCH   1  15
TORSDOF 3
ENDMDL
MODEL 10
REMARK VINA RESULT:      -7.3     15.097     17.762
REMARK  3 active torsions:
REMARK  status: ('A' for Active; 'I' for Inactive)
REMARK    1  A    between atoms: C_2  and  N_3 
REMARK       I    between atoms: N_3  and  C_4 
REMARK    2  A    between atoms: C_4  and  C_5 
REMARK    3  A    between atoms: C_5  and  C_6 
ROOT
HETATM    1  C   UNL     1      -3.103 -13.765 -39.787  1.00  0.00     0.286 C 
HETATM    2  N   UNL     1      -3.879 -13.552 -41.092  1.00  0.00    -0.056 N 
HETATM    3  H   UNL     1      -4.859 -13.301 -40.861  1.00  0.00     0.278 HD
HETATM    4  H   UNL     1      -3.482 -12.743 -41.589  1.00  0.00     0.278 HD
HETATM    5  C   UNL     1      -3.924 -14.750 -42.006  1.00  0.00     0.209 C 
HETATM    6  C   UNL     1      -2.496 -15.291 -42.210  1.00  0.00     0.115 C 
HETATM    7  N   UNL     1      -1.870 -15.609 -40.939  1.00  0.00    -0.353 N 
HETATM    8  C   UNL     1      -1.959 -14.792 -39.843  1.00  0.00     0.249 C 
HETATM    9  O   UNL     1      -1.157 -14.912 -38.922  1.00  0.00    -0.271 OA
HETATM   10  C   UNL     1      -4.563 -14.356 -43.334  1.00  0.00     0.035 C 
HETATM   11  C   UNL     1      -4.587 -15.553 -44.285  1.00  0.00     0.002 C 
HETATM   12  C   UNL     1      -3.201 -16.172 -44.469  1.00  0.00     0.002 C 
HETATM   13  C   UNL     1      -2.532 -16.510 -43.135  1.00  0.00     0.027 C 
HETATM   14  H   UNL     1      -1.041 -16.201 -40.930  1.00  0.00     0.163 HD
ENDROOT
BRANCH   1  15
HETATM   15  C   UNL     1      -4.021 -14.007 -38.584  1.00  0.00     0.146 C 
BRANCH  15  16
HETATM   16  C   UNL     1      -4.483 -12.721 -37.973  1.00  0.00     0.224 C 
HETATM   17  N   UNL     1      -5.726 -12.200 -38.044  1.00  0.00    -0.327 N 
HETATM   18  H   UNL     1      -5.755 -11.317 -37.540  1.00  0.00     0.169 HD
HETATM   19  O   UNL     1      -3.599 -12.016 -37.457  1.00  0.00    -0.273 OA
BRANCH  17  20
HETATM   20  C   UNL     1      -6.955 -12.558 -38.632  1.00  0.00     0.034 A 
HETATM   21  C   UNL     1      -7.357 -12.305 -39.942  1.00  0.00     0.032 A 
HETATM   22  C   UNL     1      -8.629 -12.692 -40.387  1.00  0.00     0.044 A 
HETATM   23  C   UNL     1      -9.502 -13.339 -39.526  1.00  0.00     0.116 A 
HETATM   24  C   UNL     1      -9.124 -13.617 -38.224  1.00  0.00     0.044 A 
HETATM   25  F   UNL     1     -10.715 -13.700 -39.958  1.00  0.00    -0.206 F 
HETATM   26  C   UNL     1      -7.855 -13.229 -37.782  1.00  0.00     0.032 A 
ENDBRANCH  17  20
ENDBRANCH  15  16
ENDBRANCH   1  15
TORSDOF 3
ENDMDL
