MODEL 1
REMARK VINA RESULT:      -8.6      0.000      0.000
REMARK  6 active torsions:
REMARK  status: ('A' for Active; 'I' for Inactive)
REMARK    1  A    between atoms: C_2  and  C_4 
REMARK    2  A    between atoms: C_2  and  C_11 
REMARK    3  A    between atoms: C_2  and  O_3 
REMARK    4  A    between atoms: C_11  and  N_12 
REMARK       I    between atoms: N_12  and  C_13 
REMARK    5  A    between atoms: C_13  and  C_14 
REMARK    6  A    between atoms: C_15  and  C_16 
ROOT
HETATM    1  N   UNL     1      -3.774   3.587 -32.521  1.00  0.00    -0.354 N 
HETATM    2  C   UNL     1      -3.900   2.603 -31.567  1.00  0.00     0.255 C 
HETATM    3  O   UNL     1      -2.957   1.884 -31.249  1.00  0.00    -0.268 OA
HETATM    4  H   UNL     1      -4.626   3.976 -32.902  1.00  0.00     0.162 HD
ENDROOT
BRANCH   2   5
HETATM    5  C   UNL     1      -5.225   2.487 -30.984  1.00  0.00     0.080 A 
HETATM    6  C   UNL     1      -6.336   1.703 -31.433  1.00  0.00     0.107 A 
HETATM    7  N   UNL     1      -7.363   1.787 -30.567  1.00  0.00    -0.173 NA
HETATM    8  N   UNL     1      -6.940   2.630 -29.619  1.00  0.00    -0.288 N 
HETATM    9  H   UNL     1      -7.570   2.843 -28.854  1.00  0.00     0.188 HD
HETATM   10  C   UNL     1      -5.673   3.085 -29.820  1.00  0.00     0.128 A 
BRANCH   6  11
HETATM   11  C   UNL     1      -6.462   0.897 -32.643  1.00  0.00     0.034 A 
HETATM   12  C   UNL     1      -6.133  -0.461 -32.644  1.00  0.00     0.129 A 
HETATM   13  F   UNL     1      -5.670  -1.053 -31.533  1.00  0.00    -0.205 F 
HETATM   14  C   UNL     1      -6.244  -1.230 -33.802  1.00  0.00     0.043 A 
HETATM   15  C   UNL     1      -6.678  -0.639 -34.986  1.00  0.00     0.003 A 
HETATM   16  C   UNL     1      -6.994   0.719 -35.008  1.00  0.00     0.001 A 
HETATM   17  C   UNL     1      -6.884   1.485 -33.844  1.00  0.00     0.017 A 
ENDBRANCH   6  11
ENDBRANCH   2   5
BRANCH   1  18
HETATM   18  C   UNL     1      -2.523   3.841 -33.226  1.00  0.00     0.165 C 
BRANCH  18  19
HETATM   19  C   UNL     1      -2.151   5.345 -33.415  1.00  0.00     0.097 C 
HETATM   20  C   UNL     1      -1.347   5.497 -34.717  1.00  0.00     0.053 C 
BRANCH  19  21
HETATM   21  C   UNL     1      -1.332   5.927 -32.259  1.00  0.00    -0.023 A 
HETATM   22  C   UNL     1      -0.219   5.239 -31.736  1.00  0.00     0.013 A 
HETATM   23  C   UNL     1       0.526   5.775 -30.683  1.00  0.00     0.043 A 
HETATM   24  C   UNL     1       0.173   7.006 -30.148  1.00  0.00     0.116 A 
HETATM   25  F   UNL     1       0.890   7.518 -29.139  1.00  0.00    -0.206 F 
HETATM   26  C   UNL     1      -0.909   7.715 -30.649  1.00  0.00     0.043 A 
HETATM   27  C   UNL     1      -1.655   7.178 -31.701  1.00  0.00     0.013 A 
ENDBRANCH  19  21
BRANCH  19  28
HETATM   28  O   UNL     1      -3.341   6.121 -33.625  1.00  0.00    -0.384 OA
HETATM   29  H   UNL     1      -3.528   6.615 -32.798  1.00  0.00     0.211 HD
ENDBRANCH  19  28
ENDBRANCH  18  19
ENDBRANCH   1  18
TORSDOF 6
ENDMDL
MODEL 2
REMARK VINA RESULT:      -8.6      2.148      8.386
REMARK  6 active torsions:
REMARK  status: ('A' for Active; 'I' for Inactive)
REMARK    1  A    between atoms: C_2  and  C_4 
REMARK    2  A    between atoms: C_2  and  C_11 
REMARK    3  A    between atoms: C_2  and  O_3 
REMARK    4  A    between atoms: C_11  and  N_12 
REMARK       I    between atoms: N_12  and  C_13 
REMARK    5  A    between atoms: C_13  and  C_14 
REMARK    6  A    between atoms: C_15  and  C_16 
ROOT
HETATM    1  N   UNL     1      -3.141   3.471 -32.724  1.00  0.00    -0.354 N 
HETATM    2  C   UNL     1      -2.199   4.342 -32.226  1.00  0.00     0.255 C 
HETATM    3  O   UNL     1      -1.542   4.081 -31.222  1.00  0.00    -0.268 OA
HETATM    4  H   UNL     1      -3.803   3.837 -33.396  1.00  0.00     0.162 HD
ENDROOT
BRANCH   2   5
HETATM    5  C   UNL     1      -2.059   5.580 -32.973  1.00  0.00     0.080 A 
HETATM    6  C   UNL     1      -1.549   6.842 -32.528  1.00  0.00     0.107 A 
HETATM    7  N   UNL     1      -1.491   7.720 -33.547  1.00  0.00    -0.173 NA
HETATM    8  N   UNL     1      -1.987   7.057 -34.596  1.00  0.00    -0.288 N 
HETATM    9  H   UNL     1      -2.040   7.542 -35.486  1.00  0.00     0.188 HD
HETATM   10  C   UNL     1      -2.349   5.776 -34.311  1.00  0.00     0.128 A 
BRANCH   6  11
HETATM   11  C   UNL     1      -1.132   7.243 -31.189  1.00  0.00     0.034 A 
HETATM   12  C   UNL     1       0.139   6.926 -30.703  1.00  0.00     0.129 A 
HETATM   13  F   UNL     1       1.002   6.222 -31.452  1.00  0.00    -0.205 F 
HETATM   14  C   UNL     1       0.537   7.302 -29.420  1.00  0.00     0.043 A 
HETATM   15  C   UNL     1      -0.348   7.996 -28.597  1.00  0.00     0.003 A 
HETATM   16  C   UNL     1      -1.627   8.306 -29.059  1.00  0.00     0.001 A 
HETATM   17  C   UNL     1      -2.019   7.929 -30.347  1.00  0.00     0.017 A 
ENDBRANCH   6  11
ENDBRANCH   2   5
BRANCH   1  18
HETATM   18  C   UNL     1      -3.431   2.187 -32.098  1.00  0.00     0.165 C 
BRANCH  18  19
HETATM   19  C   UNL     1      -4.925   1.735 -32.152  1.00  0.00     0.097 C 
HETATM   20  C   UNL     1      -5.432   1.528 -30.715  1.00  0.00     0.053 C 
BRANCH  19  21
HETATM   21  C   UNL     1      -5.150   0.445 -32.946  1.00  0.00    -0.023 A 
HETATM   22  C   UNL     1      -4.295  -0.664 -32.791  1.00  0.00     0.013 A 
HETATM   23  C   UNL     1      -4.506  -1.839 -33.517  1.00  0.00     0.043 A 
HETATM   24  C   UNL     1      -5.577  -1.921 -34.395  1.00  0.00     0.116 A 
HETATM   25  F   UNL     1      -5.778  -3.050 -35.089  1.00  0.00    -0.206 F 
HETATM   26  C   UNL     1      -6.444  -0.851 -34.561  1.00  0.00     0.043 A 
HETATM   27  C   UNL     1      -6.233   0.324 -33.837  1.00  0.00     0.013 A 
ENDBRANCH  19  21
BRANCH  19  28
HETATM   28  O   UNL     1      -5.738   2.795 -32.679  1.00  0.00    -0.384 OA
HETATM   29  H   UNL     1      -5.250   3.208 -33.424  1.00  0.00     0.211 HD
ENDBRANCH  19  28
ENDBRANCH  18  19
ENDBRANCH   1  18
TORSDOF 6
ENDMDL
MODEL 3
REMARK VINA RESULT:      -8.5      3.495      5.253
REMARK  6 active torsions:
REMARK  status: ('A' for Active; 'I' for Inactive)
REMARK    1  A    between atoms: C_2  and  C_4 
REMARK    2  A    between atoms: C_2  and  C_11 
REMARK    3  A    between atoms: C_2  and  O_3 
REMARK    4  A    between atoms: C_11  and  N_12 
REMARK       I    between atoms: N_12  and  C_13 
REMARK    5  A    between atoms: C_13  and  C_14 
REMARK    6  A    between atoms: C_15  and  C_16 
ROOT
HETATM    1  N   UNL     1      -5.183  -0.162 -31.617  1.00  0.00    -0.354 N 
HETATM    2  C   UNL     1      -4.546  -0.473 -32.797  1.00  0.00     0.255 C 
HETATM    3  O   UNL     1      -3.519   0.100 -33.150  1.00  0.00    -0.268 OA
HETATM    4  H   UNL     1      -6.132  -0.490 -31.502  1.00  0.00     0.162 HD
ENDROOT
BRANCH   2   5
HETATM    5  C   UNL     1      -5.189  -1.514 -33.580  1.00  0.00     0.080 A 
HETATM    6  C   UNL     1      -6.518  -1.543 -34.112  1.00  0.00     0.107 A 
HETATM    7  N   UNL     1      -6.707  -2.643 -34.866  1.00  0.00    -0.173 NA
HETATM    8  N   UNL     1      -5.555  -3.315 -34.782  1.00  0.00    -0.288 N 
HETATM    9  H   UNL     1      -5.478  -4.194 -35.282  1.00  0.00     0.188 HD
HETATM   10  C   UNL     1      -4.614  -2.692 -34.021  1.00  0.00     0.128 A 
BRANCH   6  11
HETATM   11  C   UNL     1      -7.603  -0.585 -33.927  1.00  0.00     0.034 A 
HETATM   12  C   UNL     1      -7.760   0.504 -34.788  1.00  0.00     0.129 A 
HETATM   13  F   UNL     1      -6.899   0.709 -35.797  1.00  0.00    -0.205 F 
HETATM   14  C   UNL     1      -8.791   1.425 -34.606  1.00  0.00     0.043 A 
HETATM   15  C   UNL     1      -9.678   1.271 -33.543  1.00  0.00     0.003 A 
HETATM   16  C   UNL     1      -9.526   0.199 -32.663  1.00  0.00     0.001 A 
HETATM   17  C   UNL     1      -8.492  -0.723 -32.852  1.00  0.00     0.017 A 
ENDBRANCH   6  11
ENDBRANCH   2   5
BRANCH   1  18
HETATM   18  C   UNL     1      -4.693   0.868 -30.710  1.00  0.00     0.165 C 
BRANCH  18  19
HETATM   19  C   UNL     1      -5.452   2.232 -30.767  1.00  0.00     0.097 C 
HETATM   20  C   UNL     1      -6.966   1.958 -30.745  1.00  0.00     0.053 C 
BRANCH  19  21
HETATM   21  C   UNL     1      -5.120   3.070 -32.005  1.00  0.00    -0.023 A 
HETATM   22  C   UNL     1      -3.839   3.627 -32.184  1.00  0.00     0.013 A 
HETATM   23  C   UNL     1      -3.540   4.389 -33.316  1.00  0.00     0.043 A 
HETATM   24  C   UNL     1      -4.514   4.594 -34.283  1.00  0.00     0.116 A 
HETATM   25  F   UNL     1      -4.224   5.324 -35.369  1.00  0.00    -0.206 F 
HETATM   26  C   UNL     1      -5.781   4.048 -34.143  1.00  0.00     0.043 A 
HETATM   27  C   UNL     1      -6.080   3.288 -33.010  1.00  0.00     0.013 A 
ENDBRANCH  19  21
BRANCH  19  28
HETATM   28  O   UNL     1      -5.198   2.984 -29.570  1.00  0.00    -0.384 OA
HETATM   29  H   UNL     1      -5.594   2.494 -28.817  1.00  0.00     0.211 HD
ENDBRANCH  19  28
ENDBRANCH  18  19
ENDBRANCH   1  18
TORSDOF 6
ENDMDL
MODEL 4
REMARK VINA RESULT:      -8.5      1.404      1.669
REMARK  6 active torsions:
REMARK  status: ('A' for Active; 'I' for Inactive)
REMARK    1  A    between atoms: C_2  and  C_4 
REMARK    2  A    between atoms: C_2  and  C_11 
REMARK    3  A    between atoms: C_2  and  O_3 
REMARK    4  A    between atoms: C_11  and  N_12 
REMARK       I    between atoms: N_12  and  C_13 
REMARK    5  A    between atoms: C_13  and  C_14 
REMARK    6  A    between atoms: C_15  and  C_16 
ROOT
HETATM    1  N   UNL     1      -3.452   3.011 -32.135  1.00  0.00    -0.354 N 
HETATM    2  C   UNL     1      -4.759   2.663 -32.390  1.00  0.00     0.255 C 
HETATM    3  O   UNL     1      -5.330   2.998 -33.424  1.00  0.00    -0.268 OA
HETATM    4  H   UNL     1      -3.123   2.913 -31.184  1.00  0.00     0.162 HD
ENDROOT
BRANCH   2   5
HETATM    5  C   UNL     1      -5.396   1.883 -31.342  1.00  0.00     0.080 A 
HETATM    6  C   UNL     1      -5.813   0.514 -31.373  1.00  0.00     0.107 A 
HETATM    7  N   UNL     1      -6.276   0.128 -30.168  1.00  0.00    -0.173 NA
HETATM    8  N   UNL     1      -6.198   1.224 -29.408  1.00  0.00    -0.288 N 
HETATM    9  H   UNL     1      -6.505   1.158 -28.443  1.00  0.00     0.188 HD
HETATM   10  C   UNL     1      -5.687   2.305 -30.058  1.00  0.00     0.128 A 
BRANCH   6  11
HETATM   11  C   UNL     1      -5.800  -0.426 -32.488  1.00  0.00     0.034 A 
HETATM   12  C   UNL     1      -6.967  -0.723 -33.197  1.00  0.00     0.129 A 
HETATM   13  F   UNL     1      -8.137  -0.165 -32.853  1.00  0.00    -0.205 F 
HETATM   14  C   UNL     1      -6.957  -1.628 -34.258  1.00  0.00     0.043 A 
HETATM   15  C   UNL     1      -5.769  -2.261 -34.616  1.00  0.00     0.003 A 
HETATM   16  C   UNL     1      -4.598  -1.991 -33.909  1.00  0.00     0.001 A 
HETATM   17  C   UNL     1      -4.613  -1.080 -32.848  1.00  0.00     0.017 A 
ENDBRANCH   6  11
ENDBRANCH   2   5
BRANCH   1  18
HETATM   18  C   UNL     1      -2.658   3.806 -33.064  1.00  0.00     0.165 C 
BRANCH  18  19
HETATM   19  C   UNL     1      -2.777   5.354 -32.897  1.00  0.00     0.097 C 
HETATM   20  C   UNL     1      -2.602   6.016 -34.274  1.00  0.00     0.053 C 
BRANCH  19  21
HETATM   21  C   UNL     1      -1.752   5.950 -31.929  1.00  0.00    -0.023 A 
HETATM   22  C   UNL     1      -0.479   5.370 -31.768  1.00  0.00     0.013 A 
HETATM   23  C   UNL     1       0.454   5.919 -30.884  1.00  0.00     0.043 A 
HETATM   24  C   UNL     1       0.128   7.058 -30.161  1.00  0.00     0.116 A 
HETATM   25  F   UNL     1       1.024   7.583 -29.316  1.00  0.00    -0.206 F 
HETATM   26  C   UNL     1      -1.113   7.661 -30.306  1.00  0.00     0.043 A 
HETATM   27  C   UNL     1      -2.046   7.111 -31.188  1.00  0.00     0.013 A 
ENDBRANCH  19  21
BRANCH  19  28
HETATM   28  O   UNL     1      -4.110   5.700 -32.490  1.00  0.00    -0.384 OA
HETATM   29  H   UNL     1      -4.649   4.880 -32.494  1.00  0.00     0.211 HD
ENDBRANCH  19  28
ENDBRANCH  18  19
ENDBRANCH   1  18
TORSDOF 6
ENDMDL
MODEL 5
REMARK VINA RESULT:      -8.4      2.232      8.423
REMARK  6 active torsions:
REMARK  status: ('A' for Active; 'I' for Inactive)
REMARK    1  A    between atoms: C_2  and  C_4 
REMARK    2  A    between atoms: C_2  and  C_11 
REMARK    3  A    between atoms: C_2  and  O_3 
REMARK    4  A    between atoms: C_11  and  N_12 
REMARK       I    between atoms: N_12  and  C_13 
REMARK    5  A    between atoms: C_13  and  C_14 
REMARK    6  A    between atoms: C_15  and  C_16 
ROOT
HETATM    1  N   UNL     1      -3.443   3.354 -32.866  1.00  0.00    -0.354 N 
HETATM    2  C   UNL     1      -2.464   4.169 -32.346  1.00  0.00     0.255 C 
HETATM    3  O   UNL     1      -1.823   3.857 -31.347  1.00  0.00    -0.268 OA
HETATM    4  H   UNL     1      -4.085   3.765 -33.531  1.00  0.00     0.162 HD
ENDROOT
BRANCH   2   5
HETATM    5  C   UNL     1      -2.263   5.415 -33.067  1.00  0.00     0.080 A 
HETATM    6  C   UNL     1      -1.660   6.629 -32.607  1.00  0.00     0.107 A 
HETATM    7  N   UNL     1      -1.572   7.528 -33.605  1.00  0.00    -0.173 NA
HETATM    8  N   UNL     1      -2.140   6.927 -34.655  1.00  0.00    -0.288 N 
HETATM    9  H   UNL     1      -2.185   7.437 -35.531  1.00  0.00     0.188 HD
HETATM   10  C   UNL     1      -2.577   5.665 -34.390  1.00  0.00     0.128 A 
BRANCH   6  11
HETATM   11  C   UNL     1      -1.179   6.967 -31.271  1.00  0.00     0.034 A 
HETATM   12  C   UNL     1      -2.046   7.468 -30.296  1.00  0.00     0.129 A 
HETATM   13  F   UNL     1      -3.343   7.670 -30.574  1.00  0.00    -0.205 F 
HETATM   14  C   UNL     1      -1.587   7.800 -29.022  1.00  0.00     0.043 A 
HETATM   15  C   UNL     1      -0.238   7.644 -28.711  1.00  0.00     0.003 A 
HETATM   16  C   UNL     1       0.646   7.163 -29.677  1.00  0.00     0.001 A 
HETATM   17  C   UNL     1       0.179   6.828 -30.952  1.00  0.00     0.017 A 
ENDBRANCH   6  11
ENDBRANCH   2   5
BRANCH   1  18
HETATM   18  C   UNL     1      -3.795   2.072 -32.268  1.00  0.00     0.165 C 
BRANCH  18  19
HETATM   19  C   UNL     1      -5.265   1.602 -32.503  1.00  0.00     0.097 C 
HETATM   20  C   UNL     1      -5.971   1.479 -31.142  1.00  0.00     0.053 C 
BRANCH  19  21
HETATM   21  C   UNL     1      -5.373   0.262 -33.237  1.00  0.00    -0.023 A 
HETATM   22  C   UNL     1      -6.462  -0.019 -34.084  1.00  0.00     0.013 A 
HETATM   23  C   UNL     1      -6.554  -1.243 -34.753  1.00  0.00     0.043 A 
HETATM   24  C   UNL     1      -5.555  -2.192 -34.590  1.00  0.00     0.116 A 
HETATM   25  F   UNL     1      -5.645  -3.363 -35.234  1.00  0.00    -0.206 F 
HETATM   26  C   UNL     1      -4.463  -1.941 -33.773  1.00  0.00     0.043 A 
HETATM   27  C   UNL     1      -4.372  -0.719 -33.103  1.00  0.00     0.013 A 
ENDBRANCH  19  21
BRANCH  19  28
HETATM   28  O   UNL     1      -5.998   2.617 -33.206  1.00  0.00    -0.384 OA
HETATM   29  H   UNL     1      -6.455   2.190 -33.962  1.00  0.00     0.211 HD
ENDBRANCH  19  28
ENDBRANCH  18  19
ENDBRANCH   1  18
TORSDOF 6
ENDMDL
MODEL 6
REMARK VINA RESULT:      -8.2      1.853      2.381
REMARK  6 active torsions:
REMARK  status: ('A' for Active; 'I' for Inactive)
REMARK    1  A    between atoms: C_2  and  C_4 
REMARK    2  A    between atoms: C_2  and  C_11 
REMARK    3  A    between atoms: C_2  and  O_3 
REMARK    4  A    between atoms: C_11  and  N_12 
REMARK       I    between atoms: N_12  and  C_13 
REMARK    5  A    between atoms: C_13  and  C_14 
REMARK    6  A    between atoms: C_15  and  C_16 
ROOT
HETATM    1  N   UNL     1      -3.788   3.033 -32.221  1.00  0.00    -0.354 N 
HETATM    2  C   UNL     1      -4.321   2.170 -31.291  1.00  0.00     0.255 C 
HETATM    3  O   UNL     1      -4.990   2.571 -30.343  1.00  0.00    -0.268 OA
HETATM    4  H   UNL     1      -3.063   2.673 -32.827  1.00  0.00     0.162 HD
ENDROOT
BRANCH   2   5
HETATM    5  C   UNL     1      -4.019   0.767 -31.520  1.00  0.00     0.080 A 
HETATM    6  C   UNL     1      -4.753  -0.193 -32.288  1.00  0.00     0.107 A 
HETATM    7  N   UNL     1      -4.097  -1.367 -32.339  1.00  0.00    -0.173 NA
HETATM    8  N   UNL     1      -3.004  -1.178 -31.593  1.00  0.00    -0.288 N 
HETATM    9  H   UNL     1      -2.356  -1.952 -31.491  1.00  0.00     0.188 HD
HETATM   10  C   UNL     1      -2.908   0.076 -31.073  1.00  0.00     0.128 A 
BRANCH   6  11
HETATM   11  C   UNL     1      -6.041  -0.043 -32.957  1.00  0.00     0.034 A 
HETATM   12  C   UNL     1      -7.229   0.050 -32.227  1.00  0.00     0.129 A 
HETATM   13  F   UNL     1      -7.214  -0.019 -30.887  1.00  0.00    -0.205 F 
HETATM   14  C   UNL     1      -8.461   0.184 -32.865  1.00  0.00     0.043 A 
HETATM   15  C   UNL     1      -8.519   0.214 -34.257  1.00  0.00     0.003 A 
HETATM   16  C   UNL     1      -7.346   0.105 -35.003  1.00  0.00     0.001 A 
HETATM   17  C   UNL     1      -6.112  -0.026 -34.358  1.00  0.00     0.017 A 
ENDBRANCH   6  11
ENDBRANCH   2   5
BRANCH   1  18
HETATM   18  C   UNL     1      -3.971   4.477 -32.146  1.00  0.00     0.165 C 
BRANCH  18  19
HETATM   19  C   UNL     1      -2.895   5.332 -32.888  1.00  0.00     0.097 C 
HETATM   20  C   UNL     1      -2.175   4.440 -33.914  1.00  0.00     0.053 C 
BRANCH  19  21
HETATM   21  C   UNL     1      -1.851   5.953 -31.955  1.00  0.00    -0.023 A 
HETATM   22  C   UNL     1      -2.157   7.081 -31.170  1.00  0.00     0.013 A 
HETATM   23  C   UNL     1      -1.202   7.643 -30.319  1.00  0.00     0.043 A 
HETATM   24  C   UNL     1       0.063   7.078 -30.237  1.00  0.00     0.116 A 
HETATM   25  F   UNL     1       0.976   7.618 -29.418  1.00  0.00    -0.206 F 
HETATM   26  C   UNL     1       0.391   5.958 -30.987  1.00  0.00     0.043 A 
HETATM   27  C   UNL     1      -0.563   5.398 -31.839  1.00  0.00     0.013 A 
ENDBRANCH  19  21
BRANCH  19  28
HETATM   28  O   UNL     1      -3.535   6.350 -33.672  1.00  0.00    -0.384 OA
HETATM   29  H   UNL     1      -3.114   6.356 -34.559  1.00  0.00     0.211 HD
ENDBRANCH  19  28
ENDBRANCH  18  19
ENDBRANCH   1  18
TORSDOF 6
ENDMDL
MODEL 7
REMARK VINA RESULT:      -8.2      3.539      7.262
REMARK  6 active torsions:
REMARK  status: ('A' for Active; 'I' for Inactive)
REMARK    1  A    between atoms: C_2  and  C_4 
REMARK    2  A    between atoms: C_2  and  C_11 
REMARK    3  A    between atoms: C_2  and  O_3 
REMARK    4  A    between atoms: C_11  and  N_12 
REMARK       I    between atoms: N_12  and  C_13 
REMARK    5  A    between atoms: C_13  and  C_14 
REMARK    6  A    between atoms: C_15  and  C_16 
ROOT
HETATM    1  N   UNL     1      -3.782   0.847 -33.105  1.00  0.00    -0.354 N 
HETATM    2  C   UNL     1      -3.621   1.709 -32.044  1.00  0.00     0.255 C 
HETATM    3  O   UNL     1      -2.906   1.431 -31.086  1.00  0.00    -0.268 OA
HETATM    4  H   UNL     1      -4.554   1.024 -33.734  1.00  0.00     0.162 HD
ENDROOT
BRANCH   2   5
HETATM    5  C   UNL     1      -4.365   2.952 -32.152  1.00  0.00     0.080 A 
HETATM    6  C   UNL     1      -5.755   3.142 -32.440  1.00  0.00     0.107 A 
HETATM    7  N   UNL     1      -6.087   4.445 -32.356  1.00  0.00    -0.173 NA
HETATM    8  N   UNL     1      -4.941   5.069 -32.068  1.00  0.00    -0.288 N 
HETATM    9  H   UNL     1      -4.961   6.078 -31.961  1.00  0.00     0.188 HD
HETATM   10  C   UNL     1      -3.878   4.229 -31.940  1.00  0.00     0.128 A 
BRANCH   6  11
HETATM   11  C   UNL     1      -6.763   2.150 -32.798  1.00  0.00     0.034 A 
HETATM   12  C   UNL     1      -7.353   1.337 -31.828  1.00  0.00     0.129 A 
HETATM   13  F   UNL     1      -6.988   1.434 -30.540  1.00  0.00    -0.205 F 
HETATM   14  C   UNL     1      -8.310   0.382 -32.169  1.00  0.00     0.043 A 
HETATM   15  C   UNL     1      -8.682   0.222 -33.502  1.00  0.00     0.003 A 
HETATM   16  C   UNL     1      -8.090   1.013 -34.488  1.00  0.00     0.001 A 
HETATM   17  C   UNL     1      -7.133   1.971 -34.139  1.00  0.00     0.017 A 
ENDBRANCH   6  11
ENDBRANCH   2   5
BRANCH   1  18
HETATM   18  C   UNL     1      -3.127  -0.454 -33.165  1.00  0.00     0.165 C 
BRANCH  18  19
HETATM   19  C   UNL     1      -3.882  -1.620 -32.451  1.00  0.00     0.097 C 
HETATM   20  C   UNL     1      -2.851  -2.527 -31.758  1.00  0.00     0.053 C 
BRANCH  19  21
HETATM   21  C   UNL     1      -4.733  -2.473 -33.397  1.00  0.00    -0.023 A 
HETATM   22  C   UNL     1      -5.943  -1.985 -33.926  1.00  0.00     0.013 A 
HETATM   23  C   UNL     1      -6.715  -2.767 -34.790  1.00  0.00     0.043 A 
HETATM   24  C   UNL     1      -6.280  -4.037 -35.141  1.00  0.00     0.116 A 
HETATM   25  F   UNL     1      -7.021  -4.784 -35.971  1.00  0.00    -0.206 F 
HETATM   26  C   UNL     1      -5.086  -4.541 -34.647  1.00  0.00     0.043 A 
HETATM   27  C   UNL     1      -4.315  -3.761 -33.783  1.00  0.00     0.013 A 
ENDBRANCH  19  21
BRANCH  19  28
HETATM   28  O   UNL     1      -4.689  -1.100 -31.384  1.00  0.00    -0.384 OA
HETATM   29  H   UNL     1      -4.671  -1.749 -30.648  1.00  0.00     0.211 HD
ENDBRANCH  19  28
ENDBRANCH  18  19
ENDBRANCH   1  18
TORSDOF 6
ENDMDL
MODEL 8
REMARK VINA RESULT:      -8.1      2.912      6.829
REMARK  6 active torsions:
REMARK  status: ('A' for Active; 'I' for Inactive)
REMARK    1  A    between atoms: C_2  and  C_4 
REMARK    2  A    between atoms: C_2  and  C_11 
REMARK    3  A    between atoms: C_2  and  O_3 
REMARK    4  A    between atoms: C_11  and  N_12 
REMARK       I    between atoms: N_12  and  C_13 
REMARK    5  A    between atoms: C_13  and  C_14 
REMARK    6  A    between atoms: C_15  and  C_16 
ROOT
HETATM    1  N   UNL     1      -6.113   4.416 -33.104  1.00  0.00    -0.354 N 
HETATM    2  C   UNL     1      -4.906   4.590 -33.740  1.00  0.00     0.255 C 
HETATM    3  O   UNL     1      -4.834   4.808 -34.946  1.00  0.00    -0.268 OA
HETATM    4  H   UNL     1      -6.095   4.010 -32.177  1.00  0.00     0.162 HD
ENDROOT
BRANCH   2   5
HETATM    5  C   UNL     1      -3.742   4.488 -32.877  1.00  0.00     0.080 A 
HETATM    6  C   UNL     1      -3.356   3.410 -32.017  1.00  0.00     0.107 A 
HETATM    7  N   UNL     1      -2.158   3.653 -31.452  1.00  0.00    -0.173 NA
HETATM    8  N   UNL     1      -1.811   4.863 -31.900  1.00  0.00    -0.288 N 
HETATM    9  H   UNL     1      -0.926   5.251 -31.591  1.00  0.00     0.188 HD
HETATM   10  C   UNL     1      -2.722   5.413 -32.750  1.00  0.00     0.128 A 
BRANCH   6  11
HETATM   11  C   UNL     1      -4.077   2.180 -31.707  1.00  0.00     0.034 A 
HETATM   12  C   UNL     1      -4.999   2.127 -30.659  1.00  0.00     0.129 A 
HETATM   13  F   UNL     1      -5.229   3.206 -29.895  1.00  0.00    -0.205 F 
HETATM   14  C   UNL     1      -5.682   0.949 -30.356  1.00  0.00     0.043 A 
HETATM   15  C   UNL     1      -5.436  -0.204 -31.098  1.00  0.00     0.003 A 
HETATM   16  C   UNL     1      -4.505  -0.175 -32.137  1.00  0.00     0.001 A 
HETATM   17  C   UNL     1      -3.826   1.010 -32.439  1.00  0.00     0.017 A 
ENDBRANCH   6  11
ENDBRANCH   2   5
BRANCH   1  18
HETATM   18  C   UNL     1      -7.387   4.468 -33.810  1.00  0.00     0.165 C 
BRANCH  18  19
HETATM   19  C   UNL     1      -8.463   3.442 -33.333  1.00  0.00     0.097 C 
HETATM   20  C   UNL     1      -8.645   3.584 -31.813  1.00  0.00     0.053 C 
BRANCH  19  21
HETATM   21  C   UNL     1      -8.111   1.986 -33.655  1.00  0.00    -0.023 A 
HETATM   22  C   UNL     1      -8.732   0.920 -32.975  1.00  0.00     0.013 A 
HETATM   23  C   UNL     1      -8.408  -0.406 -33.274  1.00  0.00     0.043 A 
HETATM   24  C   UNL     1      -7.471  -0.680 -34.260  1.00  0.00     0.116 A 
HETATM   25  F   UNL     1      -7.164  -1.952 -34.546  1.00  0.00    -0.206 F 
HETATM   26  C   UNL     1      -6.851   0.348 -34.956  1.00  0.00     0.043 A 
HETATM   27  C   UNL     1      -7.173   1.673 -34.657  1.00  0.00     0.013 A 
ENDBRANCH  19  21
BRANCH  19  28
HETATM   28  O   UNL     1      -9.743   3.781 -33.889  1.00  0.00    -0.384 OA
HETATM   29  H   UNL     1      -9.671   4.675 -34.287  1.00  0.00     0.211 HD
ENDBRANCH  19  28
ENDBRANCH  18  19
ENDBRANCH   1  18
TORSDOF 6
ENDMDL
MODEL 9
REMARK VINA RESULT:      -8.1      2.913      7.802
REMARK  6 active torsions:
REMARK  status: ('A' for Active; 'I' for Inactive)
REMARK    1  A    between atoms: C_2  and  C_4 
REMARK    2  A    between atoms: C_2  and  C_11 
REMARK    3  A    between atoms: C_2  and  O_3 
REMARK    4  A    between atoms: C_11  and  N_12 
REMARK       I    between atoms: N_12  and  C_13 
REMARK    5  A    between atoms: C_13  and  C_14 
REMARK    6  A    between atoms: C_15  and  C_16 
ROOT
HETATM    1  N   UNL     1      -5.328   2.371 -32.681  1.00  0.00    -0.354 N 
HETATM    2  C   UNL     1      -5.142   3.000 -31.471  1.00  0.00     0.255 C 
HETATM    3  O   UNL     1      -4.719   2.401 -30.487  1.00  0.00    -0.268 OA
HETATM    4  H   UNL     1      -5.892   2.849 -33.371  1.00  0.00     0.162 HD
ENDROOT
BRANCH   2   5
HETATM    5  C   UNL     1      -5.492   4.410 -31.458  1.00  0.00     0.080 A 
HETATM    6  C   UNL     1      -4.853   5.498 -32.136  1.00  0.00     0.107 A 
HETATM    7  N   UNL     1      -5.535   6.644 -31.950  1.00  0.00    -0.173 NA
HETATM    8  N   UNL     1      -6.549   6.309 -31.146  1.00  0.00    -0.288 N 
HETATM    9  H   UNL     1      -7.200   7.037 -30.870  1.00  0.00     0.188 HD
HETATM   10  C   UNL     1      -6.570   4.990 -30.814  1.00  0.00     0.128 A 
BRANCH   6  11
HETATM   11  C   UNL     1      -3.631   5.493 -32.933  1.00  0.00     0.034 A 
HETATM   12  C   UNL     1      -3.667   5.253 -34.309  1.00  0.00     0.129 A 
HETATM   13  F   UNL     1      -4.829   4.999 -34.929  1.00  0.00    -0.205 F 
HETATM   14  C   UNL     1      -2.499   5.240 -35.070  1.00  0.00     0.043 A 
HETATM   15  C   UNL     1      -1.269   5.456 -34.454  1.00  0.00     0.003 A 
HETATM   16  C   UNL     1      -1.212   5.680 -33.078  1.00  0.00     0.001 A 
HETATM   17  C   UNL     1      -2.386   5.695 -32.320  1.00  0.00     0.017 A 
ENDBRANCH   6  11
ENDBRANCH   2   5
BRANCH   1  18
HETATM   18  C   UNL     1      -5.047   0.955 -32.880  1.00  0.00     0.165 C 
BRANCH  18  19
HETATM   19  C   UNL     1      -6.298   0.024 -32.948  1.00  0.00     0.097 C 
HETATM   20  C   UNL     1      -6.834  -0.193 -31.523  1.00  0.00     0.053 C 
BRANCH  19  21
HETATM   21  C   UNL     1      -6.016  -1.341 -33.583  1.00  0.00    -0.023 A 
HETATM   22  C   UNL     1      -7.048  -2.098 -34.172  1.00  0.00     0.013 A 
HETATM   23  C   UNL     1      -6.784  -3.342 -34.751  1.00  0.00     0.043 A 
HETATM   24  C   UNL     1      -5.488  -3.837 -34.757  1.00  0.00     0.116 A 
HETATM   25  F   UNL     1      -5.238  -5.029 -35.314  1.00  0.00    -0.206 F 
HETATM   26  C   UNL     1      -4.447  -3.110 -34.197  1.00  0.00     0.043 A 
HETATM   27  C   UNL     1      -4.711  -1.867 -33.616  1.00  0.00     0.013 A 
ENDBRANCH  19  21
BRANCH  19  28
HETATM   28  O   UNL     1      -7.365   0.688 -33.644  1.00  0.00    -0.384 OA
HETATM   29  H   UNL     1      -6.976   1.434 -34.149  1.00  0.00     0.211 HD
ENDBRANCH  19  28
ENDBRANCH  18  19
ENDBRANCH   1  18
TORSDOF 6
ENDMDL
MODEL 10
REMARK VINA RESULT:      -8.0      2.890      7.211
REMARK  6 active torsions:
REMARK  status: ('A' for Active; 'I' for Inactive)
REMARK    1  A    between atoms: C_2  and  C_4 
REMARK    2  A    between atoms: C_2  and  C_11 
REMARK    3  A    between atoms: C_2  and  O_3 
REMARK    4  A    between atoms: C_11  and  N_12 
REMARK       I    between atoms: N_12  and  C_13 
REMARK    5  A    between atoms: C_13  and  C_14 
REMARK    6  A    between atoms: C_15  and  C_16 
ROOT
HETATM    1  N   UNL     1      -4.991   2.294 -30.458  1.00  0.00    -0.354 N 
HETATM    2  C   UNL     1      -5.743   3.308 -31.005  1.00  0.00     0.255 C 
HETATM    3  O   UNL     1      -6.668   3.084 -31.781  1.00  0.00    -0.268 OA
HETATM    4  H   UNL     1      -4.113   2.548 -30.026  1.00  0.00     0.162 HD
ENDROOT
BRANCH   2   5
HETATM    5  C   UNL     1      -5.349   4.646 -30.597  1.00  0.00     0.080 A 
HETATM    6  C   UNL     1      -4.515   5.583 -31.285  1.00  0.00     0.107 A 
HETATM    7  N   UNL     1      -4.466   6.756 -30.625  1.00  0.00    -0.173 NA
HETATM    8  N   UNL     1      -5.208   6.560 -29.530  1.00  0.00    -0.288 N 
HETATM    9  H   UNL     1      -5.306   7.330 -28.877  1.00  0.00     0.188 HD
HETATM   10  C   UNL     1      -5.755   5.317 -29.457  1.00  0.00     0.128 A 
BRANCH   6  11
HETATM   11  C   UNL     1      -3.763   5.407 -32.523  1.00  0.00     0.034 A 
HETATM   12  C   UNL     1      -4.399   5.445 -33.767  1.00  0.00     0.129 A 
HETATM   13  F   UNL     1      -5.726   5.622 -33.851  1.00  0.00    -0.205 F 
HETATM   14  C   UNL     1      -3.683   5.268 -34.950  1.00  0.00     0.043 A 
HETATM   15  C   UNL     1      -2.310   5.037 -34.900  1.00  0.00     0.003 A 
HETATM   16  C   UNL     1      -1.661   4.979 -33.667  1.00  0.00     0.001 A 
HETATM   17  C   UNL     1      -2.383   5.160 -32.483  1.00  0.00     0.017 A 
ENDBRANCH   6  11
ENDBRANCH   2   5
BRANCH   1  18
HETATM   18  C   UNL     1      -5.229   0.889 -30.765  1.00  0.00     0.165 C 
BRANCH  18  19
HETATM   19  C   UNL     1      -4.181   0.220 -31.709  1.00  0.00     0.097 C 
HETATM   20  C   UNL     1      -3.445   1.320 -32.492  1.00  0.00     0.053 C 
BRANCH  19  21
HETATM   21  C   UNL     1      -4.794  -0.770 -32.705  1.00  0.00    -0.023 A 
HETATM   22  C   UNL     1      -4.065  -1.882 -33.169  1.00  0.00     0.013 A 
HETATM   23  C   UNL     1      -4.629  -2.782 -34.076  1.00  0.00     0.043 A 
HETATM   24  C   UNL     1      -5.929  -2.586 -34.521  1.00  0.00     0.116 A 
HETATM   25  F   UNL     1      -6.468  -3.452 -35.389  1.00  0.00    -0.206 F 
HETATM   26  C   UNL     1      -6.678  -1.507 -34.073  1.00  0.00     0.043 A 
HETATM   27  C   UNL     1      -6.113  -0.607 -33.168  1.00  0.00     0.013 A 
ENDBRANCH  19  21
BRANCH  19  28
HETATM   28  O   UNL     1      -3.160  -0.422 -30.930  1.00  0.00    -0.384 OA
HETATM   29  H   UNL     1      -3.493  -0.512 -30.011  1.00  0.00     0.211 HD
ENDBRANCH  19  28
ENDBRANCH  18  19
ENDBRANCH   1  18
TORSDOF 6
ENDMDL
