MODEL 1
REMARK VINA RESULT:      -8.5      0.000      0.000
REMARK  8 active torsions:
REMARK  status: ('A' for Active; 'I' for Inactive)
REMARK    1  A    between atoms: O_2  and  C_3 
REMARK    2  A    between atoms: C_6  and  C_7 
REMARK    3  A    between atoms: C_11  and  S_12 
REMARK    4  A    between atoms: S_12  and  C_13 
REMARK    5  A    between atoms: C_13  and  C_14 
REMARK       I    between atoms: C_14  and  N_15 
REMARK    6  A    between atoms: N_15  and  C_16 
REMARK    7  A    between atoms: C_16  and  C_17 
REMARK       I    between atoms: C_17  and  N_18 
REMARK    8  A    between atoms: N_18  and  C_19 
ROOT
HETATM    1  C   UNL     1      -5.594   5.293 -30.846  1.00  0.00     0.185 C 
ENDROOT
BRANCH   1   2
HETATM    2  S   UNL     1      -6.160   3.742 -30.074  1.00  0.00    -0.081 SA
BRANCH   2   3
HETATM    3  C   UNL     1      -6.216   2.722 -31.458  1.00  0.00     0.185 A 
HETATM    4  N   UNL     1      -6.721   3.153 -32.640  1.00  0.00    -0.253 N 
HETATM    5  N   UNL     1      -6.696   2.175 -33.560  1.00  0.00    -0.152 NA
HETATM    6  H   UNL     1      -7.093   4.064 -32.879  1.00  0.00     0.191 HD
HETATM    7  C   UNL     1      -6.153   1.156 -32.868  1.00  0.00     0.182 A 
HETATM    8  N   UNL     1      -5.839   1.476 -31.560  1.00  0.00    -0.201 NA
BRANCH   7   9
HETATM    9  C   UNL     1      -5.918  -0.175 -33.419  1.00  0.00     0.014 A 
HETATM   10  C   UNL     1      -6.962  -0.919 -33.985  1.00  0.00     0.018 A 
HETATM   11  C   UNL     1      -6.722  -2.194 -34.507  1.00  0.00     0.037 A 
HETATM   12  C   UNL     1      -5.440  -2.746 -34.482  1.00  0.00     0.068 A 
HETATM   13  C   UNL     1      -4.396  -2.016 -33.916  1.00  0.00     0.037 A 
HETATM   14  C   UNL     1      -4.635  -0.739 -33.389  1.00  0.00     0.018 A 
BRANCH  12  15
HETATM   15  O   UNL     1      -5.343  -3.995 -35.031  1.00  0.00    -0.356 OA
HETATM   16  C   UNL     1      -6.556  -4.604 -35.457  1.00  0.00     0.210 C 
ENDBRANCH  12  15
ENDBRANCH   7   9
ENDBRANCH   2   3
ENDBRANCH   1   2
BRANCH   1  17
HETATM   17  C   UNL     1      -4.277   5.152 -31.596  1.00  0.00     0.227 C 
HETATM   18  N   UNL     1      -3.136   4.974 -30.856  1.00  0.00    -0.352 N 
HETATM   19  H   UNL     1      -3.213   4.950 -29.846  1.00  0.00     0.162 HD
HETATM   20  O   UNL     1      -4.221   5.255 -32.824  1.00  0.00    -0.273 OA
BRANCH  18  21
HETATM   21  C   UNL     1      -1.841   4.698 -31.457  1.00  0.00     0.225 C 
BRANCH  21  22
HETATM   22  C   UNL     1      -0.660   5.143 -30.586  1.00  0.00     0.239 C 
HETATM   23  N   UNL     1      -1.038   6.004 -29.570  1.00  0.00    -0.326 N 
HETATM   24  H   UNL     1      -2.041   6.189 -29.502  1.00  0.00     0.169 HD
HETATM   25  O   UNL     1       0.483   4.778 -30.851  1.00  0.00    -0.271 OA
BRANCH  23  26
HETATM   26  C   UNL     1      -0.216   6.645 -28.626  1.00  0.00     0.035 A 
HETATM   27  C   UNL     1      -0.140   6.280 -27.279  1.00  0.00     0.032 A 
HETATM   28  C   UNL     1       0.712   6.967 -26.407  1.00  0.00     0.044 A 
HETATM   29  C   UNL     1       1.485   8.016 -26.885  1.00  0.00     0.116 A 
HETATM   30  F   UNL     1       2.301   8.671 -26.049  1.00  0.00    -0.206 F 
HETATM   31  C   UNL     1       1.423   8.395 -28.219  1.00  0.00     0.044 A 
HETATM   32  C   UNL     1       0.572   7.709 -29.090  1.00  0.00     0.032 A 
ENDBRANCH  23  26
ENDBRANCH  21  22
ENDBRANCH  18  21
ENDBRANCH   1  17
TORSDOF 8
ENDMDL
MODEL 2
REMARK VINA RESULT:      -8.5      3.018      3.911
REMARK  8 active torsions:
REMARK  status: ('A' for Active; 'I' for Inactive)
REMARK    1  A    between atoms: O_2  and  C_3 
REMARK    2  A    between atoms: C_6  and  C_7 
REMARK    3  A    between atoms: C_11  and  S_12 
REMARK    4  A    between atoms: S_12  and  C_13 
REMARK    5  A    between atoms: C_13  and  C_14 
REMARK       I    between atoms: C_14  and  N_15 
REMARK    6  A    between atoms: N_15  and  C_16 
REMARK    7  A    between atoms: C_16  and  C_17 
REMARK       I    between atoms: C_17  and  N_18 
REMARK    8  A    between atoms: N_18  and  C_19 
ROOT
HETATM    1  C   UNL     1      -8.659   4.872 -31.538  1.00  0.00     0.185 C 
ENDROOT
BRANCH   1   2
HETATM    2  S   UNL     1      -8.137   3.772 -30.183  1.00  0.00    -0.081 SA
BRANCH   2   3
HETATM    3  C   UNL     1      -8.061   2.274 -31.025  1.00  0.00     0.185 A 
HETATM    4  N   UNL     1      -9.151   1.480 -31.164  1.00  0.00    -0.253 N 
HETATM    5  N   UNL     1      -8.843   0.350 -31.821  1.00  0.00    -0.152 NA
HETATM    6  H   UNL     1     -10.098   1.635 -30.840  1.00  0.00     0.191 HD
HETATM    7  C   UNL     1      -7.530   0.518 -32.064  1.00  0.00     0.182 A 
HETATM    8  N   UNL     1      -7.024   1.712 -31.585  1.00  0.00    -0.201 NA
BRANCH   7   9
HETATM    9  C   UNL     1      -6.693  -0.457 -32.757  1.00  0.00     0.014 A 
HETATM   10  C   UNL     1      -5.333  -0.592 -32.448  1.00  0.00     0.018 A 
HETATM   11  C   UNL     1      -4.543  -1.529 -33.121  1.00  0.00     0.037 A 
HETATM   12  C   UNL     1      -5.093  -2.351 -34.106  1.00  0.00     0.068 A 
HETATM   13  C   UNL     1      -6.445  -2.220 -34.425  1.00  0.00     0.037 A 
HETATM   14  C   UNL     1      -7.238  -1.278 -33.753  1.00  0.00     0.018 A 
BRANCH  12  15
HETATM   15  O   UNL     1      -4.214  -3.226 -34.679  1.00  0.00    -0.356 OA
HETATM   16  C   UNL     1      -4.225  -4.561 -34.187  1.00  0.00     0.210 C 
ENDBRANCH  12  15
ENDBRANCH   7   9
ENDBRANCH   2   3
ENDBRANCH   1   2
BRANCH   1  17
HETATM   17  C   UNL     1      -7.977   4.567 -32.865  1.00  0.00     0.227 C 
HETATM   18  N   UNL     1      -6.622   4.759 -32.945  1.00  0.00    -0.352 N 
HETATM   19  H   UNL     1      -6.132   5.102 -32.126  1.00  0.00     0.162 HD
HETATM   20  O   UNL     1      -8.623   4.216 -33.855  1.00  0.00    -0.273 OA
BRANCH  18  21
HETATM   21  C   UNL     1      -5.839   4.382 -34.111  1.00  0.00     0.225 C 
BRANCH  21  22
HETATM   22  C   UNL     1      -4.447   5.023 -34.142  1.00  0.00     0.239 C 
HETATM   23  N   UNL     1      -3.870   5.113 -32.886  1.00  0.00    -0.326 N 
HETATM   24  H   UNL     1      -4.414   4.704 -32.123  1.00  0.00     0.169 HD
HETATM   25  O   UNL     1      -3.975   5.440 -35.197  1.00  0.00    -0.271 OA
BRANCH  23  26
HETATM   26  C   UNL     1      -2.636   5.690 -32.538  1.00  0.00     0.035 A 
HETATM   27  C   UNL     1      -2.356   7.057 -32.638  1.00  0.00     0.032 A 
HETATM   28  C   UNL     1      -1.103   7.551 -32.261  1.00  0.00     0.044 A 
HETATM   29  C   UNL     1      -0.133   6.678 -31.785  1.00  0.00     0.116 A 
HETATM   30  F   UNL     1       1.065   7.153 -31.423  1.00  0.00    -0.206 F 
HETATM   31  C   UNL     1      -0.391   5.318 -31.679  1.00  0.00     0.044 A 
HETATM   32  C   UNL     1      -1.643   4.824 -32.056  1.00  0.00     0.032 A 
ENDBRANCH  23  26
ENDBRANCH  21  22
ENDBRANCH  18  21
ENDBRANCH   1  17
TORSDOF 8
ENDMDL
MODEL 3
REMARK VINA RESULT:      -8.5      2.117      2.650
REMARK  8 active torsions:
REMARK  status: ('A' for Active; 'I' for Inactive)
REMARK    1  A    between atoms: O_2  and  C_3 
REMARK    2  A    between atoms: C_6  and  C_7 
REMARK    3  A    between atoms: C_11  and  S_12 
REMARK    4  A    between atoms: S_12  and  C_13 
REMARK    5  A    between atoms: C_13  and  C_14 
REMARK       I    between atoms: C_14  and  N_15 
REMARK    6  A    between atoms: N_15  and  C_16 
REMARK    7  A    between atoms: C_16  and  C_17 
REMARK       I    between atoms: C_17  and  N_18 
REMARK    8  A    between atoms: N_18  and  C_19 
ROOT
HETATM    1  C   UNL     1      -5.566   4.753 -34.144  1.00  0.00     0.185 C 
ENDROOT
BRANCH   1   2
HETATM    2  S   UNL     1      -6.558   4.504 -32.636  1.00  0.00    -0.081 SA
BRANCH   2   3
HETATM    3  C   UNL     1      -6.808   2.805 -32.719  1.00  0.00     0.185 A 
HETATM    4  N   UNL     1      -7.865   2.211 -32.111  1.00  0.00    -0.253 N 
HETATM    5  N   UNL     1      -7.831   0.879 -32.280  1.00  0.00    -0.152 NA
HETATM    6  H   UNL     1      -8.614   2.635 -31.577  1.00  0.00     0.191 HD
HETATM    7  C   UNL     1      -6.715   0.719 -33.014  1.00  0.00     0.182 A 
HETATM    8  N   UNL     1      -6.066   1.905 -33.306  1.00  0.00    -0.201 NA
BRANCH   7   9
HETATM    9  C   UNL     1      -6.207  -0.574 -33.463  1.00  0.00     0.014 A 
HETATM   10  C   UNL     1      -4.905  -0.987 -33.154  1.00  0.00     0.018 A 
HETATM   11  C   UNL     1      -4.431  -2.227 -33.592  1.00  0.00     0.037 A 
HETATM   12  C   UNL     1      -5.246  -3.080 -34.338  1.00  0.00     0.068 A 
HETATM   13  C   UNL     1      -6.543  -2.674 -34.657  1.00  0.00     0.037 A 
HETATM   14  C   UNL     1      -7.018  -1.430 -34.221  1.00  0.00     0.018 A 
BRANCH  12  15
HETATM   15  O   UNL     1      -4.663  -4.263 -34.697  1.00  0.00    -0.356 OA
HETATM   16  C   UNL     1      -3.709  -4.807 -33.793  1.00  0.00     0.210 C 
ENDBRANCH  12  15
ENDBRANCH   7   9
ENDBRANCH   2   3
ENDBRANCH   1   2
BRANCH   1  17
HETATM   17  C   UNL     1      -4.064   4.759 -33.889  1.00  0.00     0.227 C 
HETATM   18  N   UNL     1      -3.261   5.375 -34.813  1.00  0.00    -0.352 N 
HETATM   19  H   UNL     1      -3.695   5.793 -35.629  1.00  0.00     0.162 HD
HETATM   20  O   UNL     1      -3.575   4.180 -32.916  1.00  0.00    -0.273 OA
BRANCH  18  21
HETATM   21  C   UNL     1      -1.833   5.561 -34.619  1.00  0.00     0.225 C 
BRANCH  21  22
HETATM   22  C   UNL     1      -1.495   6.658 -33.601  1.00  0.00     0.239 C 
HETATM   23  N   UNL     1      -1.330   6.165 -32.318  1.00  0.00    -0.326 N 
HETATM   24  H   UNL     1      -1.404   5.149 -32.225  1.00  0.00     0.169 HD
HETATM   25  O   UNL     1      -1.446   7.835 -33.947  1.00  0.00    -0.271 OA
BRANCH  23  26
HETATM   26  C   UNL     1      -1.072   6.886 -31.139  1.00  0.00     0.035 A 
HETATM   27  C   UNL     1      -2.018   7.684 -30.487  1.00  0.00     0.032 A 
HETATM   28  C   UNL     1      -1.680   8.362 -29.311  1.00  0.00     0.044 A 
HETATM   29  C   UNL     1      -0.399   8.241 -28.790  1.00  0.00     0.116 A 
HETATM   30  F   UNL     1      -0.078   8.890 -27.663  1.00  0.00    -0.206 F 
HETATM   31  C   UNL     1       0.555   7.455 -29.423  1.00  0.00     0.044 A 
HETATM   32  C   UNL     1       0.217   6.778 -30.598  1.00  0.00     0.032 A 
ENDBRANCH  23  26
ENDBRANCH  21  22
ENDBRANCH  18  21
ENDBRANCH   1  17
TORSDOF 8
ENDMDL
MODEL 4
REMARK VINA RESULT:      -8.4      2.140      2.981
REMARK  8 active torsions:
REMARK  status: ('A' for Active; 'I' for Inactive)
REMARK    1  A    between atoms: O_2  and  C_3 
REMARK    2  A    between atoms: C_6  and  C_7 
REMARK    3  A    between atoms: C_11  and  S_12 
REMARK    4  A    between atoms: S_12  and  C_13 
REMARK    5  A    between atoms: C_13  and  C_14 
REMARK       I    between atoms: C_14  and  N_15 
REMARK    6  A    between atoms: N_15  and  C_16 
REMARK    7  A    between atoms: C_16  and  C_17 
REMARK       I    between atoms: C_17  and  N_18 
REMARK    8  A    between atoms: N_18  and  C_19 
ROOT
HETATM    1  C   UNL     1      -7.164   4.721 -31.656  1.00  0.00     0.185 C 
ENDROOT
BRANCH   1   2
HETATM    2  S   UNL     1      -6.364   4.082 -30.148  1.00  0.00    -0.081 SA
BRANCH   2   3
HETATM    3  C   UNL     1      -6.297   2.407 -30.531  1.00  0.00     0.185 A 
HETATM    4  N   UNL     1      -6.337   1.454 -29.566  1.00  0.00    -0.253 N 
HETATM    5  N   UNL     1      -6.232   0.226 -30.098  1.00  0.00    -0.152 NA
HETATM    6  H   UNL     1      -6.421   1.567 -28.564  1.00  0.00     0.191 HD
HETATM    7  C   UNL     1      -6.134   0.499 -31.413  1.00  0.00     0.182 A 
HETATM    8  N   UNL     1      -6.181   1.849 -31.706  1.00  0.00    -0.201 NA
BRANCH   7   9
HETATM    9  C   UNL     1      -5.981  -0.516 -32.451  1.00  0.00     0.014 A 
HETATM   10  C   UNL     1      -4.757  -1.169 -32.650  1.00  0.00     0.018 A 
HETATM   11  C   UNL     1      -4.624  -2.138 -33.649  1.00  0.00     0.037 A 
HETATM   12  C   UNL     1      -5.707  -2.477 -34.463  1.00  0.00     0.068 A 
HETATM   13  C   UNL     1      -6.927  -1.827 -34.278  1.00  0.00     0.037 A 
HETATM   14  C   UNL     1      -7.061  -0.854 -33.278  1.00  0.00     0.018 A 
BRANCH  12  15
HETATM   15  O   UNL     1      -5.443  -3.441 -35.395  1.00  0.00    -0.356 OA
HETATM   16  C   UNL     1      -6.316  -4.564 -35.420  1.00  0.00     0.210 C 
ENDBRANCH  12  15
ENDBRANCH   7   9
ENDBRANCH   2   3
ENDBRANCH   1   2
BRANCH   1  17
HETATM   17  C   UNL     1      -6.189   5.361 -32.635  1.00  0.00     0.227 C 
HETATM   18  N   UNL     1      -5.301   4.541 -33.282  1.00  0.00    -0.352 N 
HETATM   19  H   UNL     1      -5.325   3.548 -33.080  1.00  0.00     0.162 HD
HETATM   20  O   UNL     1      -6.152   6.583 -32.800  1.00  0.00    -0.273 OA
BRANCH  18  21
HETATM   21  C   UNL     1      -4.413   5.011 -34.331  1.00  0.00     0.225 C 
BRANCH  21  22
HETATM   22  C   UNL     1      -3.212   5.804 -33.801  1.00  0.00     0.239 C 
HETATM   23  N   UNL     1      -2.808   5.388 -32.544  1.00  0.00    -0.326 N 
HETATM   24  H   UNL     1      -3.320   4.590 -32.160  1.00  0.00     0.169 HD
HETATM   25  O   UNL     1      -2.742   6.734 -34.451  1.00  0.00    -0.271 OA
BRANCH  23  26
HETATM   26  C   UNL     1      -1.786   5.923 -31.740  1.00  0.00     0.035 A 
HETATM   27  C   UNL     1      -0.458   5.487 -31.771  1.00  0.00     0.032 A 
HETATM   28  C   UNL     1       0.500   6.081 -30.942  1.00  0.00     0.044 A 
HETATM   29  C   UNL     1       0.128   7.108 -30.085  1.00  0.00     0.116 A 
HETATM   30  F   UNL     1       1.048   7.676 -29.294  1.00  0.00    -0.206 F 
HETATM   31  C   UNL     1      -1.186   7.554 -30.038  1.00  0.00     0.044 A 
HETATM   32  C   UNL     1      -2.143   6.961 -30.866  1.00  0.00     0.032 A 
ENDBRANCH  23  26
ENDBRANCH  21  22
ENDBRANCH  18  21
ENDBRANCH   1  17
TORSDOF 8
ENDMDL
MODEL 5
REMARK VINA RESULT:      -8.4      4.155     11.370
REMARK  8 active torsions:
REMARK  status: ('A' for Active; 'I' for Inactive)
REMARK    1  A    between atoms: O_2  and  C_3 
REMARK    2  A    between atoms: C_6  and  C_7 
REMARK    3  A    between atoms: C_11  and  S_12 
REMARK    4  A    between atoms: S_12  and  C_13 
REMARK    5  A    between atoms: C_13  and  C_14 
REMARK       I    between atoms: C_14  and  N_15 
REMARK    6  A    between atoms: N_15  and  C_16 
REMARK    7  A    between atoms: C_16  and  C_17 
REMARK       I    between atoms: C_17  and  N_18 
REMARK    8  A    between atoms: N_18  and  C_19 
ROOT
HETATM    1  C   UNL     1      -2.391   4.497 -33.353  1.00  0.00     0.185 C 
ENDROOT
BRANCH   1   2
HETATM    2  S   UNL     1      -2.524   6.198 -32.712  1.00  0.00    -0.081 SA
BRANCH   2   3
HETATM    3  C   UNL     1      -1.342   6.143 -31.465  1.00  0.00     0.185 A 
HETATM    4  N   UNL     1      -0.413   5.157 -31.408  1.00  0.00    -0.253 N 
HETATM    5  N   UNL     1       0.376   5.300 -30.330  1.00  0.00    -0.152 NA
HETATM    6  H   UNL     1      -0.270   4.379 -32.040  1.00  0.00     0.191 HD
HETATM    7  C   UNL     1      -0.127   6.412 -29.763  1.00  0.00     0.182 A 
HETATM    8  N   UNL     1      -1.191   6.959 -30.456  1.00  0.00    -0.201 NA
BRANCH   7   9
HETATM    9  C   UNL     1       0.377   7.000 -28.525  1.00  0.00     0.014 A 
HETATM   10  C   UNL     1       0.061   6.445 -27.279  1.00  0.00     0.018 A 
HETATM   11  C   UNL     1       0.550   7.020 -26.102  1.00  0.00     0.037 A 
HETATM   12  C   UNL     1       1.365   8.153 -26.145  1.00  0.00     0.068 A 
HETATM   13  C   UNL     1       1.679   8.717 -27.382  1.00  0.00     0.037 A 
HETATM   14  C   UNL     1       1.188   8.143 -28.563  1.00  0.00     0.018 A 
BRANCH  12  15
HETATM   15  O   UNL     1       1.778   8.609 -24.925  1.00  0.00    -0.356 OA
HETATM   16  C   UNL     1       2.221   9.960 -24.862  1.00  0.00     0.210 C 
ENDBRANCH  12  15
ENDBRANCH   7   9
ENDBRANCH   2   3
ENDBRANCH   1   2
BRANCH   1  17
HETATM   17  C   UNL     1      -3.185   3.481 -32.543  1.00  0.00     0.227 C 
HETATM   18  N   UNL     1      -4.501   3.286 -32.876  1.00  0.00    -0.352 N 
HETATM   19  H   UNL     1      -4.892   3.828 -33.638  1.00  0.00     0.162 HD
HETATM   20  O   UNL     1      -2.686   2.893 -31.581  1.00  0.00    -0.273 OA
BRANCH  18  21
HETATM   21  C   UNL     1      -5.325   2.255 -32.267  1.00  0.00     0.225 C 
BRANCH  21  22
HETATM   22  C   UNL     1      -5.736   1.148 -33.246  1.00  0.00     0.239 C 
HETATM   23  N   UNL     1      -5.273  -0.100 -32.867  1.00  0.00    -0.326 N 
HETATM   24  H   UNL     1      -4.771  -0.131 -31.977  1.00  0.00     0.169 HD
HETATM   25  O   UNL     1      -6.362   1.419 -34.267  1.00  0.00    -0.271 OA
BRANCH  23  26
HETATM   26  C   UNL     1      -5.414  -1.321 -33.551  1.00  0.00     0.035 A 
HETATM   27  C   UNL     1      -4.350  -2.181 -33.842  1.00  0.00     0.032 A 
HETATM   28  C   UNL     1      -4.579  -3.383 -34.519  1.00  0.00     0.044 A 
HETATM   29  C   UNL     1      -5.869  -3.723 -34.903  1.00  0.00     0.116 A 
HETATM   30  F   UNL     1      -6.085  -4.876 -35.550  1.00  0.00    -0.206 F 
HETATM   31  C   UNL     1      -6.938  -2.882 -34.625  1.00  0.00     0.044 A 
HETATM   32  C   UNL     1      -6.710  -1.681 -33.948  1.00  0.00     0.032 A 
ENDBRANCH  23  26
ENDBRANCH  21  22
ENDBRANCH  18  21
ENDBRANCH   1  17
TORSDOF 8
ENDMDL
MODEL 6
REMARK VINA RESULT:      -8.4      1.964      2.612
REMARK  8 active torsions:
REMARK  status: ('A' for Active; 'I' for Inactive)
REMARK    1  A    between atoms: O_2  and  C_3 
REMARK    2  A    between atoms: C_6  and  C_7 
REMARK    3  A    between atoms: C_11  and  S_12 
REMARK    4  A    between atoms: S_12  and  C_13 
REMARK    5  A    between atoms: C_13  and  C_14 
REMARK       I    between atoms: C_14  and  N_15 
REMARK    6  A    between atoms: N_15  and  C_16 
REMARK    7  A    between atoms: C_16  and  C_17 
REMARK       I    between atoms: C_17  and  N_18 
REMARK    8  A    between atoms: N_18  and  C_19 
ROOT
HETATM    1  C   UNL     1      -7.422   3.579 -29.886  1.00  0.00     0.185 C 
ENDROOT
BRANCH   1   2
HETATM    2  S   UNL     1      -8.967   3.419 -30.840  1.00  0.00    -0.081 SA
BRANCH   2   3
HETATM    3  C   UNL     1      -8.666   1.932 -31.651  1.00  0.00     0.185 A 
HETATM    4  N   UNL     1      -9.672   1.082 -31.974  1.00  0.00    -0.253 N 
HETATM    5  N   UNL     1      -9.195  -0.026 -32.563  1.00  0.00    -0.152 NA
HETATM    6  H   UNL     1     -10.667   1.185 -31.819  1.00  0.00     0.191 HD
HETATM    7  C   UNL     1      -7.870   0.213 -32.576  1.00  0.00     0.182 A 
HETATM    8  N   UNL     1      -7.519   1.429 -32.020  1.00  0.00    -0.201 NA
BRANCH   7   9
HETATM    9  C   UNL     1      -6.875  -0.713 -33.109  1.00  0.00     0.014 A 
HETATM   10  C   UNL     1      -7.195  -1.602 -34.143  1.00  0.00     0.018 A 
HETATM   11  C   UNL     1      -6.232  -2.484 -34.643  1.00  0.00     0.037 A 
HETATM   12  C   UNL     1      -4.935  -2.492 -34.127  1.00  0.00     0.068 A 
HETATM   13  C   UNL     1      -4.609  -1.614 -33.093  1.00  0.00     0.037 A 
HETATM   14  C   UNL     1      -5.574  -0.731 -32.589  1.00  0.00     0.018 A 
BRANCH  12  15
HETATM   15  O   UNL     1      -4.092  -3.397 -34.709  1.00  0.00    -0.356 OA
HETATM   16  C   UNL     1      -3.713  -4.518 -33.919  1.00  0.00     0.210 C 
ENDBRANCH  12  15
ENDBRANCH   7   9
ENDBRANCH   2   3
ENDBRANCH   1   2
BRANCH   1  17
HETATM   17  C   UNL     1      -6.314   4.298 -30.643  1.00  0.00     0.227 C 
HETATM   18  N   UNL     1      -5.480   3.541 -31.426  1.00  0.00    -0.352 N 
HETATM   19  H   UNL     1      -5.629   2.539 -31.464  1.00  0.00     0.162 HD
HETATM   20  O   UNL     1      -6.128   5.510 -30.515  1.00  0.00    -0.273 OA
BRANCH  18  21
HETATM   21  C   UNL     1      -4.470   4.123 -32.295  1.00  0.00     0.225 C 
BRANCH  21  22
HETATM   22  C   UNL     1      -3.130   4.368 -31.591  1.00  0.00     0.239 C 
HETATM   23  N   UNL     1      -2.928   5.700 -31.272  1.00  0.00    -0.326 N 
HETATM   24  H   UNL     1      -3.703   6.328 -31.497  1.00  0.00     0.169 HD
HETATM   25  O   UNL     1      -2.342   3.443 -31.409  1.00  0.00    -0.271 OA
BRANCH  23  26
HETATM   26  C   UNL     1      -1.797   6.288 -30.678  1.00  0.00     0.035 A 
HETATM   27  C   UNL     1      -0.523   6.290 -31.254  1.00  0.00     0.032 A 
HETATM   28  C   UNL     1       0.548   6.906 -30.599  1.00  0.00     0.044 A 
HETATM   29  C   UNL     1       0.343   7.518 -29.369  1.00  0.00     0.116 A 
HETATM   30  F   UNL     1       1.370   8.109 -28.744  1.00  0.00    -0.206 F 
HETATM   31  C   UNL     1      -0.914   7.525 -28.779  1.00  0.00     0.044 A 
HETATM   32  C   UNL     1      -1.984   6.910 -29.435  1.00  0.00     0.032 A 
ENDBRANCH  23  26
ENDBRANCH  21  22
ENDBRANCH  18  21
ENDBRANCH   1  17
TORSDOF 8
ENDMDL
MODEL 7
REMARK VINA RESULT:      -8.3      5.444      6.516
REMARK  8 active torsions:
REMARK  status: ('A' for Active; 'I' for Inactive)
REMARK    1  A    between atoms: O_2  and  C_3 
REMARK    2  A    between atoms: C_6  and  C_7 
REMARK    3  A    between atoms: C_11  and  S_12 
REMARK    4  A    between atoms: S_12  and  C_13 
REMARK    5  A    between atoms: C_13  and  C_14 
REMARK       I    between atoms: C_14  and  N_15 
REMARK    6  A    between atoms: N_15  and  C_16 
REMARK    7  A    between atoms: C_16  and  C_17 
REMARK       I    between atoms: C_17  and  N_18 
REMARK    8  A    between atoms: N_18  and  C_19 
ROOT
HETATM    1  C   UNL     1     -11.300   2.863 -33.809  1.00  0.00     0.185 C 
ENDROOT
BRANCH   1   2
HETATM    2  S   UNL     1     -11.288   1.066 -33.505  1.00  0.00    -0.081 SA
BRANCH   2   3
HETATM    3  C   UNL     1      -9.658   0.703 -33.914  1.00  0.00     0.185 A 
HETATM    4  N   UNL     1      -8.876   1.589 -34.579  1.00  0.00    -0.253 N 
HETATM    5  N   UNL     1      -7.661   1.073 -34.820  1.00  0.00    -0.152 NA
HETATM    6  H   UNL     1      -9.102   2.524 -34.896  1.00  0.00     0.191 HD
HETATM    7  C   UNL     1      -7.762  -0.149 -34.265  1.00  0.00     0.182 A 
HETATM    8  N   UNL     1      -8.993  -0.399 -33.688  1.00  0.00    -0.201 NA
BRANCH   7   9
HETATM    9  C   UNL     1      -6.691  -1.142 -34.268  1.00  0.00     0.014 A 
HETATM   10  C   UNL     1      -6.924  -2.455 -34.699  1.00  0.00     0.018 A 
HETATM   11  C   UNL     1      -5.889  -3.396 -34.695  1.00  0.00     0.037 A 
HETATM   12  C   UNL     1      -4.607  -3.046 -34.270  1.00  0.00     0.068 A 
HETATM   13  C   UNL     1      -4.368  -1.743 -33.833  1.00  0.00     0.037 A 
HETATM   14  C   UNL     1      -5.404  -0.799 -33.833  1.00  0.00     0.018 A 
BRANCH  12  15
HETATM   15  O   UNL     1      -3.689  -4.057 -34.322  1.00  0.00    -0.356 OA
HETATM   16  C   UNL     1      -3.364  -4.692 -33.091  1.00  0.00     0.210 C 
ENDBRANCH  12  15
ENDBRANCH   7   9
ENDBRANCH   2   3
ENDBRANCH   1   2
BRANCH   1  17
HETATM   17  C   UNL     1     -10.813   3.682 -32.621  1.00  0.00     0.227 C 
HETATM   18  N   UNL     1     -10.547   3.017 -31.452  1.00  0.00    -0.352 N 
HETATM   19  H   UNL     1     -10.691   2.014 -31.423  1.00  0.00     0.162 HD
HETATM   20  O   UNL     1     -10.716   4.910 -32.682  1.00  0.00    -0.273 OA
BRANCH  18  21
HETATM   21  C   UNL     1      -9.955   3.664 -30.293  1.00  0.00     0.225 C 
BRANCH  21  22
HETATM   22  C   UNL     1      -8.429   3.530 -30.235  1.00  0.00     0.239 C 
HETATM   23  N   UNL     1      -7.962   2.420 -30.918  1.00  0.00    -0.326 N 
HETATM   24  H   UNL     1      -8.675   1.872 -31.404  1.00  0.00     0.169 HD
HETATM   25  O   UNL     1      -7.756   4.329 -29.587  1.00  0.00    -0.271 OA
BRANCH  23  26
HETATM   26  C   UNL     1      -6.637   1.962 -31.025  1.00  0.00     0.035 A 
HETATM   27  C   UNL     1      -5.649   2.597 -31.784  1.00  0.00     0.032 A 
HETATM   28  C   UNL     1      -4.351   2.079 -31.830  1.00  0.00     0.044 A 
HETATM   29  C   UNL     1      -4.044   0.927 -31.118  1.00  0.00     0.116 A 
HETATM   30  F   UNL     1      -2.799   0.434 -31.162  1.00  0.00    -0.206 F 
HETATM   31  C   UNL     1      -5.010   0.280 -30.360  1.00  0.00     0.044 A 
HETATM   32  C   UNL     1      -6.308   0.799 -30.314  1.00  0.00     0.032 A 
ENDBRANCH  23  26
ENDBRANCH  21  22
ENDBRANCH  18  21
ENDBRANCH   1  17
TORSDOF 8
ENDMDL
MODEL 8
REMARK VINA RESULT:      -8.3      3.785      4.745
REMARK  8 active torsions:
REMARK  status: ('A' for Active; 'I' for Inactive)
REMARK    1  A    between atoms: O_2  and  C_3 
REMARK    2  A    between atoms: C_6  and  C_7 
REMARK    3  A    between atoms: C_11  and  S_12 
REMARK    4  A    between atoms: S_12  and  C_13 
REMARK    5  A    between atoms: C_13  and  C_14 
REMARK       I    between atoms: C_14  and  N_15 
REMARK    6  A    between atoms: N_15  and  C_16 
REMARK    7  A    between atoms: C_16  and  C_17 
REMARK       I    between atoms: C_17  and  N_18 
REMARK    8  A    between atoms: N_18  and  C_19 
ROOT
HETATM    1  C   UNL     1      -9.440   2.749 -31.105  1.00  0.00     0.185 C 
ENDROOT
BRANCH   1   2
HETATM    2  S   UNL     1      -9.427   3.092 -32.894  1.00  0.00    -0.081 SA
BRANCH   2   3
HETATM    3  C   UNL     1      -8.107   2.102 -33.380  1.00  0.00     0.185 A 
HETATM    4  N   UNL     1      -6.983   2.630 -33.924  1.00  0.00    -0.253 N 
HETATM    5  N   UNL     1      -6.111   1.666 -34.259  1.00  0.00    -0.152 NA
HETATM    6  H   UNL     1      -6.756   3.602 -34.099  1.00  0.00     0.191 HD
HETATM    7  C   UNL     1      -6.769   0.553 -33.885  1.00  0.00     0.182 A 
HETATM    8  N   UNL     1      -8.010   0.801 -33.328  1.00  0.00    -0.201 NA
BRANCH   7   9
HETATM    9  C   UNL     1      -6.249  -0.801 -34.051  1.00  0.00     0.014 A 
HETATM   10  C   UNL     1      -4.935  -1.122 -33.686  1.00  0.00     0.018 A 
HETATM   11  C   UNL     1      -4.451  -2.423 -33.852  1.00  0.00     0.037 A 
HETATM   12  C   UNL     1      -5.266  -3.427 -34.376  1.00  0.00     0.068 A 
HETATM   13  C   UNL     1      -6.574  -3.116 -34.749  1.00  0.00     0.037 A 
HETATM   14  C   UNL     1      -7.061  -1.811 -34.586  1.00  0.00     0.018 A 
BRANCH  12  15
HETATM   15  O   UNL     1      -4.671  -4.654 -34.480  1.00  0.00    -0.356 OA
HETATM   16  C   UNL     1      -3.397  -4.802 -33.865  1.00  0.00     0.210 C 
ENDBRANCH  12  15
ENDBRANCH   7   9
ENDBRANCH   2   3
ENDBRANCH   1   2
BRANCH   1  17
HETATM   17  C   UNL     1      -8.125   3.084 -30.413  1.00  0.00     0.227 C 
HETATM   18  N   UNL     1      -7.246   2.058 -30.182  1.00  0.00    -0.352 N 
HETATM   19  H   UNL     1      -7.506   1.122 -30.472  1.00  0.00     0.162 HD
HETATM   20  O   UNL     1      -7.879   4.225 -30.017  1.00  0.00    -0.273 OA
BRANCH  18  21
HETATM   21  C   UNL     1      -5.910   2.269 -29.649  1.00  0.00     0.225 C 
BRANCH  21  22
HETATM   22  C   UNL     1      -4.838   2.417 -30.737  1.00  0.00     0.239 C 
HETATM   23  N   UNL     1      -4.435   3.729 -30.917  1.00  0.00    -0.326 N 
HETATM   24  H   UNL     1      -4.859   4.409 -30.281  1.00  0.00     0.169 HD
HETATM   25  O   UNL     1      -4.462   1.440 -31.379  1.00  0.00    -0.271 OA
BRANCH  23  26
HETATM   26  C   UNL     1      -3.520   4.234 -31.857  1.00  0.00     0.035 A 
HETATM   27  C   UNL     1      -2.158   4.421 -31.600  1.00  0.00     0.032 A 
HETATM   28  C   UNL     1      -1.313   4.921 -32.596  1.00  0.00     0.044 A 
HETATM   29  C   UNL     1      -1.831   5.232 -33.846  1.00  0.00     0.116 A 
HETATM   30  F   UNL     1      -1.020   5.709 -34.799  1.00  0.00    -0.206 F 
HETATM   31  C   UNL     1      -3.181   5.055 -34.121  1.00  0.00     0.044 A 
HETATM   32  C   UNL     1      -4.025   4.556 -33.126  1.00  0.00     0.032 A 
ENDBRANCH  23  26
ENDBRANCH  21  22
ENDBRANCH  18  21
ENDBRANCH   1  17
TORSDOF 8
ENDMDL
MODEL 9
REMARK VINA RESULT:      -8.3      4.275     10.343
REMARK  8 active torsions:
REMARK  status: ('A' for Active; 'I' for Inactive)
REMARK    1  A    between atoms: O_2  and  C_3 
REMARK    2  A    between atoms: C_6  and  C_7 
REMARK    3  A    between atoms: C_11  and  S_12 
REMARK    4  A    between atoms: S_12  and  C_13 
REMARK    5  A    between atoms: C_13  and  C_14 
REMARK       I    between atoms: C_14  and  N_15 
REMARK    6  A    between atoms: N_15  and  C_16 
REMARK    7  A    between atoms: C_16  and  C_17 
REMARK       I    between atoms: C_17  and  N_18 
REMARK    8  A    between atoms: N_18  and  C_19 
ROOT
HETATM    1  C   UNL     1      -5.493   4.865 -33.653  1.00  0.00     0.185 C 
ENDROOT
BRANCH   1   2
HETATM    2  S   UNL     1      -4.120   4.967 -34.847  1.00  0.00    -0.081 SA
BRANCH   2   3
HETATM    3  C   UNL     1      -3.011   5.926 -33.947  1.00  0.00     0.185 A 
HETATM    4  N   UNL     1      -2.339   6.958 -34.515  1.00  0.00    -0.253 N 
HETATM    5  N   UNL     1      -1.506   7.533 -33.633  1.00  0.00    -0.152 NA
HETATM    6  H   UNL     1      -2.391   7.306 -35.465  1.00  0.00     0.191 HD
HETATM    7  C   UNL     1      -1.720   6.798 -32.527  1.00  0.00     0.182 A 
HETATM    8  N   UNL     1      -2.659   5.798 -32.696  1.00  0.00    -0.201 NA
BRANCH   7   9
HETATM    9  C   UNL     1      -1.032   7.009 -31.256  1.00  0.00     0.014 A 
HETATM   10  C   UNL     1      -1.516   7.926 -30.314  1.00  0.00     0.018 A 
HETATM   11  C   UNL     1      -0.846   8.118 -29.103  1.00  0.00     0.037 A 
HETATM   12  C   UNL     1       0.312   7.398 -28.805  1.00  0.00     0.068 A 
HETATM   13  C   UNL     1       0.806   6.488 -29.740  1.00  0.00     0.037 A 
HETATM   14  C   UNL     1       0.137   6.296 -30.957  1.00  0.00     0.018 A 
BRANCH  12  15
HETATM   15  O   UNL     1       0.864   7.678 -27.586  1.00  0.00    -0.356 OA
HETATM   16  C   UNL     1       1.621   8.878 -27.485  1.00  0.00     0.210 C 
ENDBRANCH  12  15
ENDBRANCH   7   9
ENDBRANCH   2   3
ENDBRANCH   1   2
BRANCH   1  17
HETATM   17  C   UNL     1      -5.298   3.789 -32.594  1.00  0.00     0.227 C 
HETATM   18  N   UNL     1      -4.213   2.959 -32.718  1.00  0.00    -0.352 N 
HETATM   19  H   UNL     1      -3.592   3.090 -33.509  1.00  0.00     0.162 HD
HETATM   20  O   UNL     1      -6.116   3.623 -31.686  1.00  0.00    -0.273 OA
BRANCH  18  21
HETATM   21  C   UNL     1      -3.847   1.982 -31.707  1.00  0.00     0.225 C 
BRANCH  21  22
HETATM   22  C   UNL     1      -4.547   0.629 -31.886  1.00  0.00     0.239 C 
HETATM   23  N   UNL     1      -4.486   0.163 -33.188  1.00  0.00    -0.326 N 
HETATM   24  H   UNL     1      -3.951   0.744 -33.838  1.00  0.00     0.169 HD
HETATM   25  O   UNL     1      -5.128   0.097 -30.943  1.00  0.00    -0.271 OA
BRANCH  23  26
HETATM   26  C   UNL     1      -5.063  -1.004 -33.720  1.00  0.00     0.035 A 
HETATM   27  C   UNL     1      -4.363  -2.196 -33.931  1.00  0.00     0.032 A 
HETATM   28  C   UNL     1      -5.016  -3.316 -34.456  1.00  0.00     0.044 A 
HETATM   29  C   UNL     1      -6.367  -3.241 -34.769  1.00  0.00     0.116 A 
HETATM   30  F   UNL     1      -6.991  -4.315 -35.270  1.00  0.00    -0.206 F 
HETATM   31  C   UNL     1      -7.080  -2.067 -34.568  1.00  0.00     0.044 A 
HETATM   32  C   UNL     1      -6.427  -0.948 -34.043  1.00  0.00     0.032 A 
ENDBRANCH  23  26
ENDBRANCH  21  22
ENDBRANCH  18  21
ENDBRANCH   1  17
TORSDOF 8
ENDMDL
MODEL 10
REMARK VINA RESULT:      -8.1      5.243      6.111
REMARK  8 active torsions:
REMARK  status: ('A' for Active; 'I' for Inactive)
REMARK    1  A    between atoms: O_2  and  C_3 
REMARK    2  A    between atoms: C_6  and  C_7 
REMARK    3  A    between atoms: C_11  and  S_12 
REMARK    4  A    between atoms: S_12  and  C_13 
REMARK    5  A    between atoms: C_13  and  C_14 
REMARK       I    between atoms: C_14  and  N_15 
REMARK    6  A    between atoms: N_15  and  C_16 
REMARK    7  A    between atoms: C_16  and  C_17 
REMARK       I    between atoms: C_17  and  N_18 
REMARK    8  A    between atoms: N_18  and  C_19 
ROOT
HETATM    1  C   UNL     1     -10.291   3.904 -34.895  1.00  0.00     0.185 C 
ENDROOT
BRANCH   1   2
HETATM    2  S   UNL     1     -11.342   2.567 -34.242  1.00  0.00    -0.081 SA
BRANCH   2   3
HETATM    3  C   UNL     1     -10.133   1.483 -33.676  1.00  0.00     0.185 A 
HETATM    4  N   UNL     1      -9.968   1.228 -32.354  1.00  0.00    -0.253 N 
HETATM    5  N   UNL     1      -8.943   0.385 -32.151  1.00  0.00    -0.152 NA
HETATM    6  H   UNL     1     -10.492   1.587 -31.566  1.00  0.00     0.191 HD
HETATM    7  C   UNL     1      -8.518   0.154 -33.407  1.00  0.00     0.182 A 
HETATM    8  N   UNL     1      -9.249   0.821 -34.373  1.00  0.00    -0.201 NA
BRANCH   7   9
HETATM    9  C   UNL     1      -7.388  -0.705 -33.745  1.00  0.00     0.014 A 
HETATM   10  C   UNL     1      -6.070  -0.238 -33.651  1.00  0.00     0.018 A 
HETATM   11  C   UNL     1      -4.997  -1.072 -33.980  1.00  0.00     0.037 A 
HETATM   12  C   UNL     1      -5.216  -2.385 -34.402  1.00  0.00     0.068 A 
HETATM   13  C   UNL     1      -6.525  -2.857 -34.505  1.00  0.00     0.037 A 
HETATM   14  C   UNL     1      -7.602  -2.021 -34.178  1.00  0.00     0.018 A 
BRANCH  12  15
HETATM   15  O   UNL     1      -4.081  -3.093 -34.685  1.00  0.00    -0.356 OA
HETATM   16  C   UNL     1      -3.985  -4.398 -34.130  1.00  0.00     0.210 C 
ENDBRANCH  12  15
ENDBRANCH   7   9
ENDBRANCH   2   3
ENDBRANCH   1   2
BRANCH   1  17
HETATM   17  C   UNL     1      -9.227   4.374 -33.912  1.00  0.00     0.227 C 
HETATM   18  N   UNL     1      -9.628   4.699 -32.642  1.00  0.00    -0.352 N 
HETATM   19  H   UNL     1     -10.612   4.620 -32.411  1.00  0.00     0.162 HD
HETATM   20  O   UNL     1      -8.051   4.517 -34.256  1.00  0.00    -0.273 OA
BRANCH  18  21
HETATM   21  C   UNL     1      -8.694   5.033 -31.581  1.00  0.00     0.225 C 
BRANCH  21  22
HETATM   22  C   UNL     1      -7.935   3.818 -31.032  1.00  0.00     0.239 C 
HETATM   23  N   UNL     1      -6.657   3.706 -31.553  1.00  0.00    -0.326 N 
HETATM   24  H   UNL     1      -6.372   4.458 -32.184  1.00  0.00     0.169 HD
HETATM   25  O   UNL     1      -8.483   3.038 -30.258  1.00  0.00    -0.271 OA
BRANCH  23  26
HETATM   26  C   UNL     1      -5.711   2.692 -31.317  1.00  0.00     0.035 A 
HETATM   27  C   UNL     1      -5.917   1.619 -30.445  1.00  0.00     0.032 A 
HETATM   28  C   UNL     1      -4.925   0.647 -30.274  1.00  0.00     0.044 A 
HETATM   29  C   UNL     1      -3.731   0.751 -30.976  1.00  0.00     0.116 A 
HETATM   30  F   UNL     1      -2.784  -0.182 -30.813  1.00  0.00    -0.206 F 
HETATM   31  C   UNL     1      -3.507   1.810 -31.846  1.00  0.00     0.044 A 
HETATM   32  C   UNL     1      -4.499   2.781 -32.016  1.00  0.00     0.032 A 
ENDBRANCH  23  26
ENDBRANCH  21  22
ENDBRANCH  18  21
ENDBRANCH   1  17
TORSDOF 8
ENDMDL
