MODEL 1
REMARK VINA RESULT:      -9.4      0.000      0.000
REMARK  3 active torsions:
REMARK  status: ('A' for Active; 'I' for Inactive)
REMARK    1  A    between atoms: C_4  and  C_5 
REMARK    2  A    between atoms: C_11  and  C_12 
REMARK    3  A    between atoms: C_21  and  N_22 
ROOT
HETATM    1  C   UNL     1      -3.693  -1.340 -32.434  1.00  0.00     0.071 A 
HETATM    2  N   UNL     1      -2.611  -1.270 -31.579  1.00  0.00    -0.274 N 
HETATM    3  H   UNL     1      -1.964  -2.015 -31.346  1.00  0.00     0.189 HD
HETATM    4  N   UNL     1      -2.402  -0.054 -31.051  1.00  0.00    -0.148 NA
HETATM    5  C   UNL     1      -3.381   0.660 -31.590  1.00  0.00     0.199 A 
HETATM    6  C   UNL     1      -4.254  -0.067 -32.415  1.00  0.00     0.036 A 
HETATM    7  C   UNL     1      -5.414   0.602 -33.107  1.00  0.00     0.079 A 
HETATM    8  C   UNL     1      -5.323   2.135 -32.838  1.00  0.00     0.063 A 
HETATM    9  C   UNL     1      -6.421   2.997 -33.439  1.00  0.00     0.020 C 
HETATM   10  N   UNL     1      -7.331   3.713 -33.938  1.00  0.00    -0.096 N 
HETATM   11  C   UNL     1      -4.409   2.719 -32.022  1.00  0.00     0.139 A 
HETATM   12  O   UNL     1      -3.433   1.980 -31.355  1.00  0.00    -0.277 OA
ENDROOT
BRANCH   7  13
HETATM   13  C   UNL     1      -6.863   0.028 -32.758  1.00  0.00     0.022 C 
HETATM   14  C   UNL     1      -7.825  -0.110 -33.920  1.00  0.00    -0.025 C 
HETATM   15  C   UNL     1      -9.026   0.482 -34.003  1.00  0.00    -0.030 C 
HETATM   16  C   UNL     1      -9.607   1.304 -32.900  1.00  0.00     0.027 C 
HETATM   17  C   UNL     1      -9.033   0.861 -31.564  1.00  0.00     0.004 C 
HETATM   18  C   UNL     1      -7.507   0.852 -31.596  1.00  0.00     0.010 C 
ENDBRANCH   7  13
BRANCH  11  19
HETATM   19  N   UNL     1      -4.342   4.065 -31.736  1.00  0.00    -0.282 NA
HETATM   20  H   UNL     1      -3.437   4.509 -31.867  1.00  0.00     0.126 HD
HETATM   21  H   UNL     1      -5.108   4.581 -32.164  1.00  0.00     0.126 HD
ENDBRANCH  11  19
BRANCH   1  22
HETATM   22  C   UNL     1      -4.025  -2.578 -33.134  1.00  0.00    -0.007 A 
HETATM   23  C   UNL     1      -3.414  -3.785 -32.761  1.00  0.00     0.014 A 
HETATM   24  C   UNL     1      -3.741  -4.978 -33.409  1.00  0.00     0.001 A 
HETATM   25  C   UNL     1      -4.677  -4.973 -34.440  1.00  0.00     0.000 A 
HETATM   26  C   UNL     1      -5.284  -3.778 -34.823  1.00  0.00     0.001 A 
HETATM   27  C   UNL     1      -4.962  -2.585 -34.172  1.00  0.00     0.014 A 
ENDBRANCH   1  22
TORSDOF 3
ENDMDL
MODEL 2
REMARK VINA RESULT:      -8.9      2.395      3.775
REMARK  3 active torsions:
REMARK  status: ('A' for Active; 'I' for Inactive)
REMARK    1  A    between atoms: C_4  and  C_5 
REMARK    2  A    between atoms: C_11  and  C_12 
REMARK    3  A    between atoms: C_21  and  N_22 
ROOT
HETATM    1  C   UNL     1      -5.746   2.043 -33.119  1.00  0.00     0.071 A 
HETATM    2  N   UNL     1      -4.555   2.351 -32.494  1.00  0.00    -0.274 N 
HETATM    3  H   UNL     1      -3.762   1.736 -32.345  1.00  0.00     0.189 HD
HETATM    4  N   UNL     1      -4.456   3.628 -32.091  1.00  0.00    -0.148 NA
HETATM    5  C   UNL     1      -5.620   4.135 -32.474  1.00  0.00     0.199 A 
HETATM    6  C   UNL     1      -6.496   3.214 -33.069  1.00  0.00     0.036 A 
HETATM    7  C   UNL     1      -7.856   3.637 -33.564  1.00  0.00     0.079 A 
HETATM    8  C   UNL     1      -7.969   5.184 -33.411  1.00  0.00     0.063 A 
HETATM    9  C   UNL     1      -9.284   5.815 -33.841  1.00  0.00     0.020 C 
HETATM   10  N   UNL     1     -10.374   6.338 -34.198  1.00  0.00    -0.096 N 
HETATM   11  C   UNL     1      -7.032   5.970 -32.824  1.00  0.00     0.139 A 
HETATM   12  O   UNL     1      -5.844   5.449 -32.315  1.00  0.00    -0.277 OA
ENDROOT
BRANCH   7  13
HETATM   13  C   UNL     1      -9.104   2.887 -32.907  1.00  0.00     0.022 C 
HETATM   14  C   UNL     1      -8.799   1.995 -31.721  1.00  0.00    -0.025 C 
HETATM   15  C   UNL     1      -9.072   0.684 -31.650  1.00  0.00    -0.030 C 
HETATM   16  C   UNL     1      -9.799  -0.056 -32.725  1.00  0.00     0.027 C 
HETATM   17  C   UNL     1     -10.691   0.898 -33.501  1.00  0.00     0.004 C 
HETATM   18  C   UNL     1      -9.903   2.106 -34.000  1.00  0.00     0.010 C 
ENDBRANCH   7  13
BRANCH  11  19
HETATM   19  N   UNL     1      -7.135   7.331 -32.640  1.00  0.00    -0.282 NA
HETATM   20  H   UNL     1      -7.770   7.824 -33.262  1.00  0.00     0.126 HD
HETATM   21  H   UNL     1      -7.268   7.570 -31.659  1.00  0.00     0.126 HD
ENDBRANCH  11  19
BRANCH   1  22
HETATM   22  C   UNL     1      -5.993   0.711 -33.664  1.00  0.00    -0.007 A 
HETATM   23  C   UNL     1      -5.419  -0.417 -33.057  1.00  0.00     0.014 A 
HETATM   24  C   UNL     1      -5.667  -1.697 -33.557  1.00  0.00     0.001 A 
HETATM   25  C   UNL     1      -6.483  -1.860 -34.673  1.00  0.00     0.000 A 
HETATM   26  C   UNL     1      -7.051  -0.745 -35.288  1.00  0.00     0.001 A 
HETATM   27  C   UNL     1      -6.809   0.536 -34.786  1.00  0.00     0.014 A 
ENDBRANCH   1  22
TORSDOF 3
ENDMDL
MODEL 3
REMARK VINA RESULT:      -8.8     14.049     15.717
REMARK  3 active torsions:
REMARK  status: ('A' for Active; 'I' for Inactive)
REMARK    1  A    between atoms: C_4  and  C_5 
REMARK    2  A    between atoms: C_11  and  C_12 
REMARK    3  A    between atoms: C_21  and  N_22 
ROOT
HETATM    1  C   UNL     1      -7.056 -13.829 -37.045  1.00  0.00     0.071 A 
HETATM    2  N   UNL     1      -7.305 -13.239 -35.821  1.00  0.00    -0.274 N 
HETATM    3  H   UNL     1      -8.199 -12.916 -35.466  1.00  0.00     0.189 HD
HETATM    4  N   UNL     1      -6.228 -13.141 -35.026  1.00  0.00    -0.148 NA
HETATM    5  C   UNL     1      -5.276 -13.683 -35.773  1.00  0.00     0.199 A 
HETATM    6  C   UNL     1      -5.689 -14.086 -37.052  1.00  0.00     0.036 A 
HETATM    7  C   UNL     1      -4.725 -14.727 -38.018  1.00  0.00     0.079 A 
HETATM    8  C   UNL     1      -3.369 -14.943 -37.281  1.00  0.00     0.063 A 
HETATM    9  C   UNL     1      -2.245 -15.567 -38.093  1.00  0.00     0.020 C 
HETATM   10  N   UNL     1      -1.313 -16.084 -38.767  1.00  0.00    -0.096 N 
HETATM   11  C   UNL     1      -3.100 -14.513 -36.022  1.00  0.00     0.139 A 
HETATM   12  O   UNL     1      -4.050 -13.843 -35.251  1.00  0.00    -0.277 OA
ENDROOT
BRANCH   7  13
HETATM   13  C   UNL     1      -4.525 -13.971 -39.411  1.00  0.00     0.022 C 
HETATM   14  C   UNL     1      -4.802 -12.481 -39.409  1.00  0.00    -0.025 C 
HETATM   15  C   UNL     1      -5.702 -11.862 -40.187  1.00  0.00    -0.030 C 
HETATM   16  C   UNL     1      -6.502 -12.571 -41.229  1.00  0.00     0.027 C 
HETATM   17  C   UNL     1      -5.753 -13.803 -41.711  1.00  0.00     0.004 C 
HETATM   18  C   UNL     1      -5.337 -14.687 -40.538  1.00  0.00     0.010 C 
ENDBRANCH   7  13
BRANCH  11  19
HETATM   19  N   UNL     1      -1.895 -14.655 -35.372  1.00  0.00    -0.282 NA
HETATM   20  H   UNL     1      -1.091 -14.873 -35.955  1.00  0.00     0.126 HD
HETATM   21  H   UNL     1      -1.724 -13.890 -34.722  1.00  0.00     0.126 HD
ENDBRANCH  11  19
BRANCH   1  22
HETATM   22  C   UNL     1      -8.130 -14.060 -38.006  1.00  0.00    -0.007 A 
HETATM   23  C   UNL     1      -8.861 -12.978 -38.522  1.00  0.00     0.014 A 
HETATM   24  C   UNL     1      -9.876 -13.187 -39.458  1.00  0.00     0.001 A 
HETATM   25  C   UNL     1     -10.174 -14.479 -39.881  1.00  0.00     0.000 A 
HETATM   26  C   UNL     1      -9.459 -15.561 -39.370  1.00  0.00     0.001 A 
HETATM   27  C   UNL     1      -8.440 -15.354 -38.437  1.00  0.00     0.014 A 
ENDBRANCH   1  22
TORSDOF 3
ENDMDL
MODEL 4
REMARK VINA RESULT:      -8.7      3.031      5.741
REMARK  3 active torsions:
REMARK  status: ('A' for Active; 'I' for Inactive)
REMARK    1  A    between atoms: C_4  and  C_5 
REMARK    2  A    between atoms: C_11  and  C_12 
REMARK    3  A    between atoms: C_21  and  N_22 
ROOT
HETATM    1  C   UNL     1      -4.884   4.167 -31.817  1.00  0.00     0.071 A 
HETATM    2  N   UNL     1      -4.707   4.586 -30.513  1.00  0.00    -0.274 N 
HETATM    3  H   UNL     1      -3.940   5.137 -30.144  1.00  0.00     0.189 HD
HETATM    4  N   UNL     1      -5.703   4.241 -29.682  1.00  0.00    -0.148 NA
HETATM    5  C   UNL     1      -6.529   3.587 -30.488  1.00  0.00     0.199 A 
HETATM    6  C   UNL     1      -6.076   3.450 -31.809  1.00  0.00     0.036 A 
HETATM    7  C   UNL     1      -6.903   2.737 -32.848  1.00  0.00     0.079 A 
HETATM    8  C   UNL     1      -8.278   2.373 -32.210  1.00  0.00     0.063 A 
HETATM    9  C   UNL     1      -9.262   1.626 -33.095  1.00  0.00     0.020 C 
HETATM   10  N   UNL     1     -10.079   1.006 -33.829  1.00  0.00    -0.096 N 
HETATM   11  C   UNL     1      -8.599   2.576 -30.907  1.00  0.00     0.139 A 
HETATM   12  O   UNL     1      -7.710   3.165 -30.009  1.00  0.00    -0.277 OA
ENDROOT
BRANCH   7  13
HETATM   13  C   UNL     1      -6.220   1.469 -33.537  1.00  0.00     0.022 C 
HETATM   14  C   UNL     1      -6.711   1.117 -34.927  1.00  0.00    -0.025 C 
HETATM   15  C   UNL     1      -7.247  -0.060 -35.282  1.00  0.00    -0.030 C 
HETATM   16  C   UNL     1      -7.355  -1.220 -34.349  1.00  0.00     0.027 C 
HETATM   17  C   UNL     1      -6.277  -1.131 -33.282  1.00  0.00     0.004 C 
HETATM   18  C   UNL     1      -6.299   0.229 -32.589  1.00  0.00     0.010 C 
ENDBRANCH   7  13
BRANCH  11  19
HETATM   19  N   UNL     1      -9.790   2.220 -30.315  1.00  0.00    -0.282 NA
HETATM   20  H   UNL     1     -10.207   1.348 -30.630  1.00  0.00     0.126 HD
HETATM   21  H   UNL     1      -9.748   2.302 -29.301  1.00  0.00     0.126 HD
ENDBRANCH  11  19
BRANCH   1  22
HETATM   22  C   UNL     1      -3.918   4.506 -32.858  1.00  0.00    -0.007 A 
HETATM   23  C   UNL     1      -4.361   4.949 -34.114  1.00  0.00     0.014 A 
HETATM   24  C   UNL     1      -3.446   5.296 -35.109  1.00  0.00     0.001 A 
HETATM   25  C   UNL     1      -2.080   5.197 -34.860  1.00  0.00     0.000 A 
HETATM   26  C   UNL     1      -1.629   4.752 -33.619  1.00  0.00     0.001 A 
HETATM   27  C   UNL     1      -2.543   4.409 -32.620  1.00  0.00     0.014 A 
ENDBRANCH   1  22
TORSDOF 3
ENDMDL
MODEL 5
REMARK VINA RESULT:      -8.5      7.245      9.427
REMARK  3 active torsions:
REMARK  status: ('A' for Active; 'I' for Inactive)
REMARK    1  A    between atoms: C_4  and  C_5 
REMARK    2  A    between atoms: C_11  and  C_12 
REMARK    3  A    between atoms: C_21  and  N_22 
ROOT
HETATM    1  C   UNL     1      -0.233   5.927 -30.456  1.00  0.00     0.071 A 
HETATM    2  N   UNL     1       0.488   4.841 -30.000  1.00  0.00    -0.274 N 
HETATM    3  H   UNL     1       0.690   3.984 -30.503  1.00  0.00     0.189 HD
HETATM    4  N   UNL     1       0.996   4.994 -28.768  1.00  0.00    -0.148 NA
HETATM    5  C   UNL     1       0.582   6.210 -28.440  1.00  0.00     0.199 A 
HETATM    6  C   UNL     1      -0.225   6.836 -29.403  1.00  0.00     0.036 A 
HETATM    7  C   UNL     1      -0.770   8.224 -29.183  1.00  0.00     0.079 A 
HETATM    8  C   UNL     1      -0.163   8.781 -27.859  1.00  0.00     0.063 A 
HETATM    9  C   UNL     1      -0.604  10.175 -27.442  1.00  0.00     0.020 C 
HETATM   10  N   UNL     1      -0.969  11.331 -27.097  1.00  0.00    -0.096 N 
HETATM   11  C   UNL     1       0.626   8.068 -27.015  1.00  0.00     0.139 A 
HETATM   12  O   UNL     1       0.990   6.749 -27.281  1.00  0.00    -0.277 OA
ENDROOT
BRANCH   7  13
HETATM   13  C   UNL     1      -2.360   8.364 -29.206  1.00  0.00     0.022 C 
HETATM   14  C   UNL     1      -3.146   7.074 -29.077  1.00  0.00    -0.025 C 
HETATM   15  C   UNL     1      -4.035   6.618 -29.972  1.00  0.00    -0.030 C 
HETATM   16  C   UNL     1      -4.425   7.383 -31.194  1.00  0.00     0.027 C 
HETATM   17  C   UNL     1      -4.228   8.871 -30.962  1.00  0.00     0.004 C 
HETATM   18  C   UNL     1      -2.815   9.169 -30.466  1.00  0.00     0.010 C 
ENDBRANCH   7  13
BRANCH  11  19
HETATM   19  N   UNL     1       1.133   8.527 -25.820  1.00  0.00    -0.282 NA
HETATM   20  H   UNL     1       0.453   8.830 -25.128  1.00  0.00     0.126 HD
HETATM   21  H   UNL     1       1.838   7.898 -25.442  1.00  0.00     0.126 HD
ENDBRANCH  11  19
BRANCH   1  22
HETATM   22  C   UNL     1      -0.807   5.944 -31.798  1.00  0.00    -0.007 A 
HETATM   23  C   UNL     1      -1.458   4.807 -32.302  1.00  0.00     0.014 A 
HETATM   24  C   UNL     1      -2.030   4.821 -33.576  1.00  0.00     0.001 A 
HETATM   25  C   UNL     1      -1.951   5.968 -34.359  1.00  0.00     0.000 A 
HETATM   26  C   UNL     1      -1.301   7.101 -33.872  1.00  0.00     0.001 A 
HETATM   27  C   UNL     1      -0.732   7.091 -32.596  1.00  0.00     0.014 A 
ENDBRANCH   1  22
TORSDOF 3
ENDMDL
MODEL 6
REMARK VINA RESULT:      -8.5      2.242      3.249
REMARK  3 active torsions:
REMARK  status: ('A' for Active; 'I' for Inactive)
REMARK    1  A    between atoms: C_4  and  C_5 
REMARK    2  A    between atoms: C_11  and  C_12 
REMARK    3  A    between atoms: C_21  and  N_22 
ROOT
HETATM    1  C   UNL     1      -4.866   1.440 -32.680  1.00  0.00     0.071 A 
HETATM    2  N   UNL     1      -3.649   1.075 -32.140  1.00  0.00    -0.274 N 
HETATM    3  H   UNL     1      -3.183   0.179 -32.227  1.00  0.00     0.189 HD
HETATM    4  N   UNL     1      -3.027   2.056 -31.468  1.00  0.00    -0.148 NA
HETATM    5  C   UNL     1      -3.878   3.066 -31.590  1.00  0.00     0.199 A 
HETATM    6  C   UNL     1      -5.061   2.758 -32.278  1.00  0.00     0.036 A 
HETATM    7  C   UNL     1      -6.127   3.800 -32.506  1.00  0.00     0.079 A 
HETATM    8  C   UNL     1      -5.587   5.168 -31.989  1.00  0.00     0.063 A 
HETATM    9  C   UNL     1      -6.524   6.359 -32.111  1.00  0.00     0.020 C 
HETATM   10  N   UNL     1      -7.301   7.346 -32.213  1.00  0.00    -0.096 N 
HETATM   11  C   UNL     1      -4.403   5.335 -31.346  1.00  0.00     0.139 A 
HETATM   12  O   UNL     1      -3.535   4.271 -31.108  1.00  0.00    -0.277 OA
ENDROOT
BRANCH   7  13
HETATM   13  C   UNL     1      -7.568   3.470 -31.903  1.00  0.00     0.022 C 
HETATM   14  C   UNL     1      -7.658   2.245 -31.016  1.00  0.00    -0.025 C 
HETATM   15  C   UNL     1      -8.459   1.191 -31.234  1.00  0.00    -0.030 C 
HETATM   16  C   UNL     1      -9.439   1.131 -32.358  1.00  0.00     0.027 C 
HETATM   17  C   UNL     1      -9.852   2.536 -32.763  1.00  0.00     0.004 C 
HETATM   18  C   UNL     1      -8.633   3.409 -33.047  1.00  0.00     0.010 C 
ENDBRANCH   7  13
BRANCH  11  19
HETATM   19  N   UNL     1      -3.931   6.526 -30.843  1.00  0.00    -0.282 NA
HETATM   20  H   UNL     1      -2.985   6.517 -30.473  1.00  0.00     0.126 HD
HETATM   21  H   UNL     1      -4.105   7.301 -31.480  1.00  0.00     0.126 HD
ENDBRANCH  11  19
BRANCH   1  22
HETATM   22  C   UNL     1      -5.647   0.506 -33.486  1.00  0.00    -0.007 A 
HETATM   23  C   UNL     1      -5.604  -0.870 -33.211  1.00  0.00     0.014 A 
HETATM   24  C   UNL     1      -6.364  -1.769 -33.962  1.00  0.00     0.001 A 
HETATM   25  C   UNL     1      -7.167  -1.302 -34.999  1.00  0.00     0.000 A 
HETATM   26  C   UNL     1      -7.211   0.062 -35.285  1.00  0.00     0.001 A 
HETATM   27  C   UNL     1      -6.455   0.964 -34.532  1.00  0.00     0.014 A 
ENDBRANCH   1  22
TORSDOF 3
ENDMDL
MODEL 7
REMARK VINA RESULT:      -8.4      3.241      4.412
REMARK  3 active torsions:
REMARK  status: ('A' for Active; 'I' for Inactive)
REMARK    1  A    between atoms: C_4  and  C_5 
REMARK    2  A    between atoms: C_11  and  C_12 
REMARK    3  A    between atoms: C_21  and  N_22 
ROOT
HETATM    1  C   UNL     1      -5.725   1.140 -32.131  1.00  0.00     0.071 A 
HETATM    2  N   UNL     1      -4.970   0.072 -31.688  1.00  0.00    -0.274 N 
HETATM    3  H   UNL     1      -5.227  -0.909 -31.701  1.00  0.00     0.189 HD
HETATM    4  N   UNL     1      -3.750   0.406 -31.239  1.00  0.00    -0.148 NA
HETATM    5  C   UNL     1      -3.739   1.722 -31.403  1.00  0.00     0.199 A 
HETATM    6  C   UNL     1      -4.936   2.263 -31.899  1.00  0.00     0.036 A 
HETATM    7  C   UNL     1      -5.081   3.742 -32.147  1.00  0.00     0.079 A 
HETATM    8  C   UNL     1      -3.698   4.415 -31.895  1.00  0.00     0.063 A 
HETATM    9  C   UNL     1      -3.633   5.924 -32.075  1.00  0.00     0.020 C 
HETATM   10  N   UNL     1      -3.579   7.174 -32.225  1.00  0.00    -0.096 N 
HETATM   11  C   UNL     1      -2.602   3.769 -31.424  1.00  0.00     0.139 A 
HETATM   12  O   UNL     1      -2.614   2.404 -31.139  1.00  0.00    -0.277 OA
ENDROOT
BRANCH   7  13
HETATM   13  C   UNL     1      -6.248   4.476 -31.341  1.00  0.00     0.022 C 
HETATM   14  C   UNL     1      -6.574   3.910 -29.974  1.00  0.00    -0.025 C 
HETATM   15  C   UNL     1      -7.775   3.450 -29.594  1.00  0.00    -0.030 C 
HETATM   16  C   UNL     1      -8.985   3.515 -30.467  1.00  0.00     0.027 C 
HETATM   17  C   UNL     1      -8.852   4.661 -31.456  1.00  0.00     0.004 C 
HETATM   18  C   UNL     1      -7.535   4.577 -32.223  1.00  0.00     0.010 C 
ENDBRANCH   7  13
BRANCH  11  19
HETATM   19  N   UNL     1      -1.386   4.355 -31.152  1.00  0.00    -0.282 NA
HETATM   20  H   UNL     1      -1.206   4.591 -30.180  1.00  0.00     0.126 HD
HETATM   21  H   UNL     1      -0.617   3.853 -31.593  1.00  0.00     0.126 HD
ENDBRANCH  11  19
BRANCH   1  22
HETATM   22  C   UNL     1      -7.054   0.942 -32.700  1.00  0.00    -0.007 A 
HETATM   23  C   UNL     1      -8.086   0.406 -31.914  1.00  0.00     0.014 A 
HETATM   24  C   UNL     1      -9.367   0.234 -32.444  1.00  0.00     0.001 A 
HETATM   25  C   UNL     1      -9.625   0.589 -33.764  1.00  0.00     0.000 A 
HETATM   26  C   UNL     1      -8.606   1.115 -34.556  1.00  0.00     0.001 A 
HETATM   27  C   UNL     1      -7.325   1.293 -34.027  1.00  0.00     0.014 A 
ENDBRANCH   1  22
TORSDOF 3
ENDMDL
MODEL 8
REMARK VINA RESULT:      -8.4     13.819     15.707
REMARK  3 active torsions:
REMARK  status: ('A' for Active; 'I' for Inactive)
REMARK    1  A    between atoms: C_4  and  C_5 
REMARK    2  A    between atoms: C_11  and  C_12 
REMARK    3  A    between atoms: C_21  and  N_22 
ROOT
HETATM    1  C   UNL     1      -7.078 -13.711 -36.719  1.00  0.00     0.071 A 
HETATM    2  N   UNL     1      -7.401 -13.143 -35.503  1.00  0.00    -0.274 N 
HETATM    3  H   UNL     1      -8.253 -12.646 -35.265  1.00  0.00     0.189 HD
HETATM    4  N   UNL     1      -6.480 -13.328 -34.544  1.00  0.00    -0.148 NA
HETATM    5  C   UNL     1      -5.552 -14.031 -35.177  1.00  0.00     0.199 A 
HETATM    6  C   UNL     1      -5.816 -14.268 -36.535  1.00  0.00     0.036 A 
HETATM    7  C   UNL     1      -4.859 -15.058 -37.391  1.00  0.00     0.079 A 
HETATM    8  C   UNL     1      -3.727 -15.610 -36.472  1.00  0.00     0.063 A 
HETATM    9  C   UNL     1      -2.639 -16.427 -37.151  1.00  0.00     0.020 C 
HETATM   10  N   UNL     1      -1.737 -17.106 -37.713  1.00  0.00    -0.096 N 
HETATM   11  C   UNL     1      -3.592 -15.314 -35.155  1.00  0.00     0.139 A 
HETATM   12  O   UNL     1      -4.495 -14.488 -34.487  1.00  0.00    -0.277 OA
ENDROOT
BRANCH   7  13
HETATM   13  C   UNL     1      -4.267 -14.298 -38.664  1.00  0.00     0.022 C 
HETATM   14  C   UNL     1      -4.055 -12.805 -38.513  1.00  0.00    -0.025 C 
HETATM   15  C   UNL     1      -4.614 -11.863 -39.287  1.00  0.00    -0.030 C 
HETATM   16  C   UNL     1      -5.470 -12.182 -40.468  1.00  0.00     0.027 C 
HETATM   17  C   UNL     1      -5.100 -13.547 -41.024  1.00  0.00     0.004 C 
HETATM   18  C   UNL     1      -5.127 -14.612 -39.932  1.00  0.00     0.010 C 
ENDBRANCH   7  13
BRANCH  11  19
HETATM   19  N   UNL     1      -2.574 -15.754 -34.339  1.00  0.00    -0.282 NA
HETATM   20  H   UNL     1      -1.868 -16.341 -34.776  1.00  0.00     0.126 HD
HETATM   21  H   UNL     1      -2.180 -14.997 -33.785  1.00  0.00     0.126 HD
ENDBRANCH  11  19
BRANCH   1  22
HETATM   22  C   UNL     1      -7.996 -13.648 -37.852  1.00  0.00    -0.007 A 
HETATM   23  C   UNL     1      -8.636 -14.811 -38.308  1.00  0.00     0.014 A 
HETATM   24  C   UNL     1      -9.532 -14.757 -39.377  1.00  0.00     0.001 A 
HETATM   25  C   UNL     1      -9.791 -13.542 -40.005  1.00  0.00     0.000 A 
HETATM   26  C   UNL     1      -9.156 -12.382 -39.565  1.00  0.00     0.001 A 
HETATM   27  C   UNL     1      -8.262 -12.433 -38.492  1.00  0.00     0.014 A 
ENDBRANCH   1  22
TORSDOF 3
ENDMDL
MODEL 9
REMARK VINA RESULT:      -8.2      3.168      4.710
REMARK  3 active torsions:
REMARK  status: ('A' for Active; 'I' for Inactive)
REMARK    1  A    between atoms: C_4  and  C_5 
REMARK    2  A    between atoms: C_11  and  C_12 
REMARK    3  A    between atoms: C_21  and  N_22 
ROOT
HETATM    1  C   UNL     1      -6.675   2.268 -30.970  1.00  0.00     0.071 A 
HETATM    2  N   UNL     1      -6.871   2.469 -29.618  1.00  0.00    -0.274 N 
HETATM    3  H   UNL     1      -6.339   2.066 -28.855  1.00  0.00     0.189 HD
HETATM    4  N   UNL     1      -7.857   3.331 -29.325  1.00  0.00    -0.148 NA
HETATM    5  C   UNL     1      -8.292   3.681 -30.528  1.00  0.00     0.199 A 
HETATM    6  C   UNL     1      -7.654   3.034 -31.597  1.00  0.00     0.036 A 
HETATM    7  C   UNL     1      -8.030   3.328 -33.026  1.00  0.00     0.079 A 
HETATM    8  C   UNL     1      -9.064   4.495 -33.026  1.00  0.00     0.063 A 
HETATM    9  C   UNL     1      -9.591   4.937 -34.382  1.00  0.00     0.020 C 
HETATM   10  N   UNL     1     -10.027   5.304 -35.507  1.00  0.00    -0.096 N 
HETATM   11  C   UNL     1      -9.598   5.050 -31.909  1.00  0.00     0.139 A 
HETATM   12  O   UNL     1      -9.239   4.628 -30.630  1.00  0.00    -0.277 OA
ENDROOT
BRANCH   7  13
HETATM   13  C   UNL     1      -8.547   2.084 -33.884  1.00  0.00     0.022 C 
HETATM   14  C   UNL     1      -9.275   0.999 -33.117  1.00  0.00    -0.025 C 
HETATM   15  C   UNL     1      -8.908  -0.290 -33.067  1.00  0.00    -0.030 C 
HETATM   16  C   UNL     1      -7.756  -0.840 -33.842  1.00  0.00     0.027 C 
HETATM   17  C   UNL     1      -7.514   0.004 -35.082  1.00  0.00     0.004 C 
HETATM   18  C   UNL     1      -7.374   1.481 -34.724  1.00  0.00     0.010 C 
ENDBRANCH   7  13
BRANCH  11  19
HETATM   19  N   UNL     1     -10.546   6.049 -31.890  1.00  0.00    -0.282 NA
HETATM   20  H   UNL     1     -10.607   6.597 -31.036  1.00  0.00     0.126 HD
HETATM   21  H   UNL     1     -10.509   6.620 -32.732  1.00  0.00     0.126 HD
ENDBRANCH  11  19
BRANCH   1  22
HETATM   22  C   UNL     1      -5.608   1.401 -31.460  1.00  0.00    -0.007 A 
HETATM   23  C   UNL     1      -5.635   0.024 -31.186  1.00  0.00     0.014 A 
HETATM   24  C   UNL     1      -4.630  -0.817 -31.668  1.00  0.00     0.001 A 
HETATM   25  C   UNL     1      -3.586  -0.289 -32.421  1.00  0.00     0.000 A 
HETATM   26  C   UNL     1      -3.545   1.078 -32.693  1.00  0.00     0.001 A 
HETATM   27  C   UNL     1      -4.552   1.920 -32.216  1.00  0.00     0.014 A 
ENDBRANCH   1  22
TORSDOF 3
ENDMDL
MODEL 10
REMARK VINA RESULT:      -8.1      3.584      5.649
REMARK  3 active torsions:
REMARK  status: ('A' for Active; 'I' for Inactive)
REMARK    1  A    between atoms: C_4  and  C_5 
REMARK    2  A    between atoms: C_11  and  C_12 
REMARK    3  A    between atoms: C_21  and  N_22 
ROOT
HETATM    1  C   UNL     1      -8.631   1.274 -32.707  1.00  0.00     0.071 A 
HETATM    2  N   UNL     1      -9.765   1.009 -33.448  1.00  0.00    -0.274 N 
HETATM    3  H   UNL     1      -9.915   0.234 -34.085  1.00  0.00     0.189 HD
HETATM    4  N   UNL     1     -10.774   1.870 -33.242  1.00  0.00    -0.148 NA
HETATM    5  C   UNL     1     -10.257   2.700 -32.346  1.00  0.00     0.199 A 
HETATM    6  C   UNL     1      -8.923   2.436 -31.999  1.00  0.00     0.036 A 
HETATM    7  C   UNL     1      -8.195   3.285 -30.988  1.00  0.00     0.079 A 
HETATM    8  C   UNL     1      -9.211   4.303 -30.387  1.00  0.00     0.063 A 
HETATM    9  C   UNL     1      -8.668   5.274 -29.351  1.00  0.00     0.020 C 
HETATM   10  N   UNL     1      -8.218   6.080 -28.492  1.00  0.00    -0.096 N 
HETATM   11  C   UNL     1     -10.494   4.449 -30.806  1.00  0.00     0.139 A 
HETATM   12  O   UNL     1     -11.033   3.662 -31.823  1.00  0.00    -0.277 OA
ENDROOT
BRANCH   7  13
HETATM   13  C   UNL     1      -6.871   4.011 -31.508  1.00  0.00     0.022 C 
HETATM   14  C   UNL     1      -6.603   3.926 -32.998  1.00  0.00    -0.025 C 
HETATM   15  C   UNL     1      -5.501   3.405 -33.555  1.00  0.00    -0.030 C 
HETATM   16  C   UNL     1      -4.342   2.906 -32.756  1.00  0.00     0.027 C 
HETATM   17  C   UNL     1      -4.290   3.618 -31.415  1.00  0.00     0.004 C 
HETATM   18  C   UNL     1      -5.631   3.527 -30.690  1.00  0.00     0.010 C 
ENDBRANCH   7  13
BRANCH  11  19
HETATM   19  N   UNL     1     -11.391   5.373 -30.319  1.00  0.00    -0.282 NA
HETATM   20  H   UNL     1     -12.104   5.020 -29.687  1.00  0.00     0.126 HD
HETATM   21  H   UNL     1     -10.922   6.207 -29.970  1.00  0.00     0.126 HD
ENDBRANCH  11  19
BRANCH   1  22
HETATM   22  C   UNL     1      -7.463   0.401 -32.773  1.00  0.00    -0.007 A 
HETATM   23  C   UNL     1      -7.083  -0.178 -33.994  1.00  0.00     0.014 A 
HETATM   24  C   UNL     1      -5.954  -0.996 -34.073  1.00  0.00     0.001 A 
HETATM   25  C   UNL     1      -5.200  -1.249 -32.931  1.00  0.00     0.000 A 
HETATM   26  C   UNL     1      -5.572  -0.685 -31.712  1.00  0.00     0.001 A 
HETATM   27  C   UNL     1      -6.698   0.138 -31.632  1.00  0.00     0.014 A 
ENDBRANCH   1  22
TORSDOF 3
ENDMDL
