MODEL 1
REMARK VINA RESULT:      -8.5      0.000      0.000
REMARK  4 active torsions:
REMARK  status: ('A' for Active; 'I' for Inactive)
REMARK    1  A    between atoms: C_5  and  C_6 
REMARK    2  A    between atoms: C_6  and  N_7 
REMARK    3  A    between atoms: C_6  and  C_18 
REMARK    4  A    between atoms: N_7  and  C_8 
ROOT
HETATM    1  C   UNL     1      -6.487   0.148 -33.965  1.00  0.00     0.288 C 
ENDROOT
BRANCH   1   2
HETATM    2  C   UNL     1      -6.122   0.569 -32.552  1.00  0.00    -0.003 A 
HETATM    3  C   UNL     1      -5.404   1.742 -32.329  1.00  0.00     0.126 A 
HETATM    4  N   UNL     1      -5.065   2.209 -31.108  1.00  0.00    -0.272 NA
HETATM    5  C   UNL     1      -5.425   1.459 -30.046  1.00  0.00     0.116 A 
HETATM    6  C   UNL     1      -6.125   0.271 -30.150  1.00  0.00     0.020 A 
HETATM    7  C   UNL     1      -6.483  -0.175 -31.420  1.00  0.00     0.012 A 
ENDBRANCH   1   2
BRANCH   1   8
HETATM    8  N   UNL     1      -7.900   0.502 -34.242  1.00  0.00     0.101 N 
HETATM    9  H   UNL     1      -8.360  -0.332 -34.601  1.00  0.00     0.317 HD
BRANCH   8  10
HETATM   10  C   UNL     1      -8.629   1.146 -33.142  1.00  0.00     0.225 C 
HETATM   11  C   UNL     1      -9.996   0.512 -32.805  1.00  0.00     0.069 C 
HETATM   12  C   UNL     1     -11.010   0.775 -33.901  1.00  0.00     0.190 C 
HETATM   13  N   UNL     1     -11.147   2.262 -34.086  1.00  0.00    -0.067 N 
HETATM   14  C   UNL     1     -12.447   0.382 -33.621  1.00  0.00     0.035 C 
HETATM   15  H   UNL     1     -11.382   2.679 -33.173  1.00  0.00     0.280 HD
HETATM   16  C   UNL     1      -9.877   2.905 -34.549  1.00  0.00     0.237 C 
HETATM   17  C   UNL     1     -12.369   2.440 -34.949  1.00  0.00     0.235 C 
HETATM   18  C   UNL     1      -8.805   2.642 -33.494  1.00  0.00     0.063 C 
HETATM   19  C   UNL     1     -13.232   1.217 -34.633  1.00  0.00     0.030 C 
ENDBRANCH   8  10
ENDBRANCH   1   8
BRANCH   1  20
HETATM   20  C   UNL     1      -6.138  -1.311 -34.234  1.00  0.00    -0.021 A 
HETATM   21  C   UNL     1      -4.800  -1.734 -34.120  1.00  0.00     0.012 A 
HETATM   22  C   UNL     1      -4.453  -3.067 -34.348  1.00  0.00     0.043 A 
HETATM   23  C   UNL     1      -5.438  -3.986 -34.682  1.00  0.00     0.116 A 
HETATM   24  F   UNL     1      -5.103  -5.263 -34.903  1.00  0.00    -0.206 F 
HETATM   25  C   UNL     1      -6.768  -3.599 -34.787  1.00  0.00     0.043 A 
HETATM   26  C   UNL     1      -7.119  -2.266 -34.560  1.00  0.00     0.012 A 
ENDBRANCH   1  20
TORSDOF 4
ENDMDL
MODEL 2
REMARK VINA RESULT:      -8.4      2.461      5.664
REMARK  4 active torsions:
REMARK  status: ('A' for Active; 'I' for Inactive)
REMARK    1  A    between atoms: C_5  and  C_6 
REMARK    2  A    between atoms: C_6  and  N_7 
REMARK    3  A    between atoms: C_6  and  C_18 
REMARK    4  A    between atoms: N_7  and  C_8 
ROOT
HETATM    1  C   UNL     1      -6.836   1.154 -33.283  1.00  0.00     0.288 C 
ENDROOT
BRANCH   1   2
HETATM    2  C   UNL     1      -8.346   1.020 -33.384  1.00  0.00    -0.003 A 
HETATM    3  C   UNL     1      -9.074   1.863 -34.220  1.00  0.00     0.126 A 
HETATM    4  N   UNL     1     -10.412   1.793 -34.397  1.00  0.00    -0.272 NA
HETATM    5  C   UNL     1     -11.074   0.862 -33.680  1.00  0.00     0.116 A 
HETATM    6  C   UNL     1     -10.456  -0.016 -32.808  1.00  0.00     0.020 A 
HETATM    7  C   UNL     1      -9.073   0.062 -32.665  1.00  0.00     0.012 A 
ENDBRANCH   1   2
BRANCH   1   8
HETATM    8  N   UNL     1      -6.387   2.333 -34.063  1.00  0.00     0.101 N 
HETATM    9  H   UNL     1      -6.988   2.406 -34.880  1.00  0.00     0.317 HD
BRANCH   8  10
HETATM   10  C   UNL     1      -6.262   3.589 -33.313  1.00  0.00     0.225 C 
HETATM   11  C   UNL     1      -5.636   4.761 -34.100  1.00  0.00     0.069 C 
HETATM   12  C   UNL     1      -4.159   4.527 -34.353  1.00  0.00     0.190 C 
HETATM   13  N   UNL     1      -3.465   4.348 -33.030  1.00  0.00    -0.067 N 
HETATM   14  C   UNL     1      -3.369   5.678 -34.944  1.00  0.00     0.035 C 
HETATM   15  H   UNL     1      -3.677   5.168 -32.442  1.00  0.00     0.280 HD
HETATM   16  C   UNL     1      -3.943   3.139 -32.287  1.00  0.00     0.237 C 
HETATM   17  C   UNL     1      -1.993   4.432 -33.343  1.00  0.00     0.235 C 
HETATM   18  C   UNL     1      -5.440   3.305 -32.034  1.00  0.00     0.063 C 
HETATM   19  C   UNL     1      -1.926   5.318 -34.588  1.00  0.00     0.030 C 
ENDBRANCH   8  10
ENDBRANCH   1   8
BRANCH   1  20
HETATM   20  C   UNL     1      -6.122  -0.145 -33.637  1.00  0.00    -0.021 A 
HETATM   21  C   UNL     1      -5.011  -0.553 -32.873  1.00  0.00     0.012 A 
HETATM   22  C   UNL     1      -4.346  -1.744 -33.166  1.00  0.00     0.043 A 
HETATM   23  C   UNL     1      -4.788  -2.539 -34.214  1.00  0.00     0.116 A 
HETATM   24  F   UNL     1      -4.147  -3.680 -34.496  1.00  0.00    -0.206 F 
HETATM   25  C   UNL     1      -5.890  -2.167 -34.975  1.00  0.00     0.043 A 
HETATM   26  C   UNL     1      -6.558  -0.976 -34.685  1.00  0.00     0.012 A 
ENDBRANCH   1  20
TORSDOF 4
ENDMDL
MODEL 3
REMARK VINA RESULT:      -8.3      3.124      6.293
REMARK  4 active torsions:
REMARK  status: ('A' for Active; 'I' for Inactive)
REMARK    1  A    between atoms: C_5  and  C_6 
REMARK    2  A    between atoms: C_6  and  N_7 
REMARK    3  A    between atoms: C_6  and  C_18 
REMARK    4  A    between atoms: N_7  and  C_8 
ROOT
HETATM    1  C   UNL     1      -6.451   0.918 -33.759  1.00  0.00     0.288 C 
ENDROOT
BRANCH   1   2
HETATM    2  C   UNL     1      -5.819  -0.448 -33.956  1.00  0.00    -0.003 A 
HETATM    3  C   UNL     1      -4.652  -0.790 -33.274  1.00  0.00     0.126 A 
HETATM    4  N   UNL     1      -4.040  -1.991 -33.363  1.00  0.00    -0.272 NA
HETATM    5  C   UNL     1      -4.590  -2.895 -34.200  1.00  0.00     0.116 A 
HETATM    6  C   UNL     1      -5.736  -2.659 -34.937  1.00  0.00     0.020 A 
HETATM    7  C   UNL     1      -6.360  -1.421 -34.807  1.00  0.00     0.012 A 
ENDBRANCH   1   2
BRANCH   1   8
HETATM    8  N   UNL     1      -5.762   1.634 -32.658  1.00  0.00     0.101 N 
HETATM    9  H   UNL     1      -4.763   1.483 -32.774  1.00  0.00     0.317 HD
BRANCH   8  10
HETATM   10  C   UNL     1      -6.126   3.045 -32.482  1.00  0.00     0.225 C 
HETATM   11  C   UNL     1      -5.876   3.943 -33.714  1.00  0.00     0.069 C 
HETATM   12  C   UNL     1      -4.392   4.145 -33.956  1.00  0.00     0.190 C 
HETATM   13  N   UNL     1      -3.781   4.754 -32.723  1.00  0.00    -0.067 N 
HETATM   14  C   UNL     1      -3.997   5.159 -35.010  1.00  0.00     0.035 C 
HETATM   15  H   UNL     1      -4.301   5.614 -32.498  1.00  0.00     0.280 HD
HETATM   16  C   UNL     1      -3.876   3.857 -31.528  1.00  0.00     0.237 C 
HETATM   17  C   UNL     1      -2.405   5.200 -33.146  1.00  0.00     0.235 C 
HETATM   18  C   UNL     1      -5.355   3.590 -31.258  1.00  0.00     0.063 C 
HETATM   19  C   UNL     1      -2.548   5.484 -34.643  1.00  0.00     0.030 C 
ENDBRANCH   8  10
ENDBRANCH   1   8
BRANCH   1  20
HETATM   20  C   UNL     1      -7.965   0.830 -33.603  1.00  0.00    -0.021 A 
HETATM   21  C   UNL     1      -8.795   1.546 -34.488  1.00  0.00     0.012 A 
HETATM   22  C   UNL     1     -10.184   1.474 -34.376  1.00  0.00     0.043 A 
HETATM   23  C   UNL     1     -10.754   0.681 -33.390  1.00  0.00     0.116 A 
HETATM   24  F   UNL     1     -12.087   0.614 -33.283  1.00  0.00    -0.206 F 
HETATM   25  C   UNL     1      -9.960  -0.047 -32.513  1.00  0.00     0.043 A 
HETATM   26  C   UNL     1      -8.569   0.023 -32.621  1.00  0.00     0.012 A 
ENDBRANCH   1  20
TORSDOF 4
ENDMDL
MODEL 4
REMARK VINA RESULT:      -8.2      2.784      4.462
REMARK  4 active torsions:
REMARK  status: ('A' for Active; 'I' for Inactive)
REMARK    1  A    between atoms: C_5  and  C_6 
REMARK    2  A    between atoms: C_6  and  N_7 
REMARK    3  A    between atoms: C_6  and  C_18 
REMARK    4  A    between atoms: N_7  and  C_8 
ROOT
HETATM    1  C   UNL     1      -6.664   0.507 -32.805  1.00  0.00     0.288 C 
ENDROOT
BRANCH   1   2
HETATM    2  C   UNL     1      -5.913  -0.688 -33.365  1.00  0.00    -0.003 A 
HETATM    3  C   UNL     1      -4.764  -1.158 -32.731  1.00  0.00     0.126 A 
HETATM    4  N   UNL     1      -4.053  -2.232 -33.140  1.00  0.00    -0.272 NA
HETATM    5  C   UNL     1      -4.478  -2.857 -34.257  1.00  0.00     0.116 A 
HETATM    6  C   UNL     1      -5.595  -2.467 -34.974  1.00  0.00     0.020 A 
HETATM    7  C   UNL     1      -6.323  -1.372 -34.517  1.00  0.00     0.012 A 
ENDBRANCH   1   2
BRANCH   1   8
HETATM    8  N   UNL     1      -8.061   0.495 -33.300  1.00  0.00     0.101 N 
HETATM    9  H   UNL     1      -8.117  -0.199 -34.041  1.00  0.00     0.317 HD
BRANCH   8  10
HETATM   10  C   UNL     1      -9.104   0.347 -32.277  1.00  0.00     0.225 C 
HETATM   11  C   UNL     1     -10.484  -0.094 -32.811  1.00  0.00     0.069 C 
HETATM   12  C   UNL     1     -11.144   1.011 -33.614  1.00  0.00     0.190 C 
HETATM   13  N   UNL     1     -11.278   2.229 -32.740  1.00  0.00    -0.067 N 
HETATM   14  C   UNL     1     -12.583   0.793 -34.036  1.00  0.00     0.035 C 
HETATM   15  H   UNL     1     -11.786   1.956 -31.885  1.00  0.00     0.280 HD
HETATM   16  C   UNL     1      -9.954   2.778 -32.308  1.00  0.00     0.237 C 
HETATM   17  C   UNL     1     -12.200   3.153 -33.492  1.00  0.00     0.235 C 
HETATM   18  C   UNL     1      -9.228   1.691 -31.521  1.00  0.00     0.063 C 
HETATM   19  C   UNL     1     -13.070   2.213 -34.330  1.00  0.00     0.030 C 
ENDBRANCH   8  10
ENDBRANCH   1   8
BRANCH   1  20
HETATM   20  C   UNL     1      -5.920   1.815 -33.048  1.00  0.00    -0.021 A 
HETATM   21  C   UNL     1      -4.751   2.093 -32.313  1.00  0.00     0.012 A 
HETATM   22  C   UNL     1      -4.042   3.276 -32.524  1.00  0.00     0.043 A 
HETATM   23  C   UNL     1      -4.488   4.184 -33.474  1.00  0.00     0.116 A 
HETATM   24  F   UNL     1      -3.809   5.320 -33.673  1.00  0.00    -0.206 F 
HETATM   25  C   UNL     1      -5.630   3.930 -34.223  1.00  0.00     0.043 A 
HETATM   26  C   UNL     1      -6.342   2.747 -34.015  1.00  0.00     0.012 A 
ENDBRANCH   1  20
TORSDOF 4
ENDMDL
MODEL 5
REMARK VINA RESULT:      -8.2      3.513      6.416
REMARK  4 active torsions:
REMARK  status: ('A' for Active; 'I' for Inactive)
REMARK    1  A    between atoms: C_5  and  C_6 
REMARK    2  A    between atoms: C_6  and  N_7 
REMARK    3  A    between atoms: C_6  and  C_18 
REMARK    4  A    between atoms: N_7  and  C_8 
ROOT
HETATM    1  C   UNL     1      -5.666   1.948 -32.988  1.00  0.00     0.288 C 
ENDROOT
BRANCH   1   2
HETATM    2  C   UNL     1      -4.631   0.914 -32.579  1.00  0.00    -0.003 A 
HETATM    3  C   UNL     1      -3.704   1.202 -31.579  1.00  0.00     0.126 A 
HETATM    4  N   UNL     1      -2.771   0.334 -31.130  1.00  0.00    -0.272 NA
HETATM    5  C   UNL     1      -2.727  -0.876 -31.726  1.00  0.00     0.116 A 
HETATM    6  C   UNL     1      -3.587  -1.264 -32.737  1.00  0.00     0.020 A 
HETATM    7  C   UNL     1      -4.555  -0.357 -33.163  1.00  0.00     0.012 A 
ENDBRANCH   1   2
BRANCH   1   8
HETATM    8  N   UNL     1      -5.520   3.160 -32.147  1.00  0.00     0.101 N 
HETATM    9  H   UNL     1      -4.614   3.107 -31.688  1.00  0.00     0.317 HD
BRANCH   8  10
HETATM   10  C   UNL     1      -5.761   4.442 -32.821  1.00  0.00     0.225 C 
HETATM   11  C   UNL     1      -4.960   4.656 -34.124  1.00  0.00     0.069 C 
HETATM   12  C   UNL     1      -3.484   4.852 -33.837  1.00  0.00     0.190 C 
HETATM   13  N   UNL     1      -3.324   6.032 -32.916  1.00  0.00    -0.067 N 
HETATM   14  C   UNL     1      -2.604   5.267 -34.999  1.00  0.00     0.035 C 
HETATM   15  H   UNL     1      -3.790   6.843 -33.350  1.00  0.00     0.280 HD
HETATM   16  C   UNL     1      -3.969   5.816 -31.583  1.00  0.00     0.237 C 
HETATM   17  C   UNL     1      -1.850   6.345 -32.931  1.00  0.00     0.235 C 
HETATM   18  C   UNL     1      -5.459   5.577 -31.815  1.00  0.00     0.063 C 
HETATM   19  C   UNL     1      -1.378   5.860 -34.303  1.00  0.00     0.030 C 
ENDBRANCH   8  10
ENDBRANCH   1   8
BRANCH   1  20
HETATM   20  C   UNL     1      -7.075   1.366 -33.015  1.00  0.00    -0.021 A 
HETATM   21  C   UNL     1      -7.722   1.065 -31.801  1.00  0.00     0.012 A 
HETATM   22  C   UNL     1      -9.017   0.543 -31.795  1.00  0.00     0.043 A 
HETATM   23  C   UNL     1      -9.676   0.327 -32.997  1.00  0.00     0.116 A 
HETATM   24  F   UNL     1     -10.917  -0.176 -32.990  1.00  0.00    -0.206 F 
HETATM   25  C   UNL     1      -9.067   0.628 -34.208  1.00  0.00     0.043 A 
HETATM   26  C   UNL     1      -7.771   1.150 -34.218  1.00  0.00     0.012 A 
ENDBRANCH   1  20
TORSDOF 4
ENDMDL
MODEL 6
REMARK VINA RESULT:      -8.2      2.025      5.412
REMARK  4 active torsions:
REMARK  status: ('A' for Active; 'I' for Inactive)
REMARK    1  A    between atoms: C_5  and  C_6 
REMARK    2  A    between atoms: C_6  and  N_7 
REMARK    3  A    between atoms: C_6  and  C_18 
REMARK    4  A    between atoms: N_7  and  C_8 
ROOT
HETATM    1  C   UNL     1      -6.754   0.208 -32.406  1.00  0.00     0.288 C 
ENDROOT
BRANCH   1   2
HETATM    2  C   UNL     1      -8.076   0.735 -32.935  1.00  0.00    -0.003 A 
HETATM    3  C   UNL     1      -8.103   1.806 -33.826  1.00  0.00     0.126 A 
HETATM    4  N   UNL     1      -9.228   2.318 -34.371  1.00  0.00    -0.272 NA
HETATM    5  C   UNL     1     -10.397   1.765 -33.988  1.00  0.00     0.116 A 
HETATM    6  C   UNL     1     -10.491   0.709 -33.099  1.00  0.00     0.020 A 
HETATM    7  C   UNL     1      -9.313   0.186 -32.571  1.00  0.00     0.012 A 
ENDBRANCH   1   2
BRANCH   1   8
HETATM    8  N   UNL     1      -5.772   1.317 -32.322  1.00  0.00     0.101 N 
HETATM    9  H   UNL     1      -6.252   2.171 -32.595  1.00  0.00     0.317 HD
BRANCH   8  10
HETATM   10  C   UNL     1      -5.043   1.434 -31.053  1.00  0.00     0.225 C 
HETATM   11  C   UNL     1      -5.528   2.566 -30.122  1.00  0.00     0.069 C 
HETATM   12  C   UNL     1      -5.178   3.930 -30.684  1.00  0.00     0.190 C 
HETATM   13  N   UNL     1      -3.687   4.004 -30.876  1.00  0.00    -0.067 N 
HETATM   14  C   UNL     1      -5.417   5.129 -29.788  1.00  0.00     0.035 C 
HETATM   15  H   UNL     1      -3.236   3.781 -29.977  1.00  0.00     0.280 HD
HETATM   16  C   UNL     1      -3.184   3.013 -31.879  1.00  0.00     0.237 C 
HETATM   17  C   UNL     1      -3.396   5.460 -31.134  1.00  0.00     0.235 C 
HETATM   18  C   UNL     1      -3.541   1.616 -31.379  1.00  0.00     0.063 C 
HETATM   19  C   UNL     1      -4.520   6.201 -30.407  1.00  0.00     0.030 C 
ENDBRANCH   8  10
ENDBRANCH   1   8
BRANCH   1  20
HETATM   20  C   UNL     1      -6.268  -1.006 -33.189  1.00  0.00    -0.021 A 
HETATM   21  C   UNL     1      -4.917  -1.391 -33.100  1.00  0.00     0.012 A 
HETATM   22  C   UNL     1      -4.447  -2.506 -33.796  1.00  0.00     0.043 A 
HETATM   23  C   UNL     1      -5.322  -3.247 -34.577  1.00  0.00     0.116 A 
HETATM   24  F   UNL     1      -4.870  -4.315 -35.246  1.00  0.00    -0.206 F 
HETATM   25  C   UNL     1      -6.663  -2.898 -34.672  1.00  0.00     0.043 A 
HETATM   26  C   UNL     1      -7.137  -1.783 -33.977  1.00  0.00     0.012 A 
ENDBRANCH   1  20
TORSDOF 4
ENDMDL
MODEL 7
REMARK VINA RESULT:      -8.1      1.319      2.420
REMARK  4 active torsions:
REMARK  status: ('A' for Active; 'I' for Inactive)
REMARK    1  A    between atoms: C_5  and  C_6 
REMARK    2  A    between atoms: C_6  and  N_7 
REMARK    3  A    between atoms: C_6  and  C_18 
REMARK    4  A    between atoms: N_7  and  C_8 
ROOT
HETATM    1  C   UNL     1      -6.506  -0.270 -33.820  1.00  0.00     0.288 C 
ENDROOT
BRANCH   1   2
HETATM    2  C   UNL     1      -5.895   0.212 -32.516  1.00  0.00    -0.003 A 
HETATM    3  C   UNL     1      -4.766   1.028 -32.526  1.00  0.00     0.126 A 
HETATM    4  N   UNL     1      -4.177   1.530 -31.419  1.00  0.00    -0.272 NA
HETATM    5  C   UNL     1      -4.711   1.178 -30.231  1.00  0.00     0.116 A 
HETATM    6  C   UNL     1      -5.821   0.362 -30.102  1.00  0.00     0.020 A 
HETATM    7  C   UNL     1      -6.422  -0.121 -31.261  1.00  0.00     0.012 A 
ENDBRANCH   1   2
BRANCH   1   8
HETATM    8  N   UNL     1      -7.969  -0.029 -33.807  1.00  0.00     0.101 N 
HETATM    9  H   UNL     1      -8.283  -0.111 -32.843  1.00  0.00     0.317 HD
BRANCH   8  10
HETATM   10  C   UNL     1      -8.423   1.200 -34.469  1.00  0.00     0.225 C 
HETATM   11  C   UNL     1      -7.813   2.505 -33.913  1.00  0.00     0.069 C 
HETATM   12  C   UNL     1      -8.343   2.814 -32.526  1.00  0.00     0.190 C 
HETATM   13  N   UNL     1      -9.843   2.917 -32.594  1.00  0.00    -0.067 N 
HETATM   14  C   UNL     1      -7.984   4.162 -31.933  1.00  0.00     0.035 C 
HETATM   15  H   UNL     1     -10.085   3.616 -33.313  1.00  0.00     0.280 HD
HETATM   16  C   UNL     1     -10.493   1.630 -32.998  1.00  0.00     0.237 C 
HETATM   17  C   UNL     1     -10.257   3.520 -31.276  1.00  0.00     0.235 C 
HETATM   18  C   UNL     1      -9.966   1.251 -34.379  1.00  0.00     0.063 C 
HETATM   19  C   UNL     1      -9.046   4.351 -30.849  1.00  0.00     0.030 C 
ENDBRANCH   8  10
ENDBRANCH   1   8
BRANCH   1  20
HETATM   20  C   UNL     1      -6.107  -1.706 -34.140  1.00  0.00    -0.021 A 
HETATM   21  C   UNL     1      -4.759  -2.095 -34.012  1.00  0.00     0.012 A 
HETATM   22  C   UNL     1      -4.367  -3.406 -34.286  1.00  0.00     0.043 A 
HETATM   23  C   UNL     1      -5.316  -4.339 -34.680  1.00  0.00     0.116 A 
HETATM   24  F   UNL     1      -4.938  -5.595 -34.945  1.00  0.00    -0.206 F 
HETATM   25  C   UNL     1      -6.654  -3.986 -34.802  1.00  0.00     0.043 A 
HETATM   26  C   UNL     1      -7.050  -2.675 -34.529  1.00  0.00     0.012 A 
ENDBRANCH   1  20
TORSDOF 4
ENDMDL
MODEL 8
REMARK VINA RESULT:      -7.8      2.701      5.916
REMARK  4 active torsions:
REMARK  status: ('A' for Active; 'I' for Inactive)
REMARK    1  A    between atoms: C_5  and  C_6 
REMARK    2  A    between atoms: C_6  and  N_7 
REMARK    3  A    between atoms: C_6  and  C_18 
REMARK    4  A    between atoms: N_7  and  C_8 
ROOT
HETATM    1  C   UNL     1      -7.011   0.717 -31.590  1.00  0.00     0.288 C 
ENDROOT
BRANCH   1   2
HETATM    2  C   UNL     1      -6.167   1.965 -31.399  1.00  0.00    -0.003 A 
HETATM    3  C   UNL     1      -6.247   2.695 -30.215  1.00  0.00     0.126 A 
HETATM    4  N   UNL     1      -5.512   3.796 -29.946  1.00  0.00    -0.272 NA
HETATM    5  C   UNL     1      -4.674   4.222 -30.915  1.00  0.00     0.116 A 
HETATM    6  C   UNL     1      -4.525   3.585 -32.133  1.00  0.00     0.020 A 
HETATM    7  C   UNL     1      -5.278   2.438 -32.374  1.00  0.00     0.012 A 
ENDBRANCH   1   2
BRANCH   1   8
HETATM    8  N   UNL     1      -6.146  -0.411 -32.014  1.00  0.00     0.101 N 
HETATM    9  H   UNL     1      -6.641  -1.273 -31.800  1.00  0.00     0.317 HD
BRANCH   8  10
HETATM   10  C   UNL     1      -5.640  -0.350 -33.391  1.00  0.00     0.225 C 
HETATM   11  C   UNL     1      -6.419  -1.207 -34.411  1.00  0.00     0.069 C 
HETATM   12  C   UNL     1      -6.190  -2.688 -34.176  1.00  0.00     0.190 C 
HETATM   13  N   UNL     1      -4.714  -2.968 -34.266  1.00  0.00    -0.067 N 
HETATM   14  C   UNL     1      -6.733  -3.645 -35.218  1.00  0.00     0.035 C 
HETATM   15  H   UNL     1      -4.376  -2.620 -35.175  1.00  0.00     0.280 HD
HETATM   16  C   UNL     1      -3.927  -2.265 -33.205  1.00  0.00     0.237 C 
HETATM   17  C   UNL     1      -4.602  -4.470 -34.331  1.00  0.00     0.235 C 
HETATM   18  C   UNL     1      -4.149  -0.764 -33.373  1.00  0.00     0.063 C 
HETATM   19  C   UNL     1      -5.918  -4.915 -34.972  1.00  0.00     0.030 C 
ENDBRANCH   8  10
ENDBRANCH   1   8
BRANCH   1  20
HETATM   20  C   UNL     1      -8.207   0.970 -32.501  1.00  0.00    -0.021 A 
HETATM   21  C   UNL     1      -9.347   0.151 -32.388  1.00  0.00     0.012 A 
HETATM   22  C   UNL     1     -10.462   0.367 -33.200  1.00  0.00     0.043 A 
HETATM   23  C   UNL     1     -10.450   1.406 -34.120  1.00  0.00     0.116 A 
HETATM   24  F   UNL     1     -11.519   1.611 -34.900  1.00  0.00    -0.206 F 
HETATM   25  C   UNL     1      -9.344   2.238 -34.242  1.00  0.00     0.043 A 
HETATM   26  C   UNL     1      -8.227   2.024 -33.432  1.00  0.00     0.012 A 
ENDBRANCH   1  20
TORSDOF 4
ENDMDL
MODEL 9
REMARK VINA RESULT:      -7.7     13.815     14.959
REMARK  4 active torsions:
REMARK  status: ('A' for Active; 'I' for Inactive)
REMARK    1  A    between atoms: C_5  and  C_6 
REMARK    2  A    between atoms: C_6  and  N_7 
REMARK    3  A    between atoms: C_6  and  C_18 
REMARK    4  A    between atoms: N_7  and  C_8 
ROOT
HETATM    1  C   UNL     1      -5.190 -13.303 -37.989  1.00  0.00     0.288 C 
ENDROOT
BRANCH   1   2
HETATM    2  C   UNL     1      -5.650 -13.355 -36.543  1.00  0.00    -0.003 A 
HETATM    3  C   UNL     1      -7.003 -13.487 -36.238  1.00  0.00     0.126 A 
HETATM    4  N   UNL     1      -7.498 -13.574 -34.984  1.00  0.00    -0.272 NA
HETATM    5  C   UNL     1      -6.611 -13.491 -33.971  1.00  0.00     0.116 A 
HETATM    6  C   UNL     1      -5.248 -13.345 -34.156  1.00  0.00     0.020 A 
HETATM    7  C   UNL     1      -4.763 -13.282 -35.460  1.00  0.00     0.012 A 
ENDBRANCH   1   2
BRANCH   1   8
HETATM    8  N   UNL     1      -5.972 -14.269 -38.797  1.00  0.00     0.101 N 
HETATM    9  H   UNL     1      -6.808 -14.505 -38.267  1.00  0.00     0.317 HD
BRANCH   8  10
HETATM   10  C   UNL     1      -6.249 -13.872 -40.183  1.00  0.00     0.225 C 
HETATM   11  C   UNL     1      -7.182 -12.651 -40.339  1.00  0.00     0.069 C 
HETATM   12  C   UNL     1      -8.604 -12.991 -39.937  1.00  0.00     0.190 C 
HETATM   13  N   UNL     1      -9.085 -14.137 -40.786  1.00  0.00    -0.067 N 
HETATM   14  C   UNL     1      -9.669 -11.950 -40.222  1.00  0.00     0.035 C 
HETATM   15  H   UNL     1      -8.968 -13.875 -41.776  1.00  0.00     0.280 HD
HETATM   16  C   UNL     1      -8.294 -15.389 -40.567  1.00  0.00     0.237 C 
HETATM   17  C   UNL     1     -10.572 -14.205 -40.549  1.00  0.00     0.235 C 
HETATM   18  C   UNL     1      -6.839 -15.094 -40.924  1.00  0.00     0.063 C 
HETATM   19  C   UNL     1     -10.960 -12.769 -40.196  1.00  0.00     0.030 C 
ENDBRANCH   8  10
ENDBRANCH   1   8
BRANCH   1  20
HETATM   20  C   UNL     1      -3.678 -13.456 -38.113  1.00  0.00    -0.021 A 
HETATM   21  C   UNL     1      -2.877 -12.307 -38.262  1.00  0.00     0.012 A 
HETATM   22  C   UNL     1      -1.489 -12.416 -38.365  1.00  0.00     0.043 A 
HETATM   23  C   UNL     1      -0.892 -13.668 -38.312  1.00  0.00     0.116 A 
HETATM   24  F   UNL     1       0.439 -13.771 -38.414  1.00  0.00    -0.206 F 
HETATM   25  C   UNL     1      -1.657 -14.816 -38.151  1.00  0.00     0.043 A 
HETATM   26  C   UNL     1      -3.046 -14.711 -38.048  1.00  0.00     0.012 A 
ENDBRANCH   1  20
TORSDOF 4
ENDMDL
MODEL 10
REMARK VINA RESULT:      -7.6      3.977      7.000
REMARK  4 active torsions:
REMARK  status: ('A' for Active; 'I' for Inactive)
REMARK    1  A    between atoms: C_5  and  C_6 
REMARK    2  A    between atoms: C_6  and  N_7 
REMARK    3  A    between atoms: C_6  and  C_18 
REMARK    4  A    between atoms: N_7  and  C_8 
ROOT
HETATM    1  C   UNL     1      -5.176   2.842 -32.037  1.00  0.00     0.288 C 
ENDROOT
BRANCH   1   2
HETATM    2  C   UNL     1      -4.446   3.742 -33.019  1.00  0.00    -0.003 A 
HETATM    3  C   UNL     1      -5.146   4.400 -34.028  1.00  0.00     0.126 A 
HETATM    4  N   UNL     1      -4.585   5.242 -34.922  1.00  0.00    -0.272 NA
HETATM    5  C   UNL     1      -3.250   5.420 -34.839  1.00  0.00     0.116 A 
HETATM    6  C   UNL     1      -2.454   4.807 -33.888  1.00  0.00     0.020 A 
HETATM    7  C   UNL     1      -3.063   3.962 -32.964  1.00  0.00     0.012 A 
ENDBRANCH   1   2
BRANCH   1   8
HETATM    8  N   UNL     1      -5.949   1.817 -32.780  1.00  0.00     0.101 N 
HETATM    9  H   UNL     1      -5.443   1.614 -33.638  1.00  0.00     0.317 HD
BRANCH   8  10
HETATM   10  C   UNL     1      -6.321   0.617 -32.020  1.00  0.00     0.225 C 
HETATM   11  C   UNL     1      -5.245  -0.489 -31.979  1.00  0.00     0.069 C 
HETATM   12  C   UNL     1      -5.082  -1.150 -33.335  1.00  0.00     0.190 C 
HETATM   13  N   UNL     1      -6.411  -1.718 -33.757  1.00  0.00    -0.067 N 
HETATM   14  C   UNL     1      -4.204  -2.383 -33.402  1.00  0.00     0.035 C 
HETATM   15  H   UNL     1      -6.745  -2.345 -33.010  1.00  0.00     0.280 HD
HETATM   16  C   UNL     1      -7.456  -0.662 -33.945  1.00  0.00     0.237 C 
HETATM   17  C   UNL     1      -6.103  -2.605 -34.935  1.00  0.00     0.235 C 
HETATM   18  C   UNL     1      -7.637   0.062 -32.613  1.00  0.00     0.063 C 
HETATM   19  C   UNL     1      -4.661  -3.057 -34.696  1.00  0.00     0.030 C 
ENDBRANCH   8  10
ENDBRANCH   1   8
BRANCH   1  20
HETATM   20  C   UNL     1      -5.994   3.641 -31.029  1.00  0.00    -0.021 A 
HETATM   21  C   UNL     1      -5.347   4.231 -29.926  1.00  0.00     0.012 A 
HETATM   22  C   UNL     1      -6.068   4.979 -28.994  1.00  0.00     0.043 A 
HETATM   23  C   UNL     1      -7.435   5.150 -29.161  1.00  0.00     0.116 A 
HETATM   24  F   UNL     1      -8.126   5.866 -28.265  1.00  0.00    -0.206 F 
HETATM   25  C   UNL     1      -8.096   4.592 -30.247  1.00  0.00     0.043 A 
HETATM   26  C   UNL     1      -7.378   3.842 -31.182  1.00  0.00     0.012 A 
ENDBRANCH   1  20
TORSDOF 4
ENDMDL
