MODEL 1
REMARK VINA RESULT:      -8.7      0.000      0.000
REMARK  1 active torsions:
REMARK  status: ('A' for Active; 'I' for Inactive)
REMARK    1  A    between atoms: C_10  and  N_11 
ROOT
HETATM    1  C   UNL     1      -1.892   6.634 -34.174  1.00  0.00     0.015 C 
HETATM    2  C   UNL     1      -2.967   5.658 -33.663  1.00  0.00    -0.036 C 
HETATM    3  C   UNL     1      -3.814   5.210 -34.872  1.00  0.00     0.015 C 
HETATM    4  C   UNL     1      -3.846   6.382 -32.624  1.00  0.00     0.093 C 
HETATM    5  C   UNL     1      -4.785   5.458 -31.875  1.00  0.00     0.163 C 
HETATM    6  O   UNL     1      -5.808   5.869 -31.336  1.00  0.00    -0.292 OA
HETATM    7  C   UNL     1      -4.407   4.044 -31.747  1.00  0.00     0.053 A 
HETATM    8  C   UNL     1      -3.237   3.548 -32.277  1.00  0.00     0.069 A 
HETATM    9  N   UNL     1      -2.883   2.246 -32.161  1.00  0.00    -0.066 NA
HETATM   10  C   UNL     1      -3.738   1.410 -31.538  1.00  0.00     0.728 A 
HETATM   11  N   UNL     1      -4.896   1.824 -31.002  1.00  0.00    -0.074 NA
HETATM   12  C   UNL     1      -5.210   3.131 -31.111  1.00  0.00     0.153 A 
HETATM   13  C   UNL     1      -2.273   4.451 -32.997  1.00  0.00     0.070 C 
ENDROOT
BRANCH  10  14
HETATM   14  N   UNL     1      -3.318   0.091 -31.474  1.00  0.00    -0.164 N 
HETATM   15  C   UNL     1      -3.758  -0.953 -32.199  1.00  0.00     0.187 A 
HETATM   16  S   UNL     1      -3.017  -2.496 -31.950  1.00  0.00    -0.049 SA
HETATM   17  N   UNL     1      -4.691  -0.948 -33.123  1.00  0.00    -0.223 NA
HETATM   18  C   UNL     1      -4.007  -3.190 -33.170  1.00  0.00     0.037 A 
HETATM   19  C   UNL     1      -4.841  -2.201 -33.687  1.00  0.00     0.076 A 
HETATM   20  C   UNL     1      -4.044  -4.513 -33.641  1.00  0.00     0.021 A 
HETATM   21  C   UNL     1      -5.740  -2.540 -34.719  1.00  0.00     0.033 A 
HETATM   22  C   UNL     1      -5.781  -3.852 -35.202  1.00  0.00     0.002 A 
HETATM   23  C   UNL     1      -4.943  -4.826 -34.666  1.00  0.00     0.002 A 
HETATM   24  H   UNL     1      -2.481   0.009 -30.921  1.00  0.00     0.186 HD
ENDBRANCH  10  14
TORSDOF 1
ENDMDL
MODEL 2
REMARK VINA RESULT:      -8.3      2.815      3.830
REMARK  1 active torsions:
REMARK  status: ('A' for Active; 'I' for Inactive)
REMARK    1  A    between atoms: C_10  and  N_11 
ROOT
HETATM    1  C   UNL     1      -2.215   8.942 -29.103  1.00  0.00     0.015 C 
HETATM    2  C   UNL     1      -1.851   7.911 -30.187  1.00  0.00    -0.036 C 
HETATM    3  C   UNL     1      -0.415   7.420 -29.913  1.00  0.00     0.015 C 
HETATM    4  C   UNL     1      -1.939   8.588 -31.570  1.00  0.00     0.093 C 
HETATM    5  C   UNL     1      -1.839   7.616 -32.728  1.00  0.00     0.163 C 
HETATM    6  O   UNL     1      -1.482   7.974 -33.846  1.00  0.00    -0.292 OA
HETATM    7  C   UNL     1      -2.247   6.223 -32.499  1.00  0.00     0.053 A 
HETATM    8  C   UNL     1      -2.717   5.790 -31.280  1.00  0.00     0.069 A 
HETATM    9  N   UNL     1      -3.096   4.507 -31.063  1.00  0.00    -0.066 NA
HETATM   10  C   UNL     1      -2.963   3.628 -32.076  1.00  0.00     0.728 A 
HETATM   11  N   UNL     1      -2.509   3.980 -33.288  1.00  0.00    -0.074 NA
HETATM   12  C   UNL     1      -2.163   5.270 -33.482  1.00  0.00     0.153 A 
HETATM   13  C   UNL     1      -2.856   6.742 -30.123  1.00  0.00     0.070 C 
ENDROOT
BRANCH  10  14
HETATM   14  N   UNL     1      -3.352   2.332 -31.776  1.00  0.00    -0.164 N 
HETATM   15  C   UNL     1      -4.305   1.595 -32.375  1.00  0.00     0.187 A 
HETATM   16  S   UNL     1      -4.551  -0.028 -31.828  1.00  0.00    -0.049 SA
HETATM   17  N   UNL     1      -5.080   1.949 -33.373  1.00  0.00    -0.223 NA
HETATM   18  C   UNL     1      -5.767  -0.264 -33.018  1.00  0.00     0.037 A 
HETATM   19  C   UNL     1      -5.907   0.911 -33.755  1.00  0.00     0.076 A 
HETATM   20  C   UNL     1      -6.540  -1.406 -33.288  1.00  0.00     0.021 A 
HETATM   21  C   UNL     1      -6.849   0.947 -34.805  1.00  0.00     0.033 A 
HETATM   22  C   UNL     1      -7.619  -0.186 -35.087  1.00  0.00     0.002 A 
HETATM   23  C   UNL     1      -7.466  -1.347 -34.335  1.00  0.00     0.002 A 
HETATM   24  H   UNL     1      -2.700   1.901 -31.140  1.00  0.00     0.186 HD
ENDBRANCH  10  14
TORSDOF 1
ENDMDL
MODEL 3
REMARK VINA RESULT:      -7.9      4.456      5.585
REMARK  1 active torsions:
REMARK  status: ('A' for Active; 'I' for Inactive)
REMARK    1  A    between atoms: C_10  and  N_11 
ROOT
HETATM    1  C   UNL     1     -12.508   2.197 -35.600  1.00  0.00     0.015 C 
HETATM    2  C   UNL     1     -11.735   2.043 -34.278  1.00  0.00    -0.036 C 
HETATM    3  C   UNL     1     -12.242   0.765 -33.578  1.00  0.00     0.015 C 
HETATM    4  C   UNL     1     -11.995   3.282 -33.399  1.00  0.00     0.093 C 
HETATM    5  C   UNL     1     -11.101   3.358 -32.178  1.00  0.00     0.163 C 
HETATM    6  O   UNL     1     -11.414   4.004 -31.183  1.00  0.00    -0.292 OA
HETATM    7  C   UNL     1      -9.796   2.685 -32.233  1.00  0.00     0.053 A 
HETATM    8  C   UNL     1      -9.371   2.003 -33.352  1.00  0.00     0.069 A 
HETATM    9  N   UNL     1      -8.169   1.382 -33.410  1.00  0.00    -0.066 NA
HETATM   10  C   UNL     1      -7.391   1.405 -32.309  1.00  0.00     0.728 A 
HETATM   11  N   UNL     1      -7.743   2.046 -31.185  1.00  0.00    -0.074 NA
HETATM   12  C   UNL     1      -8.935   2.678 -31.165  1.00  0.00     0.153 A 
HETATM   13  C   UNL     1     -10.227   1.940 -34.588  1.00  0.00     0.070 C 
ENDROOT
BRANCH  10  14
HETATM   14  N   UNL     1      -6.185   0.732 -32.435  1.00  0.00    -0.164 N 
HETATM   15  C   UNL     1      -5.967  -0.480 -32.974  1.00  0.00     0.187 A 
HETATM   16  S   UNL     1      -4.340  -1.063 -33.051  1.00  0.00    -0.049 SA
HETATM   17  N   UNL     1      -6.855  -1.295 -33.494  1.00  0.00    -0.223 NA
HETATM   18  C   UNL     1      -4.870  -2.493 -33.842  1.00  0.00     0.037 A 
HETATM   19  C   UNL     1      -6.254  -2.434 -33.995  1.00  0.00     0.076 A 
HETATM   20  C   UNL     1      -4.118  -3.588 -34.300  1.00  0.00     0.021 A 
HETATM   21  C   UNL     1      -6.914  -3.503 -34.636  1.00  0.00     0.033 A 
HETATM   22  C   UNL     1      -6.176  -4.596 -35.102  1.00  0.00     0.002 A 
HETATM   23  C   UNL     1      -4.794  -4.636 -34.934  1.00  0.00     0.002 A 
HETATM   24  H   UNL     1      -5.412   1.344 -32.228  1.00  0.00     0.186 HD
ENDBRANCH  10  14
TORSDOF 1
ENDMDL
MODEL 4
REMARK VINA RESULT:      -7.9      1.889      2.348
REMARK  1 active torsions:
REMARK  status: ('A' for Active; 'I' for Inactive)
REMARK    1  A    between atoms: C_10  and  N_11 
ROOT
HETATM    1  C   UNL     1      -0.860   5.367 -32.645  1.00  0.00     0.015 C 
HETATM    2  C   UNL     1      -2.390   5.283 -32.491  1.00  0.00    -0.036 C 
HETATM    3  C   UNL     1      -3.023   6.247 -33.516  1.00  0.00     0.015 C 
HETATM    4  C   UNL     1      -2.772   5.691 -31.055  1.00  0.00     0.093 C 
HETATM    5  C   UNL     1      -4.222   5.417 -30.712  1.00  0.00     0.163 C 
HETATM    6  O   UNL     1      -4.802   6.021 -29.815  1.00  0.00    -0.292 OA
HETATM    7  C   UNL     1      -4.916   4.348 -31.444  1.00  0.00     0.053 A 
HETATM    8  C   UNL     1      -4.288   3.599 -32.413  1.00  0.00     0.069 A 
HETATM    9  N   UNL     1      -4.922   2.612 -33.090  1.00  0.00    -0.066 NA
HETATM   10  C   UNL     1      -6.226   2.397 -32.823  1.00  0.00     0.728 A 
HETATM   11  N   UNL     1      -6.901   3.092 -31.896  1.00  0.00    -0.074 NA
HETATM   12  C   UNL     1      -6.237   4.052 -31.219  1.00  0.00     0.153 A 
HETATM   13  C   UNL     1      -2.840   3.829 -32.749  1.00  0.00     0.070 C 
ENDROOT
BRANCH  10  14
HETATM   14  N   UNL     1      -6.813   1.386 -33.568  1.00  0.00    -0.164 N 
HETATM   15  C   UNL     1      -6.350   0.141 -33.781  1.00  0.00     0.187 A 
HETATM   16  S   UNL     1      -7.319  -0.945 -34.716  1.00  0.00    -0.049 SA
HETATM   17  N   UNL     1      -5.233  -0.383 -33.335  1.00  0.00    -0.223 NA
HETATM   18  C   UNL     1      -6.165  -2.197 -34.491  1.00  0.00     0.037 A 
HETATM   19  C   UNL     1      -5.114  -1.705 -33.719  1.00  0.00     0.076 A 
HETATM   20  C   UNL     1      -6.186  -3.522 -34.958  1.00  0.00     0.021 A 
HETATM   21  C   UNL     1      -4.047  -2.568 -33.394  1.00  0.00     0.033 A 
HETATM   22  C   UNL     1      -4.060  -3.891 -33.848  1.00  0.00     0.002 A 
HETATM   23  C   UNL     1      -5.117  -4.360 -34.622  1.00  0.00     0.002 A 
HETATM   24  H   UNL     1      -7.761   1.625 -33.810  1.00  0.00     0.186 HD
ENDBRANCH  10  14
TORSDOF 1
ENDMDL
MODEL 5
REMARK VINA RESULT:      -7.8      1.955      3.306
REMARK  1 active torsions:
REMARK  status: ('A' for Active; 'I' for Inactive)
REMARK    1  A    between atoms: C_10  and  N_11 
ROOT
HETATM    1  C   UNL     1      -7.965   5.817 -28.585  1.00  0.00     0.015 C 
HETATM    2  C   UNL     1      -6.518   5.584 -29.056  1.00  0.00    -0.036 C 
HETATM    3  C   UNL     1      -5.603   5.615 -27.813  1.00  0.00     0.015 C 
HETATM    4  C   UNL     1      -6.128   6.701 -30.044  1.00  0.00     0.093 C 
HETATM    5  C   UNL     1      -4.816   6.448 -30.759  1.00  0.00     0.163 C 
HETATM    6  O   UNL     1      -4.154   7.360 -31.244  1.00  0.00    -0.292 OA
HETATM    7  C   UNL     1      -4.375   5.056 -30.921  1.00  0.00     0.053 A 
HETATM    8  C   UNL     1      -5.116   3.994 -30.452  1.00  0.00     0.069 A 
HETATM    9  N   UNL     1      -4.715   2.709 -30.600  1.00  0.00    -0.066 NA
HETATM   10  C   UNL     1      -3.525   2.481 -31.192  1.00  0.00     0.728 A 
HETATM   11  N   UNL     1      -2.751   3.466 -31.668  1.00  0.00    -0.074 NA
HETATM   12  C   UNL     1      -3.187   4.735 -31.529  1.00  0.00     0.153 A 
HETATM   13  C   UNL     1      -6.437   4.218 -29.767  1.00  0.00     0.070 C 
ENDROOT
BRANCH  10  14
HETATM   14  N   UNL     1      -3.172   1.144 -31.291  1.00  0.00    -0.164 N 
HETATM   15  C   UNL     1      -3.740   0.192 -32.052  1.00  0.00     0.187 A 
HETATM   16  S   UNL     1      -3.061  -1.398 -32.023  1.00  0.00    -0.049 SA
HETATM   17  N   UNL     1      -4.763   0.325 -32.865  1.00  0.00    -0.223 NA
HETATM   18  C   UNL     1      -4.209  -1.931 -33.184  1.00  0.00     0.037 A 
HETATM   19  C   UNL     1      -5.038  -0.861 -33.518  1.00  0.00     0.076 A 
HETATM   20  C   UNL     1      -4.365  -3.201 -33.764  1.00  0.00     0.021 A 
HETATM   21  C   UNL     1      -6.057  -1.063 -34.472  1.00  0.00     0.033 A 
HETATM   22  C   UNL     1      -6.218  -2.322 -35.061  1.00  0.00     0.002 A 
HETATM   23  C   UNL     1      -5.382  -3.377 -34.708  1.00  0.00     0.002 A 
HETATM   24  H   UNL     1      -2.286   0.974 -30.841  1.00  0.00     0.186 HD
ENDBRANCH  10  14
TORSDOF 1
ENDMDL
MODEL 6
REMARK VINA RESULT:      -7.7      2.922      8.109
REMARK  1 active torsions:
REMARK  status: ('A' for Active; 'I' for Inactive)
REMARK    1  A    between atoms: C_10  and  N_11 
ROOT
HETATM    1  C   UNL     1      -6.083  -4.110 -34.970  1.00  0.00     0.015 C 
HETATM    2  C   UNL     1      -5.031  -3.164 -34.361  1.00  0.00    -0.036 C 
HETATM    3  C   UNL     1      -4.008  -2.819 -35.463  1.00  0.00     0.015 C 
HETATM    4  C   UNL     1      -4.339  -3.879 -33.183  1.00  0.00     0.093 C 
HETATM    5  C   UNL     1      -3.458  -2.967 -32.354  1.00  0.00     0.163 C 
HETATM    6  O   UNL     1      -2.540  -3.401 -31.665  1.00  0.00    -0.292 OA
HETATM    7  C   UNL     1      -3.770  -1.531 -32.338  1.00  0.00     0.053 A 
HETATM    8  C   UNL     1      -4.830  -1.005 -33.041  1.00  0.00     0.069 A 
HETATM    9  N   UNL     1      -5.124   0.318 -33.030  1.00  0.00    -0.066 NA
HETATM   10  C   UNL     1      -4.313   1.140 -32.333  1.00  0.00     0.728 A 
HETATM   11  N   UNL     1      -3.262   0.696 -31.629  1.00  0.00    -0.074 NA
HETATM   12  C   UNL     1      -3.009  -0.629 -31.638  1.00  0.00     0.153 A 
HETATM   13  C   UNL     1      -5.740  -1.893 -33.846  1.00  0.00     0.070 C 
ENDROOT
BRANCH  10  14
HETATM   14  N   UNL     1      -4.664   2.480 -32.382  1.00  0.00    -0.164 N 
HETATM   15  C   UNL     1      -3.854   3.550 -32.293  1.00  0.00     0.187 A 
HETATM   16  S   UNL     1      -4.556   5.124 -32.439  1.00  0.00    -0.049 SA
HETATM   17  N   UNL     1      -2.552   3.556 -32.132  1.00  0.00    -0.223 NA
HETATM   18  C   UNL     1      -3.007   5.850 -32.287  1.00  0.00     0.037 A 
HETATM   19  C   UNL     1      -2.054   4.845 -32.134  1.00  0.00     0.076 A 
HETATM   20  C   UNL     1      -2.655   7.210 -32.307  1.00  0.00     0.021 A 
HETATM   21  C   UNL     1      -0.697   5.208 -32.002  1.00  0.00     0.033 A 
HETATM   22  C   UNL     1      -0.334   6.558 -32.027  1.00  0.00     0.002 A 
HETATM   23  C   UNL     1      -1.303   7.546 -32.176  1.00  0.00     0.002 A 
HETATM   24  H   UNL     1      -5.620   2.588 -32.681  1.00  0.00     0.186 HD
ENDBRANCH  10  14
TORSDOF 1
ENDMDL
MODEL 7
REMARK VINA RESULT:      -7.6      2.736      3.537
REMARK  1 active torsions:
REMARK  status: ('A' for Active; 'I' for Inactive)
REMARK    1  A    between atoms: C_10  and  N_11 
ROOT
HETATM    1  C   UNL     1       0.459   6.546 -31.237  1.00  0.00     0.015 C 
HETATM    2  C   UNL     1      -1.072   6.680 -31.131  1.00  0.00    -0.036 C 
HETATM    3  C   UNL     1      -1.509   7.856 -32.029  1.00  0.00     0.015 C 
HETATM    4  C   UNL     1      -1.449   6.951 -29.661  1.00  0.00     0.093 C 
HETATM    5  C   UNL     1      -2.937   6.862 -29.391  1.00  0.00     0.163 C 
HETATM    6  O   UNL     1      -3.457   7.426 -28.433  1.00  0.00    -0.292 OA
HETATM    7  C   UNL     1      -3.752   6.019 -30.276  1.00  0.00     0.053 A 
HETATM    8  C   UNL     1      -3.203   5.314 -31.324  1.00  0.00     0.069 A 
HETATM    9  N   UNL     1      -3.948   4.534 -32.143  1.00  0.00    -0.066 NA
HETATM   10  C   UNL     1      -5.280   4.491 -31.936  1.00  0.00     0.728 A 
HETATM   11  N   UNL     1      -5.881   5.154 -30.938  1.00  0.00    -0.074 NA
HETATM   12  C   UNL     1      -5.110   5.903 -30.123  1.00  0.00     0.153 A 
HETATM   13  C   UNL     1      -1.723   5.360 -31.594  1.00  0.00     0.070 C 
ENDROOT
BRANCH  10  14
HETATM   14  N   UNL     1      -5.980   3.688 -32.824  1.00  0.00    -0.164 N 
HETATM   15  C   UNL     1      -5.767   2.392 -33.111  1.00  0.00     0.187 A 
HETATM   16  S   UNL     1      -6.833   1.613 -34.228  1.00  0.00    -0.049 SA
HETATM   17  N   UNL     1      -4.841   1.605 -32.615  1.00  0.00    -0.223 NA
HETATM   18  C   UNL     1      -5.998   0.127 -34.018  1.00  0.00     0.037 A 
HETATM   19  C   UNL     1      -4.960   0.321 -33.109  1.00  0.00     0.076 A 
HETATM   20  C   UNL     1      -6.245  -1.125 -34.608  1.00  0.00     0.021 A 
HETATM   21  C   UNL     1      -4.139  -0.776 -32.771  1.00  0.00     0.033 A 
HETATM   22  C   UNL     1      -4.379  -2.027 -33.346  1.00  0.00     0.002 A 
HETATM   23  C   UNL     1      -5.419  -2.197 -34.256  1.00  0.00     0.002 A 
HETATM   24  H   UNL     1      -6.825   4.145 -33.128  1.00  0.00     0.186 HD
ENDBRANCH  10  14
TORSDOF 1
ENDMDL
MODEL 8
REMARK VINA RESULT:      -7.4      5.586      6.676
REMARK  1 active torsions:
REMARK  status: ('A' for Active; 'I' for Inactive)
REMARK    1  A    between atoms: C_10  and  N_11 
ROOT
HETATM    1  C   UNL     1     -13.374   5.363 -31.364  1.00  0.00     0.015 C 
HETATM    2  C   UNL     1     -12.657   4.553 -32.460  1.00  0.00    -0.036 C 
HETATM    3  C   UNL     1     -12.086   5.549 -33.490  1.00  0.00     0.015 C 
HETATM    4  C   UNL     1     -13.675   3.606 -33.127  1.00  0.00     0.093 C 
HETATM    5  C   UNL     1     -13.039   2.589 -34.053  1.00  0.00     0.163 C 
HETATM    6  O   UNL     1     -13.671   2.049 -34.955  1.00  0.00    -0.292 OA
HETATM    7  C   UNL     1     -11.643   2.205 -33.805  1.00  0.00     0.053 A 
HETATM    8  C   UNL     1     -10.912   2.734 -32.764  1.00  0.00     0.069 A 
HETATM    9  N   UNL     1      -9.625   2.384 -32.530  1.00  0.00    -0.066 NA
HETATM   10  C   UNL     1      -9.040   1.516 -33.380  1.00  0.00     0.728 A 
HETATM   11  N   UNL     1      -9.691   0.965 -34.416  1.00  0.00    -0.074 NA
HETATM   12  C   UNL     1     -10.980   1.314 -34.610  1.00  0.00     0.153 A 
HETATM   13  C   UNL     1     -11.530   3.722 -31.812  1.00  0.00     0.070 C 
ENDROOT
BRANCH  10  14
HETATM   14  N   UNL     1      -7.718   1.219 -33.089  1.00  0.00    -0.164 N 
HETATM   15  C   UNL     1      -7.049   0.082 -33.351  1.00  0.00     0.187 A 
HETATM   16  S   UNL     1      -5.376  -0.003 -32.922  1.00  0.00    -0.049 SA
HETATM   17  N   UNL     1      -7.509  -1.000 -33.935  1.00  0.00    -0.223 NA
HETATM   18  C   UNL     1      -5.269  -1.588 -33.575  1.00  0.00     0.037 A 
HETATM   19  C   UNL     1      -6.517  -1.951 -34.077  1.00  0.00     0.076 A 
HETATM   20  C   UNL     1      -4.161  -2.449 -33.645  1.00  0.00     0.021 A 
HETATM   21  C   UNL     1      -6.666  -3.218 -34.678  1.00  0.00     0.033 A 
HETATM   22  C   UNL     1      -5.569  -4.082 -34.760  1.00  0.00     0.002 A 
HETATM   23  C   UNL     1      -4.333  -3.701 -34.247  1.00  0.00     0.002 A 
HETATM   24  H   UNL     1      -7.222   2.046 -32.798  1.00  0.00     0.186 HD
ENDBRANCH  10  14
TORSDOF 1
ENDMDL
MODEL 9
REMARK VINA RESULT:      -7.4      4.246      8.511
REMARK  1 active torsions:
REMARK  status: ('A' for Active; 'I' for Inactive)
REMARK    1  A    between atoms: C_10  and  N_11 
ROOT
HETATM    1  C   UNL     1      -4.868  -1.050 -32.347  1.00  0.00     0.015 C 
HETATM    2  C   UNL     1      -4.977   0.460 -32.069  1.00  0.00    -0.036 C 
HETATM    3  C   UNL     1      -5.231   0.647 -30.558  1.00  0.00     0.015 C 
HETATM    4  C   UNL     1      -6.146   1.037 -32.891  1.00  0.00     0.093 C 
HETATM    5  C   UNL     1      -6.200   2.551 -32.887  1.00  0.00     0.163 C 
HETATM    6  O   UNL     1      -7.238   3.164 -33.117  1.00  0.00    -0.292 OA
HETATM    7  C   UNL     1      -4.949   3.288 -32.662  1.00  0.00     0.053 A 
HETATM    8  C   UNL     1      -3.747   2.646 -32.465  1.00  0.00     0.069 A 
HETATM    9  N   UNL     1      -2.590   3.319 -32.258  1.00  0.00    -0.066 NA
HETATM   10  C   UNL     1      -2.643   4.665 -32.204  1.00  0.00     0.728 A 
HETATM   11  N   UNL     1      -3.778   5.355 -32.384  1.00  0.00    -0.074 NA
HETATM   12  C   UNL     1      -4.911   4.659 -32.613  1.00  0.00     0.153 A 
HETATM   13  C   UNL     1      -3.661   1.144 -32.496  1.00  0.00     0.070 C 
ENDROOT
BRANCH  10  14
HETATM   14  N   UNL     1      -1.425   5.285 -31.971  1.00  0.00    -0.164 N 
HETATM   15  C   UNL     1      -1.064   6.026 -30.908  1.00  0.00     0.187 A 
HETATM   16  S   UNL     1       0.551   6.643 -30.848  1.00  0.00    -0.049 SA
HETATM   17  N   UNL     1      -1.795   6.330 -29.861  1.00  0.00    -0.223 NA
HETATM   18  C   UNL     1       0.243   7.350 -29.313  1.00  0.00     0.037 A 
HETATM   19  C   UNL     1      -1.072   7.071 -28.946  1.00  0.00     0.076 A 
HETATM   20  C   UNL     1       1.103   8.094 -28.487  1.00  0.00     0.021 A 
HETATM   21  C   UNL     1      -1.547   7.545 -27.705  1.00  0.00     0.033 A 
HETATM   22  C   UNL     1      -0.699   8.281 -26.872  1.00  0.00     0.002 A 
HETATM   23  C   UNL     1       0.610   8.553 -27.261  1.00  0.00     0.002 A 
HETATM   24  H   UNL     1      -0.731   4.970 -32.630  1.00  0.00     0.186 HD
ENDBRANCH  10  14
TORSDOF 1
ENDMDL
MODEL 10
REMARK VINA RESULT:      -7.4      3.890      7.648
REMARK  1 active torsions:
REMARK  status: ('A' for Active; 'I' for Inactive)
REMARK    1  A    between atoms: C_10  and  N_11 
ROOT
HETATM    1  C   UNL     1      -6.692  -1.276 -33.061  1.00  0.00     0.015 C 
HETATM    2  C   UNL     1      -7.025   0.218 -32.893  1.00  0.00    -0.036 C 
HETATM    3  C   UNL     1      -6.901   0.566 -31.395  1.00  0.00     0.015 C 
HETATM    4  C   UNL     1      -8.463   0.468 -33.391  1.00  0.00     0.093 C 
HETATM    5  C   UNL     1      -8.819   1.937 -33.500  1.00  0.00     0.163 C 
HETATM    6  O   UNL     1      -9.983   2.326 -33.474  1.00  0.00    -0.292 OA
HETATM    7  C   UNL     1      -7.729   2.900 -33.708  1.00  0.00     0.053 A 
HETATM    8  C   UNL     1      -6.414   2.505 -33.810  1.00  0.00     0.069 A 
HETATM    9  N   UNL     1      -5.405   3.387 -34.003  1.00  0.00    -0.066 NA
HETATM   10  C   UNL     1      -5.712   4.699 -34.052  1.00  0.00     0.728 A 
HETATM   11  N   UNL     1      -6.970   5.154 -33.956  1.00  0.00    -0.074 NA
HETATM   12  C   UNL     1      -7.957   4.250 -33.790  1.00  0.00     0.153 A 
HETATM   13  C   UNL     1      -6.037   1.050 -33.737  1.00  0.00     0.070 C 
ENDROOT
BRANCH  10  14
HETATM   14  N   UNL     1      -4.627   5.544 -34.232  1.00  0.00    -0.164 N 
HETATM   15  C   UNL     1      -3.533   5.661 -33.459  1.00  0.00     0.187 A 
HETATM   16  S   UNL     1      -2.297   6.767 -33.949  1.00  0.00    -0.049 SA
HETATM   17  N   UNL     1      -3.259   5.003 -32.356  1.00  0.00    -0.223 NA
HETATM   18  C   UNL     1      -1.334   6.319 -32.599  1.00  0.00     0.037 A 
HETATM   19  C   UNL     1      -2.019   5.355 -31.860  1.00  0.00     0.076 A 
HETATM   20  C   UNL     1      -0.062   6.779 -32.220  1.00  0.00     0.021 A 
HETATM   21  C   UNL     1      -1.410   4.826 -30.703  1.00  0.00     0.033 A 
HETATM   22  C   UNL     1      -0.141   5.272 -30.319  1.00  0.00     0.002 A 
HETATM   23  C   UNL     1       0.522   6.239 -31.069  1.00  0.00     0.002 A 
HETATM   24  H   UNL     1      -4.653   5.968 -35.145  1.00  0.00     0.186 HD
ENDBRANCH  10  14
TORSDOF 1
ENDMDL
