MODEL 1
REMARK VINA RESULT:      -7.9      0.000      0.000
REMARK  9 active torsions:
REMARK  status: ('A' for Active; 'I' for Inactive)
REMARK    1  A    between atoms: O_2  and  C_3 
REMARK    2  A    between atoms: C_4  and  S_5 
REMARK    3  A    between atoms: S_5  and  N_6 
REMARK    4  A    between atoms: N_6  and  C_7 
REMARK    5  A    between atoms: C_7  and  C_8 
REMARK    6  A    between atoms: C_7  and  C_21 
REMARK       I    between atoms: C_8  and  N_9 
REMARK    7  A    between atoms: N_9  and  C_10 
REMARK    8  A    between atoms: C_21  and  C_22 
REMARK    9  A    between atoms: C_22  and  S_23 
ROOT
HETATM    1  C   UNL     1      -5.820   2.089 -32.972  1.00  0.00     0.165 C 
ENDROOT
BRANCH   1   2
HETATM    2  N   UNL     1      -5.725   0.776 -33.666  1.00  0.00    -0.202 NA
HETATM    3  H   UNL     1      -4.788   0.359 -33.626  1.00  0.00     0.141 HD
BRANCH   2   4
HETATM    4  S   UNL     1      -6.813  -0.420 -33.123  1.00  0.00     0.245 S 
HETATM    5  O   UNL     1      -8.107  -0.107 -33.686  1.00  0.00    -0.206 OA
HETATM    6  O   UNL     1      -6.582  -0.513 -31.699  1.00  0.00    -0.206 OA
BRANCH   4   7
HETATM    7  C   UNL     1      -6.226  -1.927 -33.834  1.00  0.00     0.107 A 
HETATM    8  C   UNL     1      -4.857  -2.203 -33.826  1.00  0.00     0.091 A 
HETATM    9  C   UNL     1      -4.385  -3.417 -34.329  1.00  0.00     0.038 A 
HETATM   10  C   UNL     1      -5.275  -4.339 -34.879  1.00  0.00     0.003 A 
HETATM   11  C   UNL     1      -6.639  -4.052 -34.919  1.00  0.00     0.002 A 
HETATM   12  C   UNL     1      -7.117  -2.847 -34.398  1.00  0.00     0.028 A 
BRANCH   8  13
HETATM   13  O   UNL     1      -3.935  -1.353 -33.284  1.00  0.00    -0.354 OA
HETATM   14  C   UNL     1      -3.338  -1.905 -32.108  1.00  0.00     0.210 C 
ENDBRANCH   8  13
ENDBRANCH   4   7
ENDBRANCH   2   4
ENDBRANCH   1   2
BRANCH   1  15
HETATM   15  C   UNL     1      -4.399   2.558 -32.606  1.00  0.00     0.254 C 
HETATM   16  N   UNL     1      -4.250   3.928 -32.599  1.00  0.00    -0.156 N 
HETATM   17  H   UNL     1      -5.000   4.558 -32.850  1.00  0.00     0.187 HD
HETATM   18  O   UNL     1      -3.487   1.753 -32.398  1.00  0.00    -0.271 OA
BRANCH  16  19
HETATM   19  C   UNL     1      -3.086   4.538 -32.213  1.00  0.00     0.708 A 
HETATM   20  N   UNL     1      -2.596   5.615 -32.779  1.00  0.00    -0.062 NA
HETATM   21  C   UNL     1      -1.456   5.908 -32.064  1.00  0.00     0.103 A 
HETATM   22  C   UNL     1      -1.262   4.994 -31.035  1.00  0.00     0.078 A 
HETATM   23  C   UNL     1      -0.536   6.953 -32.233  1.00  0.00     0.034 A 
HETATM   24  N   UNL     1      -2.305   4.118 -31.167  1.00  0.00    -0.188 N 
HETATM   25  C   UNL     1      -0.200   5.066 -30.131  1.00  0.00     0.032 A 
HETATM   26  H   UNL     1      -2.510   3.310 -30.593  1.00  0.00     0.184 HD
HETATM   27  C   UNL     1       0.702   6.122 -30.309  1.00  0.00     0.002 A 
HETATM   28  C   UNL     1       0.544   7.047 -31.345  1.00  0.00     0.002 A 
ENDBRANCH  16  19
ENDBRANCH   1  15
BRANCH   1  29
HETATM   29  C   UNL     1      -6.444   3.132 -33.911  1.00  0.00     0.040 C 
BRANCH  29  30
HETATM   30  C   UNL     1      -7.837   3.617 -33.510  1.00  0.00     0.075 C 
BRANCH  30  31
HETATM   31  S   UNL     1      -8.096   3.778 -31.712  1.00  0.00    -0.173 SA
HETATM   32  C   UNL     1      -9.212   2.381 -31.431  1.00  0.00     0.089 C 
ENDBRANCH  30  31
ENDBRANCH  29  30
ENDBRANCH   1  29
TORSDOF 9
ENDMDL
MODEL 2
REMARK VINA RESULT:      -7.8      2.865      7.569
REMARK  9 active torsions:
REMARK  status: ('A' for Active; 'I' for Inactive)
REMARK    1  A    between atoms: O_2  and  C_3 
REMARK    2  A    between atoms: C_4  and  S_5 
REMARK    3  A    between atoms: S_5  and  N_6 
REMARK    4  A    between atoms: N_6  and  C_7 
REMARK    5  A    between atoms: C_7  and  C_8 
REMARK    6  A    between atoms: C_7  and  C_21 
REMARK       I    between atoms: C_8  and  N_9 
REMARK    7  A    between atoms: N_9  and  C_10 
REMARK    8  A    between atoms: C_21  and  C_22 
REMARK    9  A    between atoms: C_22  and  S_23 
ROOT
HETATM    1  C   UNL     1      -6.318   3.048 -32.945  1.00  0.00     0.165 C 
ENDROOT
BRANCH   1   2
HETATM    2  N   UNL     1      -7.283   3.298 -34.050  1.00  0.00    -0.202 NA
HETATM    3  H   UNL     1      -7.656   2.439 -34.469  1.00  0.00     0.141 HD
BRANCH   2   4
HETATM    4  S   UNL     1      -8.627   4.266 -33.643  1.00  0.00     0.245 S 
HETATM    5  O   UNL     1      -8.458   5.535 -34.313  1.00  0.00    -0.206 OA
HETATM    6  O   UNL     1      -8.748   4.148 -32.207  1.00  0.00    -0.206 OA
BRANCH   4   7
HETATM    7  C   UNL     1     -10.019   3.429 -34.341  1.00  0.00     0.107 A 
HETATM    8  C   UNL     1     -10.145   2.048 -34.173  1.00  0.00     0.091 A 
HETATM    9  C   UNL     1     -11.269   1.383 -34.667  1.00  0.00     0.038 A 
HETATM   10  C   UNL     1     -12.249   2.090 -35.364  1.00  0.00     0.003 A 
HETATM   11  C   UNL     1     -12.109   3.463 -35.562  1.00  0.00     0.002 A 
HETATM   12  C   UNL     1     -10.996   4.135 -35.053  1.00  0.00     0.028 A 
BRANCH   8  13
HETATM   13  O   UNL     1      -9.233   1.301 -33.483  1.00  0.00    -0.354 OA
HETATM   14  C   UNL     1      -9.863   0.245 -32.753  1.00  0.00     0.210 C 
ENDBRANCH   8  13
ENDBRANCH   4   7
ENDBRANCH   2   4
ENDBRANCH   1   2
BRANCH   1  15
HETATM   15  C   UNL     1      -6.092   1.530 -32.820  1.00  0.00     0.254 C 
HETATM   16  N   UNL     1      -6.284   0.841 -33.997  1.00  0.00    -0.156 N 
HETATM   17  H   UNL     1      -6.583   1.293 -34.850  1.00  0.00     0.187 HD
HETATM   18  O   UNL     1      -5.819   1.006 -31.737  1.00  0.00    -0.271 OA
BRANCH  16  19
HETATM   19  C   UNL     1      -6.045  -0.504 -34.107  1.00  0.00     0.708 A 
HETATM   20  N   UNL     1      -6.898  -1.365 -34.607  1.00  0.00    -0.062 NA
HETATM   21  C   UNL     1      -6.248  -2.578 -34.569  1.00  0.00     0.103 A 
HETATM   22  C   UNL     1      -4.967  -2.443 -34.045  1.00  0.00     0.078 A 
HETATM   23  C   UNL     1      -6.689  -3.846 -34.975  1.00  0.00     0.034 A 
HETATM   24  N   UNL     1      -4.872  -1.112 -33.739  1.00  0.00    -0.188 N 
HETATM   25  C   UNL     1      -4.071  -3.506 -33.917  1.00  0.00     0.032 A 
HETATM   26  H   UNL     1      -4.080  -0.625 -33.338  1.00  0.00     0.184 HD
HETATM   27  C   UNL     1      -4.526  -4.761 -34.338  1.00  0.00     0.002 A 
HETATM   28  C   UNL     1      -5.814  -4.933 -34.853  1.00  0.00     0.002 A 
ENDBRANCH  16  19
ENDBRANCH   1  15
BRANCH   1  29
HETATM   29  C   UNL     1      -4.970   3.710 -33.271  1.00  0.00     0.040 C 
BRANCH  29  30
HETATM   30  C   UNL     1      -5.010   4.752 -34.388  1.00  0.00     0.075 C 
BRANCH  30  31
HETATM   31  S   UNL     1      -3.372   5.333 -34.942  1.00  0.00    -0.173 SA
HETATM   32  C   UNL     1      -2.327   4.578 -33.672  1.00  0.00     0.089 C 
ENDBRANCH  30  31
ENDBRANCH  29  30
ENDBRANCH   1  29
TORSDOF 9
ENDMDL
MODEL 3
REMARK VINA RESULT:      -7.7      1.467      2.273
REMARK  9 active torsions:
REMARK  status: ('A' for Active; 'I' for Inactive)
REMARK    1  A    between atoms: O_2  and  C_3 
REMARK    2  A    between atoms: C_4  and  S_5 
REMARK    3  A    between atoms: S_5  and  N_6 
REMARK    4  A    between atoms: N_6  and  C_7 
REMARK    5  A    between atoms: C_7  and  C_8 
REMARK    6  A    between atoms: C_7  and  C_21 
REMARK       I    between atoms: C_8  and  N_9 
REMARK    7  A    between atoms: N_9  and  C_10 
REMARK    8  A    between atoms: C_21  and  C_22 
REMARK    9  A    between atoms: C_22  and  S_23 
ROOT
HETATM    1  C   UNL     1      -6.162   2.406 -32.178  1.00  0.00     0.165 C 
ENDROOT
BRANCH   1   2
HETATM    2  N   UNL     1      -5.415   1.397 -32.978  1.00  0.00    -0.202 NA
HETATM    3  H   UNL     1      -4.589   1.780 -33.451  1.00  0.00     0.141 HD
BRANCH   2   4
HETATM    4  S   UNL     1      -4.890   0.022 -32.117  1.00  0.00     0.245 S 
HETATM    5  O   UNL     1      -5.750  -0.113 -30.963  1.00  0.00    -0.206 OA
HETATM    6  O   UNL     1      -3.457   0.176 -32.011  1.00  0.00    -0.206 OA
BRANCH   4   7
HETATM    7  C   UNL     1      -5.177  -1.337 -33.209  1.00  0.00     0.107 A 
HETATM    8  C   UNL     1      -6.402  -1.437 -33.873  1.00  0.00     0.091 A 
HETATM    9  C   UNL     1      -6.621  -2.472 -34.786  1.00  0.00     0.038 A 
HETATM   10  C   UNL     1      -5.632  -3.430 -35.005  1.00  0.00     0.003 A 
HETATM   11  C   UNL     1      -4.421  -3.351 -34.319  1.00  0.00     0.002 A 
HETATM   12  C   UNL     1      -4.191  -2.307 -33.421  1.00  0.00     0.028 A 
BRANCH   8  13
HETATM   13  O   UNL     1      -7.404  -0.521 -33.719  1.00  0.00    -0.354 OA
HETATM   14  C   UNL     1      -7.884  -0.050 -34.980  1.00  0.00     0.210 C 
ENDBRANCH   8  13
ENDBRANCH   4   7
ENDBRANCH   2   4
ENDBRANCH   1   2
BRANCH   1  15
HETATM   15  C   UNL     1      -5.150   3.255 -31.385  1.00  0.00     0.254 C 
HETATM   16  N   UNL     1      -4.000   3.545 -32.084  1.00  0.00    -0.156 N 
HETATM   17  H   UNL     1      -3.827   3.197 -33.017  1.00  0.00     0.187 HD
HETATM   18  O   UNL     1      -5.359   3.580 -30.213  1.00  0.00    -0.271 OA
BRANCH  16  19
HETATM   19  C   UNL     1      -3.021   4.362 -31.581  1.00  0.00     0.708 A 
HETATM   20  N   UNL     1      -1.745   4.238 -31.856  1.00  0.00    -0.062 NA
HETATM   21  C   UNL     1      -1.131   5.272 -31.186  1.00  0.00     0.103 A 
HETATM   22  C   UNL     1      -2.061   6.046 -30.501  1.00  0.00     0.078 A 
HETATM   23  C   UNL     1       0.226   5.621 -31.123  1.00  0.00     0.034 A 
HETATM   24  N   UNL     1      -3.257   5.429 -30.753  1.00  0.00    -0.188 N 
HETATM   25  C   UNL     1      -1.723   7.179 -29.759  1.00  0.00     0.032 A 
HETATM   26  H   UNL     1      -4.175   5.703 -30.426  1.00  0.00     0.184 HD
HETATM   27  C   UNL     1      -0.365   7.518 -29.717  1.00  0.00     0.002 A 
HETATM   28  C   UNL     1       0.596   6.750 -30.381  1.00  0.00     0.002 A 
ENDBRANCH  16  19
ENDBRANCH   1  15
BRANCH   1  29
HETATM   29  C   UNL     1      -6.943   3.340 -33.114  1.00  0.00     0.040 C 
BRANCH  29  30
HETATM   30  C   UNL     1      -8.465   3.267 -32.983  1.00  0.00     0.075 C 
BRANCH  30  31
HETATM   31  S   UNL     1      -9.064   2.074 -31.741  1.00  0.00    -0.173 SA
HETATM   32  C   UNL     1      -9.541   3.214 -30.418  1.00  0.00     0.089 C 
ENDBRANCH  30  31
ENDBRANCH  29  30
ENDBRANCH   1  29
TORSDOF 9
ENDMDL
MODEL 4
REMARK VINA RESULT:      -7.7      1.532      2.283
REMARK  9 active torsions:
REMARK  status: ('A' for Active; 'I' for Inactive)
REMARK    1  A    between atoms: O_2  and  C_3 
REMARK    2  A    between atoms: C_4  and  S_5 
REMARK    3  A    between atoms: S_5  and  N_6 
REMARK    4  A    between atoms: N_6  and  C_7 
REMARK    5  A    between atoms: C_7  and  C_8 
REMARK    6  A    between atoms: C_7  and  C_21 
REMARK       I    between atoms: C_8  and  N_9 
REMARK    7  A    between atoms: N_9  and  C_10 
REMARK    8  A    between atoms: C_21  and  C_22 
REMARK    9  A    between atoms: C_22  and  S_23 
ROOT
HETATM    1  C   UNL     1      -5.580   1.832 -32.916  1.00  0.00     0.165 C 
ENDROOT
BRANCH   1   2
HETATM    2  N   UNL     1      -4.653   0.685 -33.118  1.00  0.00    -0.202 NA
HETATM    3  H   UNL     1      -3.686   0.970 -33.310  1.00  0.00     0.141 HD
BRANCH   2   4
HETATM    4  S   UNL     1      -4.586  -0.437 -31.835  1.00  0.00     0.245 S 
HETATM    5  O   UNL     1      -5.901  -0.484 -31.240  1.00  0.00    -0.206 OA
HETATM    6  O   UNL     1      -3.401  -0.077 -31.089  1.00  0.00    -0.206 OA
BRANCH   4   7
HETATM    7  C   UNL     1      -4.250  -1.991 -32.607  1.00  0.00     0.107 A 
HETATM    8  C   UNL     1      -4.879  -2.309 -33.812  1.00  0.00     0.091 A 
HETATM    9  C   UNL     1      -4.577  -3.507 -34.465  1.00  0.00     0.038 A 
HETATM   10  C   UNL     1      -3.677  -4.406 -33.893  1.00  0.00     0.003 A 
HETATM   11  C   UNL     1      -3.073  -4.106 -32.673  1.00  0.00     0.002 A 
HETATM   12  C   UNL     1      -3.357  -2.900 -32.027  1.00  0.00     0.028 A 
BRANCH   8  13
HETATM   13  O   UNL     1      -5.753  -1.464 -34.436  1.00  0.00    -0.354 OA
HETATM   14  C   UNL     1      -7.107  -1.888 -34.264  1.00  0.00     0.210 C 
ENDBRANCH   8  13
ENDBRANCH   4   7
ENDBRANCH   2   4
ENDBRANCH   1   2
BRANCH   1  15
HETATM   15  C   UNL     1      -4.746   3.106 -32.685  1.00  0.00     0.254 C 
HETATM   16  N   UNL     1      -3.875   3.016 -31.622  1.00  0.00    -0.156 N 
HETATM   17  H   UNL     1      -3.823   2.200 -31.029  1.00  0.00     0.187 HD
HETATM   18  O   UNL     1      -4.908   4.117 -33.375  1.00  0.00    -0.271 OA
BRANCH  16  19
HETATM   19  C   UNL     1      -2.987   4.013 -31.314  1.00  0.00     0.708 A 
HETATM   20  N   UNL     1      -1.700   3.955 -31.559  1.00  0.00    -0.062 NA
HETATM   21  C   UNL     1      -1.199   5.164 -31.135  1.00  0.00     0.103 A 
HETATM   22  C   UNL     1      -2.210   5.976 -30.632  1.00  0.00     0.078 A 
HETATM   23  C   UNL     1       0.118   5.647 -31.155  1.00  0.00     0.034 A 
HETATM   24  N   UNL     1      -3.337   5.207 -30.738  1.00  0.00    -0.188 N 
HETATM   25  C   UNL     1      -1.994   7.272 -30.158  1.00  0.00     0.032 A 
HETATM   26  H   UNL     1      -4.283   5.457 -30.476  1.00  0.00     0.184 HD
HETATM   27  C   UNL     1      -0.674   7.740 -30.196  1.00  0.00     0.002 A 
HETATM   28  C   UNL     1       0.367   6.941 -30.680  1.00  0.00     0.002 A 
ENDBRANCH  16  19
ENDBRANCH   1  15
BRANCH   1  29
HETATM   29  C   UNL     1      -6.437   2.038 -34.174  1.00  0.00     0.040 C 
BRANCH  29  30
HETATM   30  C   UNL     1      -7.946   1.927 -33.959  1.00  0.00     0.075 C 
BRANCH  30  31
HETATM   31  S   UNL     1      -8.475   2.047 -32.218  1.00  0.00    -0.173 SA
HETATM   32  C   UNL     1      -9.252   0.424 -32.015  1.00  0.00     0.089 C 
ENDBRANCH  30  31
ENDBRANCH  29  30
ENDBRANCH   1  29
TORSDOF 9
ENDMDL
MODEL 5
REMARK VINA RESULT:      -7.5      2.677      7.282
REMARK  9 active torsions:
REMARK  status: ('A' for Active; 'I' for Inactive)
REMARK    1  A    between atoms: O_2  and  C_3 
REMARK    2  A    between atoms: C_4  and  S_5 
REMARK    3  A    between atoms: S_5  and  N_6 
REMARK    4  A    between atoms: N_6  and  C_7 
REMARK    5  A    between atoms: C_7  and  C_8 
REMARK    6  A    between atoms: C_7  and  C_21 
REMARK       I    between atoms: C_8  and  N_9 
REMARK    7  A    between atoms: N_9  and  C_10 
REMARK    8  A    between atoms: C_21  and  C_22 
REMARK    9  A    between atoms: C_22  and  S_23 
ROOT
HETATM    1  C   UNL     1      -5.179   3.147 -31.908  1.00  0.00     0.165 C 
ENDROOT
BRANCH   1   2
HETATM    2  N   UNL     1      -6.492   3.795 -31.637  1.00  0.00    -0.202 NA
HETATM    3  H   UNL     1      -7.016   4.027 -32.489  1.00  0.00     0.141 HD
BRANCH   2   4
HETATM    4  S   UNL     1      -7.552   2.912 -30.636  1.00  0.00     0.245 S 
HETATM    5  O   UNL     1      -8.308   3.871 -29.863  1.00  0.00    -0.206 OA
HETATM    6  O   UNL     1      -6.727   1.893 -30.028  1.00  0.00    -0.206 OA
BRANCH   4   7
HETATM    7  C   UNL     1      -8.646   2.083 -31.750  1.00  0.00     0.107 A 
HETATM    8  C   UNL     1      -9.289   2.815 -32.752  1.00  0.00     0.091 A 
HETATM    9  C   UNL     1     -10.108   2.164 -33.677  1.00  0.00     0.038 A 
HETATM   10  C   UNL     1     -10.318   0.789 -33.578  1.00  0.00     0.003 A 
HETATM   11  C   UNL     1      -9.704   0.062 -32.559  1.00  0.00     0.002 A 
HETATM   12  C   UNL     1      -8.868   0.706 -31.644  1.00  0.00     0.028 A 
BRANCH   8  13
HETATM   13  O   UNL     1      -9.109   4.159 -32.917  1.00  0.00    -0.354 OA
HETATM   14  C   UNL     1      -9.352   4.560 -34.268  1.00  0.00     0.210 C 
ENDBRANCH   8  13
ENDBRANCH   4   7
ENDBRANCH   2   4
ENDBRANCH   1   2
BRANCH   1  15
HETATM   15  C   UNL     1      -5.407   1.936 -32.831  1.00  0.00     0.254 C 
HETATM   16  N   UNL     1      -4.884   0.759 -32.343  1.00  0.00    -0.156 N 
HETATM   17  H   UNL     1      -4.366   0.711 -31.476  1.00  0.00     0.187 HD
HETATM   18  O   UNL     1      -5.962   2.055 -33.926  1.00  0.00    -0.271 OA
BRANCH  16  19
HETATM   19  C   UNL     1      -5.062  -0.442 -32.977  1.00  0.00     0.708 A 
HETATM   20  N   UNL     1      -4.134  -1.363 -33.086  1.00  0.00    -0.062 NA
HETATM   21  C   UNL     1      -4.739  -2.407 -33.748  1.00  0.00     0.103 A 
HETATM   22  C   UNL     1      -6.068  -2.114 -34.034  1.00  0.00     0.078 A 
HETATM   23  C   UNL     1      -4.215  -3.649 -34.133  1.00  0.00     0.034 A 
HETATM   24  N   UNL     1      -6.241  -0.846 -33.550  1.00  0.00    -0.188 N 
HETATM   25  C   UNL     1      -6.932  -3.005 -34.674  1.00  0.00     0.032 A 
HETATM   26  H   UNL     1      -7.084  -0.286 -33.569  1.00  0.00     0.184 HD
HETATM   27  C   UNL     1      -6.394  -4.244 -35.042  1.00  0.00     0.002 A 
HETATM   28  C   UNL     1      -5.057  -4.561 -34.783  1.00  0.00     0.002 A 
ENDBRANCH  16  19
ENDBRANCH   1  15
BRANCH   1  29
HETATM   29  C   UNL     1      -4.249   4.134 -32.629  1.00  0.00     0.040 C 
BRANCH  29  30
HETATM   30  C   UNL     1      -2.757   3.819 -32.521  1.00  0.00     0.075 C 
BRANCH  30  31
HETATM   31  S   UNL     1      -1.657   5.124 -33.164  1.00  0.00    -0.173 SA
HETATM   32  C   UNL     1      -2.221   5.188 -34.883  1.00  0.00     0.089 C 
ENDBRANCH  30  31
ENDBRANCH  29  30
ENDBRANCH   1  29
TORSDOF 9
ENDMDL
MODEL 6
REMARK VINA RESULT:      -7.4      2.212      8.213
REMARK  9 active torsions:
REMARK  status: ('A' for Active; 'I' for Inactive)
REMARK    1  A    between atoms: O_2  and  C_3 
REMARK    2  A    between atoms: C_4  and  S_5 
REMARK    3  A    between atoms: S_5  and  N_6 
REMARK    4  A    between atoms: N_6  and  C_7 
REMARK    5  A    between atoms: C_7  and  C_8 
REMARK    6  A    between atoms: C_7  and  C_21 
REMARK       I    between atoms: C_8  and  N_9 
REMARK    7  A    between atoms: N_9  and  C_10 
REMARK    8  A    between atoms: C_21  and  C_22 
REMARK    9  A    between atoms: C_22  and  S_23 
ROOT
HETATM    1  C   UNL     1      -6.113   3.148 -32.789  1.00  0.00     0.165 C 
ENDROOT
BRANCH   1   2
HETATM    2  N   UNL     1      -4.765   3.746 -32.995  1.00  0.00    -0.202 NA
HETATM    3  H   UNL     1      -4.127   3.142 -33.526  1.00  0.00     0.141 HD
BRANCH   2   4
HETATM    4  S   UNL     1      -4.749   5.268 -33.763  1.00  0.00     0.245 S 
HETATM    5  O   UNL     1      -5.906   5.995 -33.295  1.00  0.00    -0.206 OA
HETATM    6  O   UNL     1      -4.520   4.977 -35.160  1.00  0.00    -0.206 OA
BRANCH   4   7
HETATM    7  C   UNL     1      -3.290   6.065 -33.163  1.00  0.00     0.107 A 
HETATM    8  C   UNL     1      -3.045   6.103 -31.788  1.00  0.00     0.091 A 
HETATM    9  C   UNL     1      -1.866   6.675 -31.304  1.00  0.00     0.038 A 
HETATM   10  C   UNL     1      -0.952   7.246 -32.188  1.00  0.00     0.003 A 
HETATM   11  C   UNL     1      -1.210   7.239 -33.558  1.00  0.00     0.002 A 
HETATM   12  C   UNL     1      -2.378   6.650 -34.049  1.00  0.00     0.028 A 
BRANCH   8  13
HETATM   13  O   UNL     1      -3.888   5.544 -30.871  1.00  0.00    -0.354 OA
HETATM   14  C   UNL     1      -4.227   6.470 -29.836  1.00  0.00     0.210 C 
ENDBRANCH   8  13
ENDBRANCH   4   7
ENDBRANCH   2   4
ENDBRANCH   1   2
BRANCH   1  15
HETATM   15  C   UNL     1      -6.175   1.800 -33.533  1.00  0.00     0.254 C 
HETATM   16  N   UNL     1      -5.419   0.808 -32.948  1.00  0.00    -0.156 N 
HETATM   17  H   UNL     1      -4.849   0.969 -32.129  1.00  0.00     0.187 HD
HETATM   18  O   UNL     1      -6.809   1.672 -34.583  1.00  0.00    -0.271 OA
BRANCH  16  19
HETATM   19  C   UNL     1      -5.416  -0.481 -33.411  1.00  0.00     0.708 A 
HETATM   20  N   UNL     1      -4.383  -1.287 -33.341  1.00  0.00    -0.062 NA
HETATM   21  C   UNL     1      -4.820  -2.478 -33.874  1.00  0.00     0.103 A 
HETATM   22  C   UNL     1      -6.152  -2.393 -34.264  1.00  0.00     0.078 A 
HETATM   23  C   UNL     1      -4.133  -3.688 -34.051  1.00  0.00     0.034 A 
HETATM   24  N   UNL     1      -6.500  -1.101 -33.977  1.00  0.00    -0.188 N 
HETATM   25  C   UNL     1      -6.865  -3.462 -34.811  1.00  0.00     0.032 A 
HETATM   26  H   UNL     1      -7.400  -0.657 -34.117  1.00  0.00     0.184 HD
HETATM   27  C   UNL     1      -6.165  -4.664 -34.970  1.00  0.00     0.002 A 
HETATM   28  C   UNL     1      -4.821  -4.777 -34.603  1.00  0.00     0.002 A 
ENDBRANCH  16  19
ENDBRANCH   1  15
BRANCH   1  29
HETATM   29  C   UNL     1      -6.344   2.884 -31.294  1.00  0.00     0.040 C 
BRANCH  29  30
HETATM   30  C   UNL     1      -7.760   3.169 -30.794  1.00  0.00     0.075 C 
BRANCH  30  31
HETATM   31  S   UNL     1      -8.822   4.052 -31.985  1.00  0.00    -0.173 SA
HETATM   32  C   UNL     1      -9.850   2.680 -32.563  1.00  0.00     0.089 C 
ENDBRANCH  30  31
ENDBRANCH  29  30
ENDBRANCH   1  29
TORSDOF 9
ENDMDL
MODEL 7
REMARK VINA RESULT:      -7.4      2.970      8.225
REMARK  9 active torsions:
REMARK  status: ('A' for Active; 'I' for Inactive)
REMARK    1  A    between atoms: O_2  and  C_3 
REMARK    2  A    between atoms: C_4  and  S_5 
REMARK    3  A    between atoms: S_5  and  N_6 
REMARK    4  A    between atoms: N_6  and  C_7 
REMARK    5  A    between atoms: C_7  and  C_8 
REMARK    6  A    between atoms: C_7  and  C_21 
REMARK       I    between atoms: C_8  and  N_9 
REMARK    7  A    between atoms: N_9  and  C_10 
REMARK    8  A    between atoms: C_21  and  C_22 
REMARK    9  A    between atoms: C_22  and  S_23 
ROOT
HETATM    1  C   UNL     1      -5.847   0.776 -31.485  1.00  0.00     0.165 C 
ENDROOT
BRANCH   1   2
HETATM    2  N   UNL     1      -5.068   1.679 -32.377  1.00  0.00    -0.202 NA
HETATM    3  H   UNL     1      -5.656   2.246 -32.998  1.00  0.00     0.141 HD
BRANCH   2   4
HETATM    4  S   UNL     1      -4.011   2.757 -31.584  1.00  0.00     0.245 S 
HETATM    5  O   UNL     1      -2.885   1.983 -31.115  1.00  0.00    -0.206 OA
HETATM    6  O   UNL     1      -4.858   3.523 -30.698  1.00  0.00    -0.206 OA
BRANCH   4   7
HETATM    7  C   UNL     1      -3.460   3.864 -32.846  1.00  0.00     0.107 A 
HETATM    8  C   UNL     1      -4.381   4.366 -33.769  1.00  0.00     0.091 A 
HETATM    9  C   UNL     1      -3.972   5.290 -34.734  1.00  0.00     0.038 A 
HETATM   10  C   UNL     1      -2.636   5.681 -34.804  1.00  0.00     0.003 A 
HETATM   11  C   UNL     1      -1.708   5.156 -33.905  1.00  0.00     0.002 A 
HETATM   12  C   UNL     1      -2.117   4.248 -32.926  1.00  0.00     0.028 A 
BRANCH   8  13
HETATM   13  O   UNL     1      -5.708   4.040 -33.742  1.00  0.00    -0.354 OA
HETATM   14  C   UNL     1      -6.530   5.197 -33.571  1.00  0.00     0.210 C 
ENDBRANCH   8  13
ENDBRANCH   4   7
ENDBRANCH   2   4
ENDBRANCH   1   2
BRANCH   1  15
HETATM   15  C   UNL     1      -7.345   0.932 -31.810  1.00  0.00     0.254 C 
HETATM   16  N   UNL     1      -7.595   1.718 -32.913  1.00  0.00    -0.156 N 
HETATM   17  H   UNL     1      -6.859   2.178 -33.432  1.00  0.00     0.187 HD
HETATM   18  O   UNL     1      -8.216   0.431 -31.094  1.00  0.00    -0.271 OA
BRANCH  16  19
HETATM   19  C   UNL     1      -8.857   1.903 -33.412  1.00  0.00     0.708 A 
HETATM   20  N   UNL     1      -9.224   2.941 -34.125  1.00  0.00    -0.062 NA
HETATM   21  C   UNL     1     -10.540   2.707 -34.450  1.00  0.00     0.103 A 
HETATM   22  C   UNL     1     -10.976   1.493 -33.930  1.00  0.00     0.078 A 
HETATM   23  C   UNL     1     -11.433   3.488 -35.199  1.00  0.00     0.034 A 
HETATM   24  N   UNL     1      -9.888   1.011 -33.254  1.00  0.00    -0.188 N 
HETATM   25  C   UNL     1     -12.262   0.986 -34.130  1.00  0.00     0.032 A 
HETATM   26  H   UNL     1      -9.813   0.141 -32.743  1.00  0.00     0.184 HD
HETATM   27  C   UNL     1     -13.134   1.776 -34.889  1.00  0.00     0.002 A 
HETATM   28  C   UNL     1     -12.732   3.009 -35.410  1.00  0.00     0.002 A 
ENDBRANCH  16  19
ENDBRANCH   1  15
BRANCH   1  29
HETATM   29  C   UNL     1      -5.449  -0.685 -31.744  1.00  0.00     0.040 C 
BRANCH  29  30
HETATM   30  C   UNL     1      -4.531  -0.905 -32.947  1.00  0.00     0.075 C 
BRANCH  30  31
HETATM   31  S   UNL     1      -5.137  -2.136 -34.148  1.00  0.00    -0.173 SA
HETATM   32  C   UNL     1      -6.628  -1.293 -34.734  1.00  0.00     0.089 C 
ENDBRANCH  30  31
ENDBRANCH  29  30
ENDBRANCH   1  29
TORSDOF 9
ENDMDL
MODEL 8
REMARK VINA RESULT:      -7.4      1.784      2.038
REMARK  9 active torsions:
REMARK  status: ('A' for Active; 'I' for Inactive)
REMARK    1  A    between atoms: O_2  and  C_3 
REMARK    2  A    between atoms: C_4  and  S_5 
REMARK    3  A    between atoms: S_5  and  N_6 
REMARK    4  A    between atoms: N_6  and  C_7 
REMARK    5  A    between atoms: C_7  and  C_8 
REMARK    6  A    between atoms: C_7  and  C_21 
REMARK       I    between atoms: C_8  and  N_9 
REMARK    7  A    between atoms: N_9  and  C_10 
REMARK    8  A    between atoms: C_21  and  C_22 
REMARK    9  A    between atoms: C_22  and  S_23 
ROOT
HETATM    1  C   UNL     1      -6.714   3.449 -32.996  1.00  0.00     0.165 C 
ENDROOT
BRANCH   1   2
HETATM    2  N   UNL     1      -6.245   2.314 -33.836  1.00  0.00    -0.202 NA
HETATM    3  H   UNL     1      -5.285   2.018 -33.624  1.00  0.00     0.141 HD
BRANCH   2   4
HETATM    4  S   UNL     1      -7.211   0.910 -33.778  1.00  0.00     0.245 S 
HETATM    5  O   UNL     1      -8.031   0.907 -34.967  1.00  0.00    -0.206 OA
HETATM    6  O   UNL     1      -7.768   0.898 -32.444  1.00  0.00    -0.206 OA
BRANCH   4   7
HETATM    7  C   UNL     1      -6.068  -0.434 -33.866  1.00  0.00     0.107 A 
HETATM    8  C   UNL     1      -4.888  -0.383 -33.119  1.00  0.00     0.091 A 
HETATM    9  C   UNL     1      -4.005  -1.464 -33.131  1.00  0.00     0.038 A 
HETATM   10  C   UNL     1      -4.278  -2.581 -33.921  1.00  0.00     0.003 A 
HETATM   11  C   UNL     1      -5.439  -2.621 -34.692  1.00  0.00     0.002 A 
HETATM   12  C   UNL     1      -6.335  -1.550 -34.668  1.00  0.00     0.028 A 
BRANCH   8  13
HETATM   13  O   UNL     1      -4.571   0.671 -32.310  1.00  0.00    -0.354 OA
HETATM   14  C   UNL     1      -4.163   0.233 -31.012  1.00  0.00     0.210 C 
ENDBRANCH   8  13
ENDBRANCH   4   7
ENDBRANCH   2   4
ENDBRANCH   1   2
BRANCH   1  15
HETATM   15  C   UNL     1      -5.518   4.373 -32.700  1.00  0.00     0.254 C 
HETATM   16  N   UNL     1      -4.623   3.850 -31.792  1.00  0.00    -0.156 N 
HETATM   17  H   UNL     1      -4.767   2.959 -31.337  1.00  0.00     0.187 HD
HETATM   18  O   UNL     1      -5.429   5.495 -33.205  1.00  0.00    -0.271 OA
BRANCH  16  19
HETATM   19  C   UNL     1      -3.452   4.483 -31.468  1.00  0.00     0.708 A 
HETATM   20  N   UNL     1      -2.270   4.108 -31.894  1.00  0.00    -0.062 NA
HETATM   21  C   UNL     1      -1.391   5.030 -31.372  1.00  0.00     0.103 A 
HETATM   22  C   UNL     1      -2.061   5.991 -30.622  1.00  0.00     0.078 A 
HETATM   23  C   UNL     1       0.003   5.116 -31.503  1.00  0.00     0.034 A 
HETATM   24  N   UNL     1      -3.373   5.604 -30.682  1.00  0.00    -0.188 N 
HETATM   25  C   UNL     1      -1.423   7.065 -29.999  1.00  0.00     0.032 A 
HETATM   26  H   UNL     1      -4.172   6.060 -30.259  1.00  0.00     0.184 HD
HETATM   27  C   UNL     1      -0.033   7.140 -30.151  1.00  0.00     0.002 A 
HETATM   28  C   UNL     1       0.671   6.180 -30.883  1.00  0.00     0.002 A 
ENDBRANCH  16  19
ENDBRANCH   1  15
BRANCH   1  29
HETATM   29  C   UNL     1      -7.771   4.261 -33.759  1.00  0.00     0.040 C 
BRANCH  29  30
HETATM   30  C   UNL     1      -9.192   4.167 -33.201  1.00  0.00     0.075 C 
BRANCH  30  31
HETATM   31  S   UNL     1     -10.428   3.524 -34.377  1.00  0.00    -0.173 SA
HETATM   32  C   UNL     1     -11.055   2.114 -33.431  1.00  0.00     0.089 C 
ENDBRANCH  30  31
ENDBRANCH  29  30
ENDBRANCH   1  29
TORSDOF 9
ENDMDL
MODEL 9
REMARK VINA RESULT:      -7.3      1.737      2.375
REMARK  9 active torsions:
REMARK  status: ('A' for Active; 'I' for Inactive)
REMARK    1  A    between atoms: O_2  and  C_3 
REMARK    2  A    between atoms: C_4  and  S_5 
REMARK    3  A    between atoms: S_5  and  N_6 
REMARK    4  A    between atoms: N_6  and  C_7 
REMARK    5  A    between atoms: C_7  and  C_8 
REMARK    6  A    between atoms: C_7  and  C_21 
REMARK       I    between atoms: C_8  and  N_9 
REMARK    7  A    between atoms: N_9  and  C_10 
REMARK    8  A    between atoms: C_21  and  C_22 
REMARK    9  A    between atoms: C_22  and  S_23 
ROOT
HETATM    1  C   UNL     1      -6.136   1.358 -31.870  1.00  0.00     0.165 C 
ENDROOT
BRANCH   1   2
HETATM    2  N   UNL     1      -5.639   0.652 -33.083  1.00  0.00    -0.202 NA
HETATM    3  H   UNL     1      -5.201   1.278 -33.769  1.00  0.00     0.141 HD
BRANCH   2   4
HETATM    4  S   UNL     1      -4.528  -0.609 -32.794  1.00  0.00     0.245 S 
HETATM    5  O   UNL     1      -4.558  -0.886 -31.376  1.00  0.00    -0.206 OA
HETATM    6  O   UNL     1      -3.325  -0.210 -33.488  1.00  0.00    -0.206 OA
BRANCH   4   7
HETATM    7  C   UNL     1      -5.182  -2.000 -33.665  1.00  0.00     0.107 A 
HETATM    8  C   UNL     1      -4.412  -3.160 -33.782  1.00  0.00     0.091 A 
HETATM    9  C   UNL     1      -4.940  -4.288 -34.414  1.00  0.00     0.038 A 
HETATM   10  C   UNL     1      -6.220  -4.246 -34.966  1.00  0.00     0.003 A 
HETATM   11  C   UNL     1      -6.977  -3.079 -34.879  1.00  0.00     0.002 A 
HETATM   12  C   UNL     1      -6.462  -1.955 -34.230  1.00  0.00     0.028 A 
BRANCH   8  13
HETATM   13  O   UNL     1      -3.161  -3.275 -33.247  1.00  0.00    -0.354 OA
HETATM   14  C   UNL     1      -3.186  -3.963 -31.994  1.00  0.00     0.210 C 
ENDBRANCH   8  13
ENDBRANCH   4   7
ENDBRANCH   2   4
ENDBRANCH   1   2
BRANCH   1  15
HETATM   15  C   UNL     1      -5.370   2.685 -31.721  1.00  0.00     0.254 C 
HETATM   16  N   UNL     1      -4.022   2.581 -31.985  1.00  0.00    -0.156 N 
HETATM   17  H   UNL     1      -3.578   1.703 -32.216  1.00  0.00     0.187 HD
HETATM   18  O   UNL     1      -5.933   3.717 -31.345  1.00  0.00    -0.271 OA
BRANCH  16  19
HETATM   19  C   UNL     1      -3.189   3.669 -31.992  1.00  0.00     0.708 A 
HETATM   20  N   UNL     1      -2.065   3.741 -31.319  1.00  0.00    -0.062 NA
HETATM   21  C   UNL     1      -1.534   4.970 -31.639  1.00  0.00     0.103 A 
HETATM   22  C   UNL     1      -2.350   5.650 -32.535  1.00  0.00     0.078 A 
HETATM   23  C   UNL     1      -0.344   5.573 -31.206  1.00  0.00     0.034 A 
HETATM   24  N   UNL     1      -3.410   4.806 -32.726  1.00  0.00    -0.188 N 
HETATM   25  C   UNL     1      -2.042   6.909 -33.055  1.00  0.00     0.032 A 
HETATM   26  H   UNL     1      -4.217   4.951 -33.321  1.00  0.00     0.184 HD
HETATM   27  C   UNL     1      -0.845   7.490 -32.619  1.00  0.00     0.002 A 
HETATM   28  C   UNL     1      -0.012   6.839 -31.706  1.00  0.00     0.002 A 
ENDBRANCH  16  19
ENDBRANCH   1  15
BRANCH   1  29
HETATM   29  C   UNL     1      -7.630   1.680 -32.030  1.00  0.00     0.040 C 
BRANCH  29  30
HETATM   30  C   UNL     1      -8.580   0.516 -31.747  1.00  0.00     0.075 C 
BRANCH  30  31
HETATM   31  S   UNL     1      -9.883   0.278 -33.000  1.00  0.00    -0.173 SA
HETATM   32  C   UNL     1      -8.981   0.783 -34.487  1.00  0.00     0.089 C 
ENDBRANCH  30  31
ENDBRANCH  29  30
ENDBRANCH   1  29
TORSDOF 9
ENDMDL
MODEL 10
REMARK VINA RESULT:      -7.1      2.564      3.462
REMARK  9 active torsions:
REMARK  status: ('A' for Active; 'I' for Inactive)
REMARK    1  A    between atoms: O_2  and  C_3 
REMARK    2  A    between atoms: C_4  and  S_5 
REMARK    3  A    between atoms: S_5  and  N_6 
REMARK    4  A    between atoms: N_6  and  C_7 
REMARK    5  A    between atoms: C_7  and  C_8 
REMARK    6  A    between atoms: C_7  and  C_21 
REMARK       I    between atoms: C_8  and  N_9 
REMARK    7  A    between atoms: N_9  and  C_10 
REMARK    8  A    between atoms: C_21  and  C_22 
REMARK    9  A    between atoms: C_22  and  S_23 
ROOT
HETATM    1  C   UNL     1      -4.429   3.599 -31.833  1.00  0.00     0.165 C 
ENDROOT
BRANCH   1   2
HETATM    2  N   UNL     1      -4.304   2.154 -31.501  1.00  0.00    -0.202 NA
HETATM    3  H   UNL     1      -3.632   1.964 -30.748  1.00  0.00     0.141 HD
BRANCH   2   4
HETATM    4  S   UNL     1      -5.756   1.372 -31.067  1.00  0.00     0.245 S 
HETATM    5  O   UNL     1      -6.796   2.376 -31.066  1.00  0.00    -0.206 OA
HETATM    6  O   UNL     1      -5.422   0.590 -29.899  1.00  0.00    -0.206 OA
BRANCH   4   7
HETATM    7  C   UNL     1      -6.065   0.227 -32.377  1.00  0.00     0.107 A 
HETATM    8  C   UNL     1      -5.005  -0.509 -32.910  1.00  0.00     0.091 A 
HETATM    9  C   UNL     1      -5.244  -1.462 -33.903  1.00  0.00     0.038 A 
HETATM   10  C   UNL     1      -6.536  -1.651 -34.393  1.00  0.00     0.003 A 
HETATM   11  C   UNL     1      -7.591  -0.894 -33.886  1.00  0.00     0.002 A 
HETATM   12  C   UNL     1      -7.359   0.046 -32.879  1.00  0.00     0.028 A 
BRANCH   8  13
HETATM   13  O   UNL     1      -3.720  -0.387 -32.461  1.00  0.00    -0.354 OA
HETATM   14  C   UNL     1      -3.213  -1.632 -31.976  1.00  0.00     0.210 C 
ENDBRANCH   8  13
ENDBRANCH   4   7
ENDBRANCH   2   4
ENDBRANCH   1   2
BRANCH   1  15
HETATM   15  C   UNL     1      -3.172   4.333 -31.330  1.00  0.00     0.254 C 
HETATM   16  N   UNL     1      -3.446   5.473 -30.607  1.00  0.00    -0.156 N 
HETATM   17  H   UNL     1      -4.387   5.810 -30.458  1.00  0.00     0.187 HD
HETATM   18  O   UNL     1      -2.038   3.939 -31.614  1.00  0.00    -0.271 OA
BRANCH  16  19
HETATM   19  C   UNL     1      -2.464   6.212 -30.002  1.00  0.00     0.708 A 
HETATM   20  N   UNL     1      -2.603   7.465 -29.638  1.00  0.00    -0.062 NA
HETATM   21  C   UNL     1      -1.409   7.800 -29.041  1.00  0.00     0.103 A 
HETATM   22  C   UNL     1      -0.533   6.720 -29.033  1.00  0.00     0.078 A 
HETATM   23  C   UNL     1      -1.001   9.015 -28.471  1.00  0.00     0.034 A 
HETATM   24  N   UNL     1      -1.225   5.727 -29.672  1.00  0.00    -0.188 N 
HETATM   25  C   UNL     1       0.741   6.765 -28.464  1.00  0.00     0.032 A 
HETATM   26  H   UNL     1      -0.917   4.780 -29.858  1.00  0.00     0.184 HD
HETATM   27  C   UNL     1       1.126   7.983 -27.890  1.00  0.00     0.002 A 
HETATM   28  C   UNL     1       0.275   9.092 -27.897  1.00  0.00     0.002 A 
ENDBRANCH  16  19
ENDBRANCH   1  15
BRANCH   1  29
HETATM   29  C   UNL     1      -4.514   3.779 -33.356  1.00  0.00     0.040 C 
BRANCH  29  30
HETATM   30  C   UNL     1      -4.343   5.214 -33.852  1.00  0.00     0.075 C 
BRANCH  30  31
HETATM   31  S   UNL     1      -2.830   5.505 -34.829  1.00  0.00    -0.173 SA
HETATM   32  C   UNL     1      -2.103   6.865 -33.881  1.00  0.00     0.089 C 
ENDBRANCH  30  31
ENDBRANCH  29  30
ENDBRANCH   1  29
TORSDOF 9
ENDMDL
