MODEL 1
REMARK VINA RESULT:      -7.8      0.000      0.000
REMARK  4 active torsions:
REMARK  status: ('A' for Active; 'I' for Inactive)
REMARK    1  A    between atoms: N_2  and  C_4 
REMARK    2  A    between atoms: C_4  and  C_5 
REMARK    3  A    between atoms: C_8  and  C_9 
REMARK       I    between atoms: C_9  and  N_10 
REMARK    4  A    between atoms: N_10  and  C_11 
ROOT
HETATM    1  C   UNL     1      -9.293   0.860 -32.963  1.00  0.00     0.269 C 
HETATM    2  N   UNL     1     -10.313   0.924 -33.891  1.00  0.00    -0.153 N 
HETATM    3  O   UNL     1      -9.285   1.304 -31.821  1.00  0.00    -0.267 OA
HETATM    4  H   UNL     1     -10.130   0.716 -34.860  1.00  0.00     0.187 HD
ENDROOT
BRANCH   1   5
HETATM    5  C   UNL     1      -8.053   0.179 -33.427  1.00  0.00     0.032 A 
HETATM    6  C   UNL     1      -7.125  -0.240 -32.465  1.00  0.00     0.017 A 
HETATM    7  C   UNL     1      -6.018  -1.006 -32.838  1.00  0.00     0.010 A 
HETATM    8  C   UNL     1      -5.831  -1.376 -34.178  1.00  0.00    -0.033 A 
HETATM    9  C   UNL     1      -6.748  -0.929 -35.143  1.00  0.00     0.010 A 
HETATM   10  C   UNL     1      -7.856  -0.159 -34.771  1.00  0.00     0.017 A 
BRANCH   8  11
HETATM   11  C   UNL     1      -4.713  -2.312 -34.558  1.00  0.00     0.272 C 
BRANCH  11  12
HETATM   12  N   UNL     1      -4.973  -3.742 -34.128  1.00  0.00    -0.075 N 
HETATM   13  C   UNL     1      -3.711  -4.527 -33.881  1.00  0.00     0.269 C 
HETATM   14  H   UNL     1      -5.462  -3.693 -33.226  1.00  0.00     0.279 HD
HETATM   15  C   UNL     1      -5.882  -4.453 -35.087  1.00  0.00     0.269 C 
ENDBRANCH  11  12
ENDBRANCH   8  11
ENDBRANCH   1   5
BRANCH   2  16
HETATM   16  C   UNL     1     -11.590   1.270 -33.520  1.00  0.00     0.708 A 
HETATM   17  N   UNL     1     -12.714   0.654 -33.800  1.00  0.00    -0.062 NA
HETATM   18  C   UNL     1     -13.717   1.427 -33.275  1.00  0.00     0.103 A 
HETATM   19  C   UNL     1     -13.194   2.552 -32.649  1.00  0.00     0.078 A 
HETATM   20  C   UNL     1     -15.104   1.238 -33.302  1.00  0.00     0.034 A 
HETATM   21  N   UNL     1     -11.839   2.420 -32.809  1.00  0.00    -0.187 N 
HETATM   22  C   UNL     1     -13.984   3.526 -32.037  1.00  0.00     0.032 A 
HETATM   23  H   UNL     1     -11.147   3.066 -32.465  1.00  0.00     0.184 HD
HETATM   24  C   UNL     1     -15.369   3.325 -32.078  1.00  0.00     0.002 A 
HETATM   25  C   UNL     1     -15.923   2.201 -32.697  1.00  0.00     0.002 A 
ENDBRANCH   2  16
TORSDOF 4
ENDMDL
MODEL 2
REMARK VINA RESULT:      -7.5      5.922      9.018
REMARK  4 active torsions:
REMARK  status: ('A' for Active; 'I' for Inactive)
REMARK    1  A    between atoms: N_2  and  C_4 
REMARK    2  A    between atoms: C_4  and  C_5 
REMARK    3  A    between atoms: C_8  and  C_9 
REMARK       I    between atoms: C_9  and  N_10 
REMARK    4  A    between atoms: N_10  and  C_11 
ROOT
HETATM    1  C   UNL     1      -4.621   1.027 -31.747  1.00  0.00     0.269 C 
HETATM    2  N   UNL     1      -5.154   0.796 -33.000  1.00  0.00    -0.153 N 
HETATM    3  O   UNL     1      -4.439   0.219 -30.845  1.00  0.00    -0.267 OA
HETATM    4  H   UNL     1      -5.451   1.569 -33.574  1.00  0.00     0.187 HD
ENDROOT
BRANCH   1   5
HETATM    5  C   UNL     1      -4.237   2.439 -31.470  1.00  0.00     0.032 A 
HETATM    6  C   UNL     1      -3.068   2.938 -32.057  1.00  0.00     0.017 A 
HETATM    7  C   UNL     1      -2.741   4.291 -31.942  1.00  0.00     0.010 A 
HETATM    8  C   UNL     1      -3.590   5.168 -31.251  1.00  0.00    -0.033 A 
HETATM    9  C   UNL     1      -4.746   4.658 -30.639  1.00  0.00     0.010 A 
HETATM   10  C   UNL     1      -5.072   3.302 -30.751  1.00  0.00     0.017 A 
BRANCH   8  11
HETATM   11  C   UNL     1      -3.307   6.649 -31.242  1.00  0.00     0.272 C 
BRANCH  11  12
HETATM   12  N   UNL     1      -1.852   6.971 -31.518  1.00  0.00    -0.075 N 
HETATM   13  C   UNL     1      -1.126   7.519 -30.318  1.00  0.00     0.269 C 
HETATM   14  H   UNL     1      -1.394   6.081 -31.750  1.00  0.00     0.279 HD
HETATM   15  C   UNL     1      -1.700   7.870 -32.710  1.00  0.00     0.269 C 
ENDBRANCH  11  12
ENDBRANCH   8  11
ENDBRANCH   1   5
BRANCH   2  16
HETATM   16  C   UNL     1      -5.293  -0.481 -33.487  1.00  0.00     0.708 A 
HETATM   17  N   UNL     1      -6.353  -1.034 -34.029  1.00  0.00    -0.062 NA
HETATM   18  C   UNL     1      -6.018  -2.339 -34.280  1.00  0.00     0.103 A 
HETATM   19  C   UNL     1      -4.711  -2.597 -33.885  1.00  0.00     0.078 A 
HETATM   20  C   UNL     1      -6.784  -3.372 -34.837  1.00  0.00     0.034 A 
HETATM   21  N   UNL     1      -4.270  -1.394 -33.396  1.00  0.00    -0.187 N 
HETATM   22  C   UNL     1      -4.105  -3.848 -34.008  1.00  0.00     0.032 A 
HETATM   23  H   UNL     1      -3.349  -1.219 -33.027  1.00  0.00     0.184 HD
HETATM   24  C   UNL     1      -4.886  -4.870 -34.562  1.00  0.00     0.002 A 
HETATM   25  C   UNL     1      -6.202  -4.639 -34.971  1.00  0.00     0.002 A 
ENDBRANCH   2  16
TORSDOF 4
ENDMDL
MODEL 3
REMARK VINA RESULT:      -7.4      5.909      9.131
REMARK  4 active torsions:
REMARK  status: ('A' for Active; 'I' for Inactive)
REMARK    1  A    between atoms: N_2  and  C_4 
REMARK    2  A    between atoms: C_4  and  C_5 
REMARK    3  A    between atoms: C_8  and  C_9 
REMARK       I    between atoms: C_9  and  N_10 
REMARK    4  A    between atoms: N_10  and  C_11 
ROOT
HETATM    1  C   UNL     1      -5.073   1.364 -32.328  1.00  0.00     0.269 C 
HETATM    2  N   UNL     1      -4.222   0.588 -33.090  1.00  0.00    -0.153 N 
HETATM    3  O   UNL     1      -6.250   1.153 -32.064  1.00  0.00    -0.267 OA
HETATM    4  H   UNL     1      -3.346   0.966 -33.413  1.00  0.00     0.187 HD
ENDROOT
BRANCH   1   5
HETATM    5  C   UNL     1      -4.475   2.612 -31.780  1.00  0.00     0.032 A 
HETATM    6  C   UNL     1      -3.156   2.928 -32.128  1.00  0.00     0.017 A 
HETATM    7  C   UNL     1      -2.600   4.153 -31.756  1.00  0.00     0.010 A 
HETATM    8  C   UNL     1      -3.362   5.088 -31.041  1.00  0.00    -0.033 A 
HETATM    9  C   UNL     1      -4.675   4.757 -30.668  1.00  0.00     0.010 A 
HETATM   10  C   UNL     1      -5.232   3.528 -31.039  1.00  0.00     0.017 A 
BRANCH   8  11
HETATM   11  C   UNL     1      -2.807   6.461 -30.757  1.00  0.00     0.272 C 
BRANCH  11  12
HETATM   12  N   UNL     1      -1.884   6.485 -29.556  1.00  0.00    -0.075 N 
HETATM   13  C   UNL     1      -2.321   7.454 -28.489  1.00  0.00     0.269 C 
HETATM   14  H   UNL     1      -1.931   5.550 -29.131  1.00  0.00     0.279 HD
HETATM   15  C   UNL     1      -0.457   6.717 -29.957  1.00  0.00     0.269 C 
ENDBRANCH  11  12
ENDBRANCH   8  11
ENDBRANCH   1   5
BRANCH   2  16
HETATM   16  C   UNL     1      -4.547  -0.705 -33.423  1.00  0.00     0.708 A 
HETATM   17  N   UNL     1      -3.793  -1.776 -33.358  1.00  0.00    -0.062 NA
HETATM   18  C   UNL     1      -4.540  -2.804 -33.873  1.00  0.00     0.103 A 
HETATM   19  C   UNL     1      -5.795  -2.352 -34.263  1.00  0.00     0.078 A 
HETATM   20  C   UNL     1      -4.211  -4.154 -34.049  1.00  0.00     0.034 A 
HETATM   21  N   UNL     1      -5.777  -1.016 -33.953  1.00  0.00    -0.187 N 
HETATM   22  C   UNL     1      -6.764  -3.177 -34.835  1.00  0.00     0.032 A 
HETATM   23  H   UNL     1      -6.540  -0.375 -34.100  1.00  0.00     0.184 HD
HETATM   24  C   UNL     1      -6.417  -4.522 -35.009  1.00  0.00     0.002 A 
HETATM   25  C   UNL     1      -5.164  -5.006 -34.623  1.00  0.00     0.002 A 
ENDBRANCH   2  16
TORSDOF 4
ENDMDL
MODEL 4
REMARK VINA RESULT:      -7.2     12.599     14.703
REMARK  4 active torsions:
REMARK  status: ('A' for Active; 'I' for Inactive)
REMARK    1  A    between atoms: N_2  and  C_4 
REMARK    2  A    between atoms: C_4  and  C_5 
REMARK    3  A    between atoms: C_8  and  C_9 
REMARK       I    between atoms: C_9  and  N_10 
REMARK    4  A    between atoms: N_10  and  C_11 
ROOT
HETATM    1  C   UNL     1      -0.230   8.112 -28.664  1.00  0.00     0.269 C 
HETATM    2  N   UNL     1       0.486   7.332 -29.550  1.00  0.00    -0.153 N 
HETATM    3  O   UNL     1      -1.402   8.461 -28.745  1.00  0.00    -0.267 OA
HETATM    4  H   UNL     1       1.491   7.290 -29.489  1.00  0.00     0.187 HD
ENDROOT
BRANCH   1   5
HETATM    5  C   UNL     1       0.532   8.591 -27.478  1.00  0.00     0.032 A 
HETATM    6  C   UNL     1       0.093   9.753 -26.830  1.00  0.00     0.017 A 
HETATM    7  C   UNL     1       0.687  10.163 -25.634  1.00  0.00     0.010 A 
HETATM    8  C   UNL     1       1.721   9.407 -25.062  1.00  0.00    -0.033 A 
HETATM    9  C   UNL     1       2.178   8.259 -25.730  1.00  0.00     0.010 A 
HETATM   10  C   UNL     1       1.584   7.849 -26.930  1.00  0.00     0.017 A 
BRANCH   8  11
HETATM   11  C   UNL     1       2.269   9.775 -23.707  1.00  0.00     0.272 C 
BRANCH  11  12
HETATM   12  N   UNL     1       3.473   8.944 -23.315  1.00  0.00    -0.075 N 
HETATM   13  C   UNL     1       3.349   8.325 -21.947  1.00  0.00     0.269 C 
HETATM   14  H   UNL     1       3.520   8.163 -23.980  1.00  0.00     0.279 HD
HETATM   15  C   UNL     1       4.751   9.719 -23.452  1.00  0.00     0.269 C 
ENDBRANCH  11  12
ENDBRANCH   8  11
ENDBRANCH   1   5
BRANCH   2  16
HETATM   16  C   UNL     1      -0.148   6.603 -30.528  1.00  0.00     0.708 A 
HETATM   17  N   UNL     1      -0.091   6.766 -31.828  1.00  0.00    -0.062 NA
HETATM   18  C   UNL     1      -0.954   5.848 -32.368  1.00  0.00     0.103 A 
HETATM   19  C   UNL     1      -1.558   5.094 -31.368  1.00  0.00     0.078 A 
HETATM   20  C   UNL     1      -1.284   5.603 -33.706  1.00  0.00     0.034 A 
HETATM   21  N   UNL     1      -1.017   5.588 -30.209  1.00  0.00    -0.187 N 
HETATM   22  C   UNL     1      -2.495   4.092 -31.623  1.00  0.00     0.032 A 
HETATM   23  H   UNL     1      -1.231   5.259 -29.281  1.00  0.00     0.184 HD
HETATM   24  C   UNL     1      -2.818   3.864 -32.967  1.00  0.00     0.002 A 
HETATM   25  C   UNL     1      -2.224   4.604 -33.993  1.00  0.00     0.002 A 
ENDBRANCH   2  16
TORSDOF 4
ENDMDL
MODEL 5
REMARK VINA RESULT:      -7.1      5.915      9.136
REMARK  4 active torsions:
REMARK  status: ('A' for Active; 'I' for Inactive)
REMARK    1  A    between atoms: N_2  and  C_4 
REMARK    2  A    between atoms: C_4  and  C_5 
REMARK    3  A    between atoms: C_8  and  C_9 
REMARK       I    between atoms: C_9  and  N_10 
REMARK    4  A    between atoms: N_10  and  C_11 
ROOT
HETATM    1  C   UNL     1      -4.643   1.091 -31.801  1.00  0.00     0.269 C 
HETATM    2  N   UNL     1      -5.124   0.841 -33.071  1.00  0.00    -0.153 N 
HETATM    3  O   UNL     1      -4.525   0.302 -30.872  1.00  0.00    -0.267 OA
HETATM    4  H   UNL     1      -5.373   1.606 -33.677  1.00  0.00     0.187 HD
ENDROOT
BRANCH   1   5
HETATM    5  C   UNL     1      -4.234   2.499 -31.541  1.00  0.00     0.032 A 
HETATM    6  C   UNL     1      -3.059   2.972 -32.139  1.00  0.00     0.017 A 
HETATM    7  C   UNL     1      -2.709   4.320 -32.041  1.00  0.00     0.010 A 
HETATM    8  C   UNL     1      -3.540   5.219 -31.355  1.00  0.00    -0.033 A 
HETATM    9  C   UNL     1      -4.702   4.736 -30.733  1.00  0.00     0.010 A 
HETATM   10  C   UNL     1      -5.051   3.384 -30.828  1.00  0.00     0.017 A 
BRANCH   8  11
HETATM   11  C   UNL     1      -3.232   6.695 -31.365  1.00  0.00     0.272 C 
BRANCH  11  12
HETATM   12  N   UNL     1      -3.781   7.417 -30.152  1.00  0.00    -0.075 N 
HETATM   13  C   UNL     1      -4.392   8.754 -30.482  1.00  0.00     0.269 C 
HETATM   14  H   UNL     1      -4.544   6.836 -29.785  1.00  0.00     0.279 HD
HETATM   15  C   UNL     1      -2.754   7.537 -29.064  1.00  0.00     0.269 C 
ENDBRANCH  11  12
ENDBRANCH   8  11
ENDBRANCH   1   5
BRANCH   2  16
HETATM   16  C   UNL     1      -5.275  -0.445 -33.533  1.00  0.00     0.708 A 
HETATM   17  N   UNL     1      -6.348  -1.006 -34.038  1.00  0.00    -0.062 NA
HETATM   18  C   UNL     1      -6.020  -2.316 -34.275  1.00  0.00     0.103 A 
HETATM   19  C   UNL     1      -4.703  -2.567 -33.908  1.00  0.00     0.078 A 
HETATM   20  C   UNL     1      -6.799  -3.357 -34.794  1.00  0.00     0.034 A 
HETATM   21  N   UNL     1      -4.250  -1.356 -33.452  1.00  0.00    -0.187 N 
HETATM   22  C   UNL     1      -4.100  -3.820 -34.025  1.00  0.00     0.032 A 
HETATM   23  H   UNL     1      -3.320  -1.175 -33.110  1.00  0.00     0.184 HD
HETATM   24  C   UNL     1      -4.894  -4.851 -34.541  1.00  0.00     0.002 A 
HETATM   25  C   UNL     1      -6.220  -4.627 -34.921  1.00  0.00     0.002 A 
ENDBRANCH   2  16
TORSDOF 4
ENDMDL
MODEL 6
REMARK VINA RESULT:      -7.1      6.126      8.813
REMARK  4 active torsions:
REMARK  status: ('A' for Active; 'I' for Inactive)
REMARK    1  A    between atoms: N_2  and  C_4 
REMARK    2  A    between atoms: C_4  and  C_5 
REMARK    3  A    between atoms: C_8  and  C_9 
REMARK       I    between atoms: C_9  and  N_10 
REMARK    4  A    between atoms: N_10  and  C_11 
ROOT
HETATM    1  C   UNL     1      -4.823   2.987 -32.390  1.00  0.00     0.269 C 
HETATM    2  N   UNL     1      -3.608   2.839 -31.752  1.00  0.00    -0.153 N 
HETATM    3  O   UNL     1      -5.463   4.017 -32.562  1.00  0.00    -0.267 OA
HETATM    4  H   UNL     1      -3.285   1.923 -31.484  1.00  0.00     0.187 HD
ENDROOT
BRANCH   1   5
HETATM    5  C   UNL     1      -5.424   1.729 -32.914  1.00  0.00     0.032 A 
HETATM    6  C   UNL     1      -6.340   1.819 -33.970  1.00  0.00     0.017 A 
HETATM    7  C   UNL     1      -6.822   0.663 -34.588  1.00  0.00     0.010 A 
HETATM    8  C   UNL     1      -6.382  -0.600 -34.167  1.00  0.00    -0.033 A 
HETATM    9  C   UNL     1      -5.485  -0.687 -33.090  1.00  0.00     0.010 A 
HETATM   10  C   UNL     1      -5.004   0.471 -32.468  1.00  0.00     0.017 A 
BRANCH   8  11
HETATM   11  C   UNL     1      -6.797  -1.838 -34.921  1.00  0.00     0.272 C 
BRANCH  11  12
HETATM   12  N   UNL     1      -6.101  -3.089 -34.426  1.00  0.00    -0.075 N 
HETATM   13  C   UNL     1      -4.657  -3.172 -34.848  1.00  0.00     0.269 C 
HETATM   14  H   UNL     1      -6.097  -3.037 -33.401  1.00  0.00     0.279 HD
HETATM   15  C   UNL     1      -6.855  -4.331 -34.804  1.00  0.00     0.269 C 
ENDBRANCH  11  12
ENDBRANCH   8  11
ENDBRANCH   1   5
BRANCH   2  16
HETATM   16  C   UNL     1      -2.818   3.927 -31.467  1.00  0.00     0.708 A 
HETATM   17  N   UNL     1      -1.537   4.085 -31.701  1.00  0.00    -0.062 NA
HETATM   18  C   UNL     1      -1.197   5.301 -31.165  1.00  0.00     0.103 A 
HETATM   19  C   UNL     1      -2.303   5.911 -30.587  1.00  0.00     0.078 A 
HETATM   20  C   UNL     1       0.044   5.949 -31.124  1.00  0.00     0.034 A 
HETATM   21  N   UNL     1      -3.324   5.021 -30.806  1.00  0.00    -0.187 N 
HETATM   22  C   UNL     1      -2.251   7.153 -29.953  1.00  0.00     0.032 A 
HETATM   23  H   UNL     1      -4.280   5.151 -30.519  1.00  0.00     0.184 HD
HETATM   24  C   UNL     1      -1.002   7.784 -29.916  1.00  0.00     0.002 A 
HETATM   25  C   UNL     1       0.128   7.196 -30.492  1.00  0.00     0.002 A 
ENDBRANCH   2  16
TORSDOF 4
ENDMDL
MODEL 7
REMARK VINA RESULT:      -6.8     14.700     16.222
REMARK  4 active torsions:
REMARK  status: ('A' for Active; 'I' for Inactive)
REMARK    1  A    between atoms: N_2  and  C_4 
REMARK    2  A    between atoms: C_4  and  C_5 
REMARK    3  A    between atoms: C_8  and  C_9 
REMARK       I    between atoms: C_9  and  N_10 
REMARK    4  A    between atoms: N_10  and  C_11 
ROOT
HETATM    1  C   UNL     1      -6.779 -13.993 -34.289  1.00  0.00     0.269 C 
HETATM    2  N   UNL     1      -6.065 -14.350 -35.416  1.00  0.00    -0.153 N 
HETATM    3  O   UNL     1      -7.593 -13.086 -34.171  1.00  0.00    -0.267 OA
HETATM    4  H   UNL     1      -5.274 -14.969 -35.338  1.00  0.00     0.187 HD
ENDROOT
BRANCH   1   5
HETATM    5  C   UNL     1      -6.505 -14.811 -33.076  1.00  0.00     0.032 A 
HETATM    6  C   UNL     1      -7.119 -16.066 -32.967  1.00  0.00     0.017 A 
HETATM    7  C   UNL     1      -6.785 -16.927 -31.920  1.00  0.00     0.010 A 
HETATM    8  C   UNL     1      -5.819 -16.552 -30.975  1.00  0.00    -0.033 A 
HETATM    9  C   UNL     1      -5.227 -15.282 -31.071  1.00  0.00     0.010 A 
HETATM   10  C   UNL     1      -5.564 -14.417 -32.119  1.00  0.00     0.017 A 
BRANCH   8  11
HETATM   11  C   UNL     1      -5.362 -17.533 -29.926  1.00  0.00     0.272 C 
BRANCH  11  12
HETATM   12  N   UNL     1      -5.808 -17.151 -28.529  1.00  0.00    -0.075 N 
HETATM   13  C   UNL     1      -4.905 -17.687 -27.450  1.00  0.00     0.269 C 
HETATM   14  H   UNL     1      -5.747 -16.127 -28.472  1.00  0.00     0.279 HD
HETATM   15  C   UNL     1      -7.241 -17.524 -28.282  1.00  0.00     0.269 C 
ENDBRANCH  11  12
ENDBRANCH   8  11
ENDBRANCH   1   5
BRANCH   2  16
HETATM   16  C   UNL     1      -6.411 -13.873 -36.657  1.00  0.00     0.708 A 
HETATM   17  N   UNL     1      -5.620 -13.449 -37.614  1.00  0.00    -0.062 NA
HETATM   18  C   UNL     1      -6.439 -13.003 -38.619  1.00  0.00     0.103 A 
HETATM   19  C   UNL     1      -7.775 -13.162 -38.272  1.00  0.00     0.078 A 
HETATM   20  C   UNL     1      -6.115 -12.439 -39.859  1.00  0.00     0.034 A 
HETATM   21  N   UNL     1      -7.727 -13.729 -37.024  1.00  0.00    -0.187 N 
HETATM   22  C   UNL     1      -8.834 -12.782 -39.098  1.00  0.00     0.032 A 
HETATM   23  H   UNL     1      -8.529 -13.988 -36.472  1.00  0.00     0.184 HD
HETATM   24  C   UNL     1      -8.491 -12.215 -40.332  1.00  0.00     0.002 A 
HETATM   25  C   UNL     1      -7.156 -12.046 -40.710  1.00  0.00     0.002 A 
ENDBRANCH   2  16
TORSDOF 4
ENDMDL
MODEL 8
REMARK VINA RESULT:      -6.7      5.628      9.123
REMARK  4 active torsions:
REMARK  status: ('A' for Active; 'I' for Inactive)
REMARK    1  A    between atoms: N_2  and  C_4 
REMARK    2  A    between atoms: C_4  and  C_5 
REMARK    3  A    between atoms: C_8  and  C_9 
REMARK       I    between atoms: C_9  and  N_10 
REMARK    4  A    between atoms: N_10  and  C_11 
ROOT
HETATM    1  C   UNL     1      -5.643   1.240 -31.882  1.00  0.00     0.269 C 
HETATM    2  N   UNL     1      -4.846   0.714 -32.880  1.00  0.00    -0.153 N 
HETATM    3  O   UNL     1      -6.664   0.762 -31.403  1.00  0.00    -0.267 OA
HETATM    4  H   UNL     1      -4.160   1.293 -33.337  1.00  0.00     0.187 HD
ENDROOT
BRANCH   1   5
HETATM    5  C   UNL     1      -5.202   2.556 -31.343  1.00  0.00     0.032 A 
HETATM    6  C   UNL     1      -4.143   3.215 -31.981  1.00  0.00     0.017 A 
HETATM    7  C   UNL     1      -3.787   4.511 -31.601  1.00  0.00     0.010 A 
HETATM    8  C   UNL     1      -4.495   5.172 -30.587  1.00  0.00    -0.033 A 
HETATM    9  C   UNL     1      -5.537   4.497 -29.931  1.00  0.00     0.010 A 
HETATM   10  C   UNL     1      -5.893   3.197 -30.308  1.00  0.00     0.017 A 
BRANCH   8  11
HETATM   11  C   UNL     1      -4.197   6.615 -30.272  1.00  0.00     0.272 C 
BRANCH  11  12
HETATM   12  N   UNL     1      -5.450   7.439 -30.054  1.00  0.00    -0.075 N 
HETATM   13  C   UNL     1      -5.913   8.156 -31.296  1.00  0.00     0.269 C 
HETATM   14  H   UNL     1      -6.197   6.778 -29.809  1.00  0.00     0.279 HD
HETATM   15  C   UNL     1      -5.298   8.385 -28.899  1.00  0.00     0.269 C 
ENDBRANCH  11  12
ENDBRANCH   8  11
ENDBRANCH   1   5
BRANCH   2  16
HETATM   16  C   UNL     1      -4.971  -0.598 -33.271  1.00  0.00     0.708 A 
HETATM   17  N   UNL     1      -4.061  -1.542 -33.251  1.00  0.00    -0.062 NA
HETATM   18  C   UNL     1      -4.645  -2.649 -33.812  1.00  0.00     0.103 A 
HETATM   19  C   UNL     1      -5.955  -2.378 -34.186  1.00  0.00     0.078 A 
HETATM   20  C   UNL     1      -4.113  -3.923 -34.047  1.00  0.00     0.034 A 
HETATM   21  N   UNL     1      -6.140  -1.070 -33.818  1.00  0.00    -0.187 N 
HETATM   22  C   UNL     1      -6.788  -3.316 -34.797  1.00  0.00     0.032 A 
HETATM   23  H   UNL     1      -6.993  -0.547 -33.939  1.00  0.00     0.184 HD
HETATM   24  C   UNL     1      -6.239  -4.583 -35.029  1.00  0.00     0.002 A 
HETATM   25  C   UNL     1      -4.926  -4.885 -34.661  1.00  0.00     0.002 A 
ENDBRANCH   2  16
TORSDOF 4
ENDMDL
MODEL 9
REMARK VINA RESULT:      -6.6      5.993      9.632
REMARK  4 active torsions:
REMARK  status: ('A' for Active; 'I' for Inactive)
REMARK    1  A    between atoms: N_2  and  C_4 
REMARK    2  A    between atoms: C_4  and  C_5 
REMARK    3  A    between atoms: C_8  and  C_9 
REMARK       I    between atoms: C_9  and  N_10 
REMARK    4  A    between atoms: N_10  and  C_11 
ROOT
HETATM    1  C   UNL     1      -5.240   3.038 -31.579  1.00  0.00     0.269 C 
HETATM    2  N   UNL     1      -4.483   3.643 -32.562  1.00  0.00    -0.153 N 
HETATM    3  O   UNL     1      -4.949   2.868 -30.401  1.00  0.00    -0.267 OA
HETATM    4  H   UNL     1      -4.733   3.534 -33.532  1.00  0.00     0.187 HD
ENDROOT
BRANCH   1   5
HETATM    5  C   UNL     1      -6.564   2.520 -32.023  1.00  0.00     0.032 A 
HETATM    6  C   UNL     1      -6.732   2.198 -33.376  1.00  0.00     0.017 A 
HETATM    7  C   UNL     1      -7.904   1.580 -33.815  1.00  0.00     0.010 A 
HETATM    8  C   UNL     1      -8.921   1.260 -32.902  1.00  0.00    -0.033 A 
HETATM    9  C   UNL     1      -8.760   1.611 -31.552  1.00  0.00     0.010 A 
HETATM   10  C   UNL     1      -7.587   2.234 -31.112  1.00  0.00     0.017 A 
BRANCH   8  11
HETATM   11  C   UNL     1     -10.125   0.473 -33.353  1.00  0.00     0.272 C 
BRANCH  11  12
HETATM   12  N   UNL     1     -11.419   1.247 -33.211  1.00  0.00    -0.075 N 
HETATM   13  C   UNL     1     -12.633   0.456 -33.620  1.00  0.00     0.269 C 
HETATM   14  H   UNL     1     -11.532   1.449 -32.210  1.00  0.00     0.279 HD
HETATM   15  C   UNL     1     -11.358   2.567 -33.924  1.00  0.00     0.269 C 
ENDBRANCH  11  12
ENDBRANCH   8  11
ENDBRANCH   1   5
BRANCH   2  16
HETATM   16  C   UNL     1      -3.380   4.399 -32.244  1.00  0.00     0.708 A 
HETATM   17  N   UNL     1      -2.950   5.494 -32.825  1.00  0.00    -0.062 NA
HETATM   18  C   UNL     1      -1.777   5.825 -32.199  1.00  0.00     0.103 A 
HETATM   19  C   UNL     1      -1.477   4.908 -31.199  1.00  0.00     0.078 A 
HETATM   20  C   UNL     1      -0.902   6.893 -32.436  1.00  0.00     0.034 A 
HETATM   21  N   UNL     1      -2.521   4.020 -31.241  1.00  0.00    -0.187 N 
HETATM   22  C   UNL     1      -0.333   4.987 -30.403  1.00  0.00     0.032 A 
HETATM   23  H   UNL     1      -2.629   3.220 -30.638  1.00  0.00     0.184 HD
HETATM   24  C   UNL     1       0.533   6.057 -30.658  1.00  0.00     0.002 A 
HETATM   25  C   UNL     1       0.257   6.996 -31.654  1.00  0.00     0.002 A 
ENDBRANCH   2  16
TORSDOF 4
ENDMDL
MODEL 10
REMARK VINA RESULT:      -6.6     15.585     17.952
REMARK  4 active torsions:
REMARK  status: ('A' for Active; 'I' for Inactive)
REMARK    1  A    between atoms: N_2  and  C_4 
REMARK    2  A    between atoms: C_4  and  C_5 
REMARK    3  A    between atoms: C_8  and  C_9 
REMARK       I    between atoms: C_9  and  N_10 
REMARK    4  A    between atoms: N_10  and  C_11 
ROOT
HETATM    1  C   UNL     1       1.800   8.957 -25.352  1.00  0.00     0.269 C 
HETATM    2  N   UNL     1       2.674   8.202 -24.595  1.00  0.00    -0.153 N 
HETATM    3  O   UNL     1       1.472  10.125 -25.181  1.00  0.00    -0.267 OA
HETATM    4  H   UNL     1       2.701   7.201 -24.703  1.00  0.00     0.187 HD
ENDROOT
BRANCH   1   5
HETATM    5  C   UNL     1       1.181   8.248 -26.505  1.00  0.00     0.032 A 
HETATM    6  C   UNL     1       1.513   8.666 -27.800  1.00  0.00     0.017 A 
HETATM    7  C   UNL     1       1.071   7.945 -28.911  1.00  0.00     0.010 A 
HETATM    8  C   UNL     1       0.301   6.785 -28.742  1.00  0.00    -0.033 A 
HETATM    9  C   UNL     1      -0.054   6.386 -27.443  1.00  0.00     0.010 A 
HETATM   10  C   UNL     1       0.386   7.110 -26.329  1.00  0.00     0.017 A 
BRANCH   8  11
HETATM   11  C   UNL     1      -0.062   5.935 -29.932  1.00  0.00     0.272 C 
BRANCH  11  12
HETATM   12  N   UNL     1      -1.206   6.513 -30.740  1.00  0.00    -0.075 N 
HETATM   13  C   UNL     1      -2.324   5.531 -30.974  1.00  0.00     0.269 C 
HETATM   14  H   UNL     1      -1.606   7.275 -30.179  1.00  0.00     0.279 HD
HETATM   15  C   UNL     1      -0.726   7.116 -32.029  1.00  0.00     0.269 C 
ENDBRANCH  11  12
ENDBRANCH   8  11
ENDBRANCH   1   5
BRANCH   2  16
HETATM   16  C   UNL     1       3.515   8.792 -23.682  1.00  0.00     0.708 A 
HETATM   17  N   UNL     1       3.872   8.349 -22.500  1.00  0.00    -0.062 NA
HETATM   18  C   UNL     1       4.657   9.326 -21.945  1.00  0.00     0.103 A 
HETATM   19  C   UNL     1       4.790  10.402 -22.814  1.00  0.00     0.078 A 
HETATM   20  C   UNL     1       5.285   9.371 -20.694  1.00  0.00     0.034 A 
HETATM   21  N   UNL     1       4.065  10.030 -23.916  1.00  0.00    -0.187 N 
HETATM   22  C   UNL     1       5.524  11.549 -22.507  1.00  0.00     0.032 A 
HETATM   23  H   UNL     1       3.953  10.581 -24.752  1.00  0.00     0.184 HD
HETATM   24  C   UNL     1       6.141  11.580 -21.251  1.00  0.00     0.002 A 
HETATM   25  C   UNL     1       6.027  10.511 -20.358  1.00  0.00     0.002 A 
ENDBRANCH   2  16
TORSDOF 4
ENDMDL
