MODEL 1
REMARK VINA RESULT:      -8.0      0.000      0.000
REMARK  6 active torsions:
REMARK  status: ('A' for Active; 'I' for Inactive)
REMARK    1  A    between atoms: C_9  and  C_10 
REMARK       I    between atoms: C_10  and  N_11 
REMARK    2  A    between atoms: N_11  and  C_12 
REMARK    3  A    between atoms: C_12  and  C_13 
REMARK    4  A    between atoms: C_13  and  O_14 
REMARK    5  A    between atoms: C_13  and  C_15 
REMARK    6  A    between atoms: C_18  and  O_19 
ROOT
HETATM    1  C   UNL     1      -3.216  -0.052 -31.892  1.00  0.00     0.258 C 
HETATM    2  N   UNL     1      -3.615   1.178 -32.371  1.00  0.00    -0.350 N 
HETATM    3  O   UNL     1      -2.443  -0.176 -30.947  1.00  0.00    -0.267 OA
HETATM    4  H   UNL     1      -4.350   1.165 -33.077  1.00  0.00     0.163 HD
ENDROOT
BRANCH   2   5
HETATM    5  C   UNL     1      -3.344   2.445 -31.672  1.00  0.00     0.114 C 
HETATM    6  C   UNL     1      -2.933   3.521 -32.678  1.00  0.00     0.035 C 
BRANCH   5   7
HETATM    7  C   UNL     1      -4.517   2.861 -30.734  1.00  0.00     0.173 C 
BRANCH   7   8
HETATM    8  O   UNL     1      -4.432   4.278 -30.508  1.00  0.00    -0.389 OA
HETATM    9  H   UNL     1      -4.537   4.387 -29.547  1.00  0.00     0.210 HD
ENDBRANCH   7   8
BRANCH   7  10
HETATM   10  C   UNL     1      -5.896   2.534 -31.266  1.00  0.00    -0.028 A 
HETATM   11  C   UNL     1      -6.543   1.367 -30.830  1.00  0.00     0.012 A 
HETATM   12  C   UNL     1      -7.808   1.031 -31.315  1.00  0.00     0.037 A 
HETATM   13  C   UNL     1      -8.456   1.851 -32.238  1.00  0.00     0.068 A 
HETATM   14  C   UNL     1      -7.820   3.010 -32.684  1.00  0.00     0.037 A 
HETATM   15  C   UNL     1      -6.547   3.347 -32.203  1.00  0.00     0.012 A 
BRANCH  13  16
HETATM   16  O   UNL     1      -9.691   1.408 -32.624  1.00  0.00    -0.356 OA
HETATM   17  C   UNL     1      -9.882   0.000 -32.667  1.00  0.00     0.210 C 
ENDBRANCH  13  16
ENDBRANCH   7  10
ENDBRANCH   5   7
ENDBRANCH   2   5
BRANCH   1  18
HETATM   18  C   UNL     1      -3.773  -1.204 -32.576  1.00  0.00     0.105 A 
HETATM   19  C   UNL     1      -4.822  -1.237 -33.480  1.00  0.00     0.169 A 
HETATM   20  N   UNL     1      -5.610  -0.239 -33.994  1.00  0.00    -0.233 NA
HETATM   21  N   UNL     1      -5.008  -2.583 -33.819  1.00  0.00    -0.219 N 
HETATM   22  C   UNL     1      -6.556  -0.611 -34.809  1.00  0.00     0.035 A 
HETATM   23  C   UNL     1      -7.456   0.443 -35.402  1.00  0.00     0.070 C 
HETATM   24  C   UNL     1      -6.834  -2.024 -35.217  1.00  0.00     0.053 A 
HETATM   25  C   UNL     1      -6.031  -2.968 -34.696  1.00  0.00     0.036 A 
HETATM   26  C   UNL     1      -6.184  -4.426 -35.001  1.00  0.00     0.070 C 
HETATM   27  N   UNL     1      -4.109  -3.383 -33.198  1.00  0.00    -0.170 NA
HETATM   28  C   UNL     1      -3.373  -2.560 -32.445  1.00  0.00     0.071 A 
HETATM   29  C   UNL     1      -2.280  -3.110 -31.602  1.00  0.00     0.073 C 
ENDBRANCH   1  18
TORSDOF 6
ENDMDL
MODEL 2
REMARK VINA RESULT:      -7.9      2.993      7.117
REMARK  6 active torsions:
REMARK  status: ('A' for Active; 'I' for Inactive)
REMARK    1  A    between atoms: C_9  and  C_10 
REMARK       I    between atoms: C_10  and  N_11 
REMARK    2  A    between atoms: N_11  and  C_12 
REMARK    3  A    between atoms: C_12  and  C_13 
REMARK    4  A    between atoms: C_13  and  O_14 
REMARK    5  A    between atoms: C_13  and  C_15 
REMARK    6  A    between atoms: C_18  and  O_19 
ROOT
HETATM    1  C   UNL     1      -3.572   2.392 -31.972  1.00  0.00     0.258 C 
HETATM    2  N   UNL     1      -4.693   2.220 -31.189  1.00  0.00    -0.350 N 
HETATM    3  O   UNL     1      -2.897   1.451 -32.379  1.00  0.00    -0.267 OA
HETATM    4  H   UNL     1      -5.245   3.059 -31.009  1.00  0.00     0.163 HD
ENDROOT
BRANCH   2   5
HETATM    5  C   UNL     1      -5.320   0.910 -30.950  1.00  0.00     0.114 C 
HETATM    6  C   UNL     1      -5.772   0.804 -29.493  1.00  0.00     0.035 C 
BRANCH   5   7
HETATM    7  C   UNL     1      -6.436   0.595 -31.990  1.00  0.00     0.173 C 
BRANCH   7   8
HETATM    8  O   UNL     1      -6.662   1.775 -32.781  1.00  0.00    -0.389 OA
HETATM    9  H   UNL     1      -7.629   1.850 -32.852  1.00  0.00     0.210 HD
ENDBRANCH   7   8
BRANCH   7  10
HETATM   10  C   UNL     1      -6.126  -0.561 -32.918  1.00  0.00    -0.028 A 
HETATM   11  C   UNL     1      -7.160  -1.129 -33.678  1.00  0.00     0.012 A 
HETATM   12  C   UNL     1      -6.909  -2.206 -34.530  1.00  0.00     0.037 A 
HETATM   13  C   UNL     1      -5.624  -2.735 -34.646  1.00  0.00     0.068 A 
HETATM   14  C   UNL     1      -4.589  -2.183 -33.890  1.00  0.00     0.037 A 
HETATM   15  C   UNL     1      -4.840  -1.105 -33.030  1.00  0.00     0.012 A 
BRANCH  13  16
HETATM   16  O   UNL     1      -5.516  -3.782 -35.519  1.00  0.00    -0.356 OA
HETATM   17  C   UNL     1      -6.616  -4.679 -35.582  1.00  0.00     0.210 C 
ENDBRANCH  13  16
ENDBRANCH   7  10
ENDBRANCH   5   7
ENDBRANCH   2   5
BRANCH   1  18
HETATM   18  C   UNL     1      -3.235   3.766 -32.295  1.00  0.00     0.105 A 
HETATM   19  C   UNL     1      -2.180   4.524 -31.815  1.00  0.00     0.169 A 
HETATM   20  N   UNL     1      -1.169   4.221 -30.938  1.00  0.00    -0.233 NA
HETATM   21  N   UNL     1      -2.313   5.794 -32.389  1.00  0.00    -0.219 N 
HETATM   22  C   UNL     1      -0.341   5.186 -30.655  1.00  0.00     0.035 A 
HETATM   23  C   UNL     1       0.788   4.912 -29.694  1.00  0.00     0.070 C 
HETATM   24  C   UNL     1      -0.413   6.574 -31.212  1.00  0.00     0.053 A 
HETATM   25  C   UNL     1      -1.415   6.822 -32.073  1.00  0.00     0.036 A 
HETATM   26  C   UNL     1      -1.627   8.161 -32.711  1.00  0.00     0.070 C 
HETATM   27  N   UNL     1      -3.376   5.855 -33.227  1.00  0.00    -0.170 NA
HETATM   28  C   UNL     1      -3.936   4.643 -33.166  1.00  0.00     0.071 A 
HETATM   29  C   UNL     1      -5.156   4.352 -33.962  1.00  0.00     0.073 C 
ENDBRANCH   1  18
TORSDOF 6
ENDMDL
MODEL 3
REMARK VINA RESULT:      -7.8      2.379      6.439
REMARK  6 active torsions:
REMARK  status: ('A' for Active; 'I' for Inactive)
REMARK    1  A    between atoms: C_9  and  C_10 
REMARK       I    between atoms: C_10  and  N_11 
REMARK    2  A    between atoms: N_11  and  C_12 
REMARK    3  A    between atoms: C_12  and  C_13 
REMARK    4  A    between atoms: C_13  and  O_14 
REMARK    5  A    between atoms: C_13  and  C_15 
REMARK    6  A    between atoms: C_18  and  O_19 
ROOT
HETATM    1  C   UNL     1      -6.182   0.917 -31.694  1.00  0.00     0.258 C 
HETATM    2  N   UNL     1      -6.916   1.113 -32.844  1.00  0.00    -0.350 N 
HETATM    3  O   UNL     1      -6.482   0.078 -30.850  1.00  0.00    -0.267 OA
HETATM    4  H   UNL     1      -6.511   1.749 -33.530  1.00  0.00     0.163 HD
ENDROOT
BRANCH   2   5
HETATM    5  C   UNL     1      -7.986   0.203 -33.285  1.00  0.00     0.114 C 
HETATM    6  C   UNL     1      -9.335   0.924 -33.247  1.00  0.00     0.035 C 
BRANCH   5   7
HETATM    7  C   UNL     1      -7.659  -0.469 -34.652  1.00  0.00     0.173 C 
BRANCH   7   8
HETATM    8  O   UNL     1      -7.119   0.534 -35.530  1.00  0.00    -0.389 OA
HETATM    9  H   UNL     1      -7.892   1.031 -35.850  1.00  0.00     0.210 HD
ENDBRANCH   7   8
BRANCH   7  10
HETATM   10  C   UNL     1      -6.681  -1.622 -34.570  1.00  0.00    -0.028 A 
HETATM   11  C   UNL     1      -5.338  -1.364 -34.253  1.00  0.00     0.012 A 
HETATM   12  C   UNL     1      -4.409  -2.404 -34.186  1.00  0.00     0.037 A 
HETATM   13  C   UNL     1      -4.799  -3.721 -34.428  1.00  0.00     0.068 A 
HETATM   14  C   UNL     1      -6.130  -3.988 -34.750  1.00  0.00     0.037 A 
HETATM   15  C   UNL     1      -7.063  -2.946 -34.823  1.00  0.00     0.012 A 
BRANCH  13  16
HETATM   16  O   UNL     1      -3.793  -4.640 -34.322  1.00  0.00    -0.356 OA
HETATM   17  C   UNL     1      -3.240  -4.840 -33.028  1.00  0.00     0.210 C 
ENDBRANCH  13  16
ENDBRANCH   7  10
ENDBRANCH   5   7
ENDBRANCH   2   5
BRANCH   1  18
HETATM   18  C   UNL     1      -5.016   1.767 -31.540  1.00  0.00     0.105 A 
HETATM   19  C   UNL     1      -4.954   3.150 -31.585  1.00  0.00     0.169 A 
HETATM   20  N   UNL     1      -5.930   4.098 -31.766  1.00  0.00    -0.233 NA
HETATM   21  N   UNL     1      -3.605   3.490 -31.429  1.00  0.00    -0.219 N 
HETATM   22  C   UNL     1      -5.532   5.339 -31.798  1.00  0.00     0.035 A 
HETATM   23  C   UNL     1      -6.559   6.423 -31.999  1.00  0.00     0.070 C 
HETATM   24  C   UNL     1      -4.112   5.791 -31.652  1.00  0.00     0.053 A 
HETATM   25  C   UNL     1      -3.192   4.829 -31.467  1.00  0.00     0.036 A 
HETATM   26  C   UNL     1      -1.731   5.119 -31.310  1.00  0.00     0.070 C 
HETATM   27  N   UNL     1      -2.830   2.392 -31.256  1.00  0.00    -0.170 NA
HETATM   28  C   UNL     1      -3.672   1.358 -31.331  1.00  0.00     0.071 A 
HETATM   29  C   UNL     1      -3.153  -0.028 -31.197  1.00  0.00     0.073 C 
ENDBRANCH   1  18
TORSDOF 6
ENDMDL
MODEL 4
REMARK VINA RESULT:      -7.4      3.574      6.306
REMARK  6 active torsions:
REMARK  status: ('A' for Active; 'I' for Inactive)
REMARK    1  A    between atoms: C_9  and  C_10 
REMARK       I    between atoms: C_10  and  N_11 
REMARK    2  A    between atoms: N_11  and  C_12 
REMARK    3  A    between atoms: C_12  and  C_13 
REMARK    4  A    between atoms: C_13  and  O_14 
REMARK    5  A    between atoms: C_13  and  C_15 
REMARK    6  A    between atoms: C_18  and  O_19 
ROOT
HETATM    1  C   UNL     1      -8.747   2.421 -31.868  1.00  0.00     0.258 C 
HETATM    2  N   UNL     1      -9.125   2.504 -33.191  1.00  0.00    -0.350 N 
HETATM    3  O   UNL     1      -9.489   2.745 -30.945  1.00  0.00    -0.267 OA
HETATM    4  H   UNL     1      -8.480   2.096 -33.866  1.00  0.00     0.163 HD
ENDROOT
BRANCH   2   5
HETATM    5  C   UNL     1     -10.508   2.769 -33.622  1.00  0.00     0.114 C 
HETATM    6  C   UNL     1     -10.507   3.668 -34.860  1.00  0.00     0.035 C 
BRANCH   5   7
HETATM    7  C   UNL     1     -11.333   1.457 -33.785  1.00  0.00     0.173 C 
BRANCH   7   8
HETATM    8  O   UNL     1     -10.805   0.476 -32.876  1.00  0.00    -0.389 OA
HETATM    9  H   UNL     1     -10.053   0.914 -32.440  1.00  0.00     0.210 HD
ENDBRANCH   7   8
BRANCH   7  10
HETATM   10  C   UNL     1     -12.818   1.609 -33.529  1.00  0.00    -0.028 A 
HETATM   11  C   UNL     1     -13.723   0.797 -34.228  1.00  0.00     0.012 A 
HETATM   12  C   UNL     1     -15.098   0.925 -34.026  1.00  0.00     0.037 A 
HETATM   13  C   UNL     1     -15.599   1.860 -33.120  1.00  0.00     0.068 A 
HETATM   14  C   UNL     1     -14.708   2.678 -32.424  1.00  0.00     0.037 A 
HETATM   15  C   UNL     1     -13.327   2.555 -32.630  1.00  0.00     0.012 A 
BRANCH  13  16
HETATM   16  O   UNL     1     -16.962   1.876 -33.014  1.00  0.00    -0.356 OA
HETATM   17  C   UNL     1     -17.532   2.919 -32.234  1.00  0.00     0.210 C 
ENDBRANCH  13  16
ENDBRANCH   7  10
ENDBRANCH   5   7
ENDBRANCH   2   5
BRANCH   1  18
HETATM   18  C   UNL     1      -7.408   1.917 -31.627  1.00  0.00     0.105 A 
HETATM   19  C   UNL     1      -6.797   0.809 -32.189  1.00  0.00     0.169 A 
HETATM   20  N   UNL     1      -7.243  -0.102 -33.114  1.00  0.00    -0.233 NA
HETATM   21  N   UNL     1      -5.529   0.717 -31.603  1.00  0.00    -0.219 N 
HETATM   22  C   UNL     1      -6.424  -1.072 -33.411  1.00  0.00     0.035 A 
HETATM   23  C   UNL     1      -6.861  -2.105 -34.418  1.00  0.00     0.070 C 
HETATM   24  C   UNL     1      -5.058  -1.254 -32.826  1.00  0.00     0.053 A 
HETATM   25  C   UNL     1      -4.660  -0.333 -31.931  1.00  0.00     0.036 A 
HETATM   26  C   UNL     1      -3.326  -0.379 -31.254  1.00  0.00     0.070 C 
HETATM   27  N   UNL     1      -5.308   1.729 -30.730  1.00  0.00    -0.170 NA
HETATM   28  C   UNL     1      -6.436   2.445 -30.736  1.00  0.00     0.071 A 
HETATM   29  C   UNL     1      -6.554   3.644 -29.866  1.00  0.00     0.073 C 
ENDBRANCH   1  18
TORSDOF 6
ENDMDL
MODEL 5
REMARK VINA RESULT:      -7.4      3.498      6.590
REMARK  6 active torsions:
REMARK  status: ('A' for Active; 'I' for Inactive)
REMARK    1  A    between atoms: C_9  and  C_10 
REMARK       I    between atoms: C_10  and  N_11 
REMARK    2  A    between atoms: N_11  and  C_12 
REMARK    3  A    between atoms: C_12  and  C_13 
REMARK    4  A    between atoms: C_13  and  O_14 
REMARK    5  A    between atoms: C_13  and  C_15 
REMARK    6  A    between atoms: C_18  and  O_19 
ROOT
HETATM    1  C   UNL     1      -3.123   3.574 -32.082  1.00  0.00     0.258 C 
HETATM    2  N   UNL     1      -2.971   4.368 -33.198  1.00  0.00    -0.350 N 
HETATM    3  O   UNL     1      -2.209   3.357 -31.292  1.00  0.00    -0.267 OA
HETATM    4  H   UNL     1      -3.823   4.578 -33.717  1.00  0.00     0.163 HD
ENDROOT
BRANCH   2   5
HETATM    5  C   UNL     1      -1.785   5.209 -33.437  1.00  0.00     0.114 C 
HETATM    6  C   UNL     1      -1.411   5.176 -34.919  1.00  0.00     0.035 C 
BRANCH   5   7
HETATM    7  C   UNL     1      -1.955   6.643 -32.851  1.00  0.00     0.173 C 
BRANCH   7   8
HETATM    8  O   UNL     1      -3.355   6.975 -32.872  1.00  0.00    -0.389 OA
HETATM    9  H   UNL     1      -3.561   7.255 -31.963  1.00  0.00     0.210 HD
ENDBRANCH   7   8
BRANCH   7  10
HETATM   10  C   UNL     1      -1.435   6.814 -31.440  1.00  0.00    -0.028 A 
HETATM   11  C   UNL     1      -0.049   6.830 -31.215  1.00  0.00     0.012 A 
HETATM   12  C   UNL     1       0.461   6.970 -29.923  1.00  0.00     0.037 A 
HETATM   13  C   UNL     1      -0.397   7.102 -28.831  1.00  0.00     0.068 A 
HETATM   14  C   UNL     1      -1.776   7.081 -29.042  1.00  0.00     0.037 A 
HETATM   15  C   UNL     1      -2.291   6.935 -30.338  1.00  0.00     0.012 A 
BRANCH  13  16
HETATM   16  O   UNL     1       0.234   7.239 -27.626  1.00  0.00    -0.356 OA
HETATM   17  C   UNL     1      -0.245   6.434 -26.557  1.00  0.00     0.210 C 
ENDBRANCH  13  16
ENDBRANCH   7  10
ENDBRANCH   5   7
ENDBRANCH   2   5
BRANCH   1  18
HETATM   18  C   UNL     1      -4.445   3.006 -31.890  1.00  0.00     0.105 A 
HETATM   19  C   UNL     1      -4.880   1.729 -32.199  1.00  0.00     0.169 A 
HETATM   20  N   UNL     1      -4.225   0.653 -32.744  1.00  0.00    -0.233 NA
HETATM   21  N   UNL     1      -6.240   1.684 -31.869  1.00  0.00    -0.219 N 
HETATM   22  C   UNL     1      -4.941  -0.416 -32.950  1.00  0.00     0.035 A 
HETATM   23  C   UNL     1      -4.276  -1.628 -33.550  1.00  0.00     0.070 C 
HETATM   24  C   UNL     1      -6.399  -0.549 -32.639  1.00  0.00     0.053 A 
HETATM   25  C   UNL     1      -6.998   0.528 -32.099  1.00  0.00     0.036 A 
HETATM   26  C   UNL     1      -8.450   0.556 -31.737  1.00  0.00     0.070 C 
HETATM   27  N   UNL     1      -6.664   2.857 -31.339  1.00  0.00    -0.170 NA
HETATM   28  C   UNL     1      -5.592   3.654 -31.359  1.00  0.00     0.071 A 
HETATM   29  C   UNL     1      -5.699   5.048 -30.857  1.00  0.00     0.073 C 
ENDBRANCH   1  18
TORSDOF 6
ENDMDL
MODEL 6
REMARK VINA RESULT:      -7.4      5.059      8.502
REMARK  6 active torsions:
REMARK  status: ('A' for Active; 'I' for Inactive)
REMARK    1  A    between atoms: C_9  and  C_10 
REMARK       I    between atoms: C_10  and  N_11 
REMARK    2  A    between atoms: N_11  and  C_12 
REMARK    3  A    between atoms: C_12  and  C_13 
REMARK    4  A    between atoms: C_13  and  O_14 
REMARK    5  A    between atoms: C_13  and  C_15 
REMARK    6  A    between atoms: C_18  and  O_19 
ROOT
HETATM    1  C   UNL     1     -11.379   2.209 -33.571  1.00  0.00     0.258 C 
HETATM    2  N   UNL     1     -10.548   2.530 -32.518  1.00  0.00    -0.350 N 
HETATM    3  O   UNL     1     -10.958   1.981 -34.701  1.00  0.00    -0.267 OA
HETATM    4  H   UNL     1     -10.989   2.579 -31.600  1.00  0.00     0.163 HD
ENDROOT
BRANCH   2   5
HETATM    5  C   UNL     1      -9.082   2.414 -32.580  1.00  0.00     0.114 C 
HETATM    6  C   UNL     1      -8.438   3.778 -32.321  1.00  0.00     0.035 C 
BRANCH   5   7
HETATM    7  C   UNL     1      -8.544   1.270 -31.671  1.00  0.00     0.173 C 
BRANCH   7   8
HETATM    8  O   UNL     1      -9.670   0.555 -31.132  1.00  0.00    -0.389 OA
HETATM    9  H   UNL     1     -10.152   1.209 -30.597  1.00  0.00     0.210 HD
ENDBRANCH   7   8
BRANCH   7  10
HETATM   10  C   UNL     1      -7.631   0.285 -32.369  1.00  0.00    -0.028 A 
HETATM   11  C   UNL     1      -6.375  -0.004 -31.812  1.00  0.00     0.012 A 
HETATM   12  C   UNL     1      -5.505  -0.895 -32.442  1.00  0.00     0.037 A 
HETATM   13  C   UNL     1      -5.868  -1.521 -33.634  1.00  0.00     0.068 A 
HETATM   14  C   UNL     1      -7.111  -1.236 -34.200  1.00  0.00     0.037 A 
HETATM   15  C   UNL     1      -7.985  -0.338 -33.573  1.00  0.00     0.012 A 
BRANCH  13  16
HETATM   16  O   UNL     1      -4.927  -2.374 -34.139  1.00  0.00    -0.356 OA
HETATM   17  C   UNL     1      -5.377  -3.343 -35.076  1.00  0.00     0.210 C 
ENDBRANCH  13  16
ENDBRANCH   7  10
ENDBRANCH   5   7
ENDBRANCH   2   5
BRANCH   1  18
HETATM   18  C   UNL     1     -12.794   2.149 -33.259  1.00  0.00     0.105 A 
HETATM   19  C   UNL     1     -13.612   3.166 -32.796  1.00  0.00     0.169 A 
HETATM   20  N   UNL     1     -13.352   4.484 -32.515  1.00  0.00    -0.233 NA
HETATM   21  N   UNL     1     -14.878   2.600 -32.606  1.00  0.00    -0.219 N 
HETATM   22  C   UNL     1     -14.348   5.183 -32.048  1.00  0.00     0.035 A 
HETATM   23  C   UNL     1     -14.120   6.636 -31.718  1.00  0.00     0.070 C 
HETATM   24  C   UNL     1     -15.728   4.658 -31.803  1.00  0.00     0.053 A 
HETATM   25  C   UNL     1     -15.939   3.364 -32.101  1.00  0.00     0.036 A 
HETATM   26  C   UNL     1     -17.262   2.689 -31.907  1.00  0.00     0.070 C 
HETATM   27  N   UNL     1     -14.898   1.291 -32.958  1.00  0.00    -0.170 NA
HETATM   28  C   UNL     1     -13.648   1.017 -33.342  1.00  0.00     0.071 A 
HETATM   29  C   UNL     1     -13.298  -0.357 -33.788  1.00  0.00     0.073 C 
ENDBRANCH   1  18
TORSDOF 6
ENDMDL
MODEL 7
REMARK VINA RESULT:      -7.3      3.115      7.173
REMARK  6 active torsions:
REMARK  status: ('A' for Active; 'I' for Inactive)
REMARK    1  A    between atoms: C_9  and  C_10 
REMARK       I    between atoms: C_10  and  N_11 
REMARK    2  A    between atoms: N_11  and  C_12 
REMARK    3  A    between atoms: C_12  and  C_13 
REMARK    4  A    between atoms: C_13  and  O_14 
REMARK    5  A    between atoms: C_13  and  C_15 
REMARK    6  A    between atoms: C_18  and  O_19 
ROOT
HETATM    1  C   UNL     1      -5.026   3.359 -31.095  1.00  0.00     0.258 C 
HETATM    2  N   UNL     1      -6.321   3.246 -31.557  1.00  0.00    -0.350 N 
HETATM    3  O   UNL     1      -4.361   2.388 -30.743  1.00  0.00    -0.267 OA
HETATM    4  H   UNL     1      -6.735   4.097 -31.934  1.00  0.00     0.163 HD
ENDROOT
BRANCH   2   5
HETATM    5  C   UNL     1      -6.952   1.958 -31.886  1.00  0.00     0.114 C 
HETATM    6  C   UNL     1      -8.358   1.896 -31.286  1.00  0.00     0.035 C 
BRANCH   5   7
HETATM    7  C   UNL     1      -6.895   1.650 -33.413  1.00  0.00     0.173 C 
BRANCH   7   8
HETATM    8  O   UNL     1      -6.068   2.643 -34.043  1.00  0.00    -0.389 OA
HETATM    9  H   UNL     1      -6.140   2.464 -34.996  1.00  0.00     0.210 HD
ENDBRANCH   7   8
BRANCH   7  10
HETATM   10  C   UNL     1      -6.359   0.277 -33.760  1.00  0.00    -0.028 A 
HETATM   11  C   UNL     1      -7.157  -0.605 -34.504  1.00  0.00     0.012 A 
HETATM   12  C   UNL     1      -6.696  -1.883 -34.826  1.00  0.00     0.037 A 
HETATM   13  C   UNL     1      -5.431  -2.305 -34.418  1.00  0.00     0.068 A 
HETATM   14  C   UNL     1      -4.631  -1.438 -33.672  1.00  0.00     0.037 A 
HETATM   15  C   UNL     1      -5.094  -0.157 -33.343  1.00  0.00     0.012 A 
BRANCH  13  16
HETATM   16  O   UNL     1      -5.102  -3.574 -34.806  1.00  0.00    -0.356 OA
HETATM   17  C   UNL     1      -6.175  -4.495 -34.959  1.00  0.00     0.210 C 
ENDBRANCH  13  16
ENDBRANCH   7  10
ENDBRANCH   5   7
ENDBRANCH   2   5
BRANCH   1  18
HETATM   18  C   UNL     1      -4.488   4.705 -31.053  1.00  0.00     0.105 A 
HETATM   19  C   UNL     1      -3.604   5.301 -31.937  1.00  0.00     0.169 A 
HETATM   20  N   UNL     1      -3.004   4.829 -33.077  1.00  0.00    -0.233 NA
HETATM   21  N   UNL     1      -3.356   6.587 -31.441  1.00  0.00    -0.219 N 
HETATM   22  C   UNL     1      -2.176   5.641 -33.673  1.00  0.00     0.035 A 
HETATM   23  C   UNL     1      -1.484   5.175 -34.928  1.00  0.00     0.070 C 
HETATM   24  C   UNL     1      -1.843   7.024 -33.208  1.00  0.00     0.053 A 
HETATM   25  C   UNL     1      -2.461   7.447 -32.092  1.00  0.00     0.036 A 
HETATM   26  C   UNL     1      -2.231   8.802 -31.497  1.00  0.00     0.070 C 
HETATM   27  N   UNL     1      -4.066   6.833 -30.314  1.00  0.00    -0.170 NA
HETATM   28  C   UNL     1      -4.738   5.703 -30.074  1.00  0.00     0.071 A 
HETATM   29  C   UNL     1      -5.623   5.610 -28.884  1.00  0.00     0.073 C 
ENDBRANCH   1  18
TORSDOF 6
ENDMDL
MODEL 8
REMARK VINA RESULT:      -7.2      2.975      7.507
REMARK  6 active torsions:
REMARK  status: ('A' for Active; 'I' for Inactive)
REMARK    1  A    between atoms: C_9  and  C_10 
REMARK       I    between atoms: C_10  and  N_11 
REMARK    2  A    between atoms: N_11  and  C_12 
REMARK    3  A    between atoms: C_12  and  C_13 
REMARK    4  A    between atoms: C_13  and  O_14 
REMARK    5  A    between atoms: C_13  and  C_15 
REMARK    6  A    between atoms: C_18  and  O_19 
ROOT
HETATM    1  C   UNL     1      -4.078   2.404 -32.009  1.00  0.00     0.258 C 
HETATM    2  N   UNL     1      -3.567   1.590 -31.020  1.00  0.00    -0.350 N 
HETATM    3  O   UNL     1      -4.558   1.962 -33.049  1.00  0.00    -0.267 OA
HETATM    4  H   UNL     1      -3.306   2.054 -30.150  1.00  0.00     0.163 HD
ENDROOT
BRANCH   2   5
HETATM    5  C   UNL     1      -3.745   0.129 -31.003  1.00  0.00     0.114 C 
HETATM    6  C   UNL     1      -5.223  -0.220 -31.185  1.00  0.00     0.035 C 
BRANCH   5   7
HETATM    7  C   UNL     1      -2.791  -0.590 -32.003  1.00  0.00     0.173 C 
BRANCH   7   8
HETATM    8  O   UNL     1      -1.594  -0.962 -31.297  1.00  0.00    -0.389 OA
HETATM    9  H   UNL     1      -1.342  -0.168 -30.793  1.00  0.00     0.210 HD
ENDBRANCH   7   8
BRANCH   7  10
HETATM   10  C   UNL     1      -3.374  -1.825 -32.655  1.00  0.00    -0.028 A 
HETATM   11  C   UNL     1      -4.228  -1.681 -33.761  1.00  0.00     0.012 A 
HETATM   12  C   UNL     1      -4.794  -2.800 -34.373  1.00  0.00     0.037 A 
HETATM   13  C   UNL     1      -4.519  -4.084 -33.902  1.00  0.00     0.068 A 
HETATM   14  C   UNL     1      -3.677  -4.238 -32.800  1.00  0.00     0.037 A 
HETATM   15  C   UNL     1      -3.111  -3.116 -32.179  1.00  0.00     0.012 A 
BRANCH  13  16
HETATM   16  O   UNL     1      -5.132  -5.089 -34.597  1.00  0.00    -0.356 OA
HETATM   17  C   UNL     1      -6.246  -4.724 -35.402  1.00  0.00     0.210 C 
ENDBRANCH  13  16
ENDBRANCH   7  10
ENDBRANCH   5   7
ENDBRANCH   2   5
BRANCH   1  18
HETATM   18  C   UNL     1      -4.020   3.829 -31.744  1.00  0.00     0.105 A 
HETATM   19  C   UNL     1      -2.907   4.600 -31.451  1.00  0.00     0.169 A 
HETATM   20  N   UNL     1      -1.579   4.272 -31.341  1.00  0.00    -0.233 NA
HETATM   21  N   UNL     1      -3.374   5.901 -31.233  1.00  0.00    -0.219 N 
HETATM   22  C   UNL     1      -0.770   5.239 -31.008  1.00  0.00     0.035 A 
HETATM   23  C   UNL     1       0.699   4.937 -30.869  1.00  0.00     0.070 C 
HETATM   24  C   UNL     1      -1.183   6.654 -30.745  1.00  0.00     0.053 A 
HETATM   25  C   UNL     1      -2.493   6.930 -30.873  1.00  0.00     0.036 A 
HETATM   26  C   UNL     1      -3.064   8.294 -30.638  1.00  0.00     0.070 C 
HETATM   27  N   UNL     1      -4.715   5.986 -31.406  1.00  0.00    -0.170 NA
HETATM   28  C   UNL     1      -5.106   4.743 -31.704  1.00  0.00     0.071 A 
HETATM   29  C   UNL     1      -6.544   4.460 -31.948  1.00  0.00     0.073 C 
ENDBRANCH   1  18
TORSDOF 6
ENDMDL
MODEL 9
REMARK VINA RESULT:      -7.1      3.154      5.971
REMARK  6 active torsions:
REMARK  status: ('A' for Active; 'I' for Inactive)
REMARK    1  A    between atoms: C_9  and  C_10 
REMARK       I    between atoms: C_10  and  N_11 
REMARK    2  A    between atoms: N_11  and  C_12 
REMARK    3  A    between atoms: C_12  and  C_13 
REMARK    4  A    between atoms: C_13  and  O_14 
REMARK    5  A    between atoms: C_13  and  C_15 
REMARK    6  A    between atoms: C_18  and  O_19 
ROOT
HETATM    1  C   UNL     1      -7.344   2.820 -32.851  1.00  0.00     0.258 C 
HETATM    2  N   UNL     1      -7.218   2.839 -31.478  1.00  0.00    -0.350 N 
HETATM    3  O   UNL     1      -6.442   3.172 -33.605  1.00  0.00    -0.267 OA
HETATM    4  H   UNL     1      -7.981   2.414 -30.953  1.00  0.00     0.163 HD
ENDROOT
BRANCH   2   5
HETATM    5  C   UNL     1      -5.937   3.063 -30.787  1.00  0.00     0.114 C 
HETATM    6  C   UNL     1      -6.088   4.180 -29.753  1.00  0.00     0.035 C 
BRANCH   5   7
HETATM    7  C   UNL     1      -5.339   1.741 -30.218  1.00  0.00     0.173 C 
BRANCH   7   8
HETATM    8  O   UNL     1      -6.253   1.219 -29.237  1.00  0.00    -0.389 OA
HETATM    9  H   UNL     1      -6.690   0.467 -29.674  1.00  0.00     0.210 HD
ENDBRANCH   7   8
BRANCH   7  10
HETATM   10  C   UNL     1      -5.074   0.670 -31.255  1.00  0.00    -0.028 A 
HETATM   11  C   UNL     1      -3.871   0.696 -31.978  1.00  0.00     0.012 A 
HETATM   12  C   UNL     1      -3.605  -0.268 -32.951  1.00  0.00     0.037 A 
HETATM   13  C   UNL     1      -4.527  -1.279 -33.222  1.00  0.00     0.068 A 
HETATM   14  C   UNL     1      -5.730  -1.310 -32.515  1.00  0.00     0.037 A 
HETATM   15  C   UNL     1      -6.002  -0.340 -31.540  1.00  0.00     0.012 A 
BRANCH  13  16
HETATM   16  O   UNL     1      -4.138  -2.160 -34.192  1.00  0.00    -0.356 OA
HETATM   17  C   UNL     1      -5.164  -2.916 -34.821  1.00  0.00     0.210 C 
ENDBRANCH  13  16
ENDBRANCH   7  10
ENDBRANCH   5   7
ENDBRANCH   2   5
BRANCH   1  18
HETATM   18  C   UNL     1      -8.619   2.349 -33.358  1.00  0.00     0.105 A 
HETATM   19  C   UNL     1      -9.889   2.790 -33.024  1.00  0.00     0.169 A 
HETATM   20  N   UNL     1     -10.312   3.770 -32.161  1.00  0.00    -0.233 NA
HETATM   21  N   UNL     1     -10.786   1.994 -33.746  1.00  0.00    -0.219 N 
HETATM   22  C   UNL     1     -11.601   3.915 -32.038  1.00  0.00     0.035 A 
HETATM   23  C   UNL     1     -12.125   4.973 -31.102  1.00  0.00     0.070 C 
HETATM   24  C   UNL     1     -12.631   3.103 -32.761  1.00  0.00     0.053 A 
HETATM   25  C   UNL     1     -12.170   2.160 -33.601  1.00  0.00     0.036 A 
HETATM   26  C   UNL     1     -13.072   1.263 -34.392  1.00  0.00     0.070 C 
HETATM   27  N   UNL     1     -10.140   1.104 -34.537  1.00  0.00    -0.170 NA
HETATM   28  C   UNL     1      -8.841   1.309 -34.300  1.00  0.00     0.071 A 
HETATM   29  C   UNL     1      -7.824   0.481 -34.999  1.00  0.00     0.073 C 
ENDBRANCH   1  18
TORSDOF 6
ENDMDL
MODEL 10
REMARK VINA RESULT:      -7.1      2.201      5.244
REMARK  6 active torsions:
REMARK  status: ('A' for Active; 'I' for Inactive)
REMARK    1  A    between atoms: C_9  and  C_10 
REMARK       I    between atoms: C_10  and  N_11 
REMARK    2  A    between atoms: N_11  and  C_12 
REMARK    3  A    between atoms: C_12  and  C_13 
REMARK    4  A    between atoms: C_13  and  O_14 
REMARK    5  A    between atoms: C_13  and  C_15 
REMARK    6  A    between atoms: C_18  and  O_19 
ROOT
HETATM    1  C   UNL     1      -7.271   2.654 -32.748  1.00  0.00     0.258 C 
HETATM    2  N   UNL     1      -7.192   2.774 -31.377  1.00  0.00    -0.350 N 
HETATM    3  O   UNL     1      -7.393   3.622 -33.492  1.00  0.00    -0.267 OA
HETATM    4  H   UNL     1      -6.970   1.920 -30.866  1.00  0.00     0.163 HD
ENDROOT
BRANCH   2   5
HETATM    5  C   UNL     1      -7.019   4.063 -30.687  1.00  0.00     0.114 C 
HETATM    6  C   UNL     1      -8.164   4.283 -29.696  1.00  0.00     0.035 C 
BRANCH   5   7
HETATM    7  C   UNL     1      -5.598   4.210 -30.065  1.00  0.00     0.173 C 
BRANCH   7   8
HETATM    8  O   UNL     1      -5.289   2.998 -29.355  1.00  0.00    -0.389 OA
HETATM    9  H   UNL     1      -5.486   3.195 -28.422  1.00  0.00     0.210 HD
ENDBRANCH   7   8
BRANCH   7  10
HETATM   10  C   UNL     1      -4.496   4.483 -31.067  1.00  0.00    -0.028 A 
HETATM   11  C   UNL     1      -4.408   5.749 -31.665  1.00  0.00     0.012 A 
HETATM   12  C   UNL     1      -3.413   6.026 -32.603  1.00  0.00     0.037 A 
HETATM   13  C   UNL     1      -2.483   5.049 -32.962  1.00  0.00     0.068 A 
HETATM   14  C   UNL     1      -2.565   3.785 -32.379  1.00  0.00     0.037 A 
HETATM   15  C   UNL     1      -3.567   3.503 -31.440  1.00  0.00     0.012 A 
BRANCH  13  16
HETATM   16  O   UNL     1      -1.560   5.455 -33.885  1.00  0.00    -0.356 OA
HETATM   17  C   UNL     1      -1.155   6.817 -33.831  1.00  0.00     0.210 C 
ENDBRANCH  13  16
ENDBRANCH   7  10
ENDBRANCH   5   7
ENDBRANCH   2   5
BRANCH   1  18
HETATM   18  C   UNL     1      -7.195   1.300 -33.266  1.00  0.00     0.105 A 
HETATM   19  C   UNL     1      -6.159   0.391 -33.136  1.00  0.00     0.169 A 
HETATM   20  N   UNL     1      -4.948   0.480 -32.495  1.00  0.00    -0.233 NA
HETATM   21  N   UNL     1      -6.544  -0.752 -33.847  1.00  0.00    -0.219 N 
HETATM   22  C   UNL     1      -4.165  -0.557 -32.594  1.00  0.00     0.035 A 
HETATM   23  C   UNL     1      -2.821  -0.515 -31.914  1.00  0.00     0.070 C 
HETATM   24  C   UNL     1      -4.489  -1.813 -33.341  1.00  0.00     0.053 A 
HETATM   25  C   UNL     1      -5.690  -1.858 -33.946  1.00  0.00     0.036 A 
HETATM   26  C   UNL     1      -6.159  -3.040 -34.736  1.00  0.00     0.070 C 
HETATM   27  N   UNL     1      -7.780  -0.612 -34.384  1.00  0.00    -0.170 NA
HETATM   28  C   UNL     1      -8.169   0.620 -34.045  1.00  0.00     0.071 A 
HETATM   29  C   UNL     1      -9.495   1.124 -34.489  1.00  0.00     0.073 C 
ENDBRANCH   1  18
TORSDOF 6
ENDMDL
