MODEL 1
REMARK VINA RESULT:      -9.3      0.000      0.000
REMARK  5 active torsions:
REMARK  status: ('A' for Active; 'I' for Inactive)
REMARK    1  A    between atoms: C_3  and  C_4 
REMARK       I    between atoms: C_4  and  N_5 
REMARK    2  A    between atoms: N_5  and  C_6 
REMARK    3  A    between atoms: C_6  and  C_7 
REMARK    4  A    between atoms: C_10  and  O_11 
REMARK    5  A    between atoms: O_11  and  C_12 
ROOT
HETATM    1  C   UNL     1      -1.498   4.868 -32.990  1.00  0.00     0.052 C 
HETATM    2  C   UNL     1      -2.635   5.487 -32.257  1.00  0.00    -0.009 A 
HETATM    3  C   UNL     1      -3.983   5.442 -32.611  1.00  0.00     0.150 A 
HETATM    4  O   UNL     1      -4.708   6.206 -31.743  1.00  0.00    -0.304 OA
HETATM    5  C   UNL     1      -3.864   6.712 -30.818  1.00  0.00     0.088 A 
HETATM    6  C   UNL     1      -2.557   6.299 -31.061  1.00  0.00     0.020 A 
HETATM    7  C   UNL     1      -1.565   6.757 -30.153  1.00  0.00     0.011 A 
HETATM    8  C   UNL     1      -1.947   7.584 -29.079  1.00  0.00     0.081 A 
HETATM    9  O   UNL     1      -1.061   8.085 -28.163  1.00  0.00    -0.336 OA
HETATM   10  C   UNL     1       0.258   7.504 -28.102  1.00  0.00     0.078 C 
HETATM   11  C   UNL     1       0.286   6.565 -26.890  1.00  0.00     0.051 C 
HETATM   12  C   UNL     1       1.217   8.678 -27.865  1.00  0.00     0.051 C 
HETATM   13  C   UNL     1       0.683   6.751 -29.341  1.00  0.00     0.012 C 
HETATM   14  C   UNL     1      -0.166   6.398 -30.313  1.00  0.00     0.014 C 
HETATM   15  C   UNL     1      -3.272   7.975 -28.900  1.00  0.00     0.040 A 
HETATM   16  C   UNL     1      -4.267   7.537 -29.771  1.00  0.00     0.041 A 
ENDROOT
BRANCH   3  17
HETATM   17  C   UNL     1      -4.741   4.799 -33.670  1.00  0.00     0.276 C 
HETATM   18  N   UNL     1      -5.449   3.669 -33.305  1.00  0.00    -0.351 N 
HETATM   19  H   UNL     1      -5.611   3.509 -32.320  1.00  0.00     0.163 HD
HETATM   20  O   UNL     1      -4.804   5.240 -34.816  1.00  0.00    -0.265 OA
BRANCH  18  21
HETATM   21  C   UNL     1      -6.381   3.086 -34.242  1.00  0.00     0.161 C 
BRANCH  21  22
HETATM   22  C   UNL     1      -6.459   1.587 -34.117  1.00  0.00    -0.040 A 
HETATM   23  C   UNL     1      -7.149   0.829 -35.070  1.00  0.00     0.011 A 
HETATM   24  C   UNL     1      -7.150  -0.567 -34.997  1.00  0.00     0.037 A 
HETATM   25  C   UNL     1      -6.456  -1.229 -33.984  1.00  0.00     0.069 A 
HETATM   26  C   UNL     1      -5.794  -0.480 -33.012  1.00  0.00     0.037 A 
HETATM   27  C   UNL     1      -5.788   0.919 -33.084  1.00  0.00     0.011 A 
BRANCH  25  28
HETATM   28  O   UNL     1      -6.520  -2.592 -34.041  1.00  0.00    -0.347 OA
BRANCH  28  29
HETATM   29  C   UNL     1      -5.674  -3.273 -34.974  1.00  0.00     0.120 C 
HETATM   30  C   UNL     1      -4.376  -3.665 -34.278  1.00  0.00     0.040 C 
HETATM   31  C   UNL     1      -6.427  -4.520 -35.432  1.00  0.00     0.040 C 
ENDBRANCH  28  29
ENDBRANCH  25  28
ENDBRANCH  21  22
ENDBRANCH  18  21
ENDBRANCH   3  17
TORSDOF 5
ENDMDL
MODEL 2
REMARK VINA RESULT:      -9.0      1.015      1.993
REMARK  5 active torsions:
REMARK  status: ('A' for Active; 'I' for Inactive)
REMARK    1  A    between atoms: C_3  and  C_4 
REMARK       I    between atoms: C_4  and  N_5 
REMARK    2  A    between atoms: N_5  and  C_6 
REMARK    3  A    between atoms: C_6  and  C_7 
REMARK    4  A    between atoms: C_10  and  O_11 
REMARK    5  A    between atoms: O_11  and  C_12 
ROOT
HETATM    1  C   UNL     1      -4.864   5.643 -30.230  1.00  0.00     0.052 C 
HETATM    2  C   UNL     1      -3.710   5.754 -31.162  1.00  0.00    -0.009 A 
HETATM    3  C   UNL     1      -3.687   5.406 -32.512  1.00  0.00     0.150 A 
HETATM    4  O   UNL     1      -2.422   5.563 -33.001  1.00  0.00    -0.304 OA
HETATM    5  C   UNL     1      -1.640   6.039 -32.008  1.00  0.00     0.088 A 
HETATM    6  C   UNL     1      -2.371   6.197 -30.834  1.00  0.00     0.020 A 
HETATM    7  C   UNL     1      -1.666   6.700 -29.708  1.00  0.00     0.011 A 
HETATM    8  C   UNL     1      -0.298   7.005 -29.835  1.00  0.00     0.081 A 
HETATM    9  O   UNL     1       0.466   7.480 -28.803  1.00  0.00    -0.336 OA
HETATM   10  C   UNL     1      -0.207   7.982 -27.631  1.00  0.00     0.078 C 
HETATM   11  C   UNL     1      -0.181   9.513 -27.710  1.00  0.00     0.051 C 
HETATM   12  C   UNL     1       0.635   7.515 -26.436  1.00  0.00     0.051 C 
HETATM   13  C   UNL     1      -1.631   7.504 -27.458  1.00  0.00     0.012 C 
HETATM   14  C   UNL     1      -2.324   6.898 -28.427  1.00  0.00     0.014 C 
HETATM   15  C   UNL     1       0.382   6.808 -31.035  1.00  0.00     0.040 A 
HETATM   16  C   UNL     1      -0.285   6.323 -32.158  1.00  0.00     0.041 A 
ENDROOT
BRANCH   3  17
HETATM   17  C   UNL     1      -4.673   4.915 -33.459  1.00  0.00     0.276 C 
HETATM   18  N   UNL     1      -5.260   3.703 -33.144  1.00  0.00    -0.351 N 
HETATM   19  H   UNL     1      -5.176   3.368 -32.195  1.00  0.00     0.163 HD
HETATM   20  O   UNL     1      -5.017   5.543 -34.459  1.00  0.00    -0.265 OA
BRANCH  18  21
HETATM   21  C   UNL     1      -6.386   3.242 -33.923  1.00  0.00     0.161 C 
BRANCH  21  22
HETATM   22  C   UNL     1      -6.526   1.743 -33.896  1.00  0.00    -0.040 A 
HETATM   23  C   UNL     1      -7.063   1.059 -34.993  1.00  0.00     0.011 A 
HETATM   24  C   UNL     1      -7.116  -0.338 -34.999  1.00  0.00     0.037 A 
HETATM   25  C   UNL     1      -6.625  -1.075 -33.920  1.00  0.00     0.069 A 
HETATM   26  C   UNL     1      -6.118  -0.400 -32.810  1.00  0.00     0.037 A 
HETATM   27  C   UNL     1      -6.061   0.999 -32.803  1.00  0.00     0.011 A 
BRANCH  25  28
HETATM   28  O   UNL     1      -6.716  -2.430 -34.063  1.00  0.00    -0.347 OA
BRANCH  28  29
HETATM   29  C   UNL     1      -5.892  -3.066 -35.046  1.00  0.00     0.120 C 
HETATM   30  C   UNL     1      -4.445  -3.058 -34.565  1.00  0.00     0.040 C 
HETATM   31  C   UNL     1      -6.394  -4.501 -35.190  1.00  0.00     0.040 C 
ENDBRANCH  28  29
ENDBRANCH  25  28
ENDBRANCH  21  22
ENDBRANCH  18  21
ENDBRANCH   3  17
TORSDOF 5
ENDMDL
MODEL 3
REMARK VINA RESULT:      -8.5      5.251     12.478
REMARK  5 active torsions:
REMARK  status: ('A' for Active; 'I' for Inactive)
REMARK    1  A    between atoms: C_3  and  C_4 
REMARK       I    between atoms: C_4  and  N_5 
REMARK    2  A    between atoms: N_5  and  C_6 
REMARK    3  A    between atoms: C_6  and  C_7 
REMARK    4  A    between atoms: C_10  and  O_11 
REMARK    5  A    between atoms: O_11  and  C_12 
ROOT
HETATM    1  C   UNL     1      -1.505   9.589 -28.695  1.00  0.00     0.052 C 
HETATM    2  C   UNL     1      -0.727   8.363 -28.371  1.00  0.00    -0.009 A 
HETATM    3  C   UNL     1      -0.069   8.081 -27.174  1.00  0.00     0.150 A 
HETATM    4  O   UNL     1       0.609   6.902 -27.294  1.00  0.00    -0.304 OA
HETATM    5  C   UNL     1       0.373   6.402 -28.527  1.00  0.00     0.088 A 
HETATM    6  C   UNL     1      -0.461   7.247 -29.253  1.00  0.00     0.020 A 
HETATM    7  C   UNL     1      -0.795   6.833 -30.570  1.00  0.00     0.011 A 
HETATM    8  C   UNL     1      -0.278   5.618 -31.060  1.00  0.00     0.081 A 
HETATM    9  O   UNL     1      -0.533   5.146 -32.320  1.00  0.00    -0.336 OA
HETATM   10  C   UNL     1      -1.612   5.743 -33.067  1.00  0.00     0.078 C 
HETATM   11  C   UNL     1      -2.805   4.783 -32.993  1.00  0.00     0.051 C 
HETATM   12  C   UNL     1      -1.113   5.832 -34.515  1.00  0.00     0.051 C 
HETATM   13  C   UNL     1      -2.032   7.116 -32.596  1.00  0.00     0.012 C 
HETATM   14  C   UNL     1      -1.651   7.639 -31.425  1.00  0.00     0.014 C 
HETATM   15  C   UNL     1       0.566   4.824 -30.287  1.00  0.00     0.040 A 
HETATM   16  C   UNL     1       0.907   5.201 -28.990  1.00  0.00     0.041 A 
ENDROOT
BRANCH   3  17
HETATM   17  C   UNL     1       0.056   8.754 -25.893  1.00  0.00     0.276 C 
HETATM   18  N   UNL     1       1.331   8.800 -25.359  1.00  0.00    -0.351 N 
HETATM   19  H   UNL     1       2.110   8.612 -25.975  1.00  0.00     0.163 HD
HETATM   20  O   UNL     1      -0.887   9.297 -25.322  1.00  0.00    -0.265 OA
BRANCH  18  21
HETATM   21  C   UNL     1       1.579   9.616 -24.193  1.00  0.00     0.161 C 
BRANCH  21  22
HETATM   22  C   UNL     1       2.859   9.245 -23.493  1.00  0.00    -0.040 A 
HETATM   23  C   UNL     1       2.830   8.544 -22.282  1.00  0.00     0.011 A 
HETATM   24  C   UNL     1       4.020   8.129 -21.677  1.00  0.00     0.037 A 
HETATM   25  C   UNL     1       5.254   8.393 -22.273  1.00  0.00     0.069 A 
HETATM   26  C   UNL     1       5.292   9.120 -23.463  1.00  0.00     0.037 A 
HETATM   27  C   UNL     1       4.102   9.535 -24.073  1.00  0.00     0.011 A 
BRANCH  25  28
HETATM   28  O   UNL     1       6.335   7.914 -21.590  1.00  0.00    -0.347 OA
BRANCH  28  29
HETATM   29  C   UNL     1       6.393   6.511 -21.311  1.00  0.00     0.120 C 
HETATM   30  C   UNL     1       7.196   5.817 -22.405  1.00  0.00     0.040 C 
HETATM   31  C   UNL     1       7.090   6.352 -19.961  1.00  0.00     0.040 C 
ENDBRANCH  28  29
ENDBRANCH  25  28
ENDBRANCH  21  22
ENDBRANCH  18  21
ENDBRANCH   3  17
TORSDOF 5
ENDMDL
MODEL 4
REMARK VINA RESULT:      -8.5      1.312     10.073
REMARK  5 active torsions:
REMARK  status: ('A' for Active; 'I' for Inactive)
REMARK    1  A    between atoms: C_3  and  C_4 
REMARK       I    between atoms: C_4  and  N_5 
REMARK    2  A    between atoms: N_5  and  C_6 
REMARK    3  A    between atoms: C_6  and  C_7 
REMARK    4  A    between atoms: C_10  and  O_11 
REMARK    5  A    between atoms: O_11  and  C_12 
ROOT
HETATM    1  C   UNL     1      -3.500   1.336 -31.981  1.00  0.00     0.052 C 
HETATM    2  C   UNL     1      -4.696   1.736 -32.770  1.00  0.00    -0.009 A 
HETATM    3  C   UNL     1      -5.219   3.022 -32.903  1.00  0.00     0.150 A 
HETATM    4  O   UNL     1      -6.374   2.970 -33.629  1.00  0.00    -0.304 OA
HETATM    5  C   UNL     1      -6.586   1.688 -33.997  1.00  0.00     0.088 A 
HETATM    6  C   UNL     1      -5.578   0.860 -33.512  1.00  0.00     0.020 A 
HETATM    7  C   UNL     1      -5.677  -0.520 -33.834  1.00  0.00     0.011 A 
HETATM    8  C   UNL     1      -6.763  -0.967 -34.610  1.00  0.00     0.081 A 
HETATM    9  O   UNL     1      -6.949  -2.278 -34.959  1.00  0.00    -0.336 OA
HETATM   10  C   UNL     1      -5.845  -3.190 -34.798  1.00  0.00     0.078 C 
HETATM   11  C   UNL     1      -5.233  -3.416 -36.185  1.00  0.00     0.051 C 
HETATM   12  C   UNL     1      -6.459  -4.500 -34.288  1.00  0.00     0.051 C 
HETATM   13  C   UNL     1      -4.772  -2.732 -33.836  1.00  0.00     0.012 C 
HETATM   14  C   UNL     1      -4.687  -1.480 -33.375  1.00  0.00     0.014 C 
HETATM   15  C   UNL     1      -7.750  -0.089 -35.052  1.00  0.00     0.040 A 
HETATM   16  C   UNL     1      -7.676   1.271 -34.757  1.00  0.00     0.041 A 
ENDROOT
BRANCH   3  17
HETATM   17  C   UNL     1      -4.824   4.340 -32.438  1.00  0.00     0.276 C 
HETATM   18  N   UNL     1      -3.754   4.916 -33.097  1.00  0.00    -0.351 N 
HETATM   19  H   UNL     1      -3.485   4.531 -33.991  1.00  0.00     0.163 HD
HETATM   20  O   UNL     1      -5.419   4.946 -31.548  1.00  0.00    -0.265 OA
BRANCH  18  21
HETATM   21  C   UNL     1      -3.423   6.297 -32.832  1.00  0.00     0.161 C 
BRANCH  21  22
HETATM   22  C   UNL     1      -2.293   6.439 -31.848  1.00  0.00    -0.040 A 
HETATM   23  C   UNL     1      -2.504   7.044 -30.604  1.00  0.00     0.011 A 
HETATM   24  C   UNL     1      -1.474   7.099 -29.660  1.00  0.00     0.037 A 
HETATM   25  C   UNL     1      -0.224   6.544 -29.935  1.00  0.00     0.069 A 
HETATM   26  C   UNL     1       0.005   5.968 -31.184  1.00  0.00     0.037 A 
HETATM   27  C   UNL     1      -1.026   5.908 -32.130  1.00  0.00     0.011 A 
BRANCH  25  28
HETATM   28  O   UNL     1       0.685   6.647 -28.920  1.00  0.00    -0.347 OA
BRANCH  28  29
HETATM   29  C   UNL     1       0.417   7.574 -27.862  1.00  0.00     0.120 C 
HETATM   30  C   UNL     1       0.334   6.815 -26.542  1.00  0.00     0.040 C 
HETATM   31  C   UNL     1       1.579   8.564 -27.831  1.00  0.00     0.040 C 
ENDBRANCH  28  29
ENDBRANCH  25  28
ENDBRANCH  21  22
ENDBRANCH  18  21
ENDBRANCH   3  17
TORSDOF 5
ENDMDL
MODEL 5
REMARK VINA RESULT:      -8.3      2.635     10.290
REMARK  5 active torsions:
REMARK  status: ('A' for Active; 'I' for Inactive)
REMARK    1  A    between atoms: C_3  and  C_4 
REMARK       I    between atoms: C_4  and  N_5 
REMARK    2  A    between atoms: N_5  and  C_6 
REMARK    3  A    between atoms: C_6  and  C_7 
REMARK    4  A    between atoms: C_10  and  O_11 
REMARK    5  A    between atoms: O_11  and  C_12 
ROOT
HETATM    1  C   UNL     1      -4.229   5.509 -33.383  1.00  0.00     0.052 C 
HETATM    2  C   UNL     1      -3.676   4.390 -32.574  1.00  0.00    -0.009 A 
HETATM    3  C   UNL     1      -2.501   4.402 -31.821  1.00  0.00     0.150 A 
HETATM    4  O   UNL     1      -2.283   3.160 -31.299  1.00  0.00    -0.304 OA
HETATM    5  C   UNL     1      -3.308   2.360 -31.666  1.00  0.00     0.088 A 
HETATM    6  C   UNL     1      -4.223   3.056 -32.451  1.00  0.00     0.020 A 
HETATM    7  C   UNL     1      -5.357   2.329 -32.901  1.00  0.00     0.011 A 
HETATM    8  C   UNL     1      -5.494   0.976 -32.538  1.00  0.00     0.081 A 
HETATM    9  O   UNL     1      -6.545   0.193 -32.936  1.00  0.00    -0.336 OA
HETATM   10  C   UNL     1      -7.710   0.842 -33.482  1.00  0.00     0.078 C 
HETATM   11  C   UNL     1      -8.777   0.865 -32.382  1.00  0.00     0.051 C 
HETATM   12  C   UNL     1      -8.181  -0.054 -34.635  1.00  0.00     0.051 C 
HETATM   13  C   UNL     1      -7.479   2.243 -33.998  1.00  0.00     0.012 C 
HETATM   14  C   UNL     1      -6.375   2.950 -33.733  1.00  0.00     0.014 C 
HETATM   15  C   UNL     1      -4.533   0.332 -31.762  1.00  0.00     0.040 A 
HETATM   16  C   UNL     1      -3.413   1.020 -31.301  1.00  0.00     0.041 A 
ENDROOT
BRANCH   3  17
HETATM   17  C   UNL     1      -1.498   5.404 -31.507  1.00  0.00     0.276 C 
HETATM   18  N   UNL     1      -0.775   5.191 -30.347  1.00  0.00    -0.351 N 
HETATM   19  H   UNL     1      -0.793   4.266 -29.941  1.00  0.00     0.163 HD
HETATM   20  O   UNL     1      -1.254   6.364 -32.235  1.00  0.00    -0.265 OA
BRANCH  18  21
HETATM   21  C   UNL     1       0.369   6.027 -30.065  1.00  0.00     0.161 C 
BRANCH  21  22
HETATM   22  C   UNL     1       0.171   6.875 -28.837  1.00  0.00    -0.040 A 
HETATM   23  C   UNL     1      -0.621   8.028 -28.888  1.00  0.00     0.011 A 
HETATM   24  C   UNL     1      -0.869   8.767 -27.728  1.00  0.00     0.037 A 
HETATM   25  C   UNL     1      -0.344   8.364 -26.499  1.00  0.00     0.069 A 
HETATM   26  C   UNL     1       0.473   7.235 -26.446  1.00  0.00     0.037 A 
HETATM   27  C   UNL     1       0.721   6.491 -27.606  1.00  0.00     0.011 A 
BRANCH  25  28
HETATM   28  O   UNL     1      -0.681   9.162 -25.443  1.00  0.00    -0.347 OA
BRANCH  28  29
HETATM   29  C   UNL     1      -2.069   9.420 -25.204  1.00  0.00     0.120 C 
HETATM   30  C   UNL     1      -2.693   8.206 -24.525  1.00  0.00     0.040 C 
HETATM   31  C   UNL     1      -2.145  10.638 -24.285  1.00  0.00     0.040 C 
ENDBRANCH  28  29
ENDBRANCH  25  28
ENDBRANCH  21  22
ENDBRANCH  18  21
ENDBRANCH   3  17
TORSDOF 5
ENDMDL
MODEL 6
REMARK VINA RESULT:      -8.2      2.384      4.309
REMARK  5 active torsions:
REMARK  status: ('A' for Active; 'I' for Inactive)
REMARK    1  A    between atoms: C_3  and  C_4 
REMARK       I    between atoms: C_4  and  N_5 
REMARK    2  A    between atoms: N_5  and  C_6 
REMARK    3  A    between atoms: C_6  and  C_7 
REMARK    4  A    between atoms: C_10  and  O_11 
REMARK    5  A    between atoms: O_11  and  C_12 
ROOT
HETATM    1  C   UNL     1      -2.676   9.915 -30.039  1.00  0.00     0.052 C 
HETATM    2  C   UNL     1      -1.695   8.805 -29.901  1.00  0.00    -0.009 A 
HETATM    3  C   UNL     1      -1.443   7.791 -30.825  1.00  0.00     0.150 A 
HETATM    4  O   UNL     1      -0.544   6.909 -30.299  1.00  0.00    -0.304 OA
HETATM    5  C   UNL     1      -0.184   7.351 -29.074  1.00  0.00     0.088 A 
HETATM    6  C   UNL     1      -0.848   8.533 -28.759  1.00  0.00     0.020 A 
HETATM    7  C   UNL     1      -0.554   9.111 -27.496  1.00  0.00     0.011 A 
HETATM    8  C   UNL     1       0.372   8.474 -26.647  1.00  0.00     0.081 A 
HETATM    9  O   UNL     1       0.707   8.948 -25.408  1.00  0.00    -0.336 OA
HETATM   10  C   UNL     1       0.345  10.304 -25.075  1.00  0.00     0.078 C 
HETATM   11  C   UNL     1       1.611  11.158 -25.208  1.00  0.00     0.051 C 
HETATM   12  C   UNL     1      -0.098  10.267 -23.607  1.00  0.00     0.051 C 
HETATM   13  C   UNL     1      -0.761  10.895 -25.919  1.00  0.00     0.012 C 
HETATM   14  C   UNL     1      -1.193  10.340 -27.056  1.00  0.00     0.014 C 
HETATM   15  C   UNL     1       0.991   7.281 -27.015  1.00  0.00     0.040 A 
HETATM   16  C   UNL     1       0.727   6.693 -28.250  1.00  0.00     0.041 A 
ENDROOT
BRANCH   3  17
HETATM   17  C   UNL     1      -1.926   7.479 -32.159  1.00  0.00     0.276 C 
HETATM   18  N   UNL     1      -2.584   6.270 -32.294  1.00  0.00    -0.351 N 
HETATM   19  H   UNL     1      -2.912   5.813 -31.455  1.00  0.00     0.163 HD
HETATM   20  O   UNL     1      -1.813   8.246 -33.113  1.00  0.00    -0.265 OA
BRANCH  18  21
HETATM   21  C   UNL     1      -3.266   5.973 -33.533  1.00  0.00     0.161 C 
BRANCH  21  22
HETATM   22  C   UNL     1      -4.172   4.776 -33.417  1.00  0.00    -0.040 A 
HETATM   23  C   UNL     1      -5.305   4.660 -34.229  1.00  0.00     0.011 A 
HETATM   24  C   UNL     1      -6.098   3.510 -34.177  1.00  0.00     0.037 A 
HETATM   25  C   UNL     1      -5.769   2.454 -33.327  1.00  0.00     0.069 A 
HETATM   26  C   UNL     1      -4.660   2.576 -32.490  1.00  0.00     0.037 A 
HETATM   27  C   UNL     1      -3.862   3.725 -32.542  1.00  0.00     0.011 A 
BRANCH  25  28
HETATM   28  O   UNL     1      -6.614   1.382 -33.390  1.00  0.00    -0.347 OA
BRANCH  28  29
HETATM   29  C   UNL     1      -6.411   0.420 -34.431  1.00  0.00     0.120 C 
HETATM   30  C   UNL     1      -5.896  -0.877 -33.818  1.00  0.00     0.040 C 
HETATM   31  C   UNL     1      -7.767   0.189 -35.095  1.00  0.00     0.040 C 
ENDBRANCH  28  29
ENDBRANCH  25  28
ENDBRANCH  21  22
ENDBRANCH  18  21
ENDBRANCH   3  17
TORSDOF 5
ENDMDL
MODEL 7
REMARK VINA RESULT:      -8.2      2.007      3.042
REMARK  5 active torsions:
REMARK  status: ('A' for Active; 'I' for Inactive)
REMARK    1  A    between atoms: C_3  and  C_4 
REMARK       I    between atoms: C_4  and  N_5 
REMARK    2  A    between atoms: N_5  and  C_6 
REMARK    3  A    between atoms: C_6  and  C_7 
REMARK    4  A    between atoms: C_10  and  O_11 
REMARK    5  A    between atoms: O_11  and  C_12 
ROOT
HETATM    1  C   UNL     1       0.215   7.060 -31.179  1.00  0.00     0.052 C 
HETATM    2  C   UNL     1      -0.991   7.038 -30.308  1.00  0.00    -0.009 A 
HETATM    3  C   UNL     1      -2.248   6.529 -30.631  1.00  0.00     0.150 A 
HETATM    4  O   UNL     1      -3.117   6.776 -29.608  1.00  0.00    -0.304 OA
HETATM    5  C   UNL     1      -2.439   7.399 -28.619  1.00  0.00     0.088 A 
HETATM    6  C   UNL     1      -1.106   7.586 -28.973  1.00  0.00     0.020 A 
HETATM    7  C   UNL     1      -0.277   8.227 -28.014  1.00  0.00     0.011 A 
HETATM    8  C   UNL     1      -0.832   8.629 -26.785  1.00  0.00     0.081 A 
HETATM    9  O   UNL     1      -0.115   9.264 -25.807  1.00  0.00    -0.336 OA
HETATM   10  C   UNL     1       1.323   9.250 -25.897  1.00  0.00     0.078 C 
HETATM   11  C   UNL     1       1.832   8.197 -24.905  1.00  0.00     0.051 C 
HETATM   12  C   UNL     1       1.782  10.643 -25.447  1.00  0.00     0.051 C 
HETATM   13  C   UNL     1       1.875   8.961 -27.275  1.00  0.00     0.012 C 
HETATM   14  C   UNL     1       1.130   8.483 -28.277  1.00  0.00     0.014 C 
HETATM   15  C   UNL     1      -2.181   8.427 -26.497  1.00  0.00     0.040 A 
HETATM   16  C   UNL     1      -3.017   7.796 -27.415  1.00  0.00     0.041 A 
ENDROOT
BRANCH   3  17
HETATM   17  C   UNL     1      -2.808   5.841 -31.782  1.00  0.00     0.276 C 
HETATM   18  N   UNL     1      -3.674   4.801 -31.500  1.00  0.00    -0.351 N 
HETATM   19  H   UNL     1      -4.061   4.746 -30.568  1.00  0.00     0.163 HD
HETATM   20  O   UNL     1      -2.579   6.175 -32.943  1.00  0.00    -0.265 OA
BRANCH  18  21
HETATM   21  C   UNL     1      -4.424   4.195 -32.576  1.00  0.00     0.161 C 
BRANCH  21  22
HETATM   22  C   UNL     1      -4.439   2.692 -32.491  1.00  0.00    -0.040 A 
HETATM   23  C   UNL     1      -3.407   2.005 -31.841  1.00  0.00     0.011 A 
HETATM   24  C   UNL     1      -3.466   0.617 -31.692  1.00  0.00     0.037 A 
HETATM   25  C   UNL     1      -4.557  -0.107 -32.174  1.00  0.00     0.069 A 
HETATM   26  C   UNL     1      -5.574   0.566 -32.852  1.00  0.00     0.037 A 
HETATM   27  C   UNL     1      -5.519   1.957 -33.000  1.00  0.00     0.011 A 
BRANCH  25  28
HETATM   28  O   UNL     1      -4.500  -1.452 -31.943  1.00  0.00    -0.347 OA
BRANCH  28  29
HETATM   29  C   UNL     1      -3.636  -2.245 -32.765  1.00  0.00     0.120 C 
HETATM   30  C   UNL     1      -3.024  -3.356 -31.920  1.00  0.00     0.040 C 
HETATM   31  C   UNL     1      -4.499  -2.840 -33.876  1.00  0.00     0.040 C 
ENDBRANCH  28  29
ENDBRANCH  25  28
ENDBRANCH  21  22
ENDBRANCH  18  21
ENDBRANCH   3  17
TORSDOF 5
ENDMDL
MODEL 8
REMARK VINA RESULT:      -8.1      1.755     10.373
REMARK  5 active torsions:
REMARK  status: ('A' for Active; 'I' for Inactive)
REMARK    1  A    between atoms: C_3  and  C_4 
REMARK       I    between atoms: C_4  and  N_5 
REMARK    2  A    between atoms: N_5  and  C_6 
REMARK    3  A    between atoms: C_6  and  C_7 
REMARK    4  A    between atoms: C_10  and  O_11 
REMARK    5  A    between atoms: O_11  and  C_12 
ROOT
HETATM    1  C   UNL     1      -6.659   2.429 -33.684  1.00  0.00     0.052 C 
HETATM    2  C   UNL     1      -5.621   1.777 -32.841  1.00  0.00    -0.009 A 
HETATM    3  C   UNL     1      -4.864   2.375 -31.834  1.00  0.00     0.150 A 
HETATM    4  O   UNL     1      -3.954   1.478 -31.355  1.00  0.00    -0.304 OA
HETATM    5  C   UNL     1      -4.131   0.307 -32.005  1.00  0.00     0.088 A 
HETATM    6  C   UNL     1      -5.160   0.409 -32.937  1.00  0.00     0.020 A 
HETATM    7  C   UNL     1      -5.456  -0.760 -33.688  1.00  0.00     0.011 A 
HETATM    8  C   UNL     1      -4.712  -1.933 -33.456  1.00  0.00     0.081 A 
HETATM    9  O   UNL     1      -4.917  -3.101 -34.140  1.00  0.00    -0.336 OA
HETATM   10  C   UNL     1      -6.131  -3.241 -34.903  1.00  0.00     0.078 C 
HETATM   11  C   UNL     1      -7.084  -4.122 -34.087  1.00  0.00     0.051 C 
HETATM   12  C   UNL     1      -5.730  -3.974 -36.190  1.00  0.00     0.051 C 
HETATM   13  C   UNL     1      -6.817  -1.942 -35.259  1.00  0.00     0.012 C 
HETATM   14  C   UNL     1      -6.504  -0.770 -34.695  1.00  0.00     0.014 C 
HETATM   15  C   UNL     1      -3.682  -1.965 -32.519  1.00  0.00     0.040 A 
HETATM   16  C   UNL     1      -3.373  -0.836 -31.763  1.00  0.00     0.041 A 
ENDROOT
BRANCH   3  17
HETATM   17  C   UNL     1      -4.828   3.695 -31.228  1.00  0.00     0.276 C 
HETATM   18  N   UNL     1      -4.070   4.642 -31.890  1.00  0.00    -0.351 N 
HETATM   19  H   UNL     1      -3.811   4.456 -32.849  1.00  0.00     0.163 HD
HETATM   20  O   UNL     1      -5.463   3.988 -30.216  1.00  0.00    -0.265 OA
BRANCH  18  21
HETATM   21  C   UNL     1      -4.139   6.022 -31.469  1.00  0.00     0.161 C 
BRANCH  21  22
HETATM   22  C   UNL     1      -2.883   6.472 -30.770  1.00  0.00    -0.040 A 
HETATM   23  C   UNL     1      -1.690   5.756 -30.918  1.00  0.00     0.011 A 
HETATM   24  C   UNL     1      -0.508   6.223 -30.336  1.00  0.00     0.037 A 
HETATM   25  C   UNL     1      -0.493   7.414 -29.609  1.00  0.00     0.069 A 
HETATM   26  C   UNL     1      -1.684   8.117 -29.430  1.00  0.00     0.037 A 
HETATM   27  C   UNL     1      -2.869   7.654 -30.015  1.00  0.00     0.011 A 
BRANCH  25  28
HETATM   28  O   UNL     1       0.730   7.767 -29.113  1.00  0.00    -0.347 OA
BRANCH  28  29
HETATM   29  C   UNL     1       0.815   8.170 -27.742  1.00  0.00     0.120 C 
HETATM   30  C   UNL     1       1.046   6.939 -26.873  1.00  0.00     0.040 C 
HETATM   31  C   UNL     1       2.001   9.126 -27.630  1.00  0.00     0.040 C 
ENDBRANCH  28  29
ENDBRANCH  25  28
ENDBRANCH  21  22
ENDBRANCH  18  21
ENDBRANCH   3  17
TORSDOF 5
ENDMDL
MODEL 9
REMARK VINA RESULT:      -8.0      6.209     10.591
REMARK  5 active torsions:
REMARK  status: ('A' for Active; 'I' for Inactive)
REMARK    1  A    between atoms: C_3  and  C_4 
REMARK       I    between atoms: C_4  and  N_5 
REMARK    2  A    between atoms: N_5  and  C_6 
REMARK    3  A    between atoms: C_6  and  C_7 
REMARK    4  A    between atoms: C_10  and  O_11 
REMARK    5  A    between atoms: O_11  and  C_12 
ROOT
HETATM    1  C   UNL     1     -11.656   5.037 -32.385  1.00  0.00     0.052 C 
HETATM    2  C   UNL     1     -11.726   3.605 -32.782  1.00  0.00    -0.009 A 
HETATM    3  C   UNL     1     -10.652   2.766 -33.083  1.00  0.00     0.150 A 
HETATM    4  O   UNL     1     -11.124   1.553 -33.493  1.00  0.00    -0.304 OA
HETATM    5  C   UNL     1     -12.473   1.579 -33.429  1.00  0.00     0.088 A 
HETATM    6  C   UNL     1     -12.924   2.818 -32.982  1.00  0.00     0.020 A 
HETATM    7  C   UNL     1     -14.330   2.978 -32.862  1.00  0.00     0.011 A 
HETATM    8  C   UNL     1     -15.174   1.900 -33.192  1.00  0.00     0.081 A 
HETATM    9  O   UNL     1     -16.540   1.966 -33.121  1.00  0.00    -0.336 OA
HETATM   10  C   UNL     1     -17.134   3.058 -32.392  1.00  0.00     0.078 C 
HETATM   11  C   UNL     1     -17.576   2.511 -31.030  1.00  0.00     0.051 C 
HETATM   12  C   UNL     1     -18.367   3.476 -33.203  1.00  0.00     0.051 C 
HETATM   13  C   UNL     1     -16.235   4.257 -32.192  1.00  0.00     0.012 C 
HETATM   14  C   UNL     1     -14.916   4.230 -32.414  1.00  0.00     0.014 C 
HETATM   15  C   UNL     1     -14.660   0.689 -33.650  1.00  0.00     0.040 A 
HETATM   16  C   UNL     1     -13.285   0.501 -33.772  1.00  0.00     0.041 A 
ENDROOT
BRANCH   3  17
HETATM   17  C   UNL     1      -9.207   2.911 -33.070  1.00  0.00     0.276 C 
HETATM   18  N   UNL     1      -8.516   1.990 -32.305  1.00  0.00    -0.351 N 
HETATM   19  H   UNL     1      -8.999   1.149 -32.024  1.00  0.00     0.163 HD
HETATM   20  O   UNL     1      -8.610   3.760 -33.729  1.00  0.00    -0.265 OA
BRANCH  18  21
HETATM   21  C   UNL     1      -7.075   1.939 -32.393  1.00  0.00     0.161 C 
BRANCH  21  22
HETATM   22  C   UNL     1      -6.588   0.736 -33.158  1.00  0.00    -0.040 A 
HETATM   23  C   UNL     1      -5.475   0.014 -32.715  1.00  0.00     0.011 A 
HETATM   24  C   UNL     1      -5.076  -1.149 -33.379  1.00  0.00     0.037 A 
HETATM   25  C   UNL     1      -5.785  -1.618 -34.486  1.00  0.00     0.069 A 
HETATM   26  C   UNL     1      -6.877  -0.886 -34.953  1.00  0.00     0.037 A 
HETATM   27  C   UNL     1      -7.281   0.278 -34.287  1.00  0.00     0.011 A 
BRANCH  25  28
HETATM   28  O   UNL     1      -5.304  -2.775 -35.027  1.00  0.00    -0.347 OA
BRANCH  28  29
HETATM   29  C   UNL     1      -5.775  -4.019 -34.498  1.00  0.00     0.120 C 
HETATM   30  C   UNL     1      -6.700  -4.676 -35.517  1.00  0.00     0.040 C 
HETATM   31  C   UNL     1      -4.548  -4.895 -34.256  1.00  0.00     0.040 C 
ENDBRANCH  28  29
ENDBRANCH  25  28
ENDBRANCH  21  22
ENDBRANCH  18  21
ENDBRANCH   3  17
TORSDOF 5
ENDMDL
MODEL 10
REMARK VINA RESULT:      -7.8      5.152      8.873
REMARK  5 active torsions:
REMARK  status: ('A' for Active; 'I' for Inactive)
REMARK    1  A    between atoms: C_3  and  C_4 
REMARK       I    between atoms: C_4  and  N_5 
REMARK    2  A    between atoms: N_5  and  C_6 
REMARK    3  A    between atoms: C_6  and  C_7 
REMARK    4  A    between atoms: C_10  and  O_11 
REMARK    5  A    between atoms: O_11  and  C_12 
ROOT
HETATM    1  C   UNL     1      -9.244   3.684 -30.511  1.00  0.00     0.052 C 
HETATM    2  C   UNL     1      -9.458   3.655 -31.983  1.00  0.00    -0.009 A 
HETATM    3  C   UNL     1      -8.483   3.502 -32.969  1.00  0.00     0.150 A 
HETATM    4  O   UNL     1      -9.058   3.621 -34.201  1.00  0.00    -0.304 OA
HETATM    5  C   UNL     1     -10.385   3.810 -34.032  1.00  0.00     0.088 A 
HETATM    6  C   UNL     1     -10.715   3.830 -32.680  1.00  0.00     0.020 A 
HETATM    7  C   UNL     1     -12.086   4.016 -32.362  1.00  0.00     0.011 A 
HETATM    8  C   UNL     1     -13.019   4.166 -33.407  1.00  0.00     0.081 A 
HETATM    9  O   UNL     1     -14.358   4.363 -33.197  1.00  0.00    -0.336 OA
HETATM   10  C   UNL     1     -14.888   4.101 -31.883  1.00  0.00     0.078 C 
HETATM   11  C   UNL     1     -15.595   2.741 -31.939  1.00  0.00     0.051 C 
HETATM   12  C   UNL     1     -15.921   5.206 -31.624  1.00  0.00     0.051 C 
HETATM   13  C   UNL     1     -13.866   4.099 -30.769  1.00  0.00     0.012 C 
HETATM   14  C   UNL     1     -12.547   4.063 -30.985  1.00  0.00     0.014 C 
HETATM   15  C   UNL     1     -12.622   4.153 -34.742  1.00  0.00     0.040 A 
HETATM   16  C   UNL     1     -11.284   3.967 -35.084  1.00  0.00     0.041 A 
ENDROOT
BRANCH   3  17
HETATM   17  C   UNL     1      -7.048   3.273 -32.961  1.00  0.00     0.276 C 
HETATM   18  N   UNL     1      -6.595   2.322 -32.064  1.00  0.00    -0.351 N 
HETATM   19  H   UNL     1      -7.269   1.681 -31.672  1.00  0.00     0.163 HD
HETATM   20  O   UNL     1      -6.272   3.840 -33.727  1.00  0.00    -0.265 OA
BRANCH  18  21
HETATM   21  C   UNL     1      -5.217   1.893 -32.129  1.00  0.00     0.161 C 
BRANCH  21  22
HETATM   22  C   UNL     1      -5.050   0.610 -32.899  1.00  0.00    -0.040 A 
HETATM   23  C   UNL     1      -3.846  -0.100 -32.847  1.00  0.00     0.011 A 
HETATM   24  C   UNL     1      -3.722  -1.332 -33.495  1.00  0.00     0.037 A 
HETATM   25  C   UNL     1      -4.798  -1.882 -34.194  1.00  0.00     0.069 A 
HETATM   26  C   UNL     1      -5.991  -1.165 -34.278  1.00  0.00     0.037 A 
HETATM   27  C   UNL     1      -6.119   0.068 -33.627  1.00  0.00     0.011 A 
BRANCH  25  28
HETATM   28  O   UNL     1      -4.551  -3.099 -34.762  1.00  0.00    -0.347 OA
BRANCH  28  29
HETATM   29  C   UNL     1      -5.367  -4.208 -34.370  1.00  0.00     0.120 C 
HETATM   30  C   UNL     1      -6.280  -4.591 -35.530  1.00  0.00     0.040 C 
HETATM   31  C   UNL     1      -4.422  -5.362 -34.038  1.00  0.00     0.040 C 
ENDBRANCH  28  29
ENDBRANCH  25  28
ENDBRANCH  21  22
ENDBRANCH  18  21
ENDBRANCH   3  17
TORSDOF 5
ENDMDL
