MODEL 1
REMARK VINA RESULT:      -9.0      0.000      0.000
REMARK  3 active torsions:
REMARK  status: ('A' for Active; 'I' for Inactive)
REMARK    1  A    between atoms: C_11  and  N_12 
REMARK       I    between atoms: N_12  and  C_13 
REMARK    2  A    between atoms: C_13  and  C_14 
REMARK    3  A    between atoms: C_15  and  C_16 
ROOT
HETATM    1  N   UNL     1      -5.244   1.445 -32.245  1.00  0.00    -0.352 N 
HETATM    2  C   UNL     1      -6.132   0.379 -32.302  1.00  0.00     0.255 C 
HETATM    3  O   UNL     1      -6.239  -0.429 -31.388  1.00  0.00    -0.268 OA
HETATM    4  H   UNL     1      -5.421   2.178 -32.920  1.00  0.00     0.163 HD
ENDROOT
BRANCH   2   5
HETATM    5  C   UNL     1      -6.905   0.292 -33.531  1.00  0.00     0.080 A 
HETATM    6  C   UNL     1      -6.973  -0.802 -34.455  1.00  0.00     0.107 A 
HETATM    7  N   UNL     1      -7.842  -0.534 -35.446  1.00  0.00    -0.173 NA
HETATM    8  N   UNL     1      -8.310   0.686 -35.176  1.00  0.00    -0.288 N 
HETATM    9  H   UNL     1      -9.005   1.080 -35.804  1.00  0.00     0.188 HD
HETATM   10  C   UNL     1      -7.772   1.237 -34.052  1.00  0.00     0.128 A 
BRANCH   6  11
HETATM   11  C   UNL     1      -6.251  -2.071 -34.443  1.00  0.00     0.034 A 
HETATM   12  C   UNL     1      -4.869  -2.126 -34.232  1.00  0.00     0.129 A 
HETATM   13  F   UNL     1      -4.156  -1.001 -34.060  1.00  0.00    -0.205 F 
HETATM   14  C   UNL     1      -4.189  -3.343 -34.221  1.00  0.00     0.043 A 
HETATM   15  C   UNL     1      -4.887  -4.530 -34.439  1.00  0.00     0.003 A 
HETATM   16  C   UNL     1      -6.260  -4.493 -34.675  1.00  0.00     0.001 A 
HETATM   17  C   UNL     1      -6.939  -3.271 -34.679  1.00  0.00     0.017 A 
ENDBRANCH   6  11
ENDBRANCH   2   5
BRANCH   1  18
HETATM   18  C   UNL     1      -4.502   1.756 -31.034  1.00  0.00     0.089 C 
HETATM   19  C   UNL     1      -5.337   2.570 -30.039  1.00  0.00     0.063 C 
HETATM   20  C   UNL     1      -5.494   4.065 -30.369  1.00  0.00     0.121 C 
HETATM   21  N   UNL     1      -4.155   4.662 -30.736  1.00  0.00    -0.059 N 
HETATM   22  C   UNL     1      -6.520   4.349 -31.472  1.00  0.00     0.046 C 
HETATM   23  C   UNL     1      -5.961   4.813 -29.102  1.00  0.00     0.046 C 
HETATM   24  C   UNL     1      -3.218   3.923 -31.670  1.00  0.00     0.121 C 
HETATM   25  H   UNL     1      -3.638   4.814 -29.857  1.00  0.00     0.279 HD
HETATM   26  H   UNL     1      -4.302   5.613 -31.106  1.00  0.00     0.279 HD
HETATM   27  C   UNL     1      -3.630   4.154 -33.126  1.00  0.00     0.046 C 
HETATM   28  C   UNL     1      -1.832   4.573 -31.475  1.00  0.00     0.046 C 
HETATM   29  C   UNL     1      -3.148   2.449 -31.258  1.00  0.00     0.063 C 
ENDBRANCH   1  18
TORSDOF 3
ENDMDL
MODEL 2
REMARK VINA RESULT:      -8.8      2.328      3.699
REMARK  3 active torsions:
REMARK  status: ('A' for Active; 'I' for Inactive)
REMARK    1  A    between atoms: C_11  and  N_12 
REMARK       I    between atoms: N_12  and  C_13 
REMARK    2  A    between atoms: C_13  and  C_14 
REMARK    3  A    between atoms: C_15  and  C_16 
ROOT
HETATM    1  N   UNL     1      -4.667   3.894 -31.457  1.00  0.00    -0.352 N 
HETATM    2  C   UNL     1      -5.132   2.648 -31.060  1.00  0.00     0.255 C 
HETATM    3  O   UNL     1      -4.374   1.708 -30.847  1.00  0.00    -0.268 OA
HETATM    4  H   UNL     1      -5.337   4.646 -31.352  1.00  0.00     0.163 HD
ENDROOT
BRANCH   2   5
HETATM    5  C   UNL     1      -6.576   2.543 -30.935  1.00  0.00     0.080 A 
HETATM    6  C   UNL     1      -7.471   1.721 -31.695  1.00  0.00     0.107 A 
HETATM    7  N   UNL     1      -8.733   1.854 -31.251  1.00  0.00    -0.173 NA
HETATM    8  N   UNL     1      -8.657   2.731 -30.249  1.00  0.00    -0.288 N 
HETATM    9  H   UNL     1      -9.513   2.966 -29.754  1.00  0.00     0.188 HD
HETATM   10  C   UNL     1      -7.395   3.192 -30.026  1.00  0.00     0.128 A 
BRANCH   6  11
HETATM   11  C   UNL     1      -7.185   0.833 -32.819  1.00  0.00     0.034 A 
HETATM   12  C   UNL     1      -6.590  -0.419 -32.630  1.00  0.00     0.129 A 
HETATM   13  F   UNL     1      -6.236  -0.832 -31.402  1.00  0.00    -0.205 F 
HETATM   14  C   UNL     1      -6.321  -1.261 -33.708  1.00  0.00     0.043 A 
HETATM   15  C   UNL     1      -6.634  -0.849 -35.003  1.00  0.00     0.003 A 
HETATM   16  C   UNL     1      -7.205   0.405 -35.214  1.00  0.00     0.001 A 
HETATM   17  C   UNL     1      -7.478   1.242 -34.128  1.00  0.00     0.017 A 
ENDBRANCH   6  11
ENDBRANCH   2   5
BRANCH   1  18
HETATM   18  C   UNL     1      -3.248   4.205 -31.492  1.00  0.00     0.089 C 
HETATM   19  C   UNL     1      -2.947   5.595 -30.920  1.00  0.00     0.063 C 
HETATM   20  C   UNL     1      -3.264   6.779 -31.849  1.00  0.00     0.121 C 
HETATM   21  N   UNL     1      -2.723   6.515 -33.235  1.00  0.00    -0.059 N 
HETATM   22  C   UNL     1      -4.756   7.125 -31.922  1.00  0.00     0.046 C 
HETATM   23  C   UNL     1      -2.525   8.034 -31.335  1.00  0.00     0.046 C 
HETATM   24  C   UNL     1      -2.911   5.159 -33.884  1.00  0.00     0.121 C 
HETATM   25  H   UNL     1      -1.708   6.690 -33.204  1.00  0.00     0.279 HD
HETATM   26  H   UNL     1      -3.080   7.237 -33.878  1.00  0.00     0.279 HD
HETATM   27  C   UNL     1      -4.310   5.054 -34.498  1.00  0.00     0.046 C 
HETATM   28  C   UNL     1      -1.894   5.103 -35.044  1.00  0.00     0.046 C 
HETATM   29  C   UNL     1      -2.580   4.059 -32.869  1.00  0.00     0.063 C 
ENDBRANCH   1  18
TORSDOF 3
ENDMDL
MODEL 3
REMARK VINA RESULT:      -8.5      3.581      8.387
REMARK  3 active torsions:
REMARK  status: ('A' for Active; 'I' for Inactive)
REMARK    1  A    between atoms: C_11  and  N_12 
REMARK       I    between atoms: N_12  and  C_13 
REMARK    2  A    between atoms: C_13  and  C_14 
REMARK    3  A    between atoms: C_15  and  C_16 
ROOT
HETATM    1  N   UNL     1      -3.821   4.256 -31.893  1.00  0.00    -0.352 N 
HETATM    2  C   UNL     1      -2.484   4.629 -31.929  1.00  0.00     0.255 C 
HETATM    3  O   UNL     1      -1.623   4.028 -31.299  1.00  0.00    -0.268 OA
HETATM    4  H   UNL     1      -4.388   4.646 -32.635  1.00  0.00     0.163 HD
ENDROOT
BRANCH   2   5
HETATM    5  C   UNL     1      -2.196   5.791 -32.754  1.00  0.00     0.080 A 
HETATM    6  C   UNL     1      -1.549   7.010 -32.367  1.00  0.00     0.107 A 
HETATM    7  N   UNL     1      -1.408   7.831 -33.422  1.00  0.00    -0.173 NA
HETATM    8  N   UNL     1      -1.949   7.171 -34.448  1.00  0.00    -0.288 N 
HETATM    9  H   UNL     1      -1.933   7.615 -35.362  1.00  0.00     0.188 HD
HETATM   10  C   UNL     1      -2.453   5.953 -34.105  1.00  0.00     0.128 A 
BRANCH   6  11
HETATM   11  C   UNL     1      -1.072   7.429 -31.051  1.00  0.00     0.034 A 
HETATM   12  C   UNL     1       0.139   6.964 -30.529  1.00  0.00     0.129 A 
HETATM   13  F   UNL     1       0.893   6.090 -31.216  1.00  0.00    -0.205 F 
HETATM   14  C   UNL     1       0.587   7.370 -29.272  1.00  0.00     0.043 A 
HETATM   15  C   UNL     1      -0.188   8.243 -28.509  1.00  0.00     0.003 A 
HETATM   16  C   UNL     1      -1.410   8.698 -29.003  1.00  0.00     0.001 A 
HETATM   17  C   UNL     1      -1.850   8.292 -30.266  1.00  0.00     0.017 A 
ENDBRANCH   6  11
ENDBRANCH   2   5
BRANCH   1  18
HETATM   18  C   UNL     1      -4.255   3.036 -31.232  1.00  0.00     0.089 C 
HETATM   19  C   UNL     1      -4.631   1.938 -32.235  1.00  0.00     0.063 C 
HETATM   20  C   UNL     1      -6.001   2.099 -32.914  1.00  0.00     0.121 C 
HETATM   21  N   UNL     1      -7.058   2.430 -31.886  1.00  0.00    -0.059 N 
HETATM   22  C   UNL     1      -6.014   3.140 -34.039  1.00  0.00     0.046 C 
HETATM   23  C   UNL     1      -6.418   0.748 -33.533  1.00  0.00     0.046 C 
HETATM   24  C   UNL     1      -6.783   3.461 -30.810  1.00  0.00     0.121 C 
HETATM   25  H   UNL     1      -7.297   1.553 -31.401  1.00  0.00     0.279 HD
HETATM   26  H   UNL     1      -7.929   2.691 -32.372  1.00  0.00     0.279 HD
HETATM   27  C   UNL     1      -6.993   4.874 -31.362  1.00  0.00     0.046 C 
HETATM   28  C   UNL     1      -7.852   3.229 -29.721  1.00  0.00     0.046 C 
HETATM   29  C   UNL     1      -5.393   3.214 -30.213  1.00  0.00     0.063 C 
ENDBRANCH   1  18
TORSDOF 3
ENDMDL
MODEL 4
REMARK VINA RESULT:      -8.3      2.338      7.151
REMARK  3 active torsions:
REMARK  status: ('A' for Active; 'I' for Inactive)
REMARK    1  A    between atoms: C_11  and  N_12 
REMARK       I    between atoms: N_12  and  C_13 
REMARK    2  A    between atoms: C_13  and  C_14 
REMARK    3  A    between atoms: C_15  and  C_16 
ROOT
HETATM    1  N   UNL     1      -6.321   2.533 -33.057  1.00  0.00    -0.352 N 
HETATM    2  C   UNL     1      -6.007   3.885 -33.022  1.00  0.00     0.255 C 
HETATM    3  O   UNL     1      -6.164   4.615 -33.993  1.00  0.00    -0.268 OA
HETATM    4  H   UNL     1      -6.398   2.095 -32.148  1.00  0.00     0.163 HD
ENDROOT
BRANCH   2   5
HETATM    5  C   UNL     1      -5.467   4.356 -31.757  1.00  0.00     0.080 A 
HETATM    6  C   UNL     1      -4.259   5.095 -31.533  1.00  0.00     0.107 A 
HETATM    7  N   UNL     1      -4.122   5.401 -30.231  1.00  0.00    -0.173 NA
HETATM    8  N   UNL     1      -5.195   4.874 -29.637  1.00  0.00    -0.288 N 
HETATM    9  H   UNL     1      -5.298   5.006 -28.635  1.00  0.00     0.188 HD
HETATM   10  C   UNL     1      -6.026   4.221 -30.497  1.00  0.00     0.128 A 
BRANCH   6  11
HETATM   11  C   UNL     1      -3.236   5.510 -32.490  1.00  0.00     0.034 A 
HETATM   12  C   UNL     1      -2.498   4.577 -33.225  1.00  0.00     0.129 A 
HETATM   13  F   UNL     1      -2.691   3.259 -33.050  1.00  0.00    -0.205 F 
HETATM   14  C   UNL     1      -1.525   4.983 -34.136  1.00  0.00     0.043 A 
HETATM   15  C   UNL     1      -1.265   6.341 -34.314  1.00  0.00     0.003 A 
HETATM   16  C   UNL     1      -1.974   7.285 -33.573  1.00  0.00     0.001 A 
HETATM   17  C   UNL     1      -2.953   6.873 -32.665  1.00  0.00     0.017 A 
ENDBRANCH   6  11
ENDBRANCH   2   5
BRANCH   1  18
HETATM   18  C   UNL     1      -7.001   1.936 -34.195  1.00  0.00     0.089 C 
HETATM   19  C   UNL     1      -8.523   1.918 -34.014  1.00  0.00     0.063 C 
HETATM   20  C   UNL     1      -9.067   0.829 -33.073  1.00  0.00     0.121 C 
HETATM   21  N   UNL     1      -8.435  -0.505 -33.396  1.00  0.00    -0.059 N 
HETATM   22  C   UNL     1      -8.888   1.152 -31.586  1.00  0.00     0.046 C 
HETATM   23  C   UNL     1     -10.580   0.656 -33.327  1.00  0.00     0.046 C 
HETATM   24  C   UNL     1      -6.944  -0.603 -33.649  1.00  0.00     0.121 C 
HETATM   25  H   UNL     1      -8.903  -0.867 -34.240  1.00  0.00     0.279 HD
HETATM   26  H   UNL     1      -8.687  -1.182 -32.661  1.00  0.00     0.279 HD
HETATM   27  C   UNL     1      -6.183  -0.655 -32.322  1.00  0.00     0.046 C 
HETATM   28  C   UNL     1      -6.726  -1.957 -34.358  1.00  0.00     0.046 C 
HETATM   29  C   UNL     1      -6.511   0.531 -34.584  1.00  0.00     0.063 C 
ENDBRANCH   1  18
TORSDOF 3
ENDMDL
MODEL 5
REMARK VINA RESULT:      -8.3      2.467      3.942
REMARK  3 active torsions:
REMARK  status: ('A' for Active; 'I' for Inactive)
REMARK    1  A    between atoms: C_11  and  N_12 
REMARK       I    between atoms: N_12  and  C_13 
REMARK    2  A    between atoms: C_13  and  C_14 
REMARK    3  A    between atoms: C_15  and  C_16 
ROOT
HETATM    1  N   UNL     1      -5.527   3.955 -32.019  1.00  0.00    -0.352 N 
HETATM    2  C   UNL     1      -6.094   2.740 -32.382  1.00  0.00     0.255 C 
HETATM    3  O   UNL     1      -6.471   2.515 -33.526  1.00  0.00    -0.268 OA
HETATM    4  H   UNL     1      -5.025   3.939 -31.140  1.00  0.00     0.163 HD
ENDROOT
BRANCH   2   5
HETATM    5  C   UNL     1      -6.217   1.775 -31.303  1.00  0.00     0.080 A 
HETATM    6  C   UNL     1      -6.169   0.345 -31.387  1.00  0.00     0.107 A 
HETATM    7  N   UNL     1      -6.264  -0.208 -30.165  1.00  0.00    -0.173 NA
HETATM    8  N   UNL     1      -6.375   0.824 -29.326  1.00  0.00    -0.288 N 
HETATM    9  H   UNL     1      -6.444   0.625 -28.332  1.00  0.00     0.188 HD
HETATM   10  C   UNL     1      -6.372   2.035 -29.951  1.00  0.00     0.128 A 
BRANCH   6  11
HETATM   11  C   UNL     1      -6.048  -0.510 -32.565  1.00  0.00     0.034 A 
HETATM   12  C   UNL     1      -7.151  -0.803 -33.374  1.00  0.00     0.129 A 
HETATM   13  F   UNL     1      -8.369  -0.324 -33.073  1.00  0.00    -0.205 F 
HETATM   14  C   UNL     1      -7.025  -1.619 -34.497  1.00  0.00     0.043 A 
HETATM   15  C   UNL     1      -5.786  -2.170 -34.819  1.00  0.00     0.003 A 
HETATM   16  C   UNL     1      -4.680  -1.909 -34.010  1.00  0.00     0.001 A 
HETATM   17  C   UNL     1      -4.811  -1.086 -32.889  1.00  0.00     0.017 A 
ENDBRANCH   6  11
ENDBRANCH   2   5
BRANCH   1  18
HETATM   18  C   UNL     1      -5.203   4.972 -33.006  1.00  0.00     0.089 C 
HETATM   19  C   UNL     1      -3.822   4.748 -33.634  1.00  0.00     0.063 C 
HETATM   20  C   UNL     1      -2.622   5.159 -32.764  1.00  0.00     0.121 C 
HETATM   21  N   UNL     1      -2.852   6.530 -32.171  1.00  0.00    -0.059 N 
HETATM   22  C   UNL     1      -2.288   4.154 -31.657  1.00  0.00     0.046 C 
HETATM   23  C   UNL     1      -1.372   5.288 -33.661  1.00  0.00     0.046 C 
HETATM   24  C   UNL     1      -4.196   6.887 -31.569  1.00  0.00     0.121 C 
HETATM   25  H   UNL     1      -2.668   7.219 -32.915  1.00  0.00     0.279 HD
HETATM   26  H   UNL     1      -2.120   6.720 -31.471  1.00  0.00     0.279 HD
HETATM   27  C   UNL     1      -4.300   6.341 -30.142  1.00  0.00     0.046 C 
HETATM   28  C   UNL     1      -4.218   8.428 -31.474  1.00  0.00     0.046 C 
HETATM   29  C   UNL     1      -5.313   6.423 -32.509  1.00  0.00     0.063 C 
ENDBRANCH   1  18
TORSDOF 3
ENDMDL
MODEL 6
REMARK VINA RESULT:      -8.1      3.409      5.740
REMARK  3 active torsions:
REMARK  status: ('A' for Active; 'I' for Inactive)
REMARK    1  A    between atoms: C_11  and  N_12 
REMARK       I    between atoms: N_12  and  C_13 
REMARK    2  A    between atoms: C_13  and  C_14 
REMARK    3  A    between atoms: C_15  and  C_16 
ROOT
HETATM    1  N   UNL     1      -8.719   3.076 -32.680  1.00  0.00    -0.352 N 
HETATM    2  C   UNL     1      -7.379   2.711 -32.667  1.00  0.00     0.255 C 
HETATM    3  O   UNL     1      -6.618   2.995 -33.585  1.00  0.00    -0.268 OA
HETATM    4  H   UNL     1      -9.179   3.022 -31.780  1.00  0.00     0.163 HD
ENDROOT
BRANCH   2   5
HETATM    5  C   UNL     1      -6.962   1.956 -31.497  1.00  0.00     0.080 A 
HETATM    6  C   UNL     1      -6.422   0.629 -31.449  1.00  0.00     0.107 A 
HETATM    7  N   UNL     1      -6.100   0.292 -30.188  1.00  0.00    -0.173 NA
HETATM    8  N   UNL     1      -6.425   1.355 -29.451  1.00  0.00    -0.288 N 
HETATM    9  H   UNL     1      -6.245   1.316 -28.452  1.00  0.00     0.188 HD
HETATM   10  C   UNL     1      -6.962   2.375 -30.177  1.00  0.00     0.128 A 
BRANCH   6  11
HETATM   11  C   UNL     1      -6.209  -0.325 -32.535  1.00  0.00     0.034 A 
HETATM   12  C   UNL     1      -7.272  -0.806 -33.305  1.00  0.00     0.129 A 
HETATM   13  F   UNL     1      -8.534  -0.424 -33.049  1.00  0.00    -0.205 F 
HETATM   14  C   UNL     1      -7.060  -1.716 -34.340  1.00  0.00     0.043 A 
HETATM   15  C   UNL     1      -5.770  -2.171 -34.609  1.00  0.00     0.003 A 
HETATM   16  C   UNL     1      -4.700  -1.720 -33.836  1.00  0.00     0.001 A 
HETATM   17  C   UNL     1      -4.919  -0.804 -32.804  1.00  0.00     0.017 A 
ENDBRANCH   6  11
ENDBRANCH   2   5
BRANCH   1  18
HETATM   18  C   UNL     1      -9.262   3.953 -33.705  1.00  0.00     0.089 C 
HETATM   19  C   UNL     1     -10.037   5.132 -33.105  1.00  0.00     0.063 C 
HETATM   20  C   UNL     1     -11.448   4.805 -32.588  1.00  0.00     0.121 C 
HETATM   21  N   UNL     1     -12.201   3.983 -33.608  1.00  0.00    -0.059 N 
HETATM   22  C   UNL     1     -11.459   4.098 -31.228  1.00  0.00     0.046 C 
HETATM   23  C   UNL     1     -12.242   6.119 -32.430  1.00  0.00     0.046 C 
HETATM   24  C   UNL     1     -11.522   2.823 -34.309  1.00  0.00     0.121 C 
HETATM   25  H   UNL     1     -12.519   4.629 -34.345  1.00  0.00     0.279 HD
HETATM   26  H   UNL     1     -13.076   3.640 -33.183  1.00  0.00     0.279 HD
HETATM   27  C   UNL     1     -11.537   1.581 -33.415  1.00  0.00     0.046 C 
HETATM   28  C   UNL     1     -12.391   2.512 -35.545  1.00  0.00     0.046 C 
HETATM   29  C   UNL     1     -10.126   3.256 -34.769  1.00  0.00     0.063 C 
ENDBRANCH   1  18
TORSDOF 3
ENDMDL
MODEL 7
REMARK VINA RESULT:      -8.1      2.608      3.913
REMARK  3 active torsions:
REMARK  status: ('A' for Active; 'I' for Inactive)
REMARK    1  A    between atoms: C_11  and  N_12 
REMARK       I    between atoms: N_12  and  C_13 
REMARK    2  A    between atoms: C_13  and  C_14 
REMARK    3  A    between atoms: C_15  and  C_16 
ROOT
HETATM    1  N   UNL     1      -3.547   2.642 -32.217  1.00  0.00    -0.352 N 
HETATM    2  C   UNL     1      -4.215   1.555 -31.670  1.00  0.00     0.255 C 
HETATM    3  O   UNL     1      -4.619   1.553 -30.513  1.00  0.00    -0.268 OA
HETATM    4  H   UNL     1      -3.493   2.639 -33.227  1.00  0.00     0.163 HD
ENDROOT
BRANCH   2   5
HETATM    5  C   UNL     1      -4.377   0.422 -32.567  1.00  0.00     0.080 A 
HETATM    6  C   UNL     1      -5.566  -0.002 -33.247  1.00  0.00     0.107 A 
HETATM    7  N   UNL     1      -5.311  -1.060 -34.037  1.00  0.00    -0.173 NA
HETATM    8  N   UNL     1      -4.012  -1.312 -33.868  1.00  0.00    -0.288 N 
HETATM    9  H   UNL     1      -3.602  -2.078 -34.396  1.00  0.00     0.188 HD
HETATM   10  C   UNL     1      -3.405  -0.470 -32.986  1.00  0.00     0.128 A 
BRANCH   6  11
HETATM   11  C   UNL     1      -6.920   0.541 -33.173  1.00  0.00     0.034 A 
HETATM   12  C   UNL     1      -7.684   0.448 -32.005  1.00  0.00     0.129 A 
HETATM   13  F   UNL     1      -7.201  -0.175 -30.917  1.00  0.00    -0.205 F 
HETATM   14  C   UNL     1      -8.975   0.970 -31.943  1.00  0.00     0.043 A 
HETATM   15  C   UNL     1      -9.528   1.586 -33.065  1.00  0.00     0.003 A 
HETATM   16  C   UNL     1      -8.790   1.668 -34.246  1.00  0.00     0.001 A 
HETATM   17  C   UNL     1      -7.494   1.147 -34.300  1.00  0.00     0.017 A 
ENDBRANCH   6  11
ENDBRANCH   2   5
BRANCH   1  18
HETATM   18  C   UNL     1      -3.427   3.903 -31.502  1.00  0.00     0.089 C 
HETATM   19  C   UNL     1      -4.726   4.716 -31.544  1.00  0.00     0.063 C 
HETATM   20  C   UNL     1      -5.007   5.452 -32.866  1.00  0.00     0.121 C 
HETATM   21  N   UNL     1      -3.767   6.181 -33.331  1.00  0.00    -0.059 N 
HETATM   22  C   UNL     1      -5.534   4.541 -33.980  1.00  0.00     0.046 C 
HETATM   23  C   UNL     1      -6.073   6.541 -32.618  1.00  0.00     0.046 C 
HETATM   24  C   UNL     1      -2.415   5.498 -33.286  1.00  0.00     0.121 C 
HETATM   25  H   UNL     1      -3.686   7.037 -32.763  1.00  0.00     0.279 HD
HETATM   26  H   UNL     1      -3.923   6.531 -34.288  1.00  0.00     0.279 HD
HETATM   27  C   UNL     1      -2.240   4.587 -34.504  1.00  0.00     0.046 C 
HETATM   28  C   UNL     1      -1.369   6.626 -33.400  1.00  0.00     0.046 C 
HETATM   29  C   UNL     1      -2.249   4.790 -31.936  1.00  0.00     0.063 C 
ENDBRANCH   1  18
TORSDOF 3
ENDMDL
MODEL 8
REMARK VINA RESULT:      -7.9      3.445      7.676
REMARK  3 active torsions:
REMARK  status: ('A' for Active; 'I' for Inactive)
REMARK    1  A    between atoms: C_11  and  N_12 
REMARK       I    between atoms: N_12  and  C_13 
REMARK    2  A    between atoms: C_13  and  C_14 
REMARK    3  A    between atoms: C_15  and  C_16 
ROOT
HETATM    1  N   UNL     1      -4.002   2.784 -32.121  1.00  0.00    -0.352 N 
HETATM    2  C   UNL     1      -4.044   4.165 -31.979  1.00  0.00     0.255 C 
HETATM    3  O   UNL     1      -4.504   4.703 -30.979  1.00  0.00    -0.268 OA
HETATM    4  H   UNL     1      -3.380   2.454 -32.848  1.00  0.00     0.163 HD
ENDROOT
BRANCH   2   5
HETATM    5  C   UNL     1      -3.519   4.912 -33.110  1.00  0.00     0.080 A 
HETATM    6  C   UNL     1      -2.349   5.739 -33.156  1.00  0.00     0.107 A 
HETATM    7  N   UNL     1      -2.154   6.220 -34.397  1.00  0.00    -0.173 NA
HETATM    8  N   UNL     1      -3.162   5.729 -35.120  1.00  0.00    -0.288 N 
HETATM    9  H   UNL     1      -3.196   5.962 -36.109  1.00  0.00     0.188 HD
HETATM   10  C   UNL     1      -4.020   4.954 -34.401  1.00  0.00     0.128 A 
BRANCH   6  11
HETATM   11  C   UNL     1      -1.424   6.097 -32.083  1.00  0.00     0.034 A 
HETATM   12  C   UNL     1      -1.604   7.252 -31.316  1.00  0.00     0.129 A 
HETATM   13  F   UNL     1      -2.625   8.088 -31.563  1.00  0.00    -0.205 F 
HETATM   14  C   UNL     1      -0.717   7.584 -30.293  1.00  0.00     0.043 A 
HETATM   15  C   UNL     1       0.380   6.763 -30.034  1.00  0.00     0.003 A 
HETATM   16  C   UNL     1       0.589   5.620 -30.804  1.00  0.00     0.001 A 
HETATM   17  C   UNL     1      -0.307   5.290 -31.825  1.00  0.00     0.017 A 
ENDBRANCH   6  11
ENDBRANCH   2   5
BRANCH   1  18
HETATM   18  C   UNL     1      -4.354   1.893 -31.027  1.00  0.00     0.089 C 
HETATM   19  C   UNL     1      -3.538   0.596 -31.054  1.00  0.00     0.063 C 
HETATM   20  C   UNL     1      -3.982  -0.447 -32.093  1.00  0.00     0.121 C 
HETATM   21  N   UNL     1      -5.483  -0.624 -32.049  1.00  0.00    -0.059 N 
HETATM   22  C   UNL     1      -3.530  -0.127 -33.522  1.00  0.00     0.046 C 
HETATM   23  C   UNL     1      -3.382  -1.819 -31.717  1.00  0.00     0.046 C 
HETATM   24  C   UNL     1      -6.393   0.585 -31.967  1.00  0.00     0.121 C 
HETATM   25  H   UNL     1      -5.696  -1.211 -31.230  1.00  0.00     0.279 HD
HETATM   26  H   UNL     1      -5.777  -1.200 -32.852  1.00  0.00     0.279 HD
HETATM   27  C   UNL     1      -6.586   1.199 -33.356  1.00  0.00     0.046 C 
HETATM   28  C   UNL     1      -7.764   0.049 -31.505  1.00  0.00     0.046 C 
HETATM   29  C   UNL     1      -5.851   1.559 -30.915  1.00  0.00     0.063 C 
ENDBRANCH   1  18
TORSDOF 3
ENDMDL
MODEL 9
REMARK VINA RESULT:      -7.9     15.071     17.914
REMARK  3 active torsions:
REMARK  status: ('A' for Active; 'I' for Inactive)
REMARK    1  A    between atoms: C_11  and  N_12 
REMARK       I    between atoms: N_12  and  C_13 
REMARK    2  A    between atoms: C_13  and  C_14 
REMARK    3  A    between atoms: C_15  and  C_16 
ROOT
HETATM    1  N   UNL     1      -4.675 -13.856 -40.393  1.00  0.00    -0.352 N 
HETATM    2  C   UNL     1      -5.424 -12.790 -39.914  1.00  0.00     0.255 C 
HETATM    3  O   UNL     1      -5.635 -11.788 -40.587  1.00  0.00    -0.268 OA
HETATM    4  H   UNL     1      -4.782 -14.715 -39.869  1.00  0.00     0.163 HD
ENDROOT
BRANCH   2   5
HETATM    5  C   UNL     1      -5.919 -12.950 -38.557  1.00  0.00     0.080 A 
HETATM    6  C   UNL     1      -7.266 -13.194 -38.131  1.00  0.00     0.107 A 
HETATM    7  N   UNL     1      -7.324 -13.342 -36.796  1.00  0.00    -0.173 NA
HETATM    8  N   UNL     1      -6.067 -13.192 -36.376  1.00  0.00    -0.288 N 
HETATM    9  H   UNL     1      -5.882 -13.284 -35.381  1.00  0.00     0.188 HD
HETATM   10  C   UNL     1      -5.184 -12.938 -37.383  1.00  0.00     0.128 A 
BRANCH   6  11
HETATM   11  C   UNL     1      -8.488 -13.283 -38.927  1.00  0.00     0.034 A 
HETATM   12  C   UNL     1      -9.106 -14.511 -39.185  1.00  0.00     0.129 A 
HETATM   13  F   UNL     1      -8.574 -15.657 -38.729  1.00  0.00    -0.205 F 
HETATM   14  C   UNL     1     -10.272 -14.586 -39.945  1.00  0.00     0.043 A 
HETATM   15  C   UNL     1     -10.832 -13.423 -40.473  1.00  0.00     0.003 A 
HETATM   16  C   UNL     1     -10.217 -12.192 -40.245  1.00  0.00     0.001 A 
HETATM   17  C   UNL     1      -9.050 -12.123 -39.478  1.00  0.00     0.017 A 
ENDBRANCH   6  11
ENDBRANCH   2   5
BRANCH   1  18
HETATM   18  C   UNL     1      -4.228 -13.916 -41.775  1.00  0.00     0.089 C 
HETATM   19  C   UNL     1      -5.322 -14.440 -42.713  1.00  0.00     0.063 C 
HETATM   20  C   UNL     1      -5.548 -15.961 -42.684  1.00  0.00     0.121 C 
HETATM   21  N   UNL     1      -4.225 -16.689 -42.756  1.00  0.00    -0.059 N 
HETATM   22  C   UNL     1      -6.350 -16.443 -41.469  1.00  0.00     0.046 C 
HETATM   23  C   UNL     1      -6.332 -16.377 -43.947  1.00  0.00     0.046 C 
HETATM   24  C   UNL     1      -3.052 -16.228 -41.915  1.00  0.00     0.121 C 
HETATM   25  H   UNL     1      -3.915 -16.659 -43.739  1.00  0.00     0.279 HD
HETATM   26  H   UNL     1      -4.383 -17.691 -42.575  1.00  0.00     0.279 HD
HETATM   27  C   UNL     1      -3.178 -16.767 -40.488  1.00  0.00     0.046 C 
HETATM   28  C   UNL     1      -1.802 -16.879 -42.544  1.00  0.00     0.046 C 
HETATM   29  C   UNL     1      -2.928 -14.703 -42.008  1.00  0.00     0.063 C 
ENDBRANCH   1  18
TORSDOF 3
ENDMDL
MODEL 10
REMARK VINA RESULT:      -7.9      3.881      7.518
REMARK  3 active torsions:
REMARK  status: ('A' for Active; 'I' for Inactive)
REMARK    1  A    between atoms: C_11  and  N_12 
REMARK       I    between atoms: N_12  and  C_13 
REMARK    2  A    between atoms: C_13  and  C_14 
REMARK    3  A    between atoms: C_15  and  C_16 
ROOT
HETATM    1  N   UNL     1      -5.181   3.916 -31.696  1.00  0.00    -0.352 N 
HETATM    2  C   UNL     1      -4.746   5.210 -31.948  1.00  0.00     0.255 C 
HETATM    3  O   UNL     1      -4.967   6.134 -31.175  1.00  0.00    -0.268 OA
HETATM    4  H   UNL     1      -4.729   3.203 -32.254  1.00  0.00     0.163 HD
ENDROOT
BRANCH   2   5
HETATM    5  C   UNL     1      -4.029   5.381 -33.201  1.00  0.00     0.080 A 
HETATM    6  C   UNL     1      -2.658   5.754 -33.391  1.00  0.00     0.107 A 
HETATM    7  N   UNL     1      -2.340   5.753 -34.697  1.00  0.00    -0.173 NA
HETATM    8  N   UNL     1      -3.462   5.401 -35.326  1.00  0.00    -0.288 N 
HETATM    9  H   UNL     1      -3.437   5.323 -36.339  1.00  0.00     0.188 HD
HETATM   10  C   UNL     1      -4.511   5.183 -34.484  1.00  0.00     0.128 A 
BRANCH   6  11
HETATM   11  C   UNL     1      -1.650   6.116 -32.397  1.00  0.00     0.034 A 
HETATM   12  C   UNL     1      -1.647   7.372 -31.782  1.00  0.00     0.129 A 
HETATM   13  F   UNL     1      -2.560   8.300 -32.110  1.00  0.00    -0.205 F 
HETATM   14  C   UNL     1      -0.682   7.708 -30.833  1.00  0.00     0.043 A 
HETATM   15  C   UNL     1       0.310   6.787 -30.496  1.00  0.00     0.003 A 
HETATM   16  C   UNL     1       0.336   5.539 -31.117  1.00  0.00     0.001 A 
HETATM   17  C   UNL     1      -0.637   5.205 -32.063  1.00  0.00     0.017 A 
ENDBRANCH   6  11
ENDBRANCH   2   5
BRANCH   1  18
HETATM   18  C   UNL     1      -5.786   3.548 -30.426  1.00  0.00     0.089 C 
HETATM   19  C   UNL     1      -5.588   2.063 -30.101  1.00  0.00     0.063 C 
HETATM   20  C   UNL     1      -6.505   1.089 -30.861  1.00  0.00     0.121 C 
HETATM   21  N   UNL     1      -7.934   1.578 -30.821  1.00  0.00    -0.059 N 
HETATM   22  C   UNL     1      -6.072   0.836 -32.309  1.00  0.00     0.046 C 
HETATM   23  C   UNL     1      -6.502  -0.274 -30.134  1.00  0.00     0.046 C 
HETATM   24  C   UNL     1      -8.250   3.039 -31.074  1.00  0.00     0.121 C 
HETATM   25  H   UNL     1      -8.309   1.351 -29.889  1.00  0.00     0.279 HD
HETATM   26  H   UNL     1      -8.502   1.006 -31.464  1.00  0.00     0.279 HD
HETATM   27  C   UNL     1      -8.278   3.324 -32.577  1.00  0.00     0.046 C 
HETATM   28  C   UNL     1      -9.680   3.259 -30.537  1.00  0.00     0.046 C 
HETATM   29  C   UNL     1      -7.273   3.914 -30.281  1.00  0.00     0.063 C 
ENDBRANCH   1  18
TORSDOF 3
ENDMDL
