MODEL 1
REMARK VINA RESULT:      -8.8      0.000      0.000
REMARK  10 active torsions:
REMARK  status: ('A' for Active; 'I' for Inactive)
REMARK    1  A    between atoms: C_4  and  C_5 
REMARK    2  A    between atoms: C_8  and  N_9 
REMARK    3  A    between atoms: C_15  and  C_16 
REMARK    4  A    between atoms: C_19  and  C_20 
REMARK    5  A    between atoms: C_20  and  N_21 
REMARK    6  A    between atoms: N_21  and  C_22 
REMARK    7  A    between atoms: C_22  and  N_23 
REMARK    8  A    between atoms: N_23  and  C_24 
REMARK    9  A    between atoms: C_26  and  C_27 
REMARK   10  A    between atoms: C_27  and  O_28 
ROOT
HETATM    1  C   UNL     1     -11.737   3.309 -34.032  1.00  0.00     0.067 C 
HETATM    2  C   UNL     1     -11.494   3.986 -35.393  1.00  0.00     0.001 C 
HETATM    3  C   UNL     1     -10.337   5.004 -35.320  1.00  0.00     0.040 C 
HETATM    4  C   UNL     1     -10.658   6.168 -34.372  1.00  0.00     0.206 C 
HETATM    5  N   UNL     1     -11.896   5.764 -33.580  1.00  0.00    -0.065 N 
HETATM    6  H   UNL     1     -12.070   6.457 -32.839  1.00  0.00     0.280 HD
HETATM    7  C   UNL     1     -11.730   4.390 -32.925  1.00  0.00     0.246 C 
HETATM    8  C   UNL     1     -12.770   4.815 -35.699  1.00  0.00     0.033 C 
HETATM    9  C   UNL     1     -13.098   5.743 -34.518  1.00  0.00     0.236 C 
ENDROOT
BRANCH   4  10
HETATM   10  C   UNL     1      -9.472   6.581 -33.473  1.00  0.00     0.155 C 
BRANCH  10  11
HETATM   11  N   UNL     1      -8.239   5.884 -33.831  1.00  0.00    -0.365 N 
HETATM   12  H   UNL     1      -7.635   6.322 -34.522  1.00  0.00     0.161 HD
BRANCH  11  13
HETATM   13  C   UNL     1      -7.546   5.009 -33.036  1.00  0.00     0.172 C 
HETATM   14  S   UNL     1      -7.762   4.831 -31.393  1.00  0.00    -0.041 SA
BRANCH  13  15
HETATM   15  N   UNL     1      -6.568   4.277 -33.657  1.00  0.00    -0.333 N 
HETATM   16  H   UNL     1      -6.890   3.793 -34.492  1.00  0.00     0.168 HD
BRANCH  15  17
HETATM   17  C   UNL     1      -5.180   4.205 -33.406  1.00  0.00     0.035 A 
HETATM   18  C   UNL     1      -4.238   4.967 -34.101  1.00  0.00     0.047 A 
HETATM   19  C   UNL     1      -2.868   4.869 -33.811  1.00  0.00     0.041 A 
HETATM   20  C   UNL     1      -2.436   3.969 -32.833  1.00  0.00     0.018 A 
HETATM   21  C   UNL     1      -3.369   3.170 -32.167  1.00  0.00     0.003 A 
HETATM   22  C   UNL     1      -4.731   3.283 -32.458  1.00  0.00     0.029 A 
BRANCH  19  23
HETATM   23  C   UNL     1      -1.940   5.748 -34.573  1.00  0.00     0.293 C 
HETATM   24  O   UNL     1      -1.137   5.319 -35.389  1.00  0.00    -0.259 OA
BRANCH  23  25
HETATM   25  O   UNL     1      -2.158   7.050 -34.276  1.00  0.00    -0.323 OA
HETATM   26  C   UNL     1      -1.517   7.498 -33.079  1.00  0.00     0.213 C 
ENDBRANCH  23  25
ENDBRANCH  19  23
ENDBRANCH  15  17
ENDBRANCH  13  15
ENDBRANCH  11  13
ENDBRANCH  10  11
ENDBRANCH   4  10
BRANCH   1  27
HETATM   27  C   UNL     1     -10.969   2.089 -33.610  1.00  0.00     0.038 C 
HETATM   28  N   UNL     1     -11.333   0.767 -33.486  1.00  0.00    -0.277 N 
HETATM   29  C   UNL     1     -12.624   0.121 -33.543  1.00  0.00     0.179 C 
HETATM   30  N   UNL     1     -10.281  -0.051 -33.298  1.00  0.00    -0.172 NA
HETATM   31  C   UNL     1      -9.230   0.749 -33.096  1.00  0.00     0.089 C 
HETATM   32  C   UNL     1      -9.621   2.094 -33.267  1.00  0.00     0.061 C 
BRANCH  31  33
HETATM   33  C   UNL     1      -7.889   0.241 -32.815  1.00  0.00    -0.005 A 
HETATM   34  C   UNL     1      -7.147  -0.404 -33.805  1.00  0.00     0.016 A 
HETATM   35  C   UNL     1      -5.827  -0.815 -33.557  1.00  0.00     0.030 A 
HETATM   36  C   UNL     1      -5.203  -0.622 -32.313  1.00  0.00     0.029 A 
HETATM   37  C   UNL     1      -5.981   0.009 -31.326  1.00  0.00     0.030 A 
HETATM   38  C   UNL     1      -7.296   0.433 -31.566  1.00  0.00     0.016 A 
BRANCH  36  39
HETATM   39  N   UNL     1      -3.874  -0.981 -32.070  1.00  0.00    -0.390 N 
HETATM   40  C   UNL     1      -3.472  -2.381 -32.184  1.00  0.00     0.149 C 
HETATM   41  C   UNL     1      -3.120  -0.190 -31.096  1.00  0.00     0.149 C 
ENDBRANCH  36  39
ENDBRANCH  31  33
ENDBRANCH   1  27
TORSDOF 10
ENDMDL
MODEL 2
REMARK VINA RESULT:      -8.6      5.873     10.680
REMARK  10 active torsions:
REMARK  status: ('A' for Active; 'I' for Inactive)
REMARK    1  A    between atoms: C_4  and  C_5 
REMARK    2  A    between atoms: C_8  and  N_9 
REMARK    3  A    between atoms: C_15  and  C_16 
REMARK    4  A    between atoms: C_19  and  C_20 
REMARK    5  A    between atoms: C_20  and  N_21 
REMARK    6  A    between atoms: N_21  and  C_22 
REMARK    7  A    between atoms: C_22  and  N_23 
REMARK    8  A    between atoms: N_23  and  C_24 
REMARK    9  A    between atoms: C_26  and  C_27 
REMARK   10  A    between atoms: C_27  and  O_28 
ROOT
HETATM    1  C   UNL     1      -1.317   6.690 -31.806  1.00  0.00     0.067 C 
HETATM    2  C   UNL     1      -2.421   7.147 -32.777  1.00  0.00     0.001 C 
HETATM    3  C   UNL     1      -3.676   6.256 -32.666  1.00  0.00     0.040 C 
HETATM    4  C   UNL     1      -3.386   4.806 -33.079  1.00  0.00     0.206 C 
HETATM    5  N   UNL     1      -1.871   4.665 -33.165  1.00  0.00    -0.065 N 
HETATM    6  H   UNL     1      -1.626   3.676 -33.309  1.00  0.00     0.280 HD
HETATM    7  C   UNL     1      -1.180   5.151 -31.889  1.00  0.00     0.246 C 
HETATM    8  C   UNL     1      -1.862   6.916 -34.207  1.00  0.00     0.033 C 
HETATM    9  C   UNL     1      -1.367   5.469 -34.360  1.00  0.00     0.236 C 
ENDROOT
BRANCH   4  10
HETATM   10  C   UNL     1      -4.040   3.755 -32.154  1.00  0.00     0.155 C 
BRANCH  10  11
HETATM   11  N   UNL     1      -3.346   2.471 -32.202  1.00  0.00    -0.365 N 
HETATM   12  H   UNL     1      -2.333   2.479 -32.113  1.00  0.00     0.161 HD
BRANCH  11  13
HETATM   13  C   UNL     1      -3.873   1.254 -31.851  1.00  0.00     0.172 C 
HETATM   14  S   UNL     1      -3.004  -0.017 -31.214  1.00  0.00    -0.041 SA
BRANCH  13  15
HETATM   15  N   UNL     1      -5.207   1.080 -32.107  1.00  0.00    -0.333 N 
HETATM   16  H   UNL     1      -5.814   1.615 -31.489  1.00  0.00     0.168 HD
BRANCH  15  17
HETATM   17  C   UNL     1      -5.856   0.401 -33.162  1.00  0.00     0.035 A 
HETATM   18  C   UNL     1      -5.702  -0.967 -33.398  1.00  0.00     0.047 A 
HETATM   19  C   UNL     1      -6.374  -1.602 -34.454  1.00  0.00     0.041 A 
HETATM   20  C   UNL     1      -7.185  -0.846 -35.304  1.00  0.00     0.018 A 
HETATM   21  C   UNL     1      -7.306   0.531 -35.103  1.00  0.00     0.003 A 
HETATM   22  C   UNL     1      -6.638   1.151 -34.043  1.00  0.00     0.029 A 
BRANCH  19  23
HETATM   23  C   UNL     1      -6.184  -3.070 -34.605  1.00  0.00     0.293 C 
HETATM   24  O   UNL     1      -7.114  -3.866 -34.590  1.00  0.00    -0.259 OA
BRANCH  23  25
HETATM   25  O   UNL     1      -4.881  -3.369 -34.813  1.00  0.00    -0.323 OA
HETATM   26  C   UNL     1      -4.461  -4.610 -34.240  1.00  0.00     0.213 C 
ENDBRANCH  23  25
ENDBRANCH  19  23
ENDBRANCH  15  17
ENDBRANCH  13  15
ENDBRANCH  11  13
ENDBRANCH  10  11
ENDBRANCH   4  10
BRANCH   1  27
HETATM   27  C   UNL     1      -1.273   7.168 -30.382  1.00  0.00     0.038 C 
HETATM   28  N   UNL     1      -2.196   7.112 -29.362  1.00  0.00    -0.277 N 
HETATM   29  C   UNL     1      -3.590   6.738 -29.354  1.00  0.00     0.179 C 
HETATM   30  N   UNL     1      -1.677   7.451 -28.167  1.00  0.00    -0.172 NA
HETATM   31  C   UNL     1      -0.455   7.928 -28.423  1.00  0.00     0.089 C 
HETATM   32  C   UNL     1      -0.171   7.783 -29.799  1.00  0.00     0.061 C 
BRANCH  31  33
HETATM   33  C   UNL     1       0.430   8.443 -27.382  1.00  0.00    -0.005 A 
HETATM   34  C   UNL     1       0.413   9.793 -27.032  1.00  0.00     0.016 A 
HETATM   35  C   UNL     1       1.203  10.269 -25.972  1.00  0.00     0.030 A 
HETATM   36  C   UNL     1       2.055   9.427 -25.236  1.00  0.00     0.029 A 
HETATM   37  C   UNL     1       2.071   8.076 -25.625  1.00  0.00     0.030 A 
HETATM   38  C   UNL     1       1.278   7.588 -26.674  1.00  0.00     0.016 A 
BRANCH  36  39
HETATM   39  N   UNL     1       2.807   9.878 -24.147  1.00  0.00    -0.390 N 
HETATM   40  C   UNL     1       4.233   9.563 -24.075  1.00  0.00     0.149 C 
HETATM   41  C   UNL     1       2.129  10.011 -22.857  1.00  0.00     0.149 C 
ENDBRANCH  36  39
ENDBRANCH  31  33
ENDBRANCH   1  27
TORSDOF 10
ENDMDL
MODEL 3
REMARK VINA RESULT:      -8.6      4.412      8.800
REMARK  10 active torsions:
REMARK  status: ('A' for Active; 'I' for Inactive)
REMARK    1  A    between atoms: C_4  and  C_5 
REMARK    2  A    between atoms: C_8  and  N_9 
REMARK    3  A    between atoms: C_15  and  C_16 
REMARK    4  A    between atoms: C_19  and  C_20 
REMARK    5  A    between atoms: C_20  and  N_21 
REMARK    6  A    between atoms: N_21  and  C_22 
REMARK    7  A    between atoms: C_22  and  N_23 
REMARK    8  A    between atoms: N_23  and  C_24 
REMARK    9  A    between atoms: C_26  and  C_27 
REMARK   10  A    between atoms: C_27  and  O_28 
ROOT
HETATM    1  C   UNL     1      -3.571   4.914 -32.926  1.00  0.00     0.067 C 
HETATM    2  C   UNL     1      -4.973   5.544 -33.016  1.00  0.00     0.001 C 
HETATM    3  C   UNL     1      -5.806   5.254 -31.751  1.00  0.00     0.040 C 
HETATM    4  C   UNL     1      -6.077   3.753 -31.575  1.00  0.00     0.206 C 
HETATM    5  N   UNL     1      -5.163   3.022 -32.552  1.00  0.00    -0.065 N 
HETATM    6  H   UNL     1      -5.214   2.009 -32.376  1.00  0.00     0.280 HD
HETATM    7  C   UNL     1      -3.705   3.463 -32.407  1.00  0.00     0.246 C 
HETATM    8  C   UNL     1      -5.700   4.816 -34.178  1.00  0.00     0.033 C 
HETATM    9  C   UNL     1      -5.642   3.293 -33.974  1.00  0.00     0.236 C 
ENDROOT
BRANCH   4  10
HETATM   10  C   UNL     1      -5.923   3.260 -30.119  1.00  0.00     0.155 C 
BRANCH  10  11
HETATM   11  N   UNL     1      -7.062   2.453 -29.687  1.00  0.00    -0.365 N 
HETATM   12  H   UNL     1      -7.249   2.398 -28.689  1.00  0.00     0.161 HD
BRANCH  11  13
HETATM   13  C   UNL     1      -8.184   2.180 -30.426  1.00  0.00     0.172 C 
HETATM   14  S   UNL     1      -9.479   3.211 -30.618  1.00  0.00    -0.041 SA
BRANCH  13  15
HETATM   15  N   UNL     1      -8.242   0.934 -30.994  1.00  0.00    -0.333 N 
HETATM   16  H   UNL     1      -8.886   0.302 -30.523  1.00  0.00     0.168 HD
BRANCH  15  17
HETATM   17  C   UNL     1      -7.668   0.445 -32.187  1.00  0.00     0.035 A 
HETATM   18  C   UNL     1      -6.397  -0.133 -32.243  1.00  0.00     0.047 A 
HETATM   19  C   UNL     1      -5.870  -0.614 -33.451  1.00  0.00     0.041 A 
HETATM   20  C   UNL     1      -6.616  -0.483 -34.626  1.00  0.00     0.018 A 
HETATM   21  C   UNL     1      -7.868   0.136 -34.586  1.00  0.00     0.003 A 
HETATM   22  C   UNL     1      -8.386   0.604 -33.374  1.00  0.00     0.029 A 
BRANCH  19  23
HETATM   23  C   UNL     1      -4.527  -1.252 -33.409  1.00  0.00     0.293 C 
HETATM   24  O   UNL     1      -4.290  -2.339 -33.918  1.00  0.00    -0.259 OA
BRANCH  23  25
HETATM   25  O   UNL     1      -3.629  -0.445 -32.797  1.00  0.00    -0.323 OA
HETATM   26  C   UNL     1      -2.689  -1.131 -31.967  1.00  0.00     0.213 C 
ENDBRANCH  23  25
ENDBRANCH  19  23
ENDBRANCH  15  17
ENDBRANCH  13  15
ENDBRANCH  11  13
ENDBRANCH  10  11
ENDBRANCH   4  10
BRANCH   1  27
HETATM   27  C   UNL     1      -2.427   5.630 -32.265  1.00  0.00     0.038 C 
HETATM   28  N   UNL     1      -1.390   6.378 -32.774  1.00  0.00    -0.277 N 
HETATM   29  C   UNL     1      -0.936   6.587 -34.129  1.00  0.00     0.179 C 
HETATM   30  N   UNL     1      -0.704   7.038 -31.822  1.00  0.00    -0.172 NA
HETATM   31  C   UNL     1      -1.159   6.572 -30.656  1.00  0.00     0.089 C 
HETATM   32  C   UNL     1      -2.227   5.677 -30.890  1.00  0.00     0.061 C 
BRANCH  31  33
HETATM   33  C   UNL     1      -0.637   7.015 -29.366  1.00  0.00    -0.005 A 
HETATM   34  C   UNL     1       0.633   7.584 -29.266  1.00  0.00     0.016 A 
HETATM   35  C   UNL     1       1.099   8.087 -28.040  1.00  0.00     0.030 A 
HETATM   36  C   UNL     1       0.332   8.022 -26.864  1.00  0.00     0.029 A 
HETATM   37  C   UNL     1      -0.933   7.422 -26.987  1.00  0.00     0.030 A 
HETATM   38  C   UNL     1      -1.413   6.927 -28.209  1.00  0.00     0.016 A 
BRANCH  36  39
HETATM   39  N   UNL     1       0.764   8.565 -25.650  1.00  0.00    -0.390 N 
HETATM   40  C   UNL     1       0.046   9.698 -25.071  1.00  0.00     0.149 C 
HETATM   41  C   UNL     1       2.195   8.509 -25.348  1.00  0.00     0.149 C 
ENDBRANCH  36  39
ENDBRANCH  31  33
ENDBRANCH   1  27
TORSDOF 10
ENDMDL
MODEL 4
REMARK VINA RESULT:      -8.6      5.435     10.268
REMARK  10 active torsions:
REMARK  status: ('A' for Active; 'I' for Inactive)
REMARK    1  A    between atoms: C_4  and  C_5 
REMARK    2  A    between atoms: C_8  and  N_9 
REMARK    3  A    between atoms: C_15  and  C_16 
REMARK    4  A    between atoms: C_19  and  C_20 
REMARK    5  A    between atoms: C_20  and  N_21 
REMARK    6  A    between atoms: N_21  and  C_22 
REMARK    7  A    between atoms: C_22  and  N_23 
REMARK    8  A    between atoms: N_23  and  C_24 
REMARK    9  A    between atoms: C_26  and  C_27 
REMARK   10  A    between atoms: C_27  and  O_28 
ROOT
HETATM    1  C   UNL     1      -1.671   6.303 -31.857  1.00  0.00     0.067 C 
HETATM    2  C   UNL     1      -2.623   6.841 -32.942  1.00  0.00     0.001 C 
HETATM    3  C   UNL     1      -4.022   6.199 -32.835  1.00  0.00     0.040 C 
HETATM    4  C   UNL     1      -3.978   4.685 -33.087  1.00  0.00     0.206 C 
HETATM    5  N   UNL     1      -2.511   4.274 -33.054  1.00  0.00    -0.065 N 
HETATM    6  H   UNL     1      -2.442   3.247 -33.086  1.00  0.00     0.280 HD
HETATM    7  C   UNL     1      -1.811   4.764 -31.784  1.00  0.00     0.246 C 
HETATM    8  C   UNL     1      -2.041   6.366 -34.301  1.00  0.00     0.033 C 
HETATM    9  C   UNL     1      -1.809   4.847 -34.281  1.00  0.00     0.236 C 
ENDROOT
BRANCH   4  10
HETATM   10  C   UNL     1      -4.858   3.868 -32.115  1.00  0.00     0.155 C 
BRANCH  10  11
HETATM   11  N   UNL     1      -5.947   3.180 -32.804  1.00  0.00    -0.365 N 
HETATM   12  H   UNL     1      -5.735   2.733 -33.692  1.00  0.00     0.161 HD
BRANCH  11  13
HETATM   13  C   UNL     1      -7.054   2.627 -32.214  1.00  0.00     0.172 C 
HETATM   14  S   UNL     1      -8.387   3.481 -31.692  1.00  0.00    -0.041 SA
BRANCH  13  15
HETATM   15  N   UNL     1      -7.011   1.275 -31.999  1.00  0.00    -0.333 N 
HETATM   16  H   UNL     1      -7.377   0.994 -31.091  1.00  0.00     0.168 HD
BRANCH  15  17
HETATM   17  C   UNL     1      -6.677   0.219 -32.876  1.00  0.00     0.035 A 
HETATM   18  C   UNL     1      -5.564  -0.604 -32.691  1.00  0.00     0.047 A 
HETATM   19  C   UNL     1      -5.276  -1.647 -33.584  1.00  0.00     0.041 A 
HETATM   20  C   UNL     1      -6.098  -1.846 -34.696  1.00  0.00     0.018 A 
HETATM   21  C   UNL     1      -7.185  -0.996 -34.913  1.00  0.00     0.003 A 
HETATM   22  C   UNL     1      -7.467   0.035 -34.012  1.00  0.00     0.029 A 
BRANCH  19  23
HETATM   23  C   UNL     1      -4.093  -2.501 -33.285  1.00  0.00     0.293 C 
HETATM   24  O   UNL     1      -3.354  -2.303 -32.331  1.00  0.00    -0.259 OA
BRANCH  23  25
HETATM   25  O   UNL     1      -4.004  -3.524 -34.165  1.00  0.00    -0.323 OA
HETATM   26  C   UNL     1      -3.570  -4.760 -33.591  1.00  0.00     0.213 C 
ENDBRANCH  23  25
ENDBRANCH  19  23
ENDBRANCH  15  17
ENDBRANCH  13  15
ENDBRANCH  11  13
ENDBRANCH  10  11
ENDBRANCH   4  10
BRANCH   1  27
HETATM   27  C   UNL     1      -1.616   6.914 -30.485  1.00  0.00     0.038 C 
HETATM   28  N   UNL     1      -2.547   6.996 -29.474  1.00  0.00    -0.277 N 
HETATM   29  C   UNL     1      -3.957   6.684 -29.445  1.00  0.00     0.179 C 
HETATM   30  N   UNL     1      -2.022   7.426 -28.312  1.00  0.00    -0.172 NA
HETATM   31  C   UNL     1      -0.779   7.823 -28.599  1.00  0.00     0.089 C 
HETATM   32  C   UNL     1      -0.492   7.534 -29.952  1.00  0.00     0.061 C 
BRANCH  31  33
HETATM   33  C   UNL     1       0.121   8.396 -27.602  1.00  0.00    -0.005 A 
HETATM   34  C   UNL     1      -0.082   9.688 -27.115  1.00  0.00     0.016 A 
HETATM   35  C   UNL     1       0.733  10.205 -26.094  1.00  0.00     0.030 A 
HETATM   36  C   UNL     1       1.794   9.469 -25.537  1.00  0.00     0.029 A 
HETATM   37  C   UNL     1       1.991   8.181 -26.063  1.00  0.00     0.030 A 
HETATM   38  C   UNL     1       1.176   7.650 -27.074  1.00  0.00     0.016 A 
BRANCH  36  39
HETATM   39  N   UNL     1       2.579   9.953 -24.487  1.00  0.00    -0.390 N 
HETATM   40  C   UNL     1       2.444  11.348 -24.068  1.00  0.00     0.149 C 
HETATM   41  C   UNL     1       3.909   9.370 -24.303  1.00  0.00     0.149 C 
ENDBRANCH  36  39
ENDBRANCH  31  33
ENDBRANCH   1  27
TORSDOF 10
ENDMDL
MODEL 5
REMARK VINA RESULT:      -8.5      4.531      9.185
REMARK  10 active torsions:
REMARK  status: ('A' for Active; 'I' for Inactive)
REMARK    1  A    between atoms: C_4  and  C_5 
REMARK    2  A    between atoms: C_8  and  N_9 
REMARK    3  A    between atoms: C_15  and  C_16 
REMARK    4  A    between atoms: C_19  and  C_20 
REMARK    5  A    between atoms: C_20  and  N_21 
REMARK    6  A    between atoms: N_21  and  C_22 
REMARK    7  A    between atoms: C_22  and  N_23 
REMARK    8  A    between atoms: N_23  and  C_24 
REMARK    9  A    between atoms: C_26  and  C_27 
REMARK   10  A    between atoms: C_27  and  O_28 
ROOT
HETATM    1  C   UNL     1      -3.966   4.997 -32.959  1.00  0.00     0.067 C 
HETATM    2  C   UNL     1      -5.381   5.444 -32.548  1.00  0.00     0.001 C 
HETATM    3  C   UNL     1      -5.807   4.810 -31.207  1.00  0.00     0.040 C 
HETATM    4  C   UNL     1      -5.906   3.281 -31.303  1.00  0.00     0.206 C 
HETATM    5  N   UNL     1      -5.247   2.876 -32.616  1.00  0.00    -0.065 N 
HETATM    6  H   UNL     1      -5.172   1.851 -32.661  1.00  0.00     0.280 HD
HETATM    7  C   UNL     1      -3.842   3.468 -32.755  1.00  0.00     0.246 C 
HETATM    8  C   UNL     1      -6.346   4.863 -33.616  1.00  0.00     0.033 C 
HETATM    9  C   UNL     1      -6.120   3.350 -33.774  1.00  0.00     0.236 C 
ENDROOT
BRANCH   4  10
HETATM   10  C   UNL     1      -5.319   2.542 -30.079  1.00  0.00     0.155 C 
BRANCH  10  11
HETATM   11  N   UNL     1      -5.638   1.117 -30.090  1.00  0.00    -0.365 N 
HETATM   12  H   UNL     1      -6.571   0.841 -29.797  1.00  0.00     0.161 HD
BRANCH  11  13
HETATM   13  C   UNL     1      -5.059   0.166 -30.891  1.00  0.00     0.172 C 
HETATM   14  S   UNL     1      -3.419  -0.045 -31.093  1.00  0.00    -0.041 SA
BRANCH  13  15
HETATM   15  N   UNL     1      -5.920  -0.621 -31.610  1.00  0.00    -0.333 N 
HETATM   16  H   UNL     1      -6.099  -1.526 -31.180  1.00  0.00     0.168 HD
BRANCH  15  17
HETATM   17  C   UNL     1      -6.691  -0.324 -32.755  1.00  0.00     0.035 A 
HETATM   18  C   UNL     1      -7.974   0.224 -32.691  1.00  0.00     0.047 A 
HETATM   19  C   UNL     1      -8.701   0.511 -33.856  1.00  0.00     0.041 A 
HETATM   20  C   UNL     1      -8.144   0.211 -35.103  1.00  0.00     0.018 A 
HETATM   21  C   UNL     1      -6.882  -0.382 -35.173  1.00  0.00     0.003 A 
HETATM   22  C   UNL     1      -6.164  -0.654 -34.005  1.00  0.00     0.029 A 
BRANCH  19  23
HETATM   23  C   UNL     1     -10.043   1.133 -33.694  1.00  0.00     0.293 C 
HETATM   24  O   UNL     1     -11.040   0.494 -33.389  1.00  0.00    -0.259 OA
BRANCH  23  25
HETATM   25  O   UNL     1      -9.976   2.473 -33.870  1.00  0.00    -0.323 OA
HETATM   26  C   UNL     1     -11.000   3.009 -34.713  1.00  0.00     0.213 C 
ENDBRANCH  23  25
ENDBRANCH  19  23
ENDBRANCH  15  17
ENDBRANCH  13  15
ENDBRANCH  11  13
ENDBRANCH  10  11
ENDBRANCH   4  10
BRANCH   1  27
HETATM   27  C   UNL     1      -2.740   5.716 -32.471  1.00  0.00     0.038 C 
HETATM   28  N   UNL     1      -1.620   6.177 -33.126  1.00  0.00    -0.277 N 
HETATM   29  C   UNL     1      -1.149   5.973 -34.475  1.00  0.00     0.179 C 
HETATM   30  N   UNL     1      -0.854   6.973 -32.356  1.00  0.00    -0.172 NA
HETATM   31  C   UNL     1      -1.360   6.881 -31.122  1.00  0.00     0.089 C 
HETATM   32  C   UNL     1      -2.530   6.092 -31.150  1.00  0.00     0.061 C 
BRANCH  31  33
HETATM   33  C   UNL     1      -0.781   7.576 -29.975  1.00  0.00    -0.005 A 
HETATM   34  C   UNL     1      -1.494   8.574 -29.311  1.00  0.00     0.016 A 
HETATM   35  C   UNL     1      -0.970   9.181 -28.157  1.00  0.00     0.030 A 
HETATM   36  C   UNL     1       0.288   8.835 -27.633  1.00  0.00     0.029 A 
HETATM   37  C   UNL     1       0.994   7.844 -28.336  1.00  0.00     0.030 A 
HETATM   38  C   UNL     1       0.477   7.223 -29.483  1.00  0.00     0.016 A 
BRANCH  36  39
HETATM   39  N   UNL     1       0.796   9.395 -26.457  1.00  0.00    -0.390 N 
HETATM   40  C   UNL     1       0.731  10.842 -26.260  1.00  0.00     0.149 C 
HETATM   41  C   UNL     1       1.930   8.725 -25.818  1.00  0.00     0.149 C 
ENDBRANCH  36  39
ENDBRANCH  31  33
ENDBRANCH   1  27
TORSDOF 10
ENDMDL
MODEL 6
REMARK VINA RESULT:      -8.4      4.680      6.959
REMARK  10 active torsions:
REMARK  status: ('A' for Active; 'I' for Inactive)
REMARK    1  A    between atoms: C_4  and  C_5 
REMARK    2  A    between atoms: C_8  and  N_9 
REMARK    3  A    between atoms: C_15  and  C_16 
REMARK    4  A    between atoms: C_19  and  C_20 
REMARK    5  A    between atoms: C_20  and  N_21 
REMARK    6  A    between atoms: N_21  and  C_22 
REMARK    7  A    between atoms: C_22  and  N_23 
REMARK    8  A    between atoms: N_23  and  C_24 
REMARK    9  A    between atoms: C_26  and  C_27 
REMARK   10  A    between atoms: C_27  and  O_28 
ROOT
HETATM    1  C   UNL     1      -5.700   4.697 -31.695  1.00  0.00     0.067 C 
HETATM    2  C   UNL     1      -5.369   6.037 -32.377  1.00  0.00     0.001 C 
HETATM    3  C   UNL     1      -3.913   6.068 -32.887  1.00  0.00     0.040 C 
HETATM    4  C   UNL     1      -2.901   5.968 -31.737  1.00  0.00     0.206 C 
HETATM    5  N   UNL     1      -3.683   5.559 -30.495  1.00  0.00    -0.065 N 
HETATM    6  H   UNL     1      -3.027   5.351 -29.729  1.00  0.00     0.280 HD
HETATM    7  C   UNL     1      -4.541   4.317 -30.744  1.00  0.00     0.246 C 
HETATM    8  C   UNL     1      -5.451   7.119 -31.266  1.00  0.00     0.033 C 
HETATM    9  C   UNL     1      -4.575   6.721 -30.067  1.00  0.00     0.236 C 
ENDROOT
BRANCH   4  10
HETATM   10  C   UNL     1      -1.710   5.031 -32.038  1.00  0.00     0.155 C 
BRANCH  10  11
HETATM   11  N   UNL     1      -0.424   5.680 -31.798  1.00  0.00    -0.365 N 
HETATM   12  H   UNL     1      -0.101   6.355 -32.487  1.00  0.00     0.161 HD
BRANCH  11  13
HETATM   13  C   UNL     1       0.159   5.890 -30.575  1.00  0.00     0.172 C 
HETATM   14  S   UNL     1       0.894   4.714 -29.651  1.00  0.00    -0.041 SA
BRANCH  13  15
HETATM   15  N   UNL     1       0.067   7.162 -30.074  1.00  0.00    -0.333 N 
HETATM   16  H   UNL     1      -0.146   7.863 -30.781  1.00  0.00     0.168 HD
BRANCH  15  17
HETATM   17  C   UNL     1       0.081   7.623 -28.740  1.00  0.00     0.035 A 
HETATM   18  C   UNL     1      -1.031   7.554 -27.897  1.00  0.00     0.047 A 
HETATM   19  C   UNL     1      -0.969   8.018 -26.574  1.00  0.00     0.041 A 
HETATM   20  C   UNL     1       0.216   8.588 -26.101  1.00  0.00     0.018 A 
HETATM   21  C   UNL     1       1.316   8.704 -26.953  1.00  0.00     0.003 A 
HETATM   22  C   UNL     1       1.245   8.231 -28.267  1.00  0.00     0.029 A 
BRANCH  19  23
HETATM   23  C   UNL     1      -2.189   7.866 -25.735  1.00  0.00     0.293 C 
HETATM   24  O   UNL     1      -2.399   8.544 -24.738  1.00  0.00    -0.259 OA
BRANCH  23  25
HETATM   25  O   UNL     1      -3.024   6.941 -26.261  1.00  0.00    -0.323 OA
HETATM   26  C   UNL     1      -4.382   7.372 -26.382  1.00  0.00     0.213 C 
ENDBRANCH  23  25
ENDBRANCH  19  23
ENDBRANCH  15  17
ENDBRANCH  13  15
ENDBRANCH  11  13
ENDBRANCH  10  11
ENDBRANCH   4  10
BRANCH   1  27
HETATM   27  C   UNL     1      -6.174   3.509 -32.484  1.00  0.00     0.038 C 
HETATM   28  N   UNL     1      -7.190   3.356 -33.401  1.00  0.00    -0.277 N 
HETATM   29  C   UNL     1      -8.267   4.235 -33.790  1.00  0.00     0.179 C 
HETATM   30  N   UNL     1      -7.136   2.178 -34.050  1.00  0.00    -0.172 NA
HETATM   31  C   UNL     1      -6.200   1.459 -33.423  1.00  0.00     0.089 C 
HETATM   32  C   UNL     1      -5.586   2.250 -32.427  1.00  0.00     0.061 C 
BRANCH  31  33
HETATM   33  C   UNL     1      -5.863   0.091 -33.805  1.00  0.00    -0.005 A 
HETATM   34  C   UNL     1      -4.639  -0.472 -33.442  1.00  0.00     0.016 A 
HETATM   35  C   UNL     1      -4.352  -1.815 -33.737  1.00  0.00     0.030 A 
HETATM   36  C   UNL     1      -5.258  -2.642 -34.423  1.00  0.00     0.029 A 
HETATM   37  C   UNL     1      -6.474  -2.043 -34.798  1.00  0.00     0.030 A 
HETATM   38  C   UNL     1      -6.775  -0.706 -34.499  1.00  0.00     0.016 A 
BRANCH  36  39
HETATM   39  N   UNL     1      -5.005  -3.993 -34.677  1.00  0.00    -0.390 N 
HETATM   40  C   UNL     1      -6.085  -4.851 -35.161  1.00  0.00     0.149 C 
HETATM   41  C   UNL     1      -3.990  -4.663 -33.862  1.00  0.00     0.149 C 
ENDBRANCH  36  39
ENDBRANCH  31  33
ENDBRANCH   1  27
TORSDOF 10
ENDMDL
MODEL 7
REMARK VINA RESULT:      -8.3      5.142      7.127
REMARK  10 active torsions:
REMARK  status: ('A' for Active; 'I' for Inactive)
REMARK    1  A    between atoms: C_4  and  C_5 
REMARK    2  A    between atoms: C_8  and  N_9 
REMARK    3  A    between atoms: C_15  and  C_16 
REMARK    4  A    between atoms: C_19  and  C_20 
REMARK    5  A    between atoms: C_20  and  N_21 
REMARK    6  A    between atoms: N_21  and  C_22 
REMARK    7  A    between atoms: C_22  and  N_23 
REMARK    8  A    between atoms: N_23  and  C_24 
REMARK    9  A    between atoms: C_26  and  C_27 
REMARK   10  A    between atoms: C_27  and  O_28 
ROOT
HETATM    1  C   UNL     1      -5.922   4.903 -31.739  1.00  0.00     0.067 C 
HETATM    2  C   UNL     1      -5.372   6.139 -32.474  1.00  0.00     0.001 C 
HETATM    3  C   UNL     1      -3.873   5.980 -32.803  1.00  0.00     0.040 C 
HETATM    4  C   UNL     1      -3.015   5.882 -31.533  1.00  0.00     0.206 C 
HETATM    5  N   UNL     1      -3.974   5.664 -30.368  1.00  0.00    -0.065 N 
HETATM    6  H   UNL     1      -3.435   5.460 -29.515  1.00  0.00     0.280 HD
HETATM    7  C   UNL     1      -4.927   4.495 -30.626  1.00  0.00     0.246 C 
HETATM    8  C   UNL     1      -5.462   7.317 -31.467  1.00  0.00     0.033 C 
HETATM    9  C   UNL     1      -4.776   6.941 -30.143  1.00  0.00     0.236 C 
ENDROOT
BRANCH   4  10
HETATM   10  C   UNL     1      -1.907   4.809 -31.614  1.00  0.00     0.155 C 
BRANCH  10  11
HETATM   11  N   UNL     1      -1.122   4.733 -30.383  1.00  0.00    -0.365 N 
HETATM   12  H   UNL     1      -0.901   3.809 -30.022  1.00  0.00     0.161 HD
BRANCH  11  13
HETATM   13  C   UNL     1      -0.237   5.677 -29.931  1.00  0.00     0.172 C 
HETATM   14  S   UNL     1       0.580   6.763 -30.895  1.00  0.00    -0.041 SA
BRANCH  13  15
HETATM   15  N   UNL     1       0.017   5.668 -28.585  1.00  0.00    -0.333 N 
HETATM   16  H   UNL     1       0.558   4.862 -28.278  1.00  0.00     0.168 HD
BRANCH  15  17
HETATM   17  C   UNL     1      -0.224   6.651 -27.601  1.00  0.00     0.035 A 
HETATM   18  C   UNL     1       0.785   7.443 -27.049  1.00  0.00     0.047 A 
HETATM   19  C   UNL     1       0.497   8.416 -26.078  1.00  0.00     0.041 A 
HETATM   20  C   UNL     1      -0.819   8.572 -25.633  1.00  0.00     0.018 A 
HETATM   21  C   UNL     1      -1.825   7.751 -26.146  1.00  0.00     0.003 A 
HETATM   22  C   UNL     1      -1.527   6.791 -27.119  1.00  0.00     0.029 A 
BRANCH  19  23
HETATM   23  C   UNL     1       1.628   9.242 -25.576  1.00  0.00     0.293 C 
HETATM   24  O   UNL     1       1.622  10.465 -25.605  1.00  0.00    -0.259 OA
BRANCH  23  25
HETATM   25  O   UNL     1       2.598   8.461 -25.049  1.00  0.00    -0.323 OA
HETATM   26  C   UNL     1       2.892   8.731 -23.675  1.00  0.00     0.213 C 
ENDBRANCH  23  25
ENDBRANCH  19  23
ENDBRANCH  15  17
ENDBRANCH  13  15
ENDBRANCH  11  13
ENDBRANCH  10  11
ENDBRANCH   4  10
BRANCH   1  27
HETATM   27  C   UNL     1      -6.429   3.702 -32.487  1.00  0.00     0.038 C 
HETATM   28  N   UNL     1      -7.435   3.552 -33.416  1.00  0.00    -0.277 N 
HETATM   29  C   UNL     1      -8.468   4.456 -33.861  1.00  0.00     0.179 C 
HETATM   30  N   UNL     1      -7.417   2.347 -34.015  1.00  0.00    -0.172 NA
HETATM   31  C   UNL     1      -6.521   1.618 -33.342  1.00  0.00     0.089 C 
HETATM   32  C   UNL     1      -5.893   2.425 -32.368  1.00  0.00     0.061 C 
BRANCH  31  33
HETATM   33  C   UNL     1      -6.232   0.223 -33.663  1.00  0.00    -0.005 A 
HETATM   34  C   UNL     1      -7.147  -0.551 -34.376  1.00  0.00     0.016 A 
HETATM   35  C   UNL     1      -6.831  -1.865 -34.757  1.00  0.00     0.030 A 
HETATM   36  C   UNL     1      -5.605  -2.468 -34.424  1.00  0.00     0.029 A 
HETATM   37  C   UNL     1      -4.711  -1.674 -33.684  1.00  0.00     0.030 A 
HETATM   38  C   UNL     1      -5.012  -0.357 -33.308  1.00  0.00     0.016 A 
BRANCH  36  39
HETATM   39  N   UNL     1      -5.259  -3.757 -34.840  1.00  0.00    -0.390 N 
HETATM   40  C   UNL     1      -6.280  -4.626 -35.421  1.00  0.00     0.149 C 
HETATM   41  C   UNL     1      -4.189  -4.444 -34.115  1.00  0.00     0.149 C 
ENDBRANCH  36  39
ENDBRANCH  31  33
ENDBRANCH   1  27
TORSDOF 10
ENDMDL
MODEL 8
REMARK VINA RESULT:      -8.3      6.145      8.971
REMARK  10 active torsions:
REMARK  status: ('A' for Active; 'I' for Inactive)
REMARK    1  A    between atoms: C_4  and  C_5 
REMARK    2  A    between atoms: C_8  and  N_9 
REMARK    3  A    between atoms: C_15  and  C_16 
REMARK    4  A    between atoms: C_19  and  C_20 
REMARK    5  A    between atoms: C_20  and  N_21 
REMARK    6  A    between atoms: N_21  and  C_22 
REMARK    7  A    between atoms: C_22  and  N_23 
REMARK    8  A    between atoms: N_23  and  C_24 
REMARK    9  A    between atoms: C_26  and  C_27 
REMARK   10  A    between atoms: C_27  and  O_28 
ROOT
HETATM    1  C   UNL     1      -3.344   5.542 -32.225  1.00  0.00     0.067 C 
HETATM    2  C   UNL     1      -2.077   5.642 -33.093  1.00  0.00     0.001 C 
HETATM    3  C   UNL     1      -0.829   5.153 -32.330  1.00  0.00     0.040 C 
HETATM    4  C   UNL     1      -0.521   6.033 -31.110  1.00  0.00     0.206 C 
HETATM    5  N   UNL     1      -1.742   6.918 -30.885  1.00  0.00    -0.065 N 
HETATM    6  H   UNL     1      -1.635   7.431 -29.999  1.00  0.00     0.280 HD
HETATM    7  C   UNL     1      -3.033   6.100 -30.815  1.00  0.00     0.246 C 
HETATM    8  C   UNL     1      -1.849   7.155 -33.353  1.00  0.00     0.033 C 
HETATM    9  C   UNL     1      -1.836   7.929 -32.024  1.00  0.00     0.236 C 
ENDROOT
BRANCH   4  10
HETATM   10  C   UNL     1      -0.115   5.233 -29.853  1.00  0.00     0.155 C 
BRANCH  10  11
HETATM   11  N   UNL     1       0.805   5.979 -28.998  1.00  0.00    -0.365 N 
HETATM   12  H   UNL     1       1.728   6.188 -29.369  1.00  0.00     0.161 HD
BRANCH  11  13
HETATM   13  C   UNL     1       0.453   6.851 -28.001  1.00  0.00     0.172 C 
HETATM   14  S   UNL     1      -0.734   6.577 -26.864  1.00  0.00    -0.041 SA
BRANCH  13  15
HETATM   15  N   UNL     1       1.106   8.056 -27.996  1.00  0.00    -0.333 N 
HETATM   16  H   UNL     1       1.306   8.414 -28.928  1.00  0.00     0.168 HD
BRANCH  15  17
HETATM   17  C   UNL     1       1.413   8.926 -26.927  1.00  0.00     0.035 A 
HETATM   18  C   UNL     1       2.298   8.591 -25.899  1.00  0.00     0.047 A 
HETATM   19  C   UNL     1       2.580   9.492 -24.861  1.00  0.00     0.041 A 
HETATM   20  C   UNL     1       1.939  10.734 -24.838  1.00  0.00     0.018 A 
HETATM   21  C   UNL     1       1.017  11.057 -25.836  1.00  0.00     0.003 A 
HETATM   22  C   UNL     1       0.751  10.154 -26.870  1.00  0.00     0.029 A 
BRANCH  19  23
HETATM   23  C   UNL     1       3.566   9.068 -23.831  1.00  0.00     0.293 C 
HETATM   24  O   UNL     1       4.734   9.431 -23.839  1.00  0.00    -0.259 OA
BRANCH  23  25
HETATM   25  O   UNL     1       2.976   8.297 -22.889  1.00  0.00    -0.323 OA
HETATM   26  C   UNL     1       3.741   8.142 -21.690  1.00  0.00     0.213 C 
ENDBRANCH  23  25
ENDBRANCH  19  23
ENDBRANCH  15  17
ENDBRANCH  13  15
ENDBRANCH  11  13
ENDBRANCH  10  11
ENDBRANCH   4  10
BRANCH   1  27
HETATM   27  C   UNL     1      -4.148   4.274 -32.147  1.00  0.00     0.038 C 
HETATM   28  N   UNL     1      -5.422   4.017 -31.693  1.00  0.00    -0.277 N 
HETATM   29  C   UNL     1      -6.363   4.838 -30.969  1.00  0.00     0.179 C 
HETATM   30  N   UNL     1      -5.851   2.781 -32.010  1.00  0.00    -0.172 NA
HETATM   31  C   UNL     1      -4.786   2.141 -32.502  1.00  0.00     0.089 C 
HETATM   32  C   UNL     1      -3.697   3.036 -32.589  1.00  0.00     0.061 C 
BRANCH  31  33
HETATM   33  C   UNL     1      -4.828   0.746 -32.932  1.00  0.00    -0.005 A 
HETATM   34  C   UNL     1      -5.921   0.250 -33.643  1.00  0.00     0.016 A 
HETATM   35  C   UNL     1      -5.921  -1.067 -34.130  1.00  0.00     0.030 A 
HETATM   36  C   UNL     1      -4.848  -1.948 -33.909  1.00  0.00     0.029 A 
HETATM   37  C   UNL     1      -3.770  -1.430 -33.170  1.00  0.00     0.030 A 
HETATM   38  C   UNL     1      -3.754  -0.112 -32.689  1.00  0.00     0.016 A 
BRANCH  36  39
HETATM   39  N   UNL     1      -4.814  -3.244 -34.432  1.00  0.00    -0.390 N 
HETATM   40  C   UNL     1      -6.028  -3.822 -35.005  1.00  0.00     0.149 C 
HETATM   41  C   UNL     1      -3.891  -4.203 -33.821  1.00  0.00     0.149 C 
ENDBRANCH  36  39
ENDBRANCH  31  33
ENDBRANCH   1  27
TORSDOF 10
ENDMDL
MODEL 9
REMARK VINA RESULT:      -8.3      3.596      5.073
REMARK  10 active torsions:
REMARK  status: ('A' for Active; 'I' for Inactive)
REMARK    1  A    between atoms: C_4  and  C_5 
REMARK    2  A    between atoms: C_8  and  N_9 
REMARK    3  A    between atoms: C_15  and  C_16 
REMARK    4  A    between atoms: C_19  and  C_20 
REMARK    5  A    between atoms: C_20  and  N_21 
REMARK    6  A    between atoms: N_21  and  C_22 
REMARK    7  A    between atoms: C_22  and  N_23 
REMARK    8  A    between atoms: N_23  and  C_24 
REMARK    9  A    between atoms: C_26  and  C_27 
REMARK   10  A    between atoms: C_27  and  O_28 
ROOT
HETATM    1  C   UNL     1      -7.433   4.232 -31.015  1.00  0.00     0.067 C 
HETATM    2  C   UNL     1      -8.273   5.352 -31.656  1.00  0.00     0.001 C 
HETATM    3  C   UNL     1      -7.469   6.663 -31.778  1.00  0.00     0.040 C 
HETATM    4  C   UNL     1      -7.078   7.224 -30.403  1.00  0.00     0.206 C 
HETATM    5  N   UNL     1      -7.352   6.126 -29.383  1.00  0.00    -0.065 N 
HETATM    6  H   UNL     1      -6.981   6.409 -28.466  1.00  0.00     0.280 HD
HETATM    7  C   UNL     1      -6.694   4.802 -29.781  1.00  0.00     0.246 C 
HETATM    8  C   UNL     1      -9.425   5.652 -30.660  1.00  0.00     0.033 C 
HETATM    9  C   UNL     1      -8.860   5.932 -29.258  1.00  0.00     0.236 C 
ENDROOT
BRANCH   4  10
HETATM   10  C   UNL     1      -5.630   7.761 -30.341  1.00  0.00     0.155 C 
BRANCH  10  11
HETATM   11  N   UNL     1      -4.983   7.453 -29.068  1.00  0.00    -0.365 N 
HETATM   12  H   UNL     1      -5.216   6.570 -28.622  1.00  0.00     0.161 HD
BRANCH  11  13
HETATM   13  C   UNL     1      -3.768   7.927 -28.644  1.00  0.00     0.172 C 
HETATM   14  S   UNL     1      -3.467   9.494 -28.164  1.00  0.00    -0.041 SA
BRANCH  13  15
HETATM   15  N   UNL     1      -2.729   7.036 -28.681  1.00  0.00    -0.333 N 
HETATM   16  H   UNL     1      -2.766   6.336 -27.942  1.00  0.00     0.168 HD
BRANCH  15  17
HETATM   17  C   UNL     1      -1.714   6.852 -29.646  1.00  0.00     0.035 A 
HETATM   18  C   UNL     1      -1.926   7.015 -31.017  1.00  0.00     0.047 A 
HETATM   19  C   UNL     1      -0.885   6.830 -31.940  1.00  0.00     0.041 A 
HETATM   20  C   UNL     1       0.378   6.445 -31.482  1.00  0.00     0.018 A 
HETATM   21  C   UNL     1       0.585   6.235 -30.117  1.00  0.00     0.003 A 
HETATM   22  C   UNL     1      -0.458   6.430 -29.206  1.00  0.00     0.029 A 
BRANCH  19  23
HETATM   23  C   UNL     1      -1.191   7.065 -33.377  1.00  0.00     0.293 C 
HETATM   24  O   UNL     1      -1.728   8.086 -33.785  1.00  0.00    -0.259 OA
BRANCH  23  25
HETATM   25  O   UNL     1      -0.745   6.040 -34.138  1.00  0.00    -0.323 OA
HETATM   26  C   UNL     1      -1.775   5.324 -34.826  1.00  0.00     0.213 C 
ENDBRANCH  23  25
ENDBRANCH  19  23
ENDBRANCH  15  17
ENDBRANCH  13  15
ENDBRANCH  11  13
ENDBRANCH  10  11
ENDBRANCH   4  10
BRANCH   1  27
HETATM   27  C   UNL     1      -6.529   3.356 -31.837  1.00  0.00     0.038 C 
HETATM   28  N   UNL     1      -5.244   3.533 -32.299  1.00  0.00    -0.277 N 
HETATM   29  C   UNL     1      -4.383   4.692 -32.309  1.00  0.00     0.179 C 
HETATM   30  N   UNL     1      -4.712   2.407 -32.809  1.00  0.00    -0.172 NA
HETATM   31  C   UNL     1      -5.715   1.526 -32.870  1.00  0.00     0.089 C 
HETATM   32  C   UNL     1      -6.872   2.086 -32.287  1.00  0.00     0.061 C 
BRANCH  31  33
HETATM   33  C   UNL     1      -5.553   0.177 -33.407  1.00  0.00    -0.005 A 
HETATM   34  C   UNL     1      -4.499  -0.637 -32.991  1.00  0.00     0.016 A 
HETATM   35  C   UNL     1      -4.395  -1.962 -33.444  1.00  0.00     0.030 A 
HETATM   36  C   UNL     1      -5.319  -2.521 -34.343  1.00  0.00     0.029 A 
HETATM   37  C   UNL     1      -6.357  -1.673 -34.765  1.00  0.00     0.030 A 
HETATM   38  C   UNL     1      -6.477  -0.351 -34.311  1.00  0.00     0.016 A 
BRANCH  36  39
HETATM   39  N   UNL     1      -5.255  -3.854 -34.761  1.00  0.00    -0.390 N 
HETATM   40  C   UNL     1      -6.471  -4.527 -35.214  1.00  0.00     0.149 C 
HETATM   41  C   UNL     1      -4.257  -4.720 -34.132  1.00  0.00     0.149 C 
ENDBRANCH  36  39
ENDBRANCH  31  33
ENDBRANCH   1  27
TORSDOF 10
ENDMDL
MODEL 10
REMARK VINA RESULT:      -8.1      3.377      6.721
REMARK  10 active torsions:
REMARK  status: ('A' for Active; 'I' for Inactive)
REMARK    1  A    between atoms: C_4  and  C_5 
REMARK    2  A    between atoms: C_8  and  N_9 
REMARK    3  A    between atoms: C_15  and  C_16 
REMARK    4  A    between atoms: C_19  and  C_20 
REMARK    5  A    between atoms: C_20  and  N_21 
REMARK    6  A    between atoms: N_21  and  C_22 
REMARK    7  A    between atoms: C_22  and  N_23 
REMARK    8  A    between atoms: N_23  and  C_24 
REMARK    9  A    between atoms: C_26  and  C_27 
REMARK   10  A    between atoms: C_27  and  O_28 
ROOT
HETATM    1  C   UNL     1      -7.332   4.700 -32.344  1.00  0.00     0.067 C 
HETATM    2  C   UNL     1      -8.704   4.555 -31.662  1.00  0.00     0.001 C 
HETATM    3  C   UNL     1      -9.785   4.089 -32.659  1.00  0.00     0.040 C 
HETATM    4  C   UNL     1     -10.023   5.122 -33.770  1.00  0.00     0.206 C 
HETATM    5  N   UNL     1      -8.883   6.131 -33.687  1.00  0.00    -0.065 N 
HETATM    6  H   UNL     1      -8.927   6.766 -34.496  1.00  0.00     0.280 HD
HETATM    7  C   UNL     1      -7.514   5.445 -33.688  1.00  0.00     0.246 C 
HETATM    8  C   UNL     1      -9.121   5.984 -31.222  1.00  0.00     0.033 C 
HETATM    9  C   UNL     1      -9.044   6.954 -32.413  1.00  0.00     0.236 C 
ENDROOT
BRANCH   4  10
HETATM   10  C   UNL     1     -10.177   4.498 -35.175  1.00  0.00     0.155 C 
BRANCH  10  11
HETATM   11  N   UNL     1     -11.575   4.240 -35.513  1.00  0.00    -0.365 N 
HETATM   12  H   UNL     1     -11.792   3.365 -35.982  1.00  0.00     0.161 HD
BRANCH  11  13
HETATM   13  C   UNL     1     -12.670   4.750 -34.864  1.00  0.00     0.172 C 
HETATM   14  S   UNL     1     -13.196   6.328 -34.970  1.00  0.00    -0.041 SA
BRANCH  13  15
HETATM   15  N   UNL     1     -13.330   3.888 -34.029  1.00  0.00    -0.333 N 
HETATM   16  H   UNL     1     -14.061   4.335 -33.479  1.00  0.00     0.168 HD
BRANCH  15  17
HETATM   17  C   UNL     1     -13.255   2.483 -33.919  1.00  0.00     0.035 A 
HETATM   18  C   UNL     1     -12.107   1.812 -33.489  1.00  0.00     0.047 A 
HETATM   19  C   UNL     1     -12.080   0.412 -33.386  1.00  0.00     0.041 A 
HETATM   20  C   UNL     1     -13.210  -0.325 -33.751  1.00  0.00     0.018 A 
HETATM   21  C   UNL     1     -14.344   0.337 -34.227  1.00  0.00     0.003 A 
HETATM   22  C   UNL     1     -14.362   1.732 -34.318  1.00  0.00     0.029 A 
BRANCH  19  23
HETATM   23  C   UNL     1     -10.830  -0.215 -32.879  1.00  0.00     0.293 C 
HETATM   24  O   UNL     1     -10.731  -1.414 -32.654  1.00  0.00    -0.259 OA
BRANCH  23  25
HETATM   25  O   UNL     1      -9.841   0.702 -32.769  1.00  0.00    -0.323 OA
HETATM   26  C   UNL     1      -8.950   0.480 -31.672  1.00  0.00     0.213 C 
ENDBRANCH  23  25
ENDBRANCH  19  23
ENDBRANCH  15  17
ENDBRANCH  13  15
ENDBRANCH  11  13
ENDBRANCH  10  11
ENDBRANCH   4  10
BRANCH   1  27
HETATM   27  C   UNL     1      -6.397   3.533 -32.488  1.00  0.00     0.038 C 
HETATM   28  N   UNL     1      -5.168   3.261 -31.928  1.00  0.00    -0.277 N 
HETATM   29  C   UNL     1      -4.270   4.080 -31.151  1.00  0.00     0.179 C 
HETATM   30  N   UNL     1      -4.765   1.994 -32.141  1.00  0.00    -0.172 NA
HETATM   31  C   UNL     1      -5.634   1.478 -33.016  1.00  0.00     0.089 C 
HETATM   32  C   UNL     1      -6.660   2.414 -33.270  1.00  0.00     0.061 C 
BRANCH  31  33
HETATM   33  C   UNL     1      -5.521   0.118 -33.536  1.00  0.00    -0.005 A 
HETATM   34  C   UNL     1      -4.491  -0.725 -33.117  1.00  0.00     0.016 A 
HETATM   35  C   UNL     1      -4.434  -2.059 -33.554  1.00  0.00     0.030 A 
HETATM   36  C   UNL     1      -5.382  -2.598 -34.440  1.00  0.00     0.029 A 
HETATM   37  C   UNL     1      -6.395  -1.721 -34.866  1.00  0.00     0.030 A 
HETATM   38  C   UNL     1      -6.468  -0.390 -34.427  1.00  0.00     0.016 A 
BRANCH  36  39
HETATM   39  N   UNL     1      -5.366  -3.937 -34.842  1.00  0.00    -0.390 N 
HETATM   40  C   UNL     1      -6.595  -4.559 -35.331  1.00  0.00     0.149 C 
HETATM   41  C   UNL     1      -4.432  -4.841 -34.167  1.00  0.00     0.149 C 
ENDBRANCH  36  39
ENDBRANCH  31  33
ENDBRANCH   1  27
TORSDOF 10
ENDMDL
