MODEL 1
REMARK VINA RESULT:      -7.8      0.000      0.000
REMARK  5 active torsions:
REMARK  status: ('A' for Active; 'I' for Inactive)
REMARK    1  A    between atoms: C_2  and  O_3 
REMARK    2  A    between atoms: O_3  and  C_4 
REMARK    3  A    between atoms: C_8  and  C_9 
REMARK    4  A    between atoms: C_9  and  N_10 
REMARK       I    between atoms: N_10  and  C_11 
REMARK    5  A    between atoms: C_11  and  C_12 
ROOT
HETATM    1  C   UNL     1      -5.292   2.695 -31.926  1.00  0.00     0.161 C 
ENDROOT
BRANCH   1   2
HETATM    2  C   UNL     1      -4.213   3.628 -32.394  1.00  0.00    -0.035 A 
HETATM    3  C   UNL     1      -4.392   4.427 -33.527  1.00  0.00     0.028 A 
HETATM    4  C   UNL     1      -3.352   5.252 -33.924  1.00  0.00     0.120 A 
HETATM    5  N   UNL     1      -2.166   5.333 -33.284  1.00  0.00    -0.237 NA
HETATM    6  C   UNL     1      -2.008   4.557 -32.196  1.00  0.00     0.165 A 
HETATM    7  C   UNL     1      -2.989   3.695 -31.725  1.00  0.00     0.066 A 
BRANCH   6   8
HETATM    8  O   UNL     1      -0.843   4.589 -31.467  1.00  0.00    -0.324 OA
BRANCH   8   9
HETATM    9  C   UNL     1      -0.488   5.758 -30.707  1.00  0.00     0.058 C 
HETATM   10  C   UNL     1      -1.699   6.443 -30.059  1.00  0.00     0.045 C 
HETATM   11  C   UNL     1       0.377   6.737 -31.512  1.00  0.00     0.045 C 
HETATM   12  C   UNL     1       0.386   5.197 -29.567  1.00  0.00     0.045 C 
ENDBRANCH   8   9
ENDBRANCH   6   8
ENDBRANCH   1   2
BRANCH   1  13
HETATM   13  N   UNL     1      -5.290   1.472 -32.690  1.00  0.00    -0.353 N 
HETATM   14  C   UNL     1      -5.613   0.275 -32.093  1.00  0.00     0.255 C 
HETATM   15  O   UNL     1      -5.900   0.151 -30.910  1.00  0.00    -0.268 OA
HETATM   16  H   UNL     1      -5.036   1.507 -33.668  1.00  0.00     0.163 HD
BRANCH  14  17
HETATM   17  C   UNL     1      -5.615  -0.904 -32.981  1.00  0.00     0.075 A 
HETATM   18  C   UNL     1      -6.760  -1.255 -33.710  1.00  0.00     0.051 A 
HETATM   19 CL   UNL     1      -8.241  -0.368 -33.612  1.00  0.00    -0.083 Cl
HETATM   20  C   UNL     1      -6.733  -2.356 -34.572  1.00  0.00     0.025 A 
HETATM   21  C   UNL     1      -5.566  -3.106 -34.721  1.00  0.00     0.003 A 
HETATM   22  C   UNL     1      -4.425  -2.758 -34.000  1.00  0.00     0.025 A 
HETATM   23  C   UNL     1      -4.445  -1.661 -33.131  1.00  0.00     0.051 A 
HETATM   24 CL   UNL     1      -3.000  -1.342 -32.235  1.00  0.00    -0.083 Cl
ENDBRANCH  14  17
ENDBRANCH   1  13
TORSDOF 5
ENDMDL
MODEL 2
REMARK VINA RESULT:      -7.8      0.136      1.915
REMARK  5 active torsions:
REMARK  status: ('A' for Active; 'I' for Inactive)
REMARK    1  A    between atoms: C_2  and  O_3 
REMARK    2  A    between atoms: O_3  and  C_4 
REMARK    3  A    between atoms: C_8  and  C_9 
REMARK    4  A    between atoms: C_9  and  N_10 
REMARK       I    between atoms: N_10  and  C_11 
REMARK    5  A    between atoms: C_11  and  C_12 
ROOT
HETATM    1  C   UNL     1      -5.257   2.794 -32.061  1.00  0.00     0.161 C 
ENDROOT
BRANCH   1   2
HETATM    2  C   UNL     1      -4.164   3.723 -32.503  1.00  0.00    -0.035 A 
HETATM    3  C   UNL     1      -4.326   4.546 -33.620  1.00  0.00     0.028 A 
HETATM    4  C   UNL     1      -3.273   5.367 -33.993  1.00  0.00     0.120 A 
HETATM    5  N   UNL     1      -2.091   5.420 -33.344  1.00  0.00    -0.237 NA
HETATM    6  C   UNL     1      -1.950   4.620 -32.272  1.00  0.00     0.165 A 
HETATM    7  C   UNL     1      -2.944   3.761 -31.824  1.00  0.00     0.066 A 
BRANCH   6   8
HETATM    8  O   UNL     1      -0.789   4.622 -31.534  1.00  0.00    -0.324 OA
BRANCH   8   9
HETATM    9  C   UNL     1      -0.444   5.757 -30.719  1.00  0.00     0.058 C 
HETATM   10  C   UNL     1      -1.665   6.424 -30.070  1.00  0.00     0.045 C 
HETATM   11  C   UNL     1       0.446   6.761 -31.463  1.00  0.00     0.045 C 
HETATM   12  C   UNL     1       0.400   5.143 -29.583  1.00  0.00     0.045 C 
ENDBRANCH   8   9
ENDBRANCH   6   8
ENDBRANCH   1   2
BRANCH   1  13
HETATM   13  N   UNL     1      -5.218   1.555 -32.799  1.00  0.00    -0.353 N 
HETATM   14  C   UNL     1      -5.645   0.382 -32.219  1.00  0.00     0.255 C 
HETATM   15  O   UNL     1      -6.061   0.294 -31.072  1.00  0.00    -0.268 OA
HETATM   16  H   UNL     1      -4.860   1.561 -33.745  1.00  0.00     0.163 HD
BRANCH  14  17
HETATM   17  C   UNL     1      -5.594  -0.814 -33.081  1.00  0.00     0.075 A 
HETATM   18  C   UNL     1      -4.439  -1.606 -33.148  1.00  0.00     0.051 A 
HETATM   19 CL   UNL     1      -3.001  -1.240 -32.262  1.00  0.00    -0.083 Cl
HETATM   20  C   UNL     1      -4.421  -2.756 -33.945  1.00  0.00     0.025 A 
HETATM   21  C   UNL     1      -5.553  -3.127 -34.671  1.00  0.00     0.003 A 
HETATM   22  C   UNL     1      -6.704  -2.344 -34.605  1.00  0.00     0.025 A 
HETATM   23  C   UNL     1      -6.729  -1.190 -33.814  1.00  0.00     0.051 A 
HETATM   24 CL   UNL     1      -8.180  -0.250 -33.842  1.00  0.00    -0.083 Cl
ENDBRANCH  14  17
ENDBRANCH   1  13
TORSDOF 5
ENDMDL
MODEL 3
REMARK VINA RESULT:      -7.7      3.660      5.888
REMARK  5 active torsions:
REMARK  status: ('A' for Active; 'I' for Inactive)
REMARK    1  A    between atoms: C_2  and  O_3 
REMARK    2  A    between atoms: O_3  and  C_4 
REMARK    3  A    between atoms: C_8  and  C_9 
REMARK    4  A    between atoms: C_9  and  N_10 
REMARK       I    between atoms: N_10  and  C_11 
REMARK    5  A    between atoms: C_11  and  C_12 
ROOT
HETATM    1  C   UNL     1      -4.816   0.393 -30.976  1.00  0.00     0.161 C 
ENDROOT
BRANCH   1   2
HETATM    2  C   UNL     1      -5.773   1.447 -31.455  1.00  0.00    -0.035 A 
HETATM    3  C   UNL     1      -5.319   2.713 -31.834  1.00  0.00     0.028 A 
HETATM    4  C   UNL     1      -6.251   3.652 -32.247  1.00  0.00     0.120 A 
HETATM    5  N   UNL     1      -7.580   3.421 -32.305  1.00  0.00    -0.237 NA
HETATM    6  C   UNL     1      -8.001   2.198 -31.936  1.00  0.00     0.165 A 
HETATM    7  C   UNL     1      -7.145   1.195 -31.503  1.00  0.00     0.066 A 
BRANCH   6   8
HETATM    8  O   UNL     1      -9.334   1.864 -31.983  1.00  0.00    -0.324 OA
BRANCH   8   9
HETATM    9  C   UNL     1      -9.866   1.138 -33.106  1.00  0.00     0.058 C 
HETATM   10  C   UNL     1     -10.227  -0.314 -32.765  1.00  0.00     0.045 C 
HETATM   11  C   UNL     1      -8.970   1.244 -34.347  1.00  0.00     0.045 C 
HETATM   12  C   UNL     1     -11.184   1.875 -33.421  1.00  0.00     0.045 C 
ENDBRANCH   8   9
ENDBRANCH   6   8
ENDBRANCH   1   2
BRANCH   1  13
HETATM   13  N   UNL     1      -5.013  -0.848 -31.684  1.00  0.00    -0.353 N 
HETATM   14  C   UNL     1      -4.264  -1.143 -32.800  1.00  0.00     0.255 C 
HETATM   15  O   UNL     1      -3.415  -0.400 -33.275  1.00  0.00    -0.268 OA
HETATM   16  H   UNL     1      -5.719  -1.493 -31.353  1.00  0.00     0.163 HD
BRANCH  14  17
HETATM   17  C   UNL     1      -4.525  -2.457 -33.419  1.00  0.00     0.075 A 
HETATM   18  C   UNL     1      -5.491  -2.600 -34.424  1.00  0.00     0.051 A 
HETATM   19 CL   UNL     1      -6.453  -1.282 -34.993  1.00  0.00    -0.083 Cl
HETATM   20  C   UNL     1      -5.702  -3.848 -35.022  1.00  0.00     0.025 A 
HETATM   21  C   UNL     1      -4.947  -4.953 -34.631  1.00  0.00     0.003 A 
HETATM   22  C   UNL     1      -3.983  -4.813 -33.634  1.00  0.00     0.025 A 
HETATM   23  C   UNL     1      -3.770  -3.571 -33.026  1.00  0.00     0.051 A 
HETATM   24 CL   UNL     1      -2.595  -3.507 -31.758  1.00  0.00    -0.083 Cl
ENDBRANCH  14  17
ENDBRANCH   1  13
TORSDOF 5
ENDMDL
MODEL 4
REMARK VINA RESULT:      -7.4      2.263      2.909
REMARK  5 active torsions:
REMARK  status: ('A' for Active; 'I' for Inactive)
REMARK    1  A    between atoms: C_2  and  O_3 
REMARK    2  A    between atoms: O_3  and  C_4 
REMARK    3  A    between atoms: C_8  and  C_9 
REMARK    4  A    between atoms: C_9  and  N_10 
REMARK       I    between atoms: N_10  and  C_11 
REMARK    5  A    between atoms: C_11  and  C_12 
ROOT
HETATM    1  C   UNL     1      -7.150   2.569 -33.855  1.00  0.00     0.161 C 
ENDROOT
BRANCH   1   2
HETATM    2  C   UNL     1      -6.482   3.858 -33.470  1.00  0.00    -0.035 A 
HETATM    3  C   UNL     1      -6.984   4.648 -32.433  1.00  0.00     0.028 A 
HETATM    4  C   UNL     1      -6.337   5.838 -32.138  1.00  0.00     0.120 A 
HETATM    5  N   UNL     1      -5.246   6.286 -32.793  1.00  0.00    -0.237 NA
HETATM    6  C   UNL     1      -4.775   5.514 -33.789  1.00  0.00     0.165 A 
HETATM    7  C   UNL     1      -5.357   4.311 -34.163  1.00  0.00     0.066 A 
BRANCH   6   8
HETATM    8  O   UNL     1      -3.655   5.879 -34.498  1.00  0.00    -0.324 OA
BRANCH   8   9
HETATM    9  C   UNL     1      -2.357   5.862 -33.875  1.00  0.00     0.058 C 
HETATM   10  C   UNL     1      -2.285   4.918 -32.666  1.00  0.00     0.045 C 
HETATM   11  C   UNL     1      -1.847   7.272 -33.549  1.00  0.00     0.045 C 
HETATM   12  C   UNL     1      -1.439   5.278 -34.968  1.00  0.00     0.045 C 
ENDBRANCH   8   9
ENDBRANCH   6   8
ENDBRANCH   1   2
BRANCH   1  13
HETATM   13  N   UNL     1      -6.237   1.457 -33.748  1.00  0.00    -0.353 N 
HETATM   14  C   UNL     1      -6.528   0.390 -32.931  1.00  0.00     0.255 C 
HETATM   15  O   UNL     1      -7.536   0.306 -32.242  1.00  0.00    -0.268 OA
HETATM   16  H   UNL     1      -5.374   1.481 -34.276  1.00  0.00     0.163 HD
BRANCH  14  17
HETATM   17  C   UNL     1      -5.540  -0.706 -32.932  1.00  0.00     0.075 A 
HETATM   18  C   UNL     1      -5.616  -1.744 -33.871  1.00  0.00     0.051 A 
HETATM   19 CL   UNL     1      -6.862  -1.836 -35.066  1.00  0.00    -0.083 Cl
HETATM   20  C   UNL     1      -4.651  -2.757 -33.877  1.00  0.00     0.025 A 
HETATM   21  C   UNL     1      -3.603  -2.737 -32.958  1.00  0.00     0.003 A 
HETATM   22  C   UNL     1      -3.522  -1.705 -32.025  1.00  0.00     0.025 A 
HETATM   23  C   UNL     1      -4.486  -0.691 -32.007  1.00  0.00     0.051 A 
HETATM   24 CL   UNL     1      -4.337   0.515 -30.776  1.00  0.00    -0.083 Cl
ENDBRANCH  14  17
ENDBRANCH   1  13
TORSDOF 5
ENDMDL
MODEL 5
REMARK VINA RESULT:      -7.3      1.366      2.611
REMARK  5 active torsions:
REMARK  status: ('A' for Active; 'I' for Inactive)
REMARK    1  A    between atoms: C_2  and  O_3 
REMARK    2  A    between atoms: O_3  and  C_4 
REMARK    3  A    between atoms: C_8  and  C_9 
REMARK    4  A    between atoms: C_9  and  N_10 
REMARK       I    between atoms: N_10  and  C_11 
REMARK    5  A    between atoms: C_11  and  C_12 
ROOT
HETATM    1  C   UNL     1      -5.661   2.333 -31.128  1.00  0.00     0.161 C 
ENDROOT
BRANCH   1   2
HETATM    2  C   UNL     1      -5.374   3.671 -31.748  1.00  0.00    -0.035 A 
HETATM    3  C   UNL     1      -6.309   4.295 -32.578  1.00  0.00     0.028 A 
HETATM    4  C   UNL     1      -5.980   5.518 -33.139  1.00  0.00     0.120 A 
HETATM    5  N   UNL     1      -4.804   6.149 -32.937  1.00  0.00    -0.237 NA
HETATM    6  C   UNL     1      -3.914   5.535 -32.138  1.00  0.00     0.165 A 
HETATM    7  C   UNL     1      -4.150   4.307 -31.535  1.00  0.00     0.066 A 
BRANCH   6   8
HETATM    8  O   UNL     1      -2.698   6.112 -31.856  1.00  0.00    -0.324 OA
BRANCH   8   9
HETATM    9  C   UNL     1      -1.574   5.912 -32.733  1.00  0.00     0.058 C 
HETATM   10  C   UNL     1      -1.017   7.223 -33.304  1.00  0.00     0.045 C 
HETATM   11  C   UNL     1      -1.863   4.874 -33.825  1.00  0.00     0.045 C 
HETATM   12  C   UNL     1      -0.493   5.320 -31.806  1.00  0.00     0.045 C 
ENDBRANCH   8   9
ENDBRANCH   6   8
ENDBRANCH   1   2
BRANCH   1  13
HETATM   13  N   UNL     1      -5.529   1.272 -32.095  1.00  0.00    -0.353 N 
HETATM   14  C   UNL     1      -5.912  -0.012 -31.782  1.00  0.00     0.255 C 
HETATM   15  O   UNL     1      -6.362  -0.349 -30.695  1.00  0.00    -0.268 OA
HETATM   16  H   UNL     1      -5.139   1.485 -33.004  1.00  0.00     0.163 HD
BRANCH  14  17
HETATM   17  C   UNL     1      -5.767  -1.006 -32.862  1.00  0.00     0.075 A 
HETATM   18  C   UNL     1      -4.556  -1.684 -33.059  1.00  0.00     0.051 A 
HETATM   19 CL   UNL     1      -3.154  -1.400 -32.088  1.00  0.00    -0.083 Cl
HETATM   20  C   UNL     1      -4.447  -2.648 -34.068  1.00  0.00     0.025 A 
HETATM   21  C   UNL     1      -5.543  -2.948 -34.877  1.00  0.00     0.003 A 
HETATM   22  C   UNL     1      -6.750  -2.278 -34.681  1.00  0.00     0.025 A 
HETATM   23  C   UNL     1      -6.866  -1.309 -33.679  1.00  0.00     0.051 A 
HETATM   24 CL   UNL     1      -8.383  -0.488 -33.550  1.00  0.00    -0.083 Cl
ENDBRANCH  14  17
ENDBRANCH   1  13
TORSDOF 5
ENDMDL
MODEL 6
REMARK VINA RESULT:      -7.0      3.871      7.077
REMARK  5 active torsions:
REMARK  status: ('A' for Active; 'I' for Inactive)
REMARK    1  A    between atoms: C_2  and  O_3 
REMARK    2  A    between atoms: O_3  and  C_4 
REMARK    3  A    between atoms: C_8  and  C_9 
REMARK    4  A    between atoms: C_9  and  N_10 
REMARK       I    between atoms: N_10  and  C_11 
REMARK    5  A    between atoms: C_11  and  C_12 
ROOT
HETATM    1  C   UNL     1      -6.270   2.758 -32.260  1.00  0.00     0.161 C 
ENDROOT
BRANCH   1   2
HETATM    2  C   UNL     1      -7.730   2.997 -32.000  1.00  0.00    -0.035 A 
HETATM    3  C   UNL     1      -8.211   3.167 -30.700  1.00  0.00     0.028 A 
HETATM    4  C   UNL     1      -9.572   3.362 -30.520  1.00  0.00     0.120 A 
HETATM    5  N   UNL     1     -10.468   3.396 -31.528  1.00  0.00    -0.237 NA
HETATM    6  C   UNL     1      -9.990   3.229 -32.774  1.00  0.00     0.165 A 
HETATM    7  C   UNL     1      -8.646   3.022 -33.054  1.00  0.00     0.066 A 
BRANCH   6   8
HETATM    8  O   UNL     1     -10.826   3.270 -33.865  1.00  0.00    -0.324 OA
BRANCH   8   9
HETATM    9  C   UNL     1     -11.950   2.375 -33.958  1.00  0.00     0.058 C 
HETATM   10  C   UNL     1     -13.181   2.877 -33.191  1.00  0.00     0.045 C 
HETATM   11  C   UNL     1     -11.580   0.932 -33.592  1.00  0.00     0.045 C 
HETATM   12  C   UNL     1     -12.305   2.396 -35.459  1.00  0.00     0.045 C 
ENDBRANCH   8   9
ENDBRANCH   6   8
ENDBRANCH   1   2
BRANCH   1  13
HETATM   13  N   UNL     1      -6.067   1.537 -33.001  1.00  0.00    -0.353 N 
HETATM   14  C   UNL     1      -5.945   0.334 -32.345  1.00  0.00     0.255 C 
HETATM   15  O   UNL     1      -5.980   0.207 -31.129  1.00  0.00    -0.268 OA
HETATM   16  H   UNL     1      -6.004   1.582 -34.010  1.00  0.00     0.163 HD
BRANCH  14  17
HETATM   17  C   UNL     1      -5.779  -0.852 -33.207  1.00  0.00     0.075 A 
HETATM   18  C   UNL     1      -4.516  -1.427 -33.406  1.00  0.00     0.051 A 
HETATM   19 CL   UNL     1      -3.075  -0.793 -32.692  1.00  0.00    -0.083 Cl
HETATM   20  C   UNL     1      -4.383  -2.572 -34.201  1.00  0.00     0.025 A 
HETATM   21  C   UNL     1      -5.505  -3.153 -34.791  1.00  0.00     0.003 A 
HETATM   22  C   UNL     1      -6.762  -2.586 -34.593  1.00  0.00     0.025 A 
HETATM   23  C   UNL     1      -6.904  -1.439 -33.805  1.00  0.00     0.051 A 
HETATM   24 CL   UNL     1      -8.494  -0.772 -33.665  1.00  0.00    -0.083 Cl
ENDBRANCH  14  17
ENDBRANCH   1  13
TORSDOF 5
ENDMDL
MODEL 7
REMARK VINA RESULT:      -6.9      5.209      7.656
REMARK  5 active torsions:
REMARK  status: ('A' for Active; 'I' for Inactive)
REMARK    1  A    between atoms: C_2  and  O_3 
REMARK    2  A    between atoms: O_3  and  C_4 
REMARK    3  A    between atoms: C_8  and  C_9 
REMARK    4  A    between atoms: C_9  and  N_10 
REMARK       I    between atoms: N_10  and  C_11 
REMARK    5  A    between atoms: C_11  and  C_12 
ROOT
HETATM    1  C   UNL     1      -9.754   3.878 -30.830  1.00  0.00     0.161 C 
ENDROOT
BRANCH   1   2
HETATM    2  C   UNL     1      -8.426   3.194 -30.984  1.00  0.00    -0.035 A 
HETATM    3  C   UNL     1      -7.558   3.053 -29.898  1.00  0.00     0.028 A 
HETATM    4  C   UNL     1      -6.336   2.432 -30.106  1.00  0.00     0.120 A 
HETATM    5  N   UNL     1      -5.927   1.953 -31.299  1.00  0.00    -0.237 NA
HETATM    6  C   UNL     1      -6.773   2.097 -32.335  1.00  0.00     0.165 A 
HETATM    7  C   UNL     1      -8.014   2.709 -32.227  1.00  0.00     0.066 A 
BRANCH   6   8
HETATM    8  O   UNL     1      -6.451   1.619 -33.584  1.00  0.00    -0.324 OA
BRANCH   8   9
HETATM    9  C   UNL     1      -6.652   0.232 -33.910  1.00  0.00     0.058 C 
HETATM   10  C   UNL     1      -7.773  -0.421 -33.090  1.00  0.00     0.045 C 
HETATM   11  C   UNL     1      -5.347  -0.573 -33.863  1.00  0.00     0.045 C 
HETATM   12  C   UNL     1      -7.121   0.270 -35.379  1.00  0.00     0.045 C 
ENDBRANCH   8   9
ENDBRANCH   6   8
ENDBRANCH   1   2
BRANCH   1  13
HETATM   13  N   UNL     1     -10.819   3.074 -31.376  1.00  0.00    -0.353 N 
HETATM   14  C   UNL     1     -11.546   3.517 -32.457  1.00  0.00     0.255 C 
HETATM   15  O   UNL     1     -11.368   4.593 -33.011  1.00  0.00    -0.268 OA
HETATM   16  H   UNL     1     -11.031   2.184 -30.944  1.00  0.00     0.163 HD
BRANCH  14  17
HETATM   17  C   UNL     1     -12.585   2.594 -32.953  1.00  0.00     0.075 A 
HETATM   18  C   UNL     1     -13.919   2.721 -32.540  1.00  0.00     0.051 A 
HETATM   19 CL   UNL     1     -14.441   3.930 -31.420  1.00  0.00    -0.083 Cl
HETATM   20  C   UNL     1     -14.896   1.857 -33.046  1.00  0.00     0.025 A 
HETATM   21  C   UNL     1     -14.553   0.871 -33.971  1.00  0.00     0.003 A 
HETATM   22  C   UNL     1     -13.229   0.743 -34.387  1.00  0.00     0.025 A 
HETATM   23  C   UNL     1     -12.244   1.599 -33.881  1.00  0.00     0.051 A 
HETATM   24 CL   UNL     1     -10.620   1.328 -34.409  1.00  0.00    -0.083 Cl
ENDBRANCH  14  17
ENDBRANCH   1  13
TORSDOF 5
ENDMDL
MODEL 8
REMARK VINA RESULT:      -6.8      3.005      7.366
REMARK  5 active torsions:
REMARK  status: ('A' for Active; 'I' for Inactive)
REMARK    1  A    between atoms: C_2  and  O_3 
REMARK    2  A    between atoms: O_3  and  C_4 
REMARK    3  A    between atoms: C_8  and  C_9 
REMARK    4  A    between atoms: C_9  and  N_10 
REMARK       I    between atoms: N_10  and  C_11 
REMARK    5  A    between atoms: C_11  and  C_12 
ROOT
HETATM    1  C   UNL     1      -5.480   3.726 -29.902  1.00  0.00     0.161 C 
ENDROOT
BRANCH   1   2
HETATM    2  C   UNL     1      -6.458   2.748 -30.487  1.00  0.00    -0.035 A 
HETATM    3  C   UNL     1      -7.829   3.018 -30.494  1.00  0.00     0.028 A 
HETATM    4  C   UNL     1      -8.685   2.067 -31.027  1.00  0.00     0.120 A 
HETATM    5  N   UNL     1      -8.277   0.888 -31.542  1.00  0.00    -0.237 NA
HETATM    6  C   UNL     1      -6.955   0.643 -31.527  1.00  0.00     0.165 A 
HETATM    7  C   UNL     1      -6.021   1.529 -31.009  1.00  0.00     0.066 A 
BRANCH   6   8
HETATM    8  O   UNL     1      -6.445  -0.522 -32.050  1.00  0.00    -0.324 OA
BRANCH   8   9
HETATM    9  C   UNL     1      -6.235  -0.656 -33.468  1.00  0.00     0.058 C 
HETATM   10  C   UNL     1      -6.377   0.672 -34.224  1.00  0.00     0.045 C 
HETATM   11  C   UNL     1      -7.089  -1.774 -34.080  1.00  0.00     0.045 C 
HETATM   12  C   UNL     1      -4.759  -1.089 -33.576  1.00  0.00     0.045 C 
ENDBRANCH   8   9
ENDBRANCH   6   8
ENDBRANCH   1   2
BRANCH   1  13
HETATM   13  N   UNL     1      -4.456   4.072 -30.857  1.00  0.00    -0.353 N 
HETATM   14  C   UNL     1      -4.518   5.259 -31.549  1.00  0.00     0.255 C 
HETATM   15  O   UNL     1      -5.418   6.079 -31.429  1.00  0.00    -0.268 OA
HETATM   16  H   UNL     1      -3.698   3.421 -31.018  1.00  0.00     0.163 HD
BRANCH  14  17
HETATM   17  C   UNL     1      -3.396   5.523 -32.470  1.00  0.00     0.075 A 
HETATM   18  C   UNL     1      -3.511   5.256 -33.841  1.00  0.00     0.051 A 
HETATM   19 CL   UNL     1      -4.940   4.587 -34.548  1.00  0.00    -0.083 Cl
HETATM   20  C   UNL     1      -2.448   5.544 -34.705  1.00  0.00     0.025 A 
HETATM   21  C   UNL     1      -1.272   6.107 -34.210  1.00  0.00     0.003 A 
HETATM   22  C   UNL     1      -1.154   6.377 -32.848  1.00  0.00     0.025 A 
HETATM   23  C   UNL     1      -2.210   6.087 -31.977  1.00  0.00     0.051 A 
HETATM   24 CL   UNL     1      -1.951   6.401 -30.296  1.00  0.00    -0.083 Cl
ENDBRANCH  14  17
ENDBRANCH   1  13
TORSDOF 5
ENDMDL
MODEL 9
REMARK VINA RESULT:      -6.8      4.745      7.529
REMARK  5 active torsions:
REMARK  status: ('A' for Active; 'I' for Inactive)
REMARK    1  A    between atoms: C_2  and  O_3 
REMARK    2  A    between atoms: O_3  and  C_4 
REMARK    3  A    between atoms: C_8  and  C_9 
REMARK    4  A    between atoms: C_9  and  N_10 
REMARK       I    between atoms: N_10  and  C_11 
REMARK    5  A    between atoms: C_11  and  C_12 
ROOT
HETATM    1  C   UNL     1      -8.009   1.692 -31.397  1.00  0.00     0.161 C 
ENDROOT
BRANCH   1   2
HETATM    2  C   UNL     1      -9.320   1.842 -32.113  1.00  0.00    -0.035 A 
HETATM    3  C   UNL     1      -9.898   0.765 -32.792  1.00  0.00     0.028 A 
HETATM    4  C   UNL     1     -11.098   0.970 -33.453  1.00  0.00     0.120 A 
HETATM    5  N   UNL     1     -11.749   2.151 -33.487  1.00  0.00    -0.237 NA
HETATM    6  C   UNL     1     -11.181   3.178 -32.830  1.00  0.00     0.165 A 
HETATM    7  C   UNL     1      -9.978   3.073 -32.144  1.00  0.00     0.066 A 
BRANCH   6   8
HETATM    8  O   UNL     1     -11.782   4.414 -32.790  1.00  0.00    -0.324 OA
BRANCH   8   9
HETATM    9  C   UNL     1     -12.904   4.653 -31.920  1.00  0.00     0.058 C 
HETATM   10  C   UNL     1     -12.702   4.083 -30.510  1.00  0.00     0.045 C 
HETATM   11  C   UNL     1     -14.233   4.209 -32.547  1.00  0.00     0.045 C 
HETATM   12  C   UNL     1     -12.942   6.189 -31.793  1.00  0.00     0.045 C 
ENDBRANCH   8   9
ENDBRANCH   6   8
ENDBRANCH   1   2
BRANCH   1  13
HETATM   13  N   UNL     1      -7.280   0.545 -31.880  1.00  0.00    -0.353 N 
HETATM   14  C   UNL     1      -6.158   0.708 -32.660  1.00  0.00     0.255 C 
HETATM   15  O   UNL     1      -5.714   1.794 -33.008  1.00  0.00    -0.268 OA
HETATM   16  H   UNL     1      -7.614  -0.381 -31.646  1.00  0.00     0.163 HD
BRANCH  14  17
HETATM   17  C   UNL     1      -5.473  -0.535 -33.065  1.00  0.00     0.075 A 
HETATM   18  C   UNL     1      -4.373  -1.018 -32.343  1.00  0.00     0.051 A 
HETATM   19 CL   UNL     1      -3.727  -0.202 -30.962  1.00  0.00    -0.083 Cl
HETATM   20  C   UNL     1      -3.756  -2.216 -32.721  1.00  0.00     0.025 A 
HETATM   21  C   UNL     1      -4.237  -2.942 -33.811  1.00  0.00     0.003 A 
HETATM   22  C   UNL     1      -5.332  -2.466 -34.529  1.00  0.00     0.025 A 
HETATM   23  C   UNL     1      -5.951  -1.266 -34.161  1.00  0.00     0.051 A 
HETATM   24 CL   UNL     1      -7.265  -0.725 -35.147  1.00  0.00    -0.083 Cl
ENDBRANCH  14  17
ENDBRANCH   1  13
TORSDOF 5
ENDMDL
MODEL 10
REMARK VINA RESULT:      -6.8      1.314      2.593
REMARK  5 active torsions:
REMARK  status: ('A' for Active; 'I' for Inactive)
REMARK    1  A    between atoms: C_2  and  O_3 
REMARK    2  A    between atoms: O_3  and  C_4 
REMARK    3  A    between atoms: C_8  and  C_9 
REMARK    4  A    between atoms: C_9  and  N_10 
REMARK       I    between atoms: N_10  and  C_11 
REMARK    5  A    between atoms: C_11  and  C_12 
ROOT
HETATM    1  C   UNL     1      -4.985   2.446 -31.141  1.00  0.00     0.161 C 
ENDROOT
BRANCH   1   2
HETATM    2  C   UNL     1      -4.079   3.546 -31.615  1.00  0.00    -0.035 A 
HETATM    3  C   UNL     1      -3.110   3.309 -32.594  1.00  0.00     0.028 A 
HETATM    4  C   UNL     1      -2.289   4.358 -32.976  1.00  0.00     0.120 A 
HETATM    5  N   UNL     1      -2.363   5.602 -32.457  1.00  0.00    -0.237 NA
HETATM    6  C   UNL     1      -3.299   5.813 -31.515  1.00  0.00     0.165 A 
HETATM    7  C   UNL     1      -4.163   4.826 -31.063  1.00  0.00     0.066 A 
BRANCH   6   8
HETATM    8  O   UNL     1      -3.463   7.054 -30.946  1.00  0.00    -0.324 OA
BRANCH   8   9
HETATM    9  C   UNL     1      -2.565   7.511 -29.918  1.00  0.00     0.058 C 
HETATM   10  C   UNL     1      -2.157   8.981 -30.089  1.00  0.00     0.045 C 
HETATM   11  C   UNL     1      -1.355   6.584 -29.746  1.00  0.00     0.045 C 
HETATM   12  C   UNL     1      -3.409   7.416 -28.631  1.00  0.00     0.045 C 
ENDBRANCH   8   9
ENDBRANCH   6   8
ENDBRANCH   1   2
BRANCH   1  13
HETATM   13  N   UNL     1      -5.012   1.353 -32.081  1.00  0.00    -0.353 N 
HETATM   14  C   UNL     1      -5.587   0.150 -31.739  1.00  0.00     0.255 C 
HETATM   15  O   UNL     1      -6.087  -0.087 -30.647  1.00  0.00    -0.268 OA
HETATM   16  H   UNL     1      -4.592   1.481 -32.992  1.00  0.00     0.163 HD
BRANCH  14  17
HETATM   17  C   UNL     1      -5.592  -0.881 -32.794  1.00  0.00     0.075 A 
HETATM   18  C   UNL     1      -4.462  -1.677 -33.028  1.00  0.00     0.051 A 
HETATM   19 CL   UNL     1      -2.992  -1.502 -32.136  1.00  0.00    -0.083 Cl
HETATM   20  C   UNL     1      -4.496  -2.673 -34.011  1.00  0.00     0.025 A 
HETATM   21  C   UNL     1      -5.655  -2.888 -34.756  1.00  0.00     0.003 A 
HETATM   22  C   UNL     1      -6.782  -2.101 -34.523  1.00  0.00     0.025 A 
HETATM   23  C   UNL     1      -6.755  -1.099 -33.546  1.00  0.00     0.051 A 
HETATM   24 CL   UNL     1      -8.179  -0.135 -33.370  1.00  0.00    -0.083 Cl
ENDBRANCH  14  17
ENDBRANCH   1  13
TORSDOF 5
ENDMDL
