MODEL 1
REMARK VINA RESULT:      -9.2      0.000      0.000
REMARK  3 active torsions:
REMARK  status: ('A' for Active; 'I' for Inactive)
REMARK    1  A    between atoms: C_10  and  C_11 
REMARK       I    between atoms: C_11  and  N_12 
REMARK    2  A    between atoms: C_14  and  O_15 
REMARK    3  A    between atoms: O_15  and  C_16 
ROOT
HETATM    1  C   UNL     1      -5.878   3.442 -32.144  1.00  0.00     0.255 C 
HETATM    2  N   UNL     1      -5.613   2.116 -31.855  1.00  0.00    -0.345 N 
HETATM    3  C   UNL     1      -4.552   1.279 -32.411  1.00  0.00     0.158 C 
HETATM    4  C   UNL     1      -5.027  -0.168 -32.210  1.00  0.00     0.148 C 
HETATM    5  C   UNL     1      -5.946  -0.050 -30.993  1.00  0.00     0.054 C 
HETATM    6  C   UNL     1      -6.621   1.299 -31.204  1.00  0.00     0.129 C 
HETATM    7  O   UNL     1      -6.926   4.000 -31.831  1.00  0.00    -0.267 OA
ENDROOT
BRANCH   1   8
HETATM    8  C   UNL     1      -4.873   4.224 -32.889  1.00  0.00     0.050 A 
HETATM    9  C   UNL     1      -5.131   4.530 -34.224  1.00  0.00     0.136 A 
HETATM   10  N   UNL     1      -4.305   5.224 -35.051  1.00  0.00    -0.240 NA
HETATM   11  C   UNL     1      -3.177   5.623 -34.432  1.00  0.00     0.155 A 
HETATM   12  N   UNL     1      -2.156   6.333 -34.991  1.00  0.00    -0.260 N 
HETATM   13  C   UNL     1      -2.813   5.411 -33.111  1.00  0.00     0.038 A 
HETATM   14  N   UNL     1      -1.142   6.593 -34.140  1.00  0.00    -0.177 NA
HETATM   15  H   UNL     1      -2.099   6.661 -35.946  1.00  0.00     0.191 HD
HETATM   16  C   UNL     1      -1.544   6.038 -32.987  1.00  0.00     0.065 A 
HETATM   17  C   UNL     1      -0.684   6.109 -31.780  1.00  0.00     0.073 C 
HETATM   18  C   UNL     1      -3.700   4.697 -32.290  1.00  0.00     0.036 A 
ENDBRANCH   1   8
BRANCH   4  19
HETATM   19  O   UNL     1      -5.771  -0.558 -33.369  1.00  0.00    -0.344 OA
BRANCH  19  20
HETATM   20  C   UNL     1      -5.643  -1.839 -33.825  1.00  0.00     0.070 A 
HETATM   21  C   UNL     1      -4.517  -2.652 -33.699  1.00  0.00     0.060 A 
HETATM   22  C   UNL     1      -4.535  -3.945 -34.226  1.00  0.00     0.036 A 
HETATM   23 CL   UNL     1      -3.137  -4.941 -34.080  1.00  0.00    -0.084 Cl
HETATM   24  C   UNL     1      -5.667  -4.440 -34.868  1.00  0.00     0.024 A 
HETATM   25  C   UNL     1      -6.799  -3.637 -34.983  1.00  0.00     0.004 A 
HETATM   26  C   UNL     1      -6.783  -2.343 -34.460  1.00  0.00     0.037 A 
ENDBRANCH  19  20
ENDBRANCH   4  19
TORSDOF 3
ENDMDL
MODEL 2
REMARK VINA RESULT:      -9.0      1.153      1.525
REMARK  3 active torsions:
REMARK  status: ('A' for Active; 'I' for Inactive)
REMARK    1  A    between atoms: C_10  and  C_11 
REMARK       I    between atoms: C_11  and  N_12 
REMARK    2  A    between atoms: C_14  and  O_15 
REMARK    3  A    between atoms: O_15  and  C_16 
ROOT
HETATM    1  C   UNL     1      -6.021   3.816 -32.599  1.00  0.00     0.255 C 
HETATM    2  N   UNL     1      -5.704   2.540 -32.171  1.00  0.00    -0.345 N 
HETATM    3  C   UNL     1      -4.451   1.817 -32.381  1.00  0.00     0.158 C 
HETATM    4  C   UNL     1      -4.807   0.331 -32.222  1.00  0.00     0.148 C 
HETATM    5  C   UNL     1      -6.023   0.377 -31.296  1.00  0.00     0.054 C 
HETATM    6  C   UNL     1      -6.756   1.629 -31.756  1.00  0.00     0.129 C 
HETATM    7  O   UNL     1      -7.168   4.255 -32.604  1.00  0.00    -0.267 OA
ENDROOT
BRANCH   1   8
HETATM    8  C   UNL     1      -4.943   4.687 -33.104  1.00  0.00     0.050 A 
HETATM    9  C   UNL     1      -4.743   4.760 -34.481  1.00  0.00     0.136 A 
HETATM   10  N   UNL     1      -3.787   5.499 -35.103  1.00  0.00    -0.240 NA
HETATM   11  C   UNL     1      -3.033   6.199 -34.234  1.00  0.00     0.155 A 
HETATM   12  N   UNL     1      -1.997   7.028 -34.548  1.00  0.00    -0.260 N 
HETATM   13  C   UNL     1      -3.145   6.238 -32.853  1.00  0.00     0.038 A 
HETATM   14  N   UNL     1      -1.411   7.600 -33.475  1.00  0.00    -0.177 NA
HETATM   15  H   UNL     1      -1.647   7.236 -35.474  1.00  0.00     0.191 HD
HETATM   16  C   UNL     1      -2.116   7.125 -32.437  1.00  0.00     0.065 A 
HETATM   17  C   UNL     1      -1.772   7.527 -31.051  1.00  0.00     0.073 C 
HETATM   18  C   UNL     1      -4.152   5.466 -32.252  1.00  0.00     0.036 A 
ENDBRANCH   1   8
BRANCH   4  19
HETATM   19  O   UNL     1      -5.171  -0.179 -33.509  1.00  0.00    -0.344 OA
BRANCH  19  20
HETATM   20  C   UNL     1      -5.030  -1.518 -33.744  1.00  0.00     0.070 A 
HETATM   21  C   UNL     1      -5.858  -2.308 -34.539  1.00  0.00     0.060 A 
HETATM   22  C   UNL     1      -5.588  -3.671 -34.677  1.00  0.00     0.036 A 
HETATM   23 CL   UNL     1      -6.622  -4.648 -35.650  1.00  0.00    -0.084 Cl
HETATM   24  C   UNL     1      -4.494  -4.253 -34.040  1.00  0.00     0.024 A 
HETATM   25  C   UNL     1      -3.655  -3.463 -33.258  1.00  0.00     0.004 A 
HETATM   26  C   UNL     1      -3.924  -2.100 -33.115  1.00  0.00     0.037 A 
ENDBRANCH  19  20
ENDBRANCH   4  19
TORSDOF 3
ENDMDL
MODEL 3
REMARK VINA RESULT:      -8.8      4.132      6.357
REMARK  3 active torsions:
REMARK  status: ('A' for Active; 'I' for Inactive)
REMARK    1  A    between atoms: C_10  and  C_11 
REMARK       I    between atoms: C_11  and  N_12 
REMARK    2  A    between atoms: C_14  and  O_15 
REMARK    3  A    between atoms: O_15  and  C_16 
ROOT
HETATM    1  C   UNL     1      -8.333   2.621 -32.375  1.00  0.00     0.255 C 
HETATM    2  N   UNL     1      -7.175   2.019 -32.832  1.00  0.00    -0.345 N 
HETATM    3  C   UNL     1      -7.028   1.141 -33.992  1.00  0.00     0.158 C 
HETATM    4  C   UNL     1      -5.744   0.338 -33.733  1.00  0.00     0.148 C 
HETATM    5  C   UNL     1      -4.941   1.276 -32.831  1.00  0.00     0.054 C 
HETATM    6  C   UNL     1      -6.015   1.921 -31.965  1.00  0.00     0.129 C 
HETATM    7  O   UNL     1      -8.427   3.135 -31.263  1.00  0.00    -0.267 OA
ENDROOT
BRANCH   1   8
HETATM    8  C   UNL     1      -9.526   2.624 -33.242  1.00  0.00     0.050 A 
HETATM    9  C   UNL     1      -9.652   3.640 -34.187  1.00  0.00     0.136 A 
HETATM   10  N   UNL     1     -10.693   3.796 -35.047  1.00  0.00    -0.240 NA
HETATM   11  C   UNL     1     -11.620   2.827 -34.913  1.00  0.00     0.155 A 
HETATM   12  N   UNL     1     -12.775   2.707 -35.627  1.00  0.00    -0.260 N 
HETATM   13  C   UNL     1     -11.601   1.750 -34.039  1.00  0.00     0.038 A 
HETATM   14  N   UNL     1     -13.523   1.640 -35.280  1.00  0.00    -0.177 NA
HETATM   15  H   UNL     1     -13.101   3.326 -36.357  1.00  0.00     0.191 HD
HETATM   16  C   UNL     1     -12.805   1.047 -34.315  1.00  0.00     0.065 A 
HETATM   17  C   UNL     1     -13.302  -0.186 -33.659  1.00  0.00     0.073 C 
HETATM   18  C   UNL     1     -10.502   1.624 -33.174  1.00  0.00     0.036 A 
ENDBRANCH   1   8
BRANCH   4  19
HETATM   19  O   UNL     1      -6.100  -0.857 -33.031  1.00  0.00    -0.344 OA
BRANCH  19  20
HETATM   20  C   UNL     1      -5.853  -2.061 -33.626  1.00  0.00     0.070 A 
HETATM   21  C   UNL     1      -4.667  -2.790 -33.552  1.00  0.00     0.060 A 
HETATM   22  C   UNL     1      -4.561  -4.009 -34.225  1.00  0.00     0.036 A 
HETATM   23 CL   UNL     1      -3.089  -4.900 -34.142  1.00  0.00    -0.084 Cl
HETATM   24  C   UNL     1      -5.629  -4.515 -34.962  1.00  0.00     0.024 A 
HETATM   25  C   UNL     1      -6.821  -3.797 -35.026  1.00  0.00     0.004 A 
HETATM   26  C   UNL     1      -6.929  -2.576 -34.357  1.00  0.00     0.037 A 
ENDBRANCH  19  20
ENDBRANCH   4  19
TORSDOF 3
ENDMDL
MODEL 4
REMARK VINA RESULT:      -8.7      4.432      7.758
REMARK  3 active torsions:
REMARK  status: ('A' for Active; 'I' for Inactive)
REMARK    1  A    between atoms: C_10  and  C_11 
REMARK       I    between atoms: C_11  and  N_12 
REMARK    2  A    between atoms: C_14  and  O_15 
REMARK    3  A    between atoms: O_15  and  C_16 
ROOT
HETATM    1  C   UNL     1      -4.340   0.066 -32.410  1.00  0.00     0.255 C 
HETATM    2  N   UNL     1      -5.557   0.551 -31.966  1.00  0.00    -0.345 N 
HETATM    3  C   UNL     1      -6.850  -0.132 -31.992  1.00  0.00     0.158 C 
HETATM    4  C   UNL     1      -7.902   0.985 -31.924  1.00  0.00     0.148 C 
HETATM    5  C   UNL     1      -7.152   2.103 -31.199  1.00  0.00     0.054 C 
HETATM    6  C   UNL     1      -5.735   1.973 -31.741  1.00  0.00     0.129 C 
HETATM    7  O   UNL     1      -3.358   0.782 -32.584  1.00  0.00    -0.267 OA
ENDROOT
BRANCH   1   8
HETATM    8  C   UNL     1      -4.215  -1.370 -32.720  1.00  0.00     0.050 A 
HETATM    9  C   UNL     1      -3.265  -2.116 -32.024  1.00  0.00     0.136 A 
HETATM   10  N   UNL     1      -3.013  -3.439 -32.201  1.00  0.00    -0.240 NA
HETATM   11  C   UNL     1      -3.812  -3.993 -33.134  1.00  0.00     0.155 A 
HETATM   12  N   UNL     1      -3.802  -5.296 -33.537  1.00  0.00    -0.260 N 
HETATM   13  C   UNL     1      -4.809  -3.375 -33.872  1.00  0.00     0.038 A 
HETATM   14  N   UNL     1      -4.710  -5.578 -34.494  1.00  0.00    -0.177 NA
HETATM   15  H   UNL     1      -3.196  -6.030 -33.196  1.00  0.00     0.191 HD
HETATM   16  C   UNL     1      -5.333  -4.408 -34.697  1.00  0.00     0.065 A 
HETATM   17  C   UNL     1      -6.421  -4.301 -35.699  1.00  0.00     0.073 C 
HETATM   18  C   UNL     1      -5.042  -2.009 -33.651  1.00  0.00     0.036 A 
ENDBRANCH   1   8
BRANCH   4  19
HETATM   19  O   UNL     1      -8.222   1.377 -33.263  1.00  0.00    -0.344 OA
BRANCH  19  20
HETATM   20  C   UNL     1      -9.538   1.500 -33.610  1.00  0.00     0.070 A 
HETATM   21  C   UNL     1     -10.545   0.566 -33.369  1.00  0.00     0.060 A 
HETATM   22  C   UNL     1     -11.849   0.831 -33.792  1.00  0.00     0.036 A 
HETATM   23 CL   UNL     1     -13.088  -0.331 -33.505  1.00  0.00    -0.084 Cl
HETATM   24  C   UNL     1     -12.162   2.022 -34.443  1.00  0.00     0.024 A 
HETATM   25  C   UNL     1     -11.161   2.964 -34.671  1.00  0.00     0.004 A 
HETATM   26  C   UNL     1      -9.856   2.701 -34.252  1.00  0.00     0.037 A 
ENDBRANCH  19  20
ENDBRANCH   4  19
TORSDOF 3
ENDMDL
MODEL 5
REMARK VINA RESULT:      -8.4      3.566      8.053
REMARK  3 active torsions:
REMARK  status: ('A' for Active; 'I' for Inactive)
REMARK    1  A    between atoms: C_10  and  C_11 
REMARK       I    between atoms: C_11  and  N_12 
REMARK    2  A    between atoms: C_14  and  O_15 
REMARK    3  A    between atoms: O_15  and  C_16 
ROOT
HETATM    1  C   UNL     1      -5.594   0.683 -31.184  1.00  0.00     0.255 C 
HETATM    2  N   UNL     1      -5.442   2.006 -31.560  1.00  0.00    -0.345 N 
HETATM    3  C   UNL     1      -5.312   2.536 -32.916  1.00  0.00     0.158 C 
HETATM    4  C   UNL     1      -4.633   3.904 -32.755  1.00  0.00     0.148 C 
HETATM    5  C   UNL     1      -5.048   4.316 -31.342  1.00  0.00     0.054 C 
HETATM    6  C   UNL     1      -5.033   2.997 -30.582  1.00  0.00     0.129 C 
HETATM    7  O   UNL     1      -5.446   0.294 -30.029  1.00  0.00    -0.267 OA
ENDROOT
BRANCH   1   8
HETATM    8  C   UNL     1      -5.918  -0.319 -32.217  1.00  0.00     0.050 A 
HETATM    9  C   UNL     1      -7.165  -0.249 -32.835  1.00  0.00     0.136 A 
HETATM   10  N   UNL     1      -7.624  -1.102 -33.789  1.00  0.00    -0.240 NA
HETATM   11  C   UNL     1      -6.719  -2.046 -34.111  1.00  0.00     0.155 A 
HETATM   12  N   UNL     1      -6.881  -3.042 -35.028  1.00  0.00    -0.260 N 
HETATM   13  C   UNL     1      -5.441  -2.208 -33.597  1.00  0.00     0.038 A 
HETATM   14  N   UNL     1      -5.810  -3.854 -35.147  1.00  0.00    -0.177 NA
HETATM   15  H   UNL     1      -7.700  -3.215 -35.596  1.00  0.00     0.191 HD
HETATM   16  C   UNL     1      -4.924  -3.342 -34.279  1.00  0.00     0.065 A 
HETATM   17  C   UNL     1      -3.591  -3.970 -34.110  1.00  0.00     0.073 C 
HETATM   18  C   UNL     1      -5.005  -1.299 -32.620  1.00  0.00     0.036 A 
ENDBRANCH   1   8
BRANCH   4  19
HETATM   19  O   UNL     1      -3.217   3.709 -32.829  1.00  0.00    -0.344 OA
BRANCH  19  20
HETATM   20  C   UNL     1      -2.409   4.810 -32.868  1.00  0.00     0.070 A 
HETATM   21  C   UNL     1      -1.369   5.102 -31.987  1.00  0.00     0.060 A 
HETATM   22  C   UNL     1      -0.632   6.277 -32.152  1.00  0.00     0.036 A 
HETATM   23 CL   UNL     1       0.644   6.640 -31.053  1.00  0.00    -0.084 Cl
HETATM   24  C   UNL     1      -0.914   7.159 -33.192  1.00  0.00     0.024 A 
HETATM   25  C   UNL     1      -1.943   6.863 -34.083  1.00  0.00     0.004 A 
HETATM   26  C   UNL     1      -2.683   5.691 -33.920  1.00  0.00     0.037 A 
ENDBRANCH  19  20
ENDBRANCH   4  19
TORSDOF 3
ENDMDL
MODEL 6
REMARK VINA RESULT:      -8.3      4.411      6.896
REMARK  3 active torsions:
REMARK  status: ('A' for Active; 'I' for Inactive)
REMARK    1  A    between atoms: C_10  and  C_11 
REMARK       I    between atoms: C_11  and  N_12 
REMARK    2  A    between atoms: C_14  and  O_15 
REMARK    3  A    between atoms: O_15  and  C_16 
ROOT
HETATM    1  C   UNL     1      -5.145   2.626 -32.599  1.00  0.00     0.255 C 
HETATM    2  N   UNL     1      -6.480   2.830 -32.302  1.00  0.00    -0.345 N 
HETATM    3  C   UNL     1      -7.494   1.816 -32.020  1.00  0.00     0.158 C 
HETATM    4  C   UNL     1      -8.841   2.495 -32.310  1.00  0.00     0.148 C 
HETATM    5  C   UNL     1      -8.526   3.973 -32.073  1.00  0.00     0.054 C 
HETATM    6  C   UNL     1      -7.103   4.108 -32.597  1.00  0.00     0.129 C 
HETATM    7  O   UNL     1      -4.421   3.501 -33.065  1.00  0.00    -0.267 OA
ENDROOT
BRANCH   1   8
HETATM    8  C   UNL     1      -4.562   1.289 -32.375  1.00  0.00     0.050 A 
HETATM    9  C   UNL     1      -3.690   1.120 -31.301  1.00  0.00     0.136 A 
HETATM   10  N   UNL     1      -3.058  -0.036 -30.970  1.00  0.00    -0.240 NA
HETATM   11  C   UNL     1      -3.380  -1.052 -31.795  1.00  0.00     0.155 A 
HETATM   12  N   UNL     1      -2.911  -2.330 -31.725  1.00  0.00    -0.260 N 
HETATM   13  C   UNL     1      -4.250  -1.025 -32.874  1.00  0.00     0.038 A 
HETATM   14  N   UNL     1      -3.398  -3.143 -32.685  1.00  0.00    -0.177 NA
HETATM   15  H   UNL     1      -2.258  -2.699 -31.047  1.00  0.00     0.191 HD
HETATM   16  C   UNL     1      -4.223  -2.351 -33.385  1.00  0.00     0.065 A 
HETATM   17  C   UNL     1      -4.966  -2.885 -34.553  1.00  0.00     0.073 C 
HETATM   18  C   UNL     1      -4.888   0.189 -33.176  1.00  0.00     0.036 A 
ENDBRANCH   1   8
BRANCH   4  19
HETATM   19  O   UNL     1      -9.170   2.263 -33.684  1.00  0.00    -0.344 OA
BRANCH  19  20
HETATM   20  C   UNL     1     -10.475   2.021 -34.010  1.00  0.00     0.070 A 
HETATM   21  C   UNL     1     -11.239   0.930 -33.599  1.00  0.00     0.060 A 
HETATM   22  C   UNL     1     -12.565   0.816 -34.023  1.00  0.00     0.036 A 
HETATM   23 CL   UNL     1     -13.502  -0.541 -33.523  1.00  0.00    -0.084 Cl
HETATM   24  C   UNL     1     -13.140   1.783 -34.844  1.00  0.00     0.024 A 
HETATM   25  C   UNL     1     -12.383   2.882 -35.244  1.00  0.00     0.004 A 
HETATM   26  C   UNL     1     -11.057   2.998 -34.824  1.00  0.00     0.037 A 
ENDBRANCH  19  20
ENDBRANCH   4  19
TORSDOF 3
ENDMDL
MODEL 7
REMARK VINA RESULT:      -8.3      3.725      8.287
REMARK  3 active torsions:
REMARK  status: ('A' for Active; 'I' for Inactive)
REMARK    1  A    between atoms: C_10  and  C_11 
REMARK       I    between atoms: C_11  and  N_12 
REMARK    2  A    between atoms: C_14  and  O_15 
REMARK    3  A    between atoms: O_15  and  C_16 
ROOT
HETATM    1  C   UNL     1      -4.788   4.585 -33.540  1.00  0.00     0.255 C 
HETATM    2  N   UNL     1      -3.431   4.739 -33.753  1.00  0.00    -0.345 N 
HETATM    3  C   UNL     1      -2.339   4.297 -32.888  1.00  0.00     0.158 C 
HETATM    4  C   UNL     1      -1.134   5.169 -33.273  1.00  0.00     0.148 C 
HETATM    5  C   UNL     1      -1.439   5.532 -34.727  1.00  0.00     0.054 C 
HETATM    6  C   UNL     1      -2.952   5.702 -34.728  1.00  0.00     0.129 C 
HETATM    7  O   UNL     1      -5.640   5.197 -34.180  1.00  0.00    -0.267 OA
ENDROOT
BRANCH   1   8
HETATM    8  C   UNL     1      -5.244   3.668 -32.479  1.00  0.00     0.050 A 
HETATM    9  C   UNL     1      -5.619   4.213 -31.252  1.00  0.00     0.136 A 
HETATM   10  N   UNL     1      -6.044   3.509 -30.171  1.00  0.00    -0.240 NA
HETATM   11  C   UNL     1      -6.092   2.183 -30.408  1.00  0.00     0.155 A 
HETATM   12  N   UNL     1      -6.474   1.217 -29.525  1.00  0.00    -0.260 N 
HETATM   13  C   UNL     1      -5.777   1.520 -31.583  1.00  0.00     0.038 A 
HETATM   14  N   UNL     1      -6.422  -0.034 -30.028  1.00  0.00    -0.177 NA
HETATM   15  H   UNL     1      -6.775   1.355 -28.569  1.00  0.00     0.191 HD
HETATM   16  C   UNL     1      -6.003   0.148 -31.290  1.00  0.00     0.065 A 
HETATM   17  C   UNL     1      -5.813  -1.014 -32.192  1.00  0.00     0.073 C 
HETATM   18  C   UNL     1      -5.350   2.287 -32.679  1.00  0.00     0.036 A 
ENDBRANCH   1   8
BRANCH   4  19
HETATM   19  O   UNL     1      -1.149   6.338 -32.447  1.00  0.00    -0.344 OA
BRANCH  19  20
HETATM   20  C   UNL     1      -0.712   6.230 -31.157  1.00  0.00     0.070 A 
HETATM   21  C   UNL     1      -1.212   6.923 -30.056  1.00  0.00     0.060 A 
HETATM   22  C   UNL     1      -0.654   6.711 -28.794  1.00  0.00     0.036 A 
HETATM   23 CL   UNL     1      -1.266   7.580 -27.437  1.00  0.00    -0.084 Cl
HETATM   24  C   UNL     1       0.390   5.806 -28.616  1.00  0.00     0.024 A 
HETATM   25  C   UNL     1       0.881   5.100 -29.711  1.00  0.00     0.004 A 
HETATM   26  C   UNL     1       0.328   5.313 -30.975  1.00  0.00     0.037 A 
ENDBRANCH  19  20
ENDBRANCH   4  19
TORSDOF 3
ENDMDL
MODEL 8
REMARK VINA RESULT:      -8.0      3.265      7.907
REMARK  3 active torsions:
REMARK  status: ('A' for Active; 'I' for Inactive)
REMARK    1  A    between atoms: C_10  and  C_11 
REMARK       I    between atoms: C_11  and  N_12 
REMARK    2  A    between atoms: C_14  and  O_15 
REMARK    3  A    between atoms: O_15  and  C_16 
ROOT
HETATM    1  C   UNL     1      -6.557   2.084 -31.793  1.00  0.00     0.255 C 
HETATM    2  N   UNL     1      -6.163   3.254 -32.417  1.00  0.00    -0.345 N 
HETATM    3  C   UNL     1      -4.860   3.549 -33.010  1.00  0.00     0.158 C 
HETATM    4  C   UNL     1      -4.767   5.082 -33.046  1.00  0.00     0.148 C 
HETATM    5  C   UNL     1      -6.235   5.502 -33.110  1.00  0.00     0.054 C 
HETATM    6  C   UNL     1      -6.925   4.474 -32.225  1.00  0.00     0.129 C 
HETATM    7  O   UNL     1      -7.571   2.002 -31.105  1.00  0.00    -0.267 OA
ENDROOT
BRANCH   1   8
HETATM    8  C   UNL     1      -5.712   0.883 -31.929  1.00  0.00     0.050 A 
HETATM    9  C   UNL     1      -4.697   0.681 -30.996  1.00  0.00     0.136 A 
HETATM   10  N   UNL     1      -3.825  -0.361 -30.990  1.00  0.00    -0.240 NA
HETATM   11  C   UNL     1      -4.053  -1.227 -31.997  1.00  0.00     0.155 A 
HETATM   12  N   UNL     1      -3.350  -2.366 -32.259  1.00  0.00    -0.260 N 
HETATM   13  C   UNL     1      -5.040  -1.159 -32.967  1.00  0.00     0.038 A 
HETATM   14  N   UNL     1      -3.793  -3.045 -33.337  1.00  0.00    -0.177 NA
HETATM   15  H   UNL     1      -2.559  -2.722 -31.738  1.00  0.00     0.191 HD
HETATM   16  C   UNL     1      -4.832  -2.315 -33.768  1.00  0.00     0.065 A 
HETATM   17  C   UNL     1      -5.602  -2.738 -34.963  1.00  0.00     0.073 C 
HETATM   18  C   UNL     1      -5.926  -0.070 -32.931  1.00  0.00     0.036 A 
ENDBRANCH   1   8
BRANCH   4  19
HETATM   19  O   UNL     1      -4.169   5.520 -31.821  1.00  0.00    -0.344 OA
BRANCH  19  20
HETATM   20  C   UNL     1      -2.866   5.931 -31.843  1.00  0.00     0.070 A 
HETATM   21  C   UNL     1      -1.782   5.270 -31.266  1.00  0.00     0.060 A 
HETATM   22  C   UNL     1      -0.503   5.821 -31.365  1.00  0.00     0.036 A 
HETATM   23 CL   UNL     1       0.831   5.009 -30.639  1.00  0.00    -0.084 Cl
HETATM   24  C   UNL     1      -0.291   7.020 -32.044  1.00  0.00     0.024 A 
HETATM   25  C   UNL     1      -1.369   7.675 -32.634  1.00  0.00     0.004 A 
HETATM   26  C   UNL     1      -2.649   7.128 -32.534  1.00  0.00     0.037 A 
ENDBRANCH  19  20
ENDBRANCH   4  19
TORSDOF 3
ENDMDL
MODEL 9
REMARK VINA RESULT:      -8.0      3.630      7.741
REMARK  3 active torsions:
REMARK  status: ('A' for Active; 'I' for Inactive)
REMARK    1  A    between atoms: C_10  and  C_11 
REMARK       I    between atoms: C_11  and  N_12 
REMARK    2  A    between atoms: C_14  and  O_15 
REMARK    3  A    between atoms: O_15  and  C_16 
ROOT
HETATM    1  C   UNL     1      -7.780   0.719 -32.800  1.00  0.00     0.255 C 
HETATM    2  N   UNL     1      -7.630   1.978 -33.350  1.00  0.00    -0.345 N 
HETATM    3  C   UNL     1      -6.435   2.536 -33.982  1.00  0.00     0.158 C 
HETATM    4  C   UNL     1      -6.607   4.060 -33.904  1.00  0.00     0.148 C 
HETATM    5  C   UNL     1      -8.127   4.221 -33.865  1.00  0.00     0.054 C 
HETATM    6  C   UNL     1      -8.576   3.031 -33.029  1.00  0.00     0.129 C 
HETATM    7  O   UNL     1      -8.721   0.414 -32.072  1.00  0.00    -0.267 OA
ENDROOT
BRANCH   1   8
HETATM    8  C   UNL     1      -6.752  -0.305 -33.069  1.00  0.00     0.050 A 
HETATM    9  C   UNL     1      -5.489  -0.136 -32.506  1.00  0.00     0.136 A 
HETATM   10  N   UNL     1      -4.432  -0.974 -32.669  1.00  0.00    -0.240 NA
HETATM   11  C   UNL     1      -4.734  -2.038 -33.439  1.00  0.00     0.155 A 
HETATM   12  N   UNL     1      -3.890  -3.050 -33.786  1.00  0.00    -0.260 N 
HETATM   13  C   UNL     1      -5.951  -2.338 -34.031  1.00  0.00     0.038 A 
HETATM   14  N   UNL     1      -4.458  -3.988 -34.573  1.00  0.00    -0.177 NA
HETATM   15  H   UNL     1      -2.920  -3.148 -33.518  1.00  0.00     0.191 HD
HETATM   16  C   UNL     1      -5.720  -3.560 -34.718  1.00  0.00     0.065 A 
HETATM   17  C   UNL     1      -6.685  -4.335 -35.536  1.00  0.00     0.073 C 
HETATM   18  C   UNL     1      -7.019  -1.449 -33.829  1.00  0.00     0.036 A 
ENDBRANCH   1   8
BRANCH   4  19
HETATM   19  O   UNL     1      -6.019   4.513 -32.680  1.00  0.00    -0.344 OA
BRANCH  19  20
HETATM   20  C   UNL     1      -4.667   4.705 -32.638  1.00  0.00     0.070 A 
HETATM   21  C   UNL     1      -3.942   5.637 -33.379  1.00  0.00     0.060 A 
HETATM   22  C   UNL     1      -2.556   5.710 -33.233  1.00  0.00     0.036 A 
HETATM   23 CL   UNL     1      -1.662   6.854 -34.160  1.00  0.00    -0.084 Cl
HETATM   24  C   UNL     1      -1.884   4.869 -32.347  1.00  0.00     0.024 A 
HETATM   25  C   UNL     1      -2.607   3.947 -31.595  1.00  0.00     0.004 A 
HETATM   26  C   UNL     1      -3.993   3.870 -31.741  1.00  0.00     0.037 A 
ENDBRANCH  19  20
ENDBRANCH   4  19
TORSDOF 3
ENDMDL
MODEL 10
REMARK VINA RESULT:      -8.0      5.124      7.621
REMARK  3 active torsions:
REMARK  status: ('A' for Active; 'I' for Inactive)
REMARK    1  A    between atoms: C_10  and  C_11 
REMARK       I    between atoms: C_11  and  N_12 
REMARK    2  A    between atoms: C_14  and  O_15 
REMARK    3  A    between atoms: O_15  and  C_16 
ROOT
HETATM    1  C   UNL     1      -5.893   1.483 -32.683  1.00  0.00     0.255 C 
HETATM    2  N   UNL     1      -7.107   1.694 -32.056  1.00  0.00    -0.345 N 
HETATM    3  C   UNL     1      -8.270   0.808 -32.048  1.00  0.00     0.158 C 
HETATM    4  C   UNL     1      -9.468   1.712 -31.721  1.00  0.00     0.148 C 
HETATM    5  C   UNL     1      -8.821   2.847 -30.926  1.00  0.00     0.054 C 
HETATM    6  C   UNL     1      -7.478   3.028 -31.619  1.00  0.00     0.129 C 
HETATM    7  O   UNL     1      -5.063   2.373 -32.853  1.00  0.00    -0.267 OA
ENDROOT
BRANCH   1   8
HETATM    8  C   UNL     1      -5.582   0.137 -33.200  1.00  0.00     0.050 A 
HETATM    9  C   UNL     1      -6.186  -0.270 -34.388  1.00  0.00     0.136 A 
HETATM   10  N   UNL     1      -6.020  -1.478 -34.986  1.00  0.00    -0.240 NA
HETATM   11  C   UNL     1      -5.166  -2.272 -34.311  1.00  0.00     0.155 A 
HETATM   12  N   UNL     1      -4.796  -3.539 -34.655  1.00  0.00    -0.260 N 
HETATM   13  C   UNL     1      -4.480  -1.980 -33.143  1.00  0.00     0.038 A 
HETATM   14  N   UNL     1      -3.927  -4.107 -33.793  1.00  0.00    -0.177 NA
HETATM   15  H   UNL     1      -5.108  -4.063 -35.462  1.00  0.00     0.191 HD
HETATM   16  C   UNL     1      -3.725  -3.154 -32.871  1.00  0.00     0.065 A 
HETATM   17  C   UNL     1      -2.813  -3.398 -31.727  1.00  0.00     0.073 C 
HETATM   18  C   UNL     1      -4.674  -0.717 -32.562  1.00  0.00     0.036 A 
ENDBRANCH   1   8
BRANCH   4  19
HETATM   19  O   UNL     1     -10.006   2.201 -32.954  1.00  0.00    -0.344 OA
BRANCH  19  20
HETATM   20  C   UNL     1     -11.357   2.132 -33.149  1.00  0.00     0.070 A 
HETATM   21  C   UNL     1     -12.305   3.046 -32.691  1.00  0.00     0.060 A 
HETATM   22  C   UNL     1     -13.657   2.835 -32.965  1.00  0.00     0.036 A 
HETATM   23 CL   UNL     1     -14.827   3.960 -32.386  1.00  0.00    -0.084 Cl
HETATM   24  C   UNL     1     -14.075   1.727 -33.699  1.00  0.00     0.024 A 
HETATM   25  C   UNL     1     -13.129   0.819 -34.171  1.00  0.00     0.004 A 
HETATM   26  C   UNL     1     -11.776   1.026 -33.896  1.00  0.00     0.037 A 
ENDBRANCH  19  20
ENDBRANCH   4  19
TORSDOF 3
ENDMDL
