MODEL 1
REMARK VINA RESULT:      -8.5      0.000      0.000
REMARK  8 active torsions:
REMARK  status: ('A' for Active; 'I' for Inactive)
REMARK    1  A    between atoms: C_2  and  C_3 
REMARK    2  A    between atoms: C_3  and  N_4 
REMARK       I    between atoms: N_4  and  C_5 
REMARK    3  A    between atoms: N_4  and  C_20 
REMARK    4  A    between atoms: C_5  and  C_6 
REMARK    5  A    between atoms: C_10  and  C_11 
REMARK    6  A    between atoms: C_12  and  O_13 
REMARK    7  A    between atoms: C_20  and  C_21 
REMARK    8  A    between atoms: C_21  and  C_22 
ROOT
HETATM    1  C   UNL     1      -6.907   3.291 -32.858  1.00  0.00     0.120 A 
HETATM    2  N   UNL     1      -7.050   4.290 -33.782  1.00  0.00    -0.272 N 
HETATM    3  H   UNL     1      -7.919   4.575 -34.227  1.00  0.00     0.189 HD
HETATM    4  N   UNL     1      -5.912   4.926 -34.102  1.00  0.00    -0.174 NA
HETATM    5  C   UNL     1      -4.979   4.357 -33.318  1.00  0.00     0.092 A 
HETATM    6  C   UNL     1      -5.574   3.356 -32.498  1.00  0.00     0.071 A 
ENDROOT
BRANCH   1   7
HETATM    7  C   UNL     1      -8.060   2.533 -32.428  1.00  0.00     0.271 C 
HETATM    8  N   UNL     1      -8.234   1.195 -32.823  1.00  0.00    -0.346 N 
HETATM    9  O   UNL     1      -8.894   3.090 -31.714  1.00  0.00    -0.266 OA
BRANCH   8  10
HETATM   10  C   UNL     1      -9.217   0.406 -32.068  1.00  0.00     0.126 C 
BRANCH  10  11
HETATM   11  C   UNL     1     -10.377  -0.099 -32.931  1.00  0.00     0.015 C 
HETATM   12  C   UNL     1     -11.142   1.025 -33.612  1.00  0.00     0.006 C 
ENDBRANCH  10  11
ENDBRANCH   8  10
BRANCH   8  13
HETATM   13  C   UNL     1      -7.395   0.512 -33.824  1.00  0.00     0.130 C 
BRANCH  13  14
HETATM   14  C   UNL     1      -6.197  -0.283 -33.275  1.00  0.00     0.058 C 
BRANCH  14  15
HETATM   15  C   UNL     1      -5.998  -1.662 -33.872  1.00  0.00    -0.057 A 
HETATM   16  C   UNL     1      -4.700  -2.196 -33.919  1.00  0.00     0.007 A 
HETATM   17  C   UNL     1      -4.468  -3.477 -34.423  1.00  0.00     0.001 A 
HETATM   18  C   UNL     1      -5.532  -4.249 -34.881  1.00  0.00     0.000 A 
HETATM   19  C   UNL     1      -6.828  -3.742 -34.823  1.00  0.00     0.001 A 
HETATM   20  C   UNL     1      -7.062  -2.462 -34.314  1.00  0.00     0.007 A 
ENDBRANCH  14  15
ENDBRANCH  13  14
ENDBRANCH   8  13
ENDBRANCH   1   7
BRANCH   5  21
HETATM   21  C   UNL     1      -3.576   4.798 -33.366  1.00  0.00     0.028 A 
HETATM   22  C   UNL     1      -3.021   5.379 -34.522  1.00  0.00     0.078 A 
HETATM   23  C   UNL     1      -1.691   5.800 -34.558  1.00  0.00     0.037 A 
HETATM   24  C   UNL     1      -0.882   5.638 -33.436  1.00  0.00     0.003 A 
HETATM   25  C   UNL     1      -1.405   5.057 -32.283  1.00  0.00     0.001 A 
HETATM   26  C   UNL     1      -2.741   4.640 -32.247  1.00  0.00     0.017 A 
BRANCH  22  27
HETATM   27  O   UNL     1      -3.739   5.567 -35.675  1.00  0.00    -0.360 OA
HETATM   28  H   UNL     1      -4.033   6.507 -35.662  1.00  0.00     0.217 HD
ENDBRANCH  22  27
ENDBRANCH   5  21
TORSDOF 8
ENDMDL
MODEL 2
REMARK VINA RESULT:      -8.4      1.948      2.225
REMARK  8 active torsions:
REMARK  status: ('A' for Active; 'I' for Inactive)
REMARK    1  A    between atoms: C_2  and  C_3 
REMARK    2  A    between atoms: C_3  and  N_4 
REMARK       I    between atoms: N_4  and  C_5 
REMARK    3  A    between atoms: N_4  and  C_20 
REMARK    4  A    between atoms: C_5  and  C_6 
REMARK    5  A    between atoms: C_10  and  C_11 
REMARK    6  A    between atoms: C_12  and  O_13 
REMARK    7  A    between atoms: C_20  and  C_21 
REMARK    8  A    between atoms: C_21  and  C_22 
ROOT
HETATM    1  C   UNL     1      -5.248   2.565 -31.735  1.00  0.00     0.120 A 
HETATM    2  N   UNL     1      -4.119   2.040 -31.168  1.00  0.00    -0.272 N 
HETATM    3  H   UNL     1      -4.067   1.194 -30.607  1.00  0.00     0.189 HD
HETATM    4  N   UNL     1      -2.998   2.742 -31.398  1.00  0.00    -0.174 NA
HETATM    5  C   UNL     1      -3.392   3.750 -32.196  1.00  0.00     0.092 A 
HETATM    6  C   UNL     1      -4.787   3.647 -32.460  1.00  0.00     0.071 A 
ENDROOT
BRANCH   1   7
HETATM    7  C   UNL     1      -6.519   1.900 -31.562  1.00  0.00     0.271 C 
HETATM    8  N   UNL     1      -6.918   0.864 -32.425  1.00  0.00    -0.346 N 
HETATM    9  O   UNL     1      -7.253   2.270 -30.644  1.00  0.00    -0.266 OA
BRANCH   8  10
HETATM   10  C   UNL     1      -8.031   0.018 -31.972  1.00  0.00     0.126 C 
BRANCH  10  11
HETATM   11  C   UNL     1      -9.183  -0.052 -32.979  1.00  0.00     0.015 C 
HETATM   12  C   UNL     1     -10.005   1.227 -33.028  1.00  0.00     0.006 C 
ENDBRANCH  10  11
ENDBRANCH   8  10
BRANCH   8  13
HETATM   13  C   UNL     1      -6.198   0.490 -33.655  1.00  0.00     0.130 C 
BRANCH  13  14
HETATM   14  C   UNL     1      -5.050  -0.522 -33.487  1.00  0.00     0.058 C 
BRANCH  14  15
HETATM   15  C   UNL     1      -5.333  -1.922 -33.994  1.00  0.00    -0.057 A 
HETATM   16  C   UNL     1      -4.299  -2.873 -33.964  1.00  0.00     0.007 A 
HETATM   17  C   UNL     1      -4.518  -4.187 -34.383  1.00  0.00     0.001 A 
HETATM   18  C   UNL     1      -5.777  -4.574 -34.831  1.00  0.00     0.000 A 
HETATM   19  C   UNL     1      -6.819  -3.649 -34.850  1.00  0.00     0.001 A 
HETATM   20  C   UNL     1      -6.602  -2.335 -34.425  1.00  0.00     0.007 A 
ENDBRANCH  14  15
ENDBRANCH  13  14
ENDBRANCH   8  13
ENDBRANCH   1   7
BRANCH   5  21
HETATM   21  C   UNL     1      -2.430   4.749 -32.689  1.00  0.00     0.028 A 
HETATM   22  C   UNL     1      -1.725   5.594 -31.811  1.00  0.00     0.078 A 
HETATM   23  C   UNL     1      -0.810   6.535 -32.284  1.00  0.00     0.037 A 
HETATM   24  C   UNL     1      -0.588   6.659 -33.653  1.00  0.00     0.003 A 
HETATM   25  C   UNL     1      -1.280   5.841 -34.543  1.00  0.00     0.001 A 
HETATM   26  C   UNL     1      -2.193   4.894 -34.066  1.00  0.00     0.017 A 
BRANCH  22  27
HETATM   27  O   UNL     1      -1.888   5.551 -30.449  1.00  0.00    -0.360 OA
HETATM   28  H   UNL     1      -1.802   6.481 -30.135  1.00  0.00     0.217 HD
ENDBRANCH  22  27
ENDBRANCH   5  21
TORSDOF 8
ENDMDL
MODEL 3
REMARK VINA RESULT:      -8.4      2.885      6.624
REMARK  8 active torsions:
REMARK  status: ('A' for Active; 'I' for Inactive)
REMARK    1  A    between atoms: C_2  and  C_3 
REMARK    2  A    between atoms: C_3  and  N_4 
REMARK       I    between atoms: N_4  and  C_5 
REMARK    3  A    between atoms: N_4  and  C_20 
REMARK    4  A    between atoms: C_5  and  C_6 
REMARK    5  A    between atoms: C_10  and  C_11 
REMARK    6  A    between atoms: C_12  and  O_13 
REMARK    7  A    between atoms: C_20  and  C_21 
REMARK    8  A    between atoms: C_21  and  C_22 
ROOT
HETATM    1  C   UNL     1      -3.613   1.503 -31.756  1.00  0.00     0.120 A 
HETATM    2  N   UNL     1      -4.102   0.788 -30.697  1.00  0.00    -0.272 N 
HETATM    3  H   UNL     1      -4.330   1.158 -29.777  1.00  0.00     0.189 HD
HETATM    4  N   UNL     1      -4.281  -0.521 -30.937  1.00  0.00    -0.174 NA
HETATM    5  C   UNL     1      -3.943  -0.672 -32.230  1.00  0.00     0.092 A 
HETATM    6  C   UNL     1      -3.557   0.582 -32.784  1.00  0.00     0.071 A 
ENDROOT
BRANCH   1   7
HETATM    7  C   UNL     1      -3.379   2.923 -31.623  1.00  0.00     0.271 C 
HETATM    8  N   UNL     1      -4.449   3.835 -31.621  1.00  0.00    -0.346 N 
HETATM    9  O   UNL     1      -2.217   3.318 -31.522  1.00  0.00    -0.266 OA
BRANCH   8  10
HETATM   10  C   UNL     1      -4.161   5.190 -31.129  1.00  0.00     0.126 C 
BRANCH  10  11
HETATM   11  C   UNL     1      -4.398   6.276 -32.182  1.00  0.00     0.015 C 
HETATM   12  C   UNL     1      -3.598   6.052 -33.455  1.00  0.00     0.006 C 
ENDBRANCH  10  11
ENDBRANCH   8  10
BRANCH   8  13
HETATM   13  C   UNL     1      -5.845   3.474 -31.927  1.00  0.00     0.130 C 
BRANCH  13  14
HETATM   14  C   UNL     1      -6.159   3.179 -33.405  1.00  0.00     0.058 C 
BRANCH  14  15
HETATM   15  C   UNL     1      -6.749   1.812 -33.688  1.00  0.00    -0.057 A 
HETATM   16  C   UNL     1      -7.263   1.063 -32.616  1.00  0.00     0.007 A 
HETATM   17  C   UNL     1      -7.852  -0.185 -32.828  1.00  0.00     0.001 A 
HETATM   18  C   UNL     1      -7.943  -0.702 -34.117  1.00  0.00     0.000 A 
HETATM   19  C   UNL     1      -7.456   0.035 -35.193  1.00  0.00     0.001 A 
HETATM   20  C   UNL     1      -6.871   1.287 -34.983  1.00  0.00     0.007 A 
ENDBRANCH  14  15
ENDBRANCH  13  14
ENDBRANCH   8  13
ENDBRANCH   1   7
BRANCH   5  21
HETATM   21  C   UNL     1      -4.019  -1.987 -32.886  1.00  0.00     0.028 A 
HETATM   22  C   UNL     1      -3.306  -3.099 -32.400  1.00  0.00     0.078 A 
HETATM   23  C   UNL     1      -3.387  -4.345 -33.024  1.00  0.00     0.037 A 
HETATM   24  C   UNL     1      -4.180  -4.502 -34.158  1.00  0.00     0.003 A 
HETATM   25  C   UNL     1      -4.888  -3.414 -34.664  1.00  0.00     0.001 A 
HETATM   26  C   UNL     1      -4.810  -2.167 -34.033  1.00  0.00     0.017 A 
BRANCH  22  27
HETATM   27  O   UNL     1      -2.492  -3.034 -31.298  1.00  0.00    -0.360 OA
HETATM   28  H   UNL     1      -3.085  -2.849 -30.533  1.00  0.00     0.217 HD
ENDBRANCH  22  27
ENDBRANCH   5  21
TORSDOF 8
ENDMDL
MODEL 4
REMARK VINA RESULT:      -8.3      3.234      6.980
REMARK  8 active torsions:
REMARK  status: ('A' for Active; 'I' for Inactive)
REMARK    1  A    between atoms: C_2  and  C_3 
REMARK    2  A    between atoms: C_3  and  N_4 
REMARK       I    between atoms: N_4  and  C_5 
REMARK    3  A    between atoms: N_4  and  C_20 
REMARK    4  A    between atoms: C_5  and  C_6 
REMARK    5  A    between atoms: C_10  and  C_11 
REMARK    6  A    between atoms: C_12  and  O_13 
REMARK    7  A    between atoms: C_20  and  C_21 
REMARK    8  A    between atoms: C_21  and  C_22 
ROOT
HETATM    1  C   UNL     1      -8.735   2.003 -32.984  1.00  0.00     0.120 A 
HETATM    2  N   UNL     1      -9.008   2.546 -34.210  1.00  0.00    -0.272 N 
HETATM    3  H   UNL     1      -8.327   2.934 -34.859  1.00  0.00     0.189 HD
HETATM    4  N   UNL     1     -10.308   2.548 -34.546  1.00  0.00    -0.174 NA
HETATM    5  C   UNL     1     -10.920   1.933 -33.518  1.00  0.00     0.092 A 
HETATM    6  C   UNL     1      -9.960   1.543 -32.541  1.00  0.00     0.071 A 
ENDROOT
BRANCH   1   7
HETATM    7  C   UNL     1      -7.371   1.940 -32.509  1.00  0.00     0.271 C 
HETATM    8  N   UNL     1      -6.601   0.775 -32.673  1.00  0.00    -0.346 N 
HETATM    9  O   UNL     1      -6.901   2.929 -31.946  1.00  0.00    -0.266 OA
BRANCH   8  10
HETATM   10  C   UNL     1      -5.149   0.913 -32.494  1.00  0.00     0.126 C 
BRANCH  10  11
HETATM   11  C   UNL     1      -4.598   0.055 -31.352  1.00  0.00     0.015 C 
HETATM   12  C   UNL     1      -3.153  -0.366 -31.571  1.00  0.00     0.006 C 
ENDBRANCH  10  11
ENDBRANCH   8  10
BRANCH   8  13
HETATM   13  C   UNL     1      -7.137  -0.510 -33.157  1.00  0.00     0.130 C 
BRANCH  13  14
HETATM   14  C   UNL     1      -6.622  -0.986 -34.527  1.00  0.00     0.058 C 
BRANCH  14  15
HETATM   15  C   UNL     1      -6.035  -2.382 -34.556  1.00  0.00    -0.057 A 
HETATM   16  C   UNL     1      -4.716  -2.569 -34.109  1.00  0.00     0.007 A 
HETATM   17  C   UNL     1      -4.140  -3.841 -34.078  1.00  0.00     0.001 A 
HETATM   18  C   UNL     1      -4.877  -4.948 -34.486  1.00  0.00     0.000 A 
HETATM   19  C   UNL     1      -6.192  -4.784 -34.914  1.00  0.00     0.001 A 
HETATM   20  C   UNL     1      -6.771  -3.512 -34.940  1.00  0.00     0.007 A 
ENDBRANCH  14  15
ENDBRANCH  13  14
ENDBRANCH   8  13
ENDBRANCH   1   7
BRANCH   5  21
HETATM   21  C   UNL     1     -12.377   1.725 -33.517  1.00  0.00     0.028 A 
HETATM   22  C   UNL     1     -13.231   2.473 -32.686  1.00  0.00     0.078 A 
HETATM   23  C   UNL     1     -14.612   2.274 -32.694  1.00  0.00     0.037 A 
HETATM   24  C   UNL     1     -15.168   1.310 -33.530  1.00  0.00     0.003 A 
HETATM   25  C   UNL     1     -14.343   0.549 -34.356  1.00  0.00     0.001 A 
HETATM   26  C   UNL     1     -12.959   0.755 -34.350  1.00  0.00     0.017 A 
BRANCH  22  27
HETATM   27  O   UNL     1     -12.771   3.435 -31.823  1.00  0.00    -0.360 OA
HETATM   28  H   UNL     1     -11.788   3.423 -31.901  1.00  0.00     0.217 HD
ENDBRANCH  22  27
ENDBRANCH   5  21
TORSDOF 8
ENDMDL
MODEL 5
REMARK VINA RESULT:      -8.1      1.674      2.205
REMARK  8 active torsions:
REMARK  status: ('A' for Active; 'I' for Inactive)
REMARK    1  A    between atoms: C_2  and  C_3 
REMARK    2  A    between atoms: C_3  and  N_4 
REMARK       I    between atoms: N_4  and  C_5 
REMARK    3  A    between atoms: N_4  and  C_20 
REMARK    4  A    between atoms: C_5  and  C_6 
REMARK    5  A    between atoms: C_10  and  C_11 
REMARK    6  A    between atoms: C_12  and  O_13 
REMARK    7  A    between atoms: C_20  and  C_21 
REMARK    8  A    between atoms: C_21  and  C_22 
ROOT
HETATM    1  C   UNL     1      -5.319   4.688 -33.704  1.00  0.00     0.120 A 
HETATM    2  N   UNL     1      -4.568   4.964 -34.813  1.00  0.00    -0.272 N 
HETATM    3  H   UNL     1      -4.881   4.905 -35.779  1.00  0.00     0.189 HD
HETATM    4  N   UNL     1      -3.306   5.344 -34.556  1.00  0.00    -0.174 NA
HETATM    5  C   UNL     1      -3.231   5.369 -33.214  1.00  0.00     0.092 A 
HETATM    6  C   UNL     1      -4.485   5.002 -32.648  1.00  0.00     0.071 A 
ENDROOT
BRANCH   1   7
HETATM    7  C   UNL     1      -6.696   4.271 -33.848  1.00  0.00     0.271 C 
HETATM    8  N   UNL     1      -7.065   2.924 -33.682  1.00  0.00    -0.346 N 
HETATM    9  O   UNL     1      -7.539   5.123 -34.131  1.00  0.00    -0.266 OA
BRANCH   8  10
HETATM   10  C   UNL     1      -8.496   2.650 -33.491  1.00  0.00     0.126 C 
BRANCH  10  11
HETATM   11  C   UNL     1      -9.062   1.658 -34.511  1.00  0.00     0.015 C 
HETATM   12  C   UNL     1     -10.213   0.832 -33.959  1.00  0.00     0.006 C 
ENDBRANCH  10  11
ENDBRANCH   8  10
BRANCH   8  13
HETATM   13  C   UNL     1      -6.105   1.816 -33.534  1.00  0.00     0.130 C 
BRANCH  13  14
HETATM   14  C   UNL     1      -6.635   0.548 -32.841  1.00  0.00     0.058 C 
BRANCH  14  15
HETATM   15  C   UNL     1      -6.263  -0.764 -33.502  1.00  0.00    -0.057 A 
HETATM   16  C   UNL     1      -4.911  -1.144 -33.533  1.00  0.00     0.007 A 
HETATM   17  C   UNL     1      -4.519  -2.360 -34.096  1.00  0.00     0.001 A 
HETATM   18  C   UNL     1      -5.474  -3.220 -34.631  1.00  0.00     0.000 A 
HETATM   19  C   UNL     1      -6.821  -2.868 -34.591  1.00  0.00     0.001 A 
HETATM   20  C   UNL     1      -7.215  -1.653 -34.022  1.00  0.00     0.007 A 
ENDBRANCH  14  15
ENDBRANCH  13  14
ENDBRANCH   8  13
ENDBRANCH   1   7
BRANCH   5  21
HETATM   21  C   UNL     1      -1.988   5.758 -32.530  1.00  0.00     0.028 A 
HETATM   22  C   UNL     1      -1.290   6.932 -32.872  1.00  0.00     0.078 A 
HETATM   23  C   UNL     1      -0.115   7.297 -32.216  1.00  0.00     0.037 A 
HETATM   24  C   UNL     1       0.396   6.486 -31.206  1.00  0.00     0.003 A 
HETATM   25  C   UNL     1      -0.270   5.314 -30.855  1.00  0.00     0.001 A 
HETATM   26  C   UNL     1      -1.452   4.952 -31.511  1.00  0.00     0.017 A 
BRANCH  22  27
HETATM   27  O   UNL     1      -1.713   7.783 -33.861  1.00  0.00    -0.360 OA
HETATM   28  H   UNL     1      -0.958   7.866 -34.489  1.00  0.00     0.217 HD
ENDBRANCH  22  27
ENDBRANCH   5  21
TORSDOF 8
ENDMDL
MODEL 6
REMARK VINA RESULT:      -7.9      3.503      6.127
REMARK  8 active torsions:
REMARK  status: ('A' for Active; 'I' for Inactive)
REMARK    1  A    between atoms: C_2  and  C_3 
REMARK    2  A    between atoms: C_3  and  N_4 
REMARK       I    between atoms: N_4  and  C_5 
REMARK    3  A    between atoms: N_4  and  C_20 
REMARK    4  A    between atoms: C_5  and  C_6 
REMARK    5  A    between atoms: C_10  and  C_11 
REMARK    6  A    between atoms: C_12  and  O_13 
REMARK    7  A    between atoms: C_20  and  C_21 
REMARK    8  A    between atoms: C_21  and  C_22 
ROOT
HETATM    1  C   UNL     1      -7.551   1.899 -31.657  1.00  0.00     0.120 A 
HETATM    2  N   UNL     1      -8.662   1.839 -30.861  1.00  0.00    -0.272 N 
HETATM    3  H   UNL     1      -8.672   1.674 -29.857  1.00  0.00     0.189 HD
HETATM    4  N   UNL     1      -9.825   2.015 -31.507  1.00  0.00    -0.174 NA
HETATM    5  C   UNL     1      -9.467   2.255 -32.781  1.00  0.00     0.092 A 
HETATM    6  C   UNL     1      -8.048   2.229 -32.903  1.00  0.00     0.071 A 
ENDROOT
BRANCH   1   7
HETATM    7  C   UNL     1      -6.237   1.727 -31.079  1.00  0.00     0.271 C 
HETATM    8  N   UNL     1      -5.498   0.551 -31.299  1.00  0.00    -0.346 N 
HETATM    9  O   UNL     1      -5.782   2.632 -30.378  1.00  0.00    -0.266 OA
BRANCH   8  10
HETATM   10  C   UNL     1      -4.063   0.603 -30.986  1.00  0.00     0.126 C 
BRANCH  10  11
HETATM   11  C   UNL     1      -3.177   0.128 -32.141  1.00  0.00     0.015 C 
HETATM   12  C   UNL     1      -2.305  -1.060 -31.768  1.00  0.00     0.006 C 
ENDBRANCH  10  11
ENDBRANCH   8  10
BRANCH   8  13
HETATM   13  C   UNL     1      -6.037  -0.653 -31.958  1.00  0.00     0.130 C 
BRANCH  13  14
HETATM   14  C   UNL     1      -5.829  -0.742 -33.481  1.00  0.00     0.058 C 
BRANCH  14  15
HETATM   15  C   UNL     1      -5.754  -2.144 -34.050  1.00  0.00    -0.057 A 
HETATM   16  C   UNL     1      -4.518  -2.814 -34.033  1.00  0.00     0.007 A 
HETATM   17  C   UNL     1      -4.403  -4.121 -34.509  1.00  0.00     0.001 A 
HETATM   18  C   UNL     1      -5.523  -4.784 -35.002  1.00  0.00     0.000 A 
HETATM   19  C   UNL     1      -6.759  -4.143 -35.008  1.00  0.00     0.001 A 
HETATM   20  C   UNL     1      -6.877  -2.835 -34.526  1.00  0.00     0.007 A 
ENDBRANCH  14  15
ENDBRANCH  13  14
ENDBRANCH   8  13
ENDBRANCH   1   7
BRANCH   5  21
HETATM   21  C   UNL     1     -10.478   2.517 -33.817  1.00  0.00     0.028 A 
HETATM   22  C   UNL     1     -11.547   1.631 -34.050  1.00  0.00     0.078 A 
HETATM   23  C   UNL     1     -12.505   1.889 -35.030  1.00  0.00     0.037 A 
HETATM   24  C   UNL     1     -12.408   3.038 -35.810  1.00  0.00     0.003 A 
HETATM   25  C   UNL     1     -11.355   3.927 -35.605  1.00  0.00     0.001 A 
HETATM   26  C   UNL     1     -10.397   3.669 -34.618  1.00  0.00     0.017 A 
BRANCH  22  27
HETATM   27  O   UNL     1     -11.716   0.470 -33.339  1.00  0.00    -0.360 OA
HETATM   28  H   UNL     1     -11.129  -0.197 -33.766  1.00  0.00     0.217 HD
ENDBRANCH  22  27
ENDBRANCH   5  21
TORSDOF 8
ENDMDL
MODEL 7
REMARK VINA RESULT:      -7.7      2.921      6.136
REMARK  8 active torsions:
REMARK  status: ('A' for Active; 'I' for Inactive)
REMARK    1  A    between atoms: C_2  and  C_3 
REMARK    2  A    between atoms: C_3  and  N_4 
REMARK       I    between atoms: N_4  and  C_5 
REMARK    3  A    between atoms: N_4  and  C_20 
REMARK    4  A    between atoms: C_5  and  C_6 
REMARK    5  A    between atoms: C_10  and  C_11 
REMARK    6  A    between atoms: C_12  and  O_13 
REMARK    7  A    between atoms: C_20  and  C_21 
REMARK    8  A    between atoms: C_21  and  C_22 
ROOT
HETATM    1  C   UNL     1      -8.073   1.156 -33.902  1.00  0.00     0.120 A 
HETATM    2  N   UNL     1      -6.758   1.486 -34.089  1.00  0.00    -0.272 N 
HETATM    3  H   UNL     1      -6.371   2.426 -34.097  1.00  0.00     0.189 HD
HETATM    4  N   UNL     1      -5.939   0.439 -34.280  1.00  0.00    -0.174 NA
HETATM    5  C   UNL     1      -6.738  -0.636 -34.164  1.00  0.00     0.092 A 
HETATM    6  C   UNL     1      -8.073  -0.225 -33.888  1.00  0.00     0.071 A 
ENDROOT
BRANCH   1   7
HETATM    7  C   UNL     1      -9.054   2.194 -33.684  1.00  0.00     0.271 C 
HETATM    8  N   UNL     1      -9.346   2.654 -32.388  1.00  0.00    -0.346 N 
HETATM    9  O   UNL     1      -9.639   2.662 -34.662  1.00  0.00    -0.266 OA
BRANCH   8  10
HETATM   10  C   UNL     1     -10.070   3.929 -32.285  1.00  0.00     0.126 C 
BRANCH  10  11
HETATM   11  C   UNL     1     -11.559   3.753 -31.976  1.00  0.00     0.015 C 
HETATM   12  C   UNL     1     -11.934   4.225 -30.580  1.00  0.00     0.006 C 
ENDBRANCH  10  11
ENDBRANCH   8  10
BRANCH   8  13
HETATM   13  C   UNL     1      -8.841   2.024 -31.154  1.00  0.00     0.130 C 
BRANCH  13  14
HETATM   14  C   UNL     1      -7.632   2.708 -30.490  1.00  0.00     0.058 C 
BRANCH  14  15
HETATM   15  C   UNL     1      -6.290   2.052 -30.744  1.00  0.00    -0.057 A 
HETATM   16  C   UNL     1      -5.198   2.864 -31.096  1.00  0.00     0.007 A 
HETATM   17  C   UNL     1      -3.931   2.315 -31.302  1.00  0.00     0.001 A 
HETATM   18  C   UNL     1      -3.733   0.946 -31.152  1.00  0.00     0.000 A 
HETATM   19  C   UNL     1      -4.799   0.129 -30.785  1.00  0.00     0.001 A 
HETATM   20  C   UNL     1      -6.067   0.679 -30.573  1.00  0.00     0.007 A 
ENDBRANCH  14  15
ENDBRANCH  13  14
ENDBRANCH   8  13
ENDBRANCH   1   7
BRANCH   5  21
HETATM   21  C   UNL     1      -6.200  -2.000 -34.298  1.00  0.00     0.028 A 
HETATM   22  C   UNL     1      -4.834  -2.280 -34.099  1.00  0.00     0.078 A 
HETATM   23  C   UNL     1      -4.332  -3.575 -34.223  1.00  0.00     0.037 A 
HETATM   24  C   UNL     1      -5.187  -4.621 -34.559  1.00  0.00     0.003 A 
HETATM   25  C   UNL     1      -6.541  -4.368 -34.769  1.00  0.00     0.001 A 
HETATM   26  C   UNL     1      -7.044  -3.069 -34.640  1.00  0.00     0.017 A 
BRANCH  22  27
HETATM   27  O   UNL     1      -3.918  -1.311 -33.778  1.00  0.00    -0.360 OA
HETATM   28  H   UNL     1      -4.278  -0.849 -32.985  1.00  0.00     0.217 HD
ENDBRANCH  22  27
ENDBRANCH   5  21
TORSDOF 8
ENDMDL
MODEL 8
REMARK VINA RESULT:      -7.7      2.652      7.292
REMARK  8 active torsions:
REMARK  status: ('A' for Active; 'I' for Inactive)
REMARK    1  A    between atoms: C_2  and  C_3 
REMARK    2  A    between atoms: C_3  and  N_4 
REMARK       I    between atoms: N_4  and  C_5 
REMARK    3  A    between atoms: N_4  and  C_20 
REMARK    4  A    between atoms: C_5  and  C_6 
REMARK    5  A    between atoms: C_10  and  C_11 
REMARK    6  A    between atoms: C_12  and  O_13 
REMARK    7  A    between atoms: C_20  and  C_21 
REMARK    8  A    between atoms: C_21  and  C_22 
ROOT
HETATM    1  C   UNL     1      -9.490   2.973 -33.528  1.00  0.00     0.120 A 
HETATM    2  N   UNL     1      -9.969   2.704 -34.781  1.00  0.00    -0.272 N 
HETATM    3  H   UNL     1      -9.419   2.650 -35.635  1.00  0.00     0.189 HD
HETATM    4  N   UNL     1     -11.295   2.503 -34.843  1.00  0.00    -0.174 NA
HETATM    5  C   UNL     1     -11.707   2.591 -33.566  1.00  0.00     0.092 A 
HETATM    6  C   UNL     1     -10.596   2.846 -32.711  1.00  0.00     0.071 A 
ENDROOT
BRANCH   1   7
HETATM    7  C   UNL     1      -8.077   3.207 -33.330  1.00  0.00     0.271 C 
HETATM    8  N   UNL     1      -7.191   2.138 -33.104  1.00  0.00    -0.346 N 
HETATM    9  O   UNL     1      -7.667   4.368 -33.354  1.00  0.00    -0.266 OA
BRANCH   8  10
HETATM   10  C   UNL     1      -5.759   2.421 -33.270  1.00  0.00     0.126 C 
BRANCH  10  11
HETATM   11  C   UNL     1      -4.940   2.153 -32.004  1.00  0.00     0.015 C 
HETATM   12  C   UNL     1      -4.528   3.427 -31.285  1.00  0.00     0.006 C 
ENDBRANCH  10  11
ENDBRANCH   8  10
BRANCH   8  13
HETATM   13  C   UNL     1      -7.618   0.747 -32.869  1.00  0.00     0.130 C 
BRANCH  13  14
HETATM   14  C   UNL     1      -7.661  -0.166 -34.108  1.00  0.00     0.058 C 
BRANCH  14  15
HETATM   15  C   UNL     1      -6.611  -1.259 -34.151  1.00  0.00    -0.057 A 
HETATM   16  C   UNL     1      -6.936  -2.483 -34.759  1.00  0.00     0.007 A 
HETATM   17  C   UNL     1      -5.992  -3.508 -34.860  1.00  0.00     0.001 A 
HETATM   18  C   UNL     1      -4.706  -3.322 -34.362  1.00  0.00     0.000 A 
HETATM   19  C   UNL     1      -4.361  -2.107 -33.774  1.00  0.00     0.001 A 
HETATM   20  C   UNL     1      -5.303  -1.079 -33.677  1.00  0.00     0.007 A 
ENDBRANCH  14  15
ENDBRANCH  13  14
ENDBRANCH   8  13
ENDBRANCH   1   7
BRANCH   5  21
HETATM   21  C   UNL     1     -13.124   2.411 -33.210  1.00  0.00     0.028 A 
HETATM   22  C   UNL     1     -13.943   1.484 -33.881  1.00  0.00     0.078 A 
HETATM   23  C   UNL     1     -15.284   1.315 -33.536  1.00  0.00     0.037 A 
HETATM   24  C   UNL     1     -15.839   2.080 -32.514  1.00  0.00     0.003 A 
HETATM   25  C   UNL     1     -15.051   3.011 -31.840  1.00  0.00     0.001 A 
HETATM   26  C   UNL     1     -13.704   3.176 -32.185  1.00  0.00     0.017 A 
BRANCH  22  27
HETATM   27  O   UNL     1     -13.486   0.697 -34.907  1.00  0.00    -0.360 OA
HETATM   28  H   UNL     1     -14.228   0.091 -35.137  1.00  0.00     0.217 HD
ENDBRANCH  22  27
ENDBRANCH   5  21
TORSDOF 8
ENDMDL
MODEL 9
REMARK VINA RESULT:      -7.5     15.654     17.459
REMARK  8 active torsions:
REMARK  status: ('A' for Active; 'I' for Inactive)
REMARK    1  A    between atoms: C_2  and  C_3 
REMARK    2  A    between atoms: C_3  and  N_4 
REMARK       I    between atoms: N_4  and  C_5 
REMARK    3  A    between atoms: N_4  and  C_20 
REMARK    4  A    between atoms: C_5  and  C_6 
REMARK    5  A    between atoms: C_10  and  C_11 
REMARK    6  A    between atoms: C_12  and  O_13 
REMARK    7  A    between atoms: C_20  and  C_21 
REMARK    8  A    between atoms: C_21  and  C_22 
ROOT
HETATM    1  C   UNL     1      -4.865 -13.498 -35.340  1.00  0.00     0.120 A 
HETATM    2  N   UNL     1      -5.310 -12.598 -34.411  1.00  0.00    -0.272 N 
HETATM    3  H   UNL     1      -5.442 -11.600 -34.558  1.00  0.00     0.189 HD
HETATM    4  N   UNL     1      -5.583 -13.124 -33.206  1.00  0.00    -0.174 NA
HETATM    5  C   UNL     1      -5.357 -14.441 -33.357  1.00  0.00     0.092 A 
HETATM    6  C   UNL     1      -4.944 -14.716 -34.692  1.00  0.00     0.071 A 
ENDROOT
BRANCH   1   7
HETATM    7  C   UNL     1      -4.538 -13.056 -36.677  1.00  0.00     0.271 C 
HETATM    8  N   UNL     1      -5.407 -13.306 -37.754  1.00  0.00    -0.346 N 
HETATM    9  O   UNL     1      -3.474 -12.461 -36.854  1.00  0.00    -0.266 OA
BRANCH   8  10
HETATM   10  C   UNL     1      -5.181 -12.527 -38.980  1.00  0.00     0.126 C 
BRANCH  10  11
HETATM   11  C   UNL     1      -5.586 -13.276 -40.253  1.00  0.00     0.015 C 
HETATM   12  C   UNL     1      -6.557 -12.488 -41.119  1.00  0.00     0.006 C 
ENDBRANCH  10  11
ENDBRANCH   8  10
BRANCH   8  13
HETATM   13  C   UNL     1      -6.598 -14.171 -37.672  1.00  0.00     0.130 C 
BRANCH  13  14
HETATM   14  C   UNL     1      -7.948 -13.450 -37.502  1.00  0.00     0.058 C 
BRANCH  14  15
HETATM   15  C   UNL     1      -8.967 -13.705 -38.594  1.00  0.00    -0.057 A 
HETATM   16  C   UNL     1      -9.636 -12.609 -39.163  1.00  0.00     0.007 A 
HETATM   17  C   UNL     1     -10.556 -12.787 -40.199  1.00  0.00     0.001 A 
HETATM   18  C   UNL     1     -10.816 -14.063 -40.688  1.00  0.00     0.000 A 
HETATM   19  C   UNL     1     -10.148 -15.160 -40.148  1.00  0.00     0.001 A 
HETATM   20  C   UNL     1      -9.222 -14.982 -39.115  1.00  0.00     0.007 A 
ENDBRANCH  14  15
ENDBRANCH  13  14
ENDBRANCH   8  13
ENDBRANCH   1   7
BRANCH   5  21
HETATM   21  C   UNL     1      -5.561 -15.379 -32.242  1.00  0.00     0.028 A 
HETATM   22  C   UNL     1      -4.634 -15.490 -31.188  1.00  0.00     0.078 A 
HETATM   23  C   UNL     1      -4.837 -16.377 -30.131  1.00  0.00     0.037 A 
HETATM   24  C   UNL     1      -5.972 -17.184 -30.111  1.00  0.00     0.003 A 
HETATM   25  C   UNL     1      -6.900 -17.099 -31.147  1.00  0.00     0.001 A 
HETATM   26  C   UNL     1      -6.698 -16.204 -32.203  1.00  0.00     0.017 A 
BRANCH  22  27
HETATM   27  O   UNL     1      -3.484 -14.745 -31.132  1.00  0.00    -0.360 OA
HETATM   28  H   UNL     1      -3.602 -14.013 -31.780  1.00  0.00     0.217 HD
ENDBRANCH  22  27
ENDBRANCH   5  21
TORSDOF 8
ENDMDL
MODEL 10
REMARK VINA RESULT:      -7.5     15.605     16.840
REMARK  8 active torsions:
REMARK  status: ('A' for Active; 'I' for Inactive)
REMARK    1  A    between atoms: C_2  and  C_3 
REMARK    2  A    between atoms: C_3  and  N_4 
REMARK       I    between atoms: N_4  and  C_5 
REMARK    3  A    between atoms: N_4  and  C_20 
REMARK    4  A    between atoms: C_5  and  C_6 
REMARK    5  A    between atoms: C_10  and  C_11 
REMARK    6  A    between atoms: C_12  and  O_13 
REMARK    7  A    between atoms: C_20  and  C_21 
REMARK    8  A    between atoms: C_21  and  C_22 
ROOT
HETATM    1  C   UNL     1      -4.424 -13.461 -35.684  1.00  0.00     0.120 A 
HETATM    2  N   UNL     1      -4.483 -12.391 -36.534  1.00  0.00    -0.272 N 
HETATM    3  H   UNL     1      -5.139 -11.617 -36.480  1.00  0.00     0.189 HD
HETATM    4  N   UNL     1      -3.572 -12.408 -37.521  1.00  0.00    -0.174 NA
HETATM    5  C   UNL     1      -2.843 -13.514 -37.284  1.00  0.00     0.092 A 
HETATM    6  C   UNL     1      -3.325 -14.176 -36.118  1.00  0.00     0.071 A 
ENDROOT
BRANCH   1   7
HETATM    7  C   UNL     1      -5.352 -13.558 -34.579  1.00  0.00     0.271 C 
HETATM    8  N   UNL     1      -6.164 -14.694 -34.413  1.00  0.00    -0.346 N 
HETATM    9  O   UNL     1      -5.422 -12.615 -33.790  1.00  0.00    -0.266 OA
BRANCH   8  10
HETATM   10  C   UNL     1      -6.798 -14.866 -33.099  1.00  0.00     0.126 C 
BRANCH  10  11
HETATM   11  C   UNL     1      -6.064 -15.868 -32.202  1.00  0.00     0.015 C 
HETATM   12  C   UNL     1      -5.045 -15.207 -31.287  1.00  0.00     0.006 C 
ENDBRANCH  10  11
ENDBRANCH   8  10
BRANCH   8  13
HETATM   13  C   UNL     1      -6.285 -15.775 -35.407  1.00  0.00     0.130 C 
BRANCH  13  14
HETATM   14  C   UNL     1      -7.447 -15.647 -36.410  1.00  0.00     0.058 C 
BRANCH  14  15
HETATM   15  C   UNL     1      -7.249 -14.625 -37.512  1.00  0.00    -0.057 A 
HETATM   16  C   UNL     1      -7.889 -13.379 -37.400  1.00  0.00     0.007 A 
HETATM   17  C   UNL     1      -7.708 -12.389 -38.368  1.00  0.00     0.001 A 
HETATM   18  C   UNL     1      -6.879 -12.625 -39.460  1.00  0.00     0.000 A 
HETATM   19  C   UNL     1      -6.221 -13.847 -39.577  1.00  0.00     0.001 A 
HETATM   20  C   UNL     1      -6.397 -14.838 -38.605  1.00  0.00     0.007 A 
ENDBRANCH  14  15
ENDBRANCH  13  14
ENDBRANCH   8  13
ENDBRANCH   1   7
BRANCH   5  21
HETATM   21  C   UNL     1      -1.715 -13.881 -38.155  1.00  0.00     0.028 A 
HETATM   22  C   UNL     1      -1.780 -13.728 -39.553  1.00  0.00     0.078 A 
HETATM   23  C   UNL     1      -0.705 -14.073 -40.373  1.00  0.00     0.037 A 
HETATM   24  C   UNL     1       0.459 -14.590 -39.809  1.00  0.00     0.003 A 
HETATM   25  C   UNL     1       0.544 -14.759 -38.429  1.00  0.00     0.001 A 
HETATM   26  C   UNL     1      -0.533 -14.407 -37.608  1.00  0.00     0.017 A 
BRANCH  22  27
HETATM   27  O   UNL     1      -2.889 -13.239 -40.195  1.00  0.00    -0.360 OA
HETATM   28  H   UNL     1      -3.650 -13.770 -39.865  1.00  0.00     0.217 HD
ENDBRANCH  22  27
ENDBRANCH   5  21
TORSDOF 8
ENDMDL
