MODEL 1
REMARK VINA RESULT:      -8.4      0.000      0.000
REMARK  6 active torsions:
REMARK  status: ('A' for Active; 'I' for Inactive)
REMARK    1  A    between atoms: C_2  and  S_3 
REMARK    2  A    between atoms: C_2  and  C_11 
REMARK    3  A    between atoms: S_3  and  C_4 
REMARK    4  A    between atoms: C_4  and  C_5 
REMARK       I    between atoms: C_11  and  N_12 
REMARK    5  A    between atoms: N_12  and  C_13 
REMARK    6  A    between atoms: C_15  and  C_16 
ROOT
HETATM    1  C   UNL     1      -3.907   1.854 -31.908  1.00  0.00     0.235 C 
HETATM    2  N   UNL     1      -3.887   3.086 -32.547  1.00  0.00    -0.326 N 
HETATM    3  O   UNL     1      -2.954   1.336 -31.331  1.00  0.00    -0.272 OA
HETATM    4  H   UNL     1      -4.704   3.291 -33.113  1.00  0.00     0.169 HD
ENDROOT
BRANCH   2   5
HETATM    5  C   UNL     1      -2.823   4.010 -32.608  1.00  0.00     0.035 A 
HETATM    6  C   UNL     1      -2.142   4.490 -31.485  1.00  0.00     0.042 A 
HETATM    7  C   UNL     1      -1.098   5.424 -31.610  1.00  0.00    -0.021 A 
HETATM    8  C   UNL     1      -0.751   5.882 -32.886  1.00  0.00     0.012 A 
HETATM    9  C   UNL     1      -1.427   5.414 -34.013  1.00  0.00     0.003 A 
HETATM   10  C   UNL     1      -2.458   4.482 -33.873  1.00  0.00     0.029 A 
BRANCH   7  11
HETATM   11  C   UNL     1      -0.390   5.916 -30.438  1.00  0.00     0.010 A 
HETATM   12  C   UNL     1      -0.251   7.225 -29.918  1.00  0.00     0.152 A 
HETATM   13  N   UNL     1       0.500   7.267 -28.814  1.00  0.00    -0.187 NA
HETATM   14  N   UNL     1       0.845   5.984 -28.621  1.00  0.00    -0.289 N 
HETATM   15  H   UNL     1       1.430   5.757 -27.824  1.00  0.00     0.188 HD
HETATM   16  C   UNL     1       0.342   5.138 -29.566  1.00  0.00     0.123 A 
ENDBRANCH   7  11
ENDBRANCH   2   5
BRANCH   1  17
HETATM   17  C   UNL     1      -5.307   1.206 -31.889  1.00  0.00     0.135 C 
HETATM   18  C   UNL     1      -5.418   0.196 -30.749  1.00  0.00     0.031 C 
BRANCH  17  19
HETATM   19  S   UNL     1      -5.670   0.437 -33.525  1.00  0.00    -0.150 SA
BRANCH  19  20
HETATM   20  C   UNL     1      -4.422  -0.888 -33.530  1.00  0.00     0.113 C 
BRANCH  20  21
HETATM   21  C   UNL     1      -5.001  -2.206 -33.978  1.00  0.00    -0.049 A 
HETATM   22  C   UNL     1      -6.340  -2.290 -34.388  1.00  0.00     0.008 A 
HETATM   23  C   UNL     1      -6.876  -3.503 -34.823  1.00  0.00     0.001 A 
HETATM   24  C   UNL     1      -6.080  -4.646 -34.849  1.00  0.00     0.000 A 
HETATM   25  C   UNL     1      -4.752  -4.579 -34.433  1.00  0.00     0.001 A 
HETATM   26  C   UNL     1      -4.214  -3.367 -33.996  1.00  0.00     0.008 A 
ENDBRANCH  20  21
ENDBRANCH  19  20
ENDBRANCH  17  19
ENDBRANCH   1  17
TORSDOF 6
ENDMDL
MODEL 2
REMARK VINA RESULT:      -8.3      3.077      9.350
REMARK  6 active torsions:
REMARK  status: ('A' for Active; 'I' for Inactive)
REMARK    1  A    between atoms: C_2  and  S_3 
REMARK    2  A    between atoms: C_2  and  C_11 
REMARK    3  A    between atoms: S_3  and  C_4 
REMARK    4  A    between atoms: C_4  and  C_5 
REMARK       I    between atoms: C_11  and  N_12 
REMARK    5  A    between atoms: N_12  and  C_13 
REMARK    6  A    between atoms: C_15  and  C_16 
ROOT
HETATM    1  C   UNL     1      -5.652   2.070 -31.421  1.00  0.00     0.235 C 
HETATM    2  N   UNL     1      -5.203   1.609 -32.651  1.00  0.00    -0.326 N 
HETATM    3  O   UNL     1      -6.706   1.743 -30.881  1.00  0.00    -0.272 OA
HETATM    4  H   UNL     1      -4.399   2.101 -33.028  1.00  0.00     0.169 HD
ENDROOT
BRANCH   2   5
HETATM    5  C   UNL     1      -5.806   0.643 -33.484  1.00  0.00     0.035 A 
HETATM    6  C   UNL     1      -5.387  -0.689 -33.562  1.00  0.00     0.042 A 
HETATM    7  C   UNL     1      -6.020  -1.602 -34.424  1.00  0.00    -0.021 A 
HETATM    8  C   UNL     1      -7.078  -1.154 -35.223  1.00  0.00     0.012 A 
HETATM    9  C   UNL     1      -7.500   0.173 -35.158  1.00  0.00     0.003 A 
HETATM   10  C   UNL     1      -6.866   1.067 -34.292  1.00  0.00     0.029 A 
BRANCH   7  11
HETATM   11  C   UNL     1      -5.583  -2.988 -34.497  1.00  0.00     0.010 A 
HETATM   12  C   UNL     1      -6.250  -4.149 -34.955  1.00  0.00     0.152 A 
HETATM   13  N   UNL     1      -5.504  -5.253 -34.845  1.00  0.00    -0.187 NA
HETATM   14  N   UNL     1      -4.355  -4.803 -34.317  1.00  0.00    -0.289 N 
HETATM   15  H   UNL     1      -3.613  -5.471 -34.136  1.00  0.00     0.188 HD
HETATM   16  C   UNL     1      -4.353  -3.457 -34.087  1.00  0.00     0.123 A 
ENDBRANCH   7  11
ENDBRANCH   2   5
BRANCH   1  17
HETATM   17  C   UNL     1      -4.634   2.984 -30.709  1.00  0.00     0.135 C 
HETATM   18  C   UNL     1      -5.306   4.267 -30.227  1.00  0.00     0.031 C 
BRANCH  17  19
HETATM   19  S   UNL     1      -3.209   3.332 -31.825  1.00  0.00    -0.150 SA
BRANCH  19  20
HETATM   20  C   UNL     1      -3.256   5.153 -31.832  1.00  0.00     0.113 C 
BRANCH  20  21
HETATM   21  C   UNL     1      -1.987   5.752 -31.280  1.00  0.00    -0.049 A 
HETATM   22  C   UNL     1      -0.745   5.164 -31.562  1.00  0.00     0.008 A 
HETATM   23  C   UNL     1       0.435   5.727 -31.071  1.00  0.00     0.001 A 
HETATM   24  C   UNL     1       0.385   6.879 -30.290  1.00  0.00     0.000 A 
HETATM   25  C   UNL     1      -0.844   7.465 -29.992  1.00  0.00     0.001 A 
HETATM   26  C   UNL     1      -2.025   6.904 -30.481  1.00  0.00     0.008 A 
ENDBRANCH  20  21
ENDBRANCH  19  20
ENDBRANCH  17  19
ENDBRANCH   1  17
TORSDOF 6
ENDMDL
MODEL 3
REMARK VINA RESULT:      -8.2      3.715      8.585
REMARK  6 active torsions:
REMARK  status: ('A' for Active; 'I' for Inactive)
REMARK    1  A    between atoms: C_2  and  S_3 
REMARK    2  A    between atoms: C_2  and  C_11 
REMARK    3  A    between atoms: S_3  and  C_4 
REMARK    4  A    between atoms: C_4  and  C_5 
REMARK       I    between atoms: C_11  and  N_12 
REMARK    5  A    between atoms: N_12  and  C_13 
REMARK    6  A    between atoms: C_15  and  C_16 
ROOT
HETATM    1  C   UNL     1      -7.181   2.187 -32.053  1.00  0.00     0.235 C 
HETATM    2  N   UNL     1      -6.638   1.627 -33.202  1.00  0.00    -0.326 N 
HETATM    3  O   UNL     1      -7.020   1.764 -30.911  1.00  0.00    -0.272 OA
HETATM    4  H   UNL     1      -7.001   1.997 -34.075  1.00  0.00     0.169 HD
ENDROOT
BRANCH   2   5
HETATM    5  C   UNL     1      -5.756   0.530 -33.294  1.00  0.00     0.035 A 
HETATM    6  C   UNL     1      -6.125  -0.728 -33.779  1.00  0.00     0.042 A 
HETATM    7  C   UNL     1      -5.203  -1.788 -33.833  1.00  0.00    -0.021 A 
HETATM    8  C   UNL     1      -3.897  -1.571 -33.378  1.00  0.00     0.012 A 
HETATM    9  C   UNL     1      -3.519  -0.321 -32.888  1.00  0.00     0.003 A 
HETATM   10  C   UNL     1      -4.445   0.724 -32.846  1.00  0.00     0.029 A 
BRANCH   7  11
HETATM   11  C   UNL     1      -5.592  -3.094 -34.343  1.00  0.00     0.010 A 
HETATM   12  C   UNL     1      -4.855  -4.293 -34.484  1.00  0.00     0.152 A 
HETATM   13  N   UNL     1      -5.576  -5.286 -35.014  1.00  0.00    -0.187 NA
HETATM   14  N   UNL     1      -6.779  -4.726 -35.214  1.00  0.00    -0.289 N 
HETATM   15  H   UNL     1      -7.515  -5.296 -35.619  1.00  0.00     0.188 HD
HETATM   16  C   UNL     1      -6.839  -3.417 -34.834  1.00  0.00     0.123 A 
ENDBRANCH   7  11
ENDBRANCH   2   5
BRANCH   1  17
HETATM   17  C   UNL     1      -7.949   3.497 -32.325  1.00  0.00     0.135 C 
HETATM   18  C   UNL     1      -8.527   3.500 -33.738  1.00  0.00     0.031 C 
BRANCH  17  19
HETATM   19  S   UNL     1      -6.851   4.947 -32.028  1.00  0.00    -0.150 SA
BRANCH  19  20
HETATM   20  C   UNL     1      -6.174   5.173 -33.703  1.00  0.00     0.113 C 
BRANCH  20  21
HETATM   21  C   UNL     1      -4.683   4.951 -33.743  1.00  0.00    -0.049 A 
HETATM   22  C   UNL     1      -3.944   5.307 -34.881  1.00  0.00     0.008 A 
HETATM   23  C   UNL     1      -2.560   5.124 -34.915  1.00  0.00     0.001 A 
HETATM   24  C   UNL     1      -1.902   4.578 -33.816  1.00  0.00     0.000 A 
HETATM   25  C   UNL     1      -2.627   4.209 -32.684  1.00  0.00     0.001 A 
HETATM   26  C   UNL     1      -4.011   4.390 -32.648  1.00  0.00     0.008 A 
ENDBRANCH  20  21
ENDBRANCH  19  20
ENDBRANCH  17  19
ENDBRANCH   1  17
TORSDOF 6
ENDMDL
MODEL 4
REMARK VINA RESULT:      -8.1      5.321      8.800
REMARK  6 active torsions:
REMARK  status: ('A' for Active; 'I' for Inactive)
REMARK    1  A    between atoms: C_2  and  S_3 
REMARK    2  A    between atoms: C_2  and  C_11 
REMARK    3  A    between atoms: S_3  and  C_4 
REMARK    4  A    between atoms: C_4  and  C_5 
REMARK       I    between atoms: C_11  and  N_12 
REMARK    5  A    between atoms: N_12  and  C_13 
REMARK    6  A    between atoms: C_15  and  C_16 
ROOT
HETATM    1  C   UNL     1      -7.400   2.049 -31.963  1.00  0.00     0.235 C 
HETATM    2  N   UNL     1      -7.822   2.169 -33.281  1.00  0.00    -0.326 N 
HETATM    3  O   UNL     1      -8.106   2.220 -30.973  1.00  0.00    -0.272 OA
HETATM    4  H   UNL     1      -7.080   2.159 -33.973  1.00  0.00     0.169 HD
ENDROOT
BRANCH   2   5
HETATM    5  C   UNL     1      -9.126   2.434 -33.750  1.00  0.00     0.035 A 
HETATM    6  C   UNL     1     -10.194   1.540 -33.631  1.00  0.00     0.042 A 
HETATM    7  C   UNL     1     -11.468   1.856 -34.133  1.00  0.00    -0.021 A 
HETATM    8  C   UNL     1     -11.656   3.087 -34.772  1.00  0.00     0.012 A 
HETATM    9  C   UNL     1     -10.597   3.985 -34.901  1.00  0.00     0.003 A 
HETATM   10  C   UNL     1      -9.337   3.659 -34.391  1.00  0.00     0.029 A 
BRANCH   7  11
HETATM   11  C   UNL     1     -12.577   0.923 -34.002  1.00  0.00     0.010 A 
HETATM   12  C   UNL     1     -12.642  -0.368 -33.428  1.00  0.00     0.152 A 
HETATM   13  N   UNL     1     -13.858  -0.915 -33.518  1.00  0.00    -0.187 NA
HETATM   14  N   UNL     1     -14.578   0.025 -34.150  1.00  0.00    -0.289 N 
HETATM   15  H   UNL     1     -15.557  -0.163 -34.339  1.00  0.00     0.188 HD
HETATM   16  C   UNL     1     -13.858   1.141 -34.465  1.00  0.00     0.123 A 
ENDBRANCH   7  11
ENDBRANCH   2   5
BRANCH   1  17
HETATM   17  C   UNL     1      -5.942   1.563 -31.838  1.00  0.00     0.135 C 
HETATM   18  C   UNL     1      -5.064   2.209 -32.907  1.00  0.00     0.031 C 
BRANCH  17  19
HETATM   19  S   UNL     1      -5.880  -0.277 -31.917  1.00  0.00    -0.150 SA
BRANCH  19  20
HETATM   20  C   UNL     1      -5.727  -0.506 -33.717  1.00  0.00     0.113 C 
BRANCH  20  21
HETATM   21  C   UNL     1      -5.656  -1.964 -34.097  1.00  0.00    -0.049 A 
HETATM   22  C   UNL     1      -4.456  -2.676 -33.954  1.00  0.00     0.008 A 
HETATM   23  C   UNL     1      -4.391  -4.031 -34.284  1.00  0.00     0.001 A 
HETATM   24  C   UNL     1      -5.522  -4.687 -34.763  1.00  0.00     0.000 A 
HETATM   25  C   UNL     1      -6.717  -3.987 -34.921  1.00  0.00     0.001 A 
HETATM   26  C   UNL     1      -6.785  -2.631 -34.593  1.00  0.00     0.008 A 
ENDBRANCH  20  21
ENDBRANCH  19  20
ENDBRANCH  17  19
ENDBRANCH   1  17
TORSDOF 6
ENDMDL
MODEL 5
REMARK VINA RESULT:      -8.0      5.375      8.850
REMARK  6 active torsions:
REMARK  status: ('A' for Active; 'I' for Inactive)
REMARK    1  A    between atoms: C_2  and  S_3 
REMARK    2  A    between atoms: C_2  and  C_11 
REMARK    3  A    between atoms: S_3  and  C_4 
REMARK    4  A    between atoms: C_4  and  C_5 
REMARK       I    between atoms: C_11  and  N_12 
REMARK    5  A    between atoms: N_12  and  C_13 
REMARK    6  A    between atoms: C_15  and  C_16 
ROOT
HETATM    1  C   UNL     1      -7.386   2.470 -33.317  1.00  0.00     0.235 C 
HETATM    2  N   UNL     1      -7.087   1.310 -32.615  1.00  0.00    -0.326 N 
HETATM    3  O   UNL     1      -6.787   2.874 -34.310  1.00  0.00    -0.272 OA
HETATM    4  H   UNL     1      -7.568   1.208 -31.726  1.00  0.00     0.169 HD
ENDROOT
BRANCH   2   5
HETATM    5  C   UNL     1      -6.108   0.341 -32.923  1.00  0.00     0.035 A 
HETATM    6  C   UNL     1      -6.398  -0.910 -33.475  1.00  0.00     0.042 A 
HETATM    7  C   UNL     1      -5.379  -1.840 -33.746  1.00  0.00    -0.021 A 
HETATM    8  C   UNL     1      -4.056  -1.500 -33.441  1.00  0.00     0.012 A 
HETATM    9  C   UNL     1      -3.756  -0.256 -32.885  1.00  0.00     0.003 A 
HETATM   10  C   UNL     1      -4.779   0.660 -32.627  1.00  0.00     0.029 A 
BRANCH   7  11
HETATM   11  C   UNL     1      -5.685  -3.138 -34.325  1.00  0.00     0.010 A 
HETATM   12  C   UNL     1      -4.885  -4.293 -34.493  1.00  0.00     0.152 A 
HETATM   13  N   UNL     1      -5.538  -5.295 -35.090  1.00  0.00    -0.187 NA
HETATM   14  N   UNL     1      -6.761  -4.786 -35.307  1.00  0.00    -0.289 N 
HETATM   15  H   UNL     1      -7.454  -5.372 -35.760  1.00  0.00     0.188 HD
HETATM   16  C   UNL     1      -6.899  -3.500 -34.872  1.00  0.00     0.123 A 
ENDBRANCH   7  11
ENDBRANCH   2   5
BRANCH   1  17
HETATM   17  C   UNL     1      -8.647   3.186 -32.791  1.00  0.00     0.135 C 
HETATM   18  C   UNL     1      -9.135   2.538 -31.498  1.00  0.00     0.031 C 
BRANCH  17  19
HETATM   19  S   UNL     1      -9.955   3.199 -34.090  1.00  0.00    -0.150 SA
BRANCH  19  20
HETATM   20  C   UNL     1     -10.565   1.490 -33.934  1.00  0.00     0.113 C 
BRANCH  20  21
HETATM   21  C   UNL     1     -12.046   1.444 -33.656  1.00  0.00    -0.049 A 
HETATM   22  C   UNL     1     -12.708   2.571 -33.147  1.00  0.00     0.008 A 
HETATM   23  C   UNL     1     -14.083   2.541 -32.909  1.00  0.00     0.001 A 
HETATM   24  C   UNL     1     -14.810   1.382 -33.171  1.00  0.00     0.000 A 
HETATM   25  C   UNL     1     -14.162   0.251 -33.665  1.00  0.00     0.001 A 
HETATM   26  C   UNL     1     -12.787   0.279 -33.904  1.00  0.00     0.008 A 
ENDBRANCH  20  21
ENDBRANCH  19  20
ENDBRANCH  17  19
ENDBRANCH   1  17
TORSDOF 6
ENDMDL
MODEL 6
REMARK VINA RESULT:      -7.7      1.773      2.020
REMARK  6 active torsions:
REMARK  status: ('A' for Active; 'I' for Inactive)
REMARK    1  A    between atoms: C_2  and  S_3 
REMARK    2  A    between atoms: C_2  and  C_11 
REMARK    3  A    between atoms: S_3  and  C_4 
REMARK    4  A    between atoms: C_4  and  C_5 
REMARK       I    between atoms: C_11  and  N_12 
REMARK    5  A    between atoms: N_12  and  C_13 
REMARK    6  A    between atoms: C_15  and  C_16 
ROOT
HETATM    1  C   UNL     1      -4.536   2.128 -31.880  1.00  0.00     0.235 C 
HETATM    2  N   UNL     1      -3.293   2.695 -31.638  1.00  0.00    -0.326 N 
HETATM    3  O   UNL     1      -5.462   2.672 -32.477  1.00  0.00    -0.272 OA
HETATM    4  H   UNL     1      -2.703   2.181 -30.992  1.00  0.00     0.169 HD
ENDROOT
BRANCH   2   5
HETATM    5  C   UNL     1      -2.816   3.951 -32.072  1.00  0.00     0.035 A 
HETATM    6  C   UNL     1      -2.787   5.094 -31.268  1.00  0.00     0.042 A 
HETATM    7  C   UNL     1      -2.313   6.321 -31.764  1.00  0.00    -0.021 A 
HETATM    8  C   UNL     1      -1.877   6.390 -33.092  1.00  0.00     0.012 A 
HETATM    9  C   UNL     1      -1.906   5.257 -33.905  1.00  0.00     0.003 A 
HETATM   10  C   UNL     1      -2.374   4.043 -33.396  1.00  0.00     0.029 A 
BRANCH   7  11
HETATM   11  C   UNL     1      -2.280   7.506 -30.921  1.00  0.00     0.010 A 
HETATM   12  C   UNL     1      -2.281   7.646 -29.513  1.00  0.00     0.152 A 
HETATM   13  N   UNL     1      -2.258   8.922 -29.117  1.00  0.00    -0.187 NA
HETATM   14  N   UNL     1      -2.240   9.607 -30.272  1.00  0.00    -0.289 N 
HETATM   15  H   UNL     1      -2.221  10.620 -30.231  1.00  0.00     0.188 HD
HETATM   16  C   UNL     1      -2.257   8.807 -31.378  1.00  0.00     0.123 A 
ENDBRANCH   7  11
ENDBRANCH   2   5
BRANCH   1  17
HETATM   17  C   UNL     1      -4.633   0.661 -31.413  1.00  0.00     0.135 C 
HETATM   18  C   UNL     1      -3.327  -0.079 -31.690  1.00  0.00     0.031 C 
BRANCH  17  19
HETATM   19  S   UNL     1      -6.074  -0.164 -32.212  1.00  0.00    -0.150 SA
BRANCH  19  20
HETATM   20  C   UNL     1      -5.341  -0.574 -33.828  1.00  0.00     0.113 C 
BRANCH  20  21
HETATM   21  C   UNL     1      -5.459  -2.043 -34.144  1.00  0.00    -0.049 A 
HETATM   22  C   UNL     1      -6.678  -2.578 -34.587  1.00  0.00     0.008 A 
HETATM   23  C   UNL     1      -6.786  -3.934 -34.901  1.00  0.00     0.001 A 
HETATM   24  C   UNL     1      -5.680  -4.770 -34.772  1.00  0.00     0.000 A 
HETATM   25  C   UNL     1      -4.467  -4.253 -34.322  1.00  0.00     0.001 A 
HETATM   26  C   UNL     1      -4.356  -2.897 -34.006  1.00  0.00     0.008 A 
ENDBRANCH  20  21
ENDBRANCH  19  20
ENDBRANCH  17  19
ENDBRANCH   1  17
TORSDOF 6
ENDMDL
MODEL 7
REMARK VINA RESULT:      -7.7      3.816      7.658
REMARK  6 active torsions:
REMARK  status: ('A' for Active; 'I' for Inactive)
REMARK    1  A    between atoms: C_2  and  S_3 
REMARK    2  A    between atoms: C_2  and  C_11 
REMARK    3  A    between atoms: S_3  and  C_4 
REMARK    4  A    between atoms: C_4  and  C_5 
REMARK       I    between atoms: C_11  and  N_12 
REMARK    5  A    between atoms: N_12  and  C_13 
REMARK    6  A    between atoms: C_15  and  C_16 
ROOT
HETATM    1  C   UNL     1      -4.298   2.954 -32.456  1.00  0.00     0.235 C 
HETATM    2  N   UNL     1      -4.997   1.770 -32.262  1.00  0.00    -0.326 N 
HETATM    3  O   UNL     1      -3.103   3.037 -32.729  1.00  0.00    -0.272 OA
HETATM    4  H   UNL     1      -5.932   1.878 -31.882  1.00  0.00     0.169 HD
ENDROOT
BRANCH   2   5
HETATM    5  C   UNL     1      -4.517   0.450 -32.402  1.00  0.00     0.035 A 
HETATM    6  C   UNL     1      -5.165  -0.540 -33.146  1.00  0.00     0.042 A 
HETATM    7  C   UNL     1      -4.644  -1.843 -33.235  1.00  0.00    -0.021 A 
HETATM    8  C   UNL     1      -3.460  -2.145 -32.552  1.00  0.00     0.012 A 
HETATM    9  C   UNL     1      -2.808  -1.167 -31.803  1.00  0.00     0.003 A 
HETATM   10  C   UNL     1      -3.335   0.125 -31.728  1.00  0.00     0.029 A 
BRANCH   7  11
HETATM   11  C   UNL     1      -5.321  -2.868 -34.015  1.00  0.00     0.010 A 
HETATM   12  C   UNL     1      -4.912  -4.168 -34.394  1.00  0.00     0.152 A 
HETATM   13  N   UNL     1      -5.825  -4.805 -35.133  1.00  0.00    -0.187 NA
HETATM   14  N   UNL     1      -6.825  -3.915 -35.229  1.00  0.00    -0.289 N 
HETATM   15  H   UNL     1      -7.653  -4.174 -35.756  1.00  0.00     0.188 HD
HETATM   16  C   UNL     1      -6.571  -2.740 -34.582  1.00  0.00     0.123 A 
ENDBRANCH   7  11
ENDBRANCH   2   5
BRANCH   1  17
HETATM   17  C   UNL     1      -5.200   4.203 -32.402  1.00  0.00     0.135 C 
HETATM   18  C   UNL     1      -5.976   4.251 -31.088  1.00  0.00     0.031 C 
BRANCH  17  19
HETATM   19  S   UNL     1      -6.322   4.237 -33.864  1.00  0.00    -0.150 SA
BRANCH  19  20
HETATM   20  C   UNL     1      -7.919   3.945 -33.038  1.00  0.00     0.113 C 
BRANCH  20  21
HETATM   21  C   UNL     1      -8.319   2.492 -33.082  1.00  0.00    -0.049 A 
HETATM   22  C   UNL     1      -8.226   1.768 -34.280  1.00  0.00     0.008 A 
HETATM   23  C   UNL     1      -8.575   0.417 -34.321  1.00  0.00     0.001 A 
HETATM   24  C   UNL     1      -9.025  -0.223 -33.169  1.00  0.00     0.000 A 
HETATM   25  C   UNL     1      -9.133   0.489 -31.975  1.00  0.00     0.001 A 
HETATM   26  C   UNL     1      -8.785   1.841 -31.931  1.00  0.00     0.008 A 
ENDBRANCH  20  21
ENDBRANCH  19  20
ENDBRANCH  17  19
ENDBRANCH   1  17
TORSDOF 6
ENDMDL
MODEL 8
REMARK VINA RESULT:      -7.6      1.261      1.660
REMARK  6 active torsions:
REMARK  status: ('A' for Active; 'I' for Inactive)
REMARK    1  A    between atoms: C_2  and  S_3 
REMARK    2  A    between atoms: C_2  and  C_11 
REMARK    3  A    between atoms: S_3  and  C_4 
REMARK    4  A    between atoms: C_4  and  C_5 
REMARK       I    between atoms: C_11  and  N_12 
REMARK    5  A    between atoms: N_12  and  C_13 
REMARK    6  A    between atoms: C_15  and  C_16 
ROOT
HETATM    1  C   UNL     1      -4.559   2.782 -32.735  1.00  0.00     0.235 C 
HETATM    2  N   UNL     1      -4.350   4.110 -33.079  1.00  0.00    -0.326 N 
HETATM    3  O   UNL     1      -3.686   1.995 -32.377  1.00  0.00    -0.272 OA
HETATM    4  H   UNL     1      -5.144   4.574 -33.510  1.00  0.00     0.169 HD
ENDROOT
BRANCH   2   5
HETATM    5  C   UNL     1      -3.142   4.838 -33.025  1.00  0.00     0.035 A 
HETATM    6  C   UNL     1      -2.413   5.051 -31.851  1.00  0.00     0.042 A 
HETATM    7  C   UNL     1      -1.222   5.798 -31.859  1.00  0.00    -0.021 A 
HETATM    8  C   UNL     1      -0.775   6.344 -33.067  1.00  0.00     0.012 A 
HETATM    9  C   UNL     1      -1.497   6.142 -34.243  1.00  0.00     0.003 A 
HETATM   10  C   UNL     1      -2.675   5.392 -34.221  1.00  0.00     0.029 A 
BRANCH   7  11
HETATM   11  C   UNL     1      -0.465   6.012 -30.635  1.00  0.00     0.010 A 
HETATM   12  C   UNL     1      -0.200   7.192 -29.901  1.00  0.00     0.152 A 
HETATM   13  N   UNL     1       0.558   6.973 -28.822  1.00  0.00    -0.187 NA
HETATM   14  N   UNL     1       0.780   5.650 -28.859  1.00  0.00    -0.289 N 
HETATM   15  H   UNL     1       1.345   5.235 -28.126  1.00  0.00     0.188 HD
HETATM   16  C   UNL     1       0.194   5.031 -29.925  1.00  0.00     0.123 A 
ENDBRANCH   7  11
ENDBRANCH   2   5
BRANCH   1  17
HETATM   17  C   UNL     1      -6.049   2.384 -32.739  1.00  0.00     0.135 C 
HETATM   18  C   UNL     1      -6.931   3.596 -32.450  1.00  0.00     0.031 C 
BRANCH  17  19
HETATM   19  S   UNL     1      -6.342   1.018 -31.536  1.00  0.00    -0.150 SA
BRANCH  19  20
HETATM   20  C   UNL     1      -7.334  -0.103 -32.572  1.00  0.00     0.113 C 
BRANCH  20  21
HETATM   21  C   UNL     1      -6.478  -1.126 -33.276  1.00  0.00    -0.049 A 
HETATM   22  C   UNL     1      -7.052  -2.020 -34.192  1.00  0.00     0.008 A 
HETATM   23  C   UNL     1      -6.261  -2.955 -34.862  1.00  0.00     0.001 A 
HETATM   24  C   UNL     1      -4.891  -3.010 -34.620  1.00  0.00     0.000 A 
HETATM   25  C   UNL     1      -4.311  -2.135 -33.702  1.00  0.00     0.001 A 
HETATM   26  C   UNL     1      -5.100  -1.199 -33.030  1.00  0.00     0.008 A 
ENDBRANCH  20  21
ENDBRANCH  19  20
ENDBRANCH  17  19
ENDBRANCH   1  17
TORSDOF 6
ENDMDL
MODEL 9
REMARK VINA RESULT:      -7.6     16.636     18.379
REMARK  6 active torsions:
REMARK  status: ('A' for Active; 'I' for Inactive)
REMARK    1  A    between atoms: C_2  and  S_3 
REMARK    2  A    between atoms: C_2  and  C_11 
REMARK    3  A    between atoms: S_3  and  C_4 
REMARK    4  A    between atoms: C_4  and  C_5 
REMARK       I    between atoms: C_11  and  N_12 
REMARK    5  A    between atoms: N_12  and  C_13 
REMARK    6  A    between atoms: C_15  and  C_16 
ROOT
HETATM    1  C   UNL     1      -5.638 -14.603 -36.479  1.00  0.00     0.235 C 
HETATM    2  N   UNL     1      -5.702 -13.328 -37.024  1.00  0.00    -0.326 N 
HETATM    3  O   UNL     1      -6.126 -15.615 -36.976  1.00  0.00    -0.272 OA
HETATM    4  H   UNL     1      -5.395 -12.581 -36.409  1.00  0.00     0.169 HD
ENDROOT
BRANCH   2   5
HETATM    5  C   UNL     1      -6.262 -12.944 -38.261  1.00  0.00     0.035 A 
HETATM    6  C   UNL     1      -7.622 -13.055 -38.568  1.00  0.00     0.042 A 
HETATM    7  C   UNL     1      -8.118 -12.669 -39.826  1.00  0.00    -0.021 A 
HETATM    8  C   UNL     1      -7.223 -12.178 -40.783  1.00  0.00     0.012 A 
HETATM    9  C   UNL     1      -5.864 -12.068 -40.489  1.00  0.00     0.003 A 
HETATM   10  C   UNL     1      -5.387 -12.450 -39.233  1.00  0.00     0.029 A 
BRANCH   7  11
HETATM   11  C   UNL     1      -9.534 -12.782 -40.139  1.00  0.00     0.010 A 
HETATM   12  C   UNL     1     -10.361 -13.917 -40.308  1.00  0.00     0.152 A 
HETATM   13  N   UNL     1     -11.624 -13.600 -40.606  1.00  0.00    -0.187 NA
HETATM   14  N   UNL     1     -11.612 -12.257 -40.629  1.00  0.00    -0.289 N 
HETATM   15  H   UNL     1     -12.477 -11.771 -40.838  1.00  0.00     0.188 HD
HETATM   16  C   UNL     1     -10.386 -11.721 -40.360  1.00  0.00     0.123 A 
ENDBRANCH   7  11
ENDBRANCH   2   5
BRANCH   1  17
HETATM   17  C   UNL     1      -4.781 -14.671 -35.198  1.00  0.00     0.135 C 
HETATM   18  C   UNL     1      -4.692 -13.298 -34.536  1.00  0.00     0.031 C 
BRANCH  17  19
HETATM   19  S   UNL     1      -3.114 -15.354 -35.588  1.00  0.00    -0.150 SA
BRANCH  19  20
HETATM   20  C   UNL     1      -2.355 -13.895 -36.370  1.00  0.00     0.113 C 
BRANCH  20  21
HETATM   21  C   UNL     1      -2.073 -14.122 -37.834  1.00  0.00    -0.049 A 
HETATM   22  C   UNL     1      -2.798 -15.084 -38.554  1.00  0.00     0.008 A 
HETATM   23  C   UNL     1      -2.557 -15.283 -39.915  1.00  0.00     0.001 A 
HETATM   24  C   UNL     1      -1.586 -14.528 -40.568  1.00  0.00     0.000 A 
HETATM   25  C   UNL     1      -0.851 -13.578 -39.861  1.00  0.00     0.001 A 
HETATM   26  C   UNL     1      -1.090 -13.377 -38.500  1.00  0.00     0.008 A 
ENDBRANCH  20  21
ENDBRANCH  19  20
ENDBRANCH  17  19
ENDBRANCH   1  17
TORSDOF 6
ENDMDL
MODEL 10
REMARK VINA RESULT:      -7.4      2.468      3.203
REMARK  6 active torsions:
REMARK  status: ('A' for Active; 'I' for Inactive)
REMARK    1  A    between atoms: C_2  and  S_3 
REMARK    2  A    between atoms: C_2  and  C_11 
REMARK    3  A    between atoms: S_3  and  C_4 
REMARK    4  A    between atoms: C_4  and  C_5 
REMARK       I    between atoms: C_11  and  N_12 
REMARK    5  A    between atoms: N_12  and  C_13 
REMARK    6  A    between atoms: C_15  and  C_16 
ROOT
HETATM    1  C   UNL     1      -4.027   1.697 -31.177  1.00  0.00     0.235 C 
HETATM    2  N   UNL     1      -5.032   2.530 -30.704  1.00  0.00    -0.326 N 
HETATM    3  O   UNL     1      -2.908   2.062 -31.528  1.00  0.00    -0.272 OA
HETATM    4  H   UNL     1      -5.945   2.096 -30.615  1.00  0.00     0.169 HD
ENDROOT
BRANCH   2   5
HETATM    5  C   UNL     1      -4.962   3.920 -30.466  1.00  0.00     0.035 A 
HETATM    6  C   UNL     1      -4.062   4.776 -31.108  1.00  0.00     0.042 A 
HETATM    7  C   UNL     1      -4.031   6.151 -30.817  1.00  0.00    -0.021 A 
HETATM    8  C   UNL     1      -4.914   6.658 -29.857  1.00  0.00     0.012 A 
HETATM    9  C   UNL     1      -5.813   5.812 -29.207  1.00  0.00     0.003 A 
HETATM   10  C   UNL     1      -5.836   4.449 -29.511  1.00  0.00     0.029 A 
BRANCH   7  11
HETATM   11  C   UNL     1      -3.096   7.038 -31.491  1.00  0.00     0.010 A 
HETATM   12  C   UNL     1      -2.951   8.444 -31.445  1.00  0.00     0.152 A 
HETATM   13  N   UNL     1      -1.967   8.891 -32.231  1.00  0.00    -0.187 NA
HETATM   14  N   UNL     1      -1.475   7.771 -32.783  1.00  0.00    -0.289 N 
HETATM   15  H   UNL     1      -0.701   7.854 -33.433  1.00  0.00     0.188 HD
HETATM   16  C   UNL     1      -2.118   6.638 -32.377  1.00  0.00     0.123 A 
ENDBRANCH   7  11
ENDBRANCH   2   5
BRANCH   1  17
HETATM   17  C   UNL     1      -4.406   0.203 -31.126  1.00  0.00     0.135 C 
HETATM   18  C   UNL     1      -3.180  -0.673 -31.371  1.00  0.00     0.031 C 
BRANCH  17  19
HETATM   19  S   UNL     1      -5.755  -0.149 -32.332  1.00  0.00    -0.150 SA
BRANCH  19  20
HETATM   20  C   UNL     1      -4.769  -0.782 -33.725  1.00  0.00     0.113 C 
BRANCH  20  21
HETATM   21  C   UNL     1      -5.181  -2.178 -34.119  1.00  0.00    -0.049 A 
HETATM   22  C   UNL     1      -4.258  -3.234 -34.058  1.00  0.00     0.008 A 
HETATM   23  C   UNL     1      -4.640  -4.532 -34.401  1.00  0.00     0.001 A 
HETATM   24  C   UNL     1      -5.945  -4.788 -34.812  1.00  0.00     0.000 A 
HETATM   25  C   UNL     1      -6.868  -3.747 -34.888  1.00  0.00     0.001 A 
HETATM   26  C   UNL     1      -6.489  -2.447 -34.547  1.00  0.00     0.008 A 
ENDBRANCH  20  21
ENDBRANCH  19  20
ENDBRANCH  17  19
ENDBRANCH   1  17
TORSDOF 6
ENDMDL
