MODEL 1
REMARK VINA RESULT:      -8.8      0.000      0.000
REMARK  5 active torsions:
REMARK  status: ('A' for Active; 'I' for Inactive)
REMARK    1  A    between atoms: C_4  and  N_5 
REMARK    2  A    between atoms: N_5  and  N_6 
REMARK       I    between atoms: N_6  and  C_7 
REMARK    3  A    between atoms: C_7  and  C_8 
REMARK    4  A    between atoms: C_12  and  C_13 
REMARK    5  A    between atoms: C_13  and  C_14 
ROOT
HETATM    1  C   UNL     1      -3.666   3.218 -32.757  1.00  0.00     0.102 A 
HETATM    2  N   UNL     1      -4.941   3.606 -33.103  1.00  0.00    -0.360 N 
HETATM    3  H   UNL     1      -5.161   4.512 -33.501  1.00  0.00     0.165 HD
HETATM    4  C   UNL     1      -5.834   2.599 -32.845  1.00  0.00     0.104 A 
HETATM    5  C   UNL     1      -5.143   1.531 -32.301  1.00  0.00     0.033 A 
HETATM    6  C   UNL     1      -3.777   1.943 -32.228  1.00  0.00     0.052 A 
ENDROOT
BRANCH   1   7
HETATM    7  C   UNL     1      -2.525   4.084 -32.962  1.00  0.00     0.282 C 
HETATM    8  N   UNL     1      -1.835   4.430 -31.813  1.00  0.00    -0.281 N 
HETATM    9  H   UNL     1      -1.977   3.935 -30.940  1.00  0.00     0.184 HD
HETATM   10  O   UNL     1      -2.180   4.469 -34.078  1.00  0.00    -0.265 OA
BRANCH   8  11
HETATM   11  N   UNL     1      -0.572   5.039 -31.959  1.00  0.00    -0.203 NA
HETATM   12  H   UNL     1      -0.615   5.743 -32.710  1.00  0.00     0.153 HD
BRANCH  11  13
HETATM   13  C   UNL     1      -0.115   5.675 -30.774  1.00  0.00     0.027 A 
HETATM   14  C   UNL     1      -0.326   7.055 -30.650  1.00  0.00     0.025 A 
HETATM   15  C   UNL     1       0.050   7.738 -29.491  1.00  0.00     0.002 A 
HETATM   16  C   UNL     1       0.618   7.042 -28.428  1.00  0.00     0.000 A 
HETATM   17  C   UNL     1       0.800   5.663 -28.520  1.00  0.00     0.002 A 
HETATM   18  C   UNL     1       0.426   4.983 -29.682  1.00  0.00     0.025 A 
ENDBRANCH  11  13
ENDBRANCH   8  11
ENDBRANCH   1   7
BRANCH   5  19
HETATM   19  C   UNL     1      -5.667   0.237 -31.872  1.00  0.00     0.195 C 
HETATM   20  O   UNL     1      -5.974   0.006 -30.707  1.00  0.00    -0.287 OA
BRANCH  19  21
HETATM   21  C   UNL     1      -5.755  -0.859 -32.854  1.00  0.00     0.037 A 
HETATM   22  C   UNL     1      -6.966  -1.182 -33.476  1.00  0.00     0.049 A 
HETATM   23 CL   UNL     1      -8.405  -0.262 -33.231  1.00  0.00    -0.083 Cl
HETATM   24  C   UNL     1      -7.025  -2.267 -34.355  1.00  0.00     0.048 A 
HETATM   25  C   UNL     1      -5.877  -3.021 -34.603  1.00  0.00     0.035 A 
HETATM   26 CL   UNL     1      -5.953  -4.358 -35.683  1.00  0.00    -0.084 Cl
HETATM   27  C   UNL     1      -4.668  -2.703 -33.985  1.00  0.00     0.025 A 
HETATM   28  C   UNL     1      -4.605  -1.623 -33.104  1.00  0.00     0.019 A 
ENDBRANCH  19  21
ENDBRANCH   5  19
TORSDOF 5
ENDMDL
MODEL 2
REMARK VINA RESULT:      -8.5      1.768      2.286
REMARK  5 active torsions:
REMARK  status: ('A' for Active; 'I' for Inactive)
REMARK    1  A    between atoms: C_4  and  N_5 
REMARK    2  A    between atoms: N_5  and  N_6 
REMARK       I    between atoms: N_6  and  C_7 
REMARK    3  A    between atoms: C_7  and  C_8 
REMARK    4  A    between atoms: C_12  and  C_13 
REMARK    5  A    between atoms: C_13  and  C_14 
ROOT
HETATM    1  C   UNL     1      -4.791   4.258 -33.607  1.00  0.00     0.102 A 
HETATM    2  N   UNL     1      -5.948   3.997 -34.308  1.00  0.00    -0.360 N 
HETATM    3  H   UNL     1      -6.321   4.615 -35.020  1.00  0.00     0.165 HD
HETATM    4  C   UNL     1      -6.486   2.800 -33.912  1.00  0.00     0.104 A 
HETATM    5  C   UNL     1      -5.683   2.268 -32.919  1.00  0.00     0.033 A 
HETATM    6  C   UNL     1      -4.629   3.210 -32.718  1.00  0.00     0.052 A 
ENDROOT
BRANCH   1   7
HETATM    7  C   UNL     1      -4.001   5.445 -33.859  1.00  0.00     0.282 C 
HETATM    8  N   UNL     1      -3.676   6.183 -32.734  1.00  0.00    -0.281 N 
HETATM    9  H   UNL     1      -3.782   5.803 -31.800  1.00  0.00     0.184 HD
HETATM   10  O   UNL     1      -3.628   5.764 -34.987  1.00  0.00    -0.265 OA
BRANCH   8  11
HETATM   11  N   UNL     1      -2.694   7.188 -32.864  1.00  0.00    -0.203 NA
HETATM   12  H   UNL     1      -3.148   8.113 -32.869  1.00  0.00     0.153 HD
BRANCH  11  13
HETATM   13  C   UNL     1      -1.728   7.167 -31.824  1.00  0.00     0.027 A 
HETATM   14  C   UNL     1      -0.481   6.592 -32.101  1.00  0.00     0.025 A 
HETATM   15  C   UNL     1       0.535   6.582 -31.143  1.00  0.00     0.002 A 
HETATM   16  C   UNL     1       0.324   7.175 -29.901  1.00  0.00     0.000 A 
HETATM   17  C   UNL     1      -0.897   7.784 -29.622  1.00  0.00     0.002 A 
HETATM   18  C   UNL     1      -1.913   7.789 -30.582  1.00  0.00     0.025 A 
ENDBRANCH  11  13
ENDBRANCH   8  11
ENDBRANCH   1   7
BRANCH   5  19
HETATM   19  C   UNL     1      -5.851   1.009 -32.197  1.00  0.00     0.195 C 
HETATM   20  O   UNL     1      -5.934   0.959 -30.974  1.00  0.00    -0.287 OA
BRANCH  19  21
HETATM   21  C   UNL     1      -5.839  -0.255 -32.955  1.00  0.00     0.037 A 
HETATM   22  C   UNL     1      -4.638  -0.883 -33.301  1.00  0.00     0.049 A 
HETATM   23 CL   UNL     1      -3.103  -0.297 -32.777  1.00  0.00    -0.083 Cl
HETATM   24  C   UNL     1      -4.664  -2.048 -34.074  1.00  0.00     0.048 A 
HETATM   25  C   UNL     1      -5.885  -2.574 -34.495  1.00  0.00     0.035 A 
HETATM   26 CL   UNL     1      -5.914  -4.005 -35.449  1.00  0.00    -0.084 Cl
HETATM   27  C   UNL     1      -7.085  -1.950 -34.153  1.00  0.00     0.025 A 
HETATM   28  C   UNL     1      -7.065  -0.785 -33.385  1.00  0.00     0.019 A 
ENDBRANCH  19  21
ENDBRANCH   5  19
TORSDOF 5
ENDMDL
MODEL 3
REMARK VINA RESULT:      -8.4      3.638      9.129
REMARK  5 active torsions:
REMARK  status: ('A' for Active; 'I' for Inactive)
REMARK    1  A    between atoms: C_4  and  N_5 
REMARK    2  A    between atoms: N_5  and  N_6 
REMARK       I    between atoms: N_6  and  C_7 
REMARK    3  A    between atoms: C_7  and  C_8 
REMARK    4  A    between atoms: C_12  and  C_13 
REMARK    5  A    between atoms: C_13  and  C_14 
ROOT
HETATM    1  C   UNL     1      -4.505   3.027 -32.702  1.00  0.00     0.102 A 
HETATM    2  N   UNL     1      -5.079   3.886 -33.614  1.00  0.00    -0.360 N 
HETATM    3  H   UNL     1      -6.037   3.802 -33.934  1.00  0.00     0.165 HD
HETATM    4  C   UNL     1      -4.181   4.850 -33.992  1.00  0.00     0.104 A 
HETATM    5  C   UNL     1      -2.986   4.615 -33.336  1.00  0.00     0.033 A 
HETATM    6  C   UNL     1      -3.196   3.447 -32.542  1.00  0.00     0.052 A 
ENDROOT
BRANCH   1   7
HETATM    7  C   UNL     1      -5.251   1.936 -32.111  1.00  0.00     0.282 C 
HETATM    8  N   UNL     1      -5.989   1.177 -33.003  1.00  0.00    -0.281 N 
HETATM    9  H   UNL     1      -5.835   1.236 -34.004  1.00  0.00     0.184 HD
HETATM   10  O   UNL     1      -5.217   1.689 -30.907  1.00  0.00    -0.265 OA
BRANCH   8  11
HETATM   11  N   UNL     1      -6.516  -0.049 -32.548  1.00  0.00    -0.203 NA
HETATM   12  H   UNL     1      -7.544   0.013 -32.509  1.00  0.00     0.153 HD
BRANCH  11  13
HETATM   13  C   UNL     1      -6.165  -1.151 -33.372  1.00  0.00     0.027 A 
HETATM   14  C   UNL     1      -4.823  -1.556 -33.386  1.00  0.00     0.025 A 
HETATM   15  C   UNL     1      -4.413  -2.663 -34.131  1.00  0.00     0.002 A 
HETATM   16  C   UNL     1      -5.349  -3.399 -34.853  1.00  0.00     0.000 A 
HETATM   17  C   UNL     1      -6.693  -3.033 -34.820  1.00  0.00     0.002 A 
HETATM   18  C   UNL     1      -7.100  -1.922 -34.075  1.00  0.00     0.025 A 
ENDBRANCH  11  13
ENDBRANCH   8  11
ENDBRANCH   1   7
BRANCH   5  19
HETATM   19  C   UNL     1      -1.743   5.379 -33.418  1.00  0.00     0.195 C 
HETATM   20  O   UNL     1      -1.141   5.543 -34.474  1.00  0.00    -0.287 OA
BRANCH  19  21
HETATM   21  C   UNL     1      -1.145   5.902 -32.177  1.00  0.00     0.037 A 
HETATM   22  C   UNL     1      -1.645   7.053 -31.557  1.00  0.00     0.049 A 
HETATM   23 CL   UNL     1      -3.054   7.870 -32.126  1.00  0.00    -0.083 Cl
HETATM   24  C   UNL     1      -1.013   7.555 -30.416  1.00  0.00     0.048 A 
HETATM   25  C   UNL     1       0.113   6.908 -29.906  1.00  0.00     0.035 A 
HETATM   26 CL   UNL     1       0.891   7.531 -28.504  1.00  0.00    -0.084 Cl
HETATM   27  C   UNL     1       0.616   5.762 -30.521  1.00  0.00     0.025 A 
HETATM   28  C   UNL     1      -0.009   5.258 -31.662  1.00  0.00     0.019 A 
ENDBRANCH  19  21
ENDBRANCH   5  19
TORSDOF 5
ENDMDL
MODEL 4
REMARK VINA RESULT:      -8.3      3.862      9.225
REMARK  5 active torsions:
REMARK  status: ('A' for Active; 'I' for Inactive)
REMARK    1  A    between atoms: C_4  and  N_5 
REMARK    2  A    between atoms: N_5  and  N_6 
REMARK       I    between atoms: N_6  and  C_7 
REMARK    3  A    between atoms: C_7  and  C_8 
REMARK    4  A    between atoms: C_12  and  C_13 
REMARK    5  A    between atoms: C_13  and  C_14 
ROOT
HETATM    1  C   UNL     1      -3.949   2.130 -31.452  1.00  0.00     0.102 A 
HETATM    2  N   UNL     1      -4.901   2.558 -30.553  1.00  0.00    -0.360 N 
HETATM    3  H   UNL     1      -5.495   1.928 -30.026  1.00  0.00     0.165 HD
HETATM    4  C   UNL     1      -4.903   3.926 -30.476  1.00  0.00     0.104 A 
HETATM    5  C   UNL     1      -3.951   4.415 -31.352  1.00  0.00     0.033 A 
HETATM    6  C   UNL     1      -3.371   3.272 -31.981  1.00  0.00     0.052 A 
ENDROOT
BRANCH   1   7
HETATM    7  C   UNL     1      -3.711   0.723 -31.696  1.00  0.00     0.282 C 
HETATM    8  N   UNL     1      -4.019   0.289 -32.974  1.00  0.00    -0.281 N 
HETATM    9  H   UNL     1      -4.174   0.942 -33.734  1.00  0.00     0.184 HD
HETATM   10  O   UNL     1      -3.250  -0.028 -30.838  1.00  0.00    -0.265 OA
BRANCH   8  11
HETATM   11  N   UNL     1      -3.566  -0.988 -33.364  1.00  0.00    -0.203 NA
HETATM   12  H   UNL     1      -3.085  -1.439 -32.572  1.00  0.00     0.153 HD
BRANCH  11  13
HETATM   13  C   UNL     1      -4.610  -1.845 -33.802  1.00  0.00     0.027 A 
HETATM   14  C   UNL     1      -5.902  -1.311 -33.887  1.00  0.00     0.025 A 
HETATM   15  C   UNL     1      -6.969  -2.079 -34.359  1.00  0.00     0.002 A 
HETATM   16  C   UNL     1      -6.749  -3.388 -34.778  1.00  0.00     0.000 A 
HETATM   17  C   UNL     1      -5.463  -3.923 -34.736  1.00  0.00     0.002 A 
HETATM   18  C   UNL     1      -4.398  -3.153 -34.260  1.00  0.00     0.025 A 
ENDBRANCH  11  13
ENDBRANCH   8  11
ENDBRANCH   1   7
BRANCH   5  19
HETATM   19  C   UNL     1      -3.591   5.807 -31.613  1.00  0.00     0.195 C 
HETATM   20  O   UNL     1      -4.173   6.492 -32.447  1.00  0.00    -0.287 OA
BRANCH  19  21
HETATM   21  C   UNL     1      -2.433   6.387 -30.909  1.00  0.00     0.037 A 
HETATM   22  C   UNL     1      -1.140   6.295 -31.437  1.00  0.00     0.049 A 
HETATM   23 CL   UNL     1      -0.821   5.605 -32.985  1.00  0.00    -0.083 Cl
HETATM   24  C   UNL     1      -0.059   6.803 -30.711  1.00  0.00     0.048 A 
HETATM   25  C   UNL     1      -0.275   7.395 -29.467  1.00  0.00     0.035 A 
HETATM   26 CL   UNL     1       1.058   8.016 -28.574  1.00  0.00    -0.084 Cl
HETATM   27  C   UNL     1      -1.562   7.488 -28.936  1.00  0.00     0.025 A 
HETATM   28  C   UNL     1      -2.645   6.980 -29.655  1.00  0.00     0.019 A 
ENDBRANCH  19  21
ENDBRANCH   5  19
TORSDOF 5
ENDMDL
MODEL 5
REMARK VINA RESULT:      -8.2      3.633      8.906
REMARK  5 active torsions:
REMARK  status: ('A' for Active; 'I' for Inactive)
REMARK    1  A    between atoms: C_4  and  N_5 
REMARK    2  A    between atoms: N_5  and  N_6 
REMARK       I    between atoms: N_6  and  C_7 
REMARK    3  A    between atoms: C_7  and  C_8 
REMARK    4  A    between atoms: C_12  and  C_13 
REMARK    5  A    between atoms: C_13  and  C_14 
ROOT
HETATM    1  C   UNL     1      -5.231   1.785 -32.775  1.00  0.00     0.102 A 
HETATM    2  N   UNL     1      -6.286   2.158 -33.577  1.00  0.00    -0.360 N 
HETATM    3  H   UNL     1      -6.919   1.496 -34.012  1.00  0.00     0.165 HD
HETATM    4  C   UNL     1      -6.351   3.524 -33.676  1.00  0.00     0.104 A 
HETATM    5  C   UNL     1      -5.310   4.065 -32.943  1.00  0.00     0.033 A 
HETATM    6  C   UNL     1      -4.595   2.956 -32.398  1.00  0.00     0.052 A 
ENDROOT
BRANCH   1   7
HETATM    7  C   UNL     1      -4.958   0.396 -32.473  1.00  0.00     0.282 C 
HETATM    8  N   UNL     1      -4.397  -0.331 -33.509  1.00  0.00    -0.281 N 
HETATM    9  H   UNL     1      -3.999   0.125 -34.323  1.00  0.00     0.184 HD
HETATM   10  O   UNL     1      -5.190  -0.100 -31.372  1.00  0.00    -0.265 OA
BRANCH   8  11
HETATM   11  N   UNL     1      -3.860  -1.600 -33.210  1.00  0.00    -0.203 NA
HETATM   12  H   UNL     1      -3.890  -1.755 -32.192  1.00  0.00     0.153 HD
BRANCH  11  13
HETATM   13  C   UNL     1      -4.550  -2.666 -33.845  1.00  0.00     0.027 A 
HETATM   14  C   UNL     1      -3.999  -3.951 -33.752  1.00  0.00     0.025 A 
HETATM   15  C   UNL     1      -4.649  -5.055 -34.308  1.00  0.00     0.002 A 
HETATM   16  C   UNL     1      -5.877  -4.891 -34.941  1.00  0.00     0.000 A 
HETATM   17  C   UNL     1      -6.458  -3.626 -35.010  1.00  0.00     0.002 A 
HETATM   18  C   UNL     1      -5.804  -2.522 -34.457  1.00  0.00     0.025 A 
ENDBRANCH  11  13
ENDBRANCH   8  11
ENDBRANCH   1   7
BRANCH   5  19
HETATM   19  C   UNL     1      -4.976   5.474 -32.749  1.00  0.00     0.195 C 
HETATM   20  O   UNL     1      -5.790   6.373 -32.925  1.00  0.00    -0.287 OA
BRANCH  19  21
HETATM   21  C   UNL     1      -3.588   5.837 -32.409  1.00  0.00     0.037 A 
HETATM   22  C   UNL     1      -2.571   5.803 -33.370  1.00  0.00     0.049 A 
HETATM   23 CL   UNL     1      -2.880   5.451 -35.030  1.00  0.00    -0.083 Cl
HETATM   24  C   UNL     1      -1.256   6.094 -32.996  1.00  0.00     0.048 A 
HETATM   25  C   UNL     1      -0.967   6.412 -31.669  1.00  0.00     0.035 A 
HETATM   26 CL   UNL     1       0.654   6.766 -31.212  1.00  0.00    -0.084 Cl
HETATM   27  C   UNL     1      -1.977   6.445 -30.708  1.00  0.00     0.025 A 
HETATM   28  C   UNL     1      -3.290   6.153 -31.075  1.00  0.00     0.019 A 
ENDBRANCH  19  21
ENDBRANCH   5  19
TORSDOF 5
ENDMDL
MODEL 6
REMARK VINA RESULT:      -8.1      2.728      3.262
REMARK  5 active torsions:
REMARK  status: ('A' for Active; 'I' for Inactive)
REMARK    1  A    between atoms: C_4  and  N_5 
REMARK    2  A    between atoms: N_5  and  N_6 
REMARK       I    between atoms: N_6  and  C_7 
REMARK    3  A    between atoms: C_7  and  C_8 
REMARK    4  A    between atoms: C_12  and  C_13 
REMARK    5  A    between atoms: C_13  and  C_14 
ROOT
HETATM    1  C   UNL     1      -5.807   2.582 -31.636  1.00  0.00     0.102 A 
HETATM    2  N   UNL     1      -6.741   1.741 -31.071  1.00  0.00    -0.360 N 
HETATM    3  H   UNL     1      -7.098   1.855 -30.129  1.00  0.00     0.165 HD
HETATM    4  C   UNL     1      -7.109   0.769 -31.964  1.00  0.00     0.104 A 
HETATM    5  C   UNL     1      -6.395   0.955 -33.133  1.00  0.00     0.033 A 
HETATM    6  C   UNL     1      -5.557   2.089 -32.905  1.00  0.00     0.052 A 
ENDROOT
BRANCH   1   7
HETATM    7  C   UNL     1      -5.276   3.720 -30.918  1.00  0.00     0.282 C 
HETATM    8  N   UNL     1      -3.896   3.835 -30.935  1.00  0.00    -0.281 N 
HETATM    9  H   UNL     1      -3.328   3.304 -31.585  1.00  0.00     0.184 HD
HETATM   10  O   UNL     1      -5.997   4.539 -30.349  1.00  0.00    -0.265 OA
BRANCH   8  11
HETATM   11  N   UNL     1      -3.329   5.049 -30.496  1.00  0.00    -0.203 NA
HETATM   12  H   UNL     1      -2.693   4.865 -29.706  1.00  0.00     0.153 HD
BRANCH  11  13
HETATM   13  C   UNL     1      -2.600   5.727 -31.508  1.00  0.00     0.027 A 
HETATM   14  C   UNL     1      -2.312   7.084 -31.310  1.00  0.00     0.025 A 
HETATM   15  C   UNL     1      -1.555   7.802 -32.238  1.00  0.00     0.002 A 
HETATM   16  C   UNL     1      -1.052   7.161 -33.367  1.00  0.00     0.000 A 
HETATM   17  C   UNL     1      -1.297   5.803 -33.561  1.00  0.00     0.002 A 
HETATM   18  C   UNL     1      -2.057   5.088 -32.632  1.00  0.00     0.025 A 
ENDBRANCH  11  13
ENDBRANCH   8  11
ENDBRANCH   1   7
BRANCH   5  19
HETATM   19  C   UNL     1      -6.451   0.171 -34.364  1.00  0.00     0.195 C 
HETATM   20  O   UNL     1      -6.912   0.619 -35.409  1.00  0.00    -0.287 OA
BRANCH  19  21
HETATM   21  C   UNL     1      -6.015  -1.237 -34.334  1.00  0.00     0.037 A 
HETATM   22  C   UNL     1      -4.712  -1.587 -33.966  1.00  0.00     0.049 A 
HETATM   23 CL   UNL     1      -3.563  -0.423 -33.416  1.00  0.00    -0.083 Cl
HETATM   24  C   UNL     1      -4.316  -2.927 -34.009  1.00  0.00     0.048 A 
HETATM   25  C   UNL     1      -5.222  -3.904 -34.421  1.00  0.00     0.035 A 
HETATM   26 CL   UNL     1      -4.732  -5.552 -34.476  1.00  0.00    -0.084 Cl
HETATM   27  C   UNL     1      -6.523  -3.560 -34.790  1.00  0.00     0.025 A 
HETATM   28  C   UNL     1      -6.922  -2.224 -34.752  1.00  0.00     0.019 A 
ENDBRANCH  19  21
ENDBRANCH   5  19
TORSDOF 5
ENDMDL
MODEL 7
REMARK VINA RESULT:      -8.1      5.056      8.966
REMARK  5 active torsions:
REMARK  status: ('A' for Active; 'I' for Inactive)
REMARK    1  A    between atoms: C_4  and  N_5 
REMARK    2  A    between atoms: N_5  and  N_6 
REMARK       I    between atoms: N_6  and  C_7 
REMARK    3  A    between atoms: C_7  and  C_8 
REMARK    4  A    between atoms: C_12  and  C_13 
REMARK    5  A    between atoms: C_13  and  C_14 
ROOT
HETATM    1  C   UNL     1      -8.922   2.766 -31.384  1.00  0.00     0.102 A 
HETATM    2  N   UNL     1      -8.251   2.150 -30.350  1.00  0.00    -0.360 N 
HETATM    3  H   UNL     1      -8.635   2.050 -29.417  1.00  0.00     0.165 HD
HETATM    4  C   UNL     1      -7.031   1.695 -30.777  1.00  0.00     0.104 A 
HETATM    5  C   UNL     1      -6.881   2.031 -32.110  1.00  0.00     0.033 A 
HETATM    6  C   UNL     1      -8.071   2.729 -32.476  1.00  0.00     0.052 A 
ENDROOT
BRANCH   1   7
HETATM    7  C   UNL     1     -10.254   3.305 -31.212  1.00  0.00     0.282 C 
HETATM    8  N   UNL     1     -11.116   3.092 -32.275  1.00  0.00    -0.281 N 
HETATM    9  H   UNL     1     -10.903   2.419 -33.003  1.00  0.00     0.184 HD
HETATM   10  O   UNL     1     -10.603   3.893 -30.190  1.00  0.00    -0.265 OA
BRANCH   8  11
HETATM   11  N   UNL     1     -12.488   3.344 -32.073  1.00  0.00    -0.203 NA
HETATM   12  H   UNL     1     -12.703   4.314 -32.345  1.00  0.00     0.153 HD
BRANCH  11  13
HETATM   13  C   UNL     1     -13.334   2.474 -32.810  1.00  0.00     0.027 A 
HETATM   14  C   UNL     1     -12.729   1.556 -33.679  1.00  0.00     0.025 A 
HETATM   15  C   UNL     1     -13.494   0.634 -34.398  1.00  0.00     0.002 A 
HETATM   16  C   UNL     1     -14.876   0.602 -34.234  1.00  0.00     0.000 A 
HETATM   17  C   UNL     1     -15.490   1.483 -33.347  1.00  0.00     0.002 A 
HETATM   18  C   UNL     1     -14.722   2.406 -32.631  1.00  0.00     0.025 A 
ENDBRANCH  11  13
ENDBRANCH   8  11
ENDBRANCH   1   7
BRANCH   5  19
HETATM   19  C   UNL     1      -5.750   1.754 -32.992  1.00  0.00     0.195 C 
HETATM   20  O   UNL     1      -5.068   2.646 -33.487  1.00  0.00    -0.287 OA
BRANCH  19  21
HETATM   21  C   UNL     1      -5.464   0.358 -33.368  1.00  0.00     0.037 A 
HETATM   22  C   UNL     1      -6.178  -0.281 -34.387  1.00  0.00     0.049 A 
HETATM   23 CL   UNL     1      -7.353   0.539 -35.347  1.00  0.00    -0.083 Cl
HETATM   24  C   UNL     1      -5.921  -1.625 -34.674  1.00  0.00     0.048 A 
HETATM   25  C   UNL     1      -4.959  -2.319 -33.941  1.00  0.00     0.035 A 
HETATM   26 CL   UNL     1      -4.648  -3.974 -34.293  1.00  0.00    -0.084 Cl
HETATM   27  C   UNL     1      -4.245  -1.686 -32.923  1.00  0.00     0.025 A 
HETATM   28  C   UNL     1      -4.499  -0.346 -32.630  1.00  0.00     0.019 A 
ENDBRANCH  19  21
ENDBRANCH   5  19
TORSDOF 5
ENDMDL
MODEL 8
REMARK VINA RESULT:      -7.9      4.911      8.059
REMARK  5 active torsions:
REMARK  status: ('A' for Active; 'I' for Inactive)
REMARK    1  A    between atoms: C_4  and  N_5 
REMARK    2  A    between atoms: N_5  and  N_6 
REMARK       I    between atoms: N_6  and  C_7 
REMARK    3  A    between atoms: C_7  and  C_8 
REMARK    4  A    between atoms: C_12  and  C_13 
REMARK    5  A    between atoms: C_13  and  C_14 
ROOT
HETATM    1  C   UNL     1      -7.392   2.063 -30.935  1.00  0.00     0.102 A 
HETATM    2  N   UNL     1      -6.712   1.633 -29.818  1.00  0.00    -0.360 N 
HETATM    3  H   UNL     1      -7.013   1.829 -28.870  1.00  0.00     0.165 HD
HETATM    4  C   UNL     1      -5.608   0.906 -30.182  1.00  0.00     0.104 A 
HETATM    5  C   UNL     1      -5.544   0.871 -31.563  1.00  0.00     0.033 A 
HETATM    6  C   UNL     1      -6.663   1.626 -32.028  1.00  0.00     0.052 A 
ENDROOT
BRANCH   1   7
HETATM    7  C   UNL     1      -8.620   2.823 -30.833  1.00  0.00     0.282 C 
HETATM    8  N   UNL     1      -9.451   2.749 -31.938  1.00  0.00    -0.281 N 
HETATM    9  H   UNL     1      -9.320   2.044 -32.654  1.00  0.00     0.184 HD
HETATM   10  O   UNL     1      -8.915   3.471 -29.830  1.00  0.00    -0.265 OA
BRANCH   8  11
HETATM   11  N   UNL     1     -10.769   3.234 -31.807  1.00  0.00    -0.203 NA
HETATM   12  H   UNL     1     -10.762   4.263 -31.843  1.00  0.00     0.153 HD
BRANCH  11  13
HETATM   13  C   UNL     1     -11.646   2.755 -32.816  1.00  0.00     0.027 A 
HETATM   14  C   UNL     1     -11.086   2.038 -33.882  1.00  0.00     0.025 A 
HETATM   15  C   UNL     1     -11.893   1.493 -34.884  1.00  0.00     0.002 A 
HETATM   16  C   UNL     1     -13.276   1.636 -34.816  1.00  0.00     0.000 A 
HETATM   17  C   UNL     1     -13.851   2.313 -33.743  1.00  0.00     0.002 A 
HETATM   18  C   UNL     1     -13.042   2.861 -32.744  1.00  0.00     0.025 A 
ENDBRANCH  11  13
ENDBRANCH   8  11
ENDBRANCH   1   7
BRANCH   5  19
HETATM   19  C   UNL     1      -4.549   0.214 -32.407  1.00  0.00     0.195 C 
HETATM   20  O   UNL     1      -3.421   0.668 -32.569  1.00  0.00    -0.287 OA
BRANCH  19  21
HETATM   21  C   UNL     1      -4.935  -0.995 -33.156  1.00  0.00     0.037 A 
HETATM   22  C   UNL     1      -4.220  -2.191 -33.027  1.00  0.00     0.049 A 
HETATM   23 CL   UNL     1      -2.919  -2.373 -31.909  1.00  0.00    -0.083 Cl
HETATM   24  C   UNL     1      -4.578  -3.299 -33.800  1.00  0.00     0.048 A 
HETATM   25  C   UNL     1      -5.643  -3.204 -34.697  1.00  0.00     0.035 A 
HETATM   26 CL   UNL     1      -6.079  -4.568 -35.650  1.00  0.00    -0.084 Cl
HETATM   27  C   UNL     1      -6.358  -2.014 -34.830  1.00  0.00     0.025 A 
HETATM   28  C   UNL     1      -6.003  -0.904 -34.063  1.00  0.00     0.019 A 
ENDBRANCH  19  21
ENDBRANCH   5  19
TORSDOF 5
ENDMDL
MODEL 9
REMARK VINA RESULT:      -7.9      3.814      9.347
REMARK  5 active torsions:
REMARK  status: ('A' for Active; 'I' for Inactive)
REMARK    1  A    between atoms: C_4  and  N_5 
REMARK    2  A    between atoms: N_5  and  N_6 
REMARK       I    between atoms: N_6  and  C_7 
REMARK    3  A    between atoms: C_7  and  C_8 
REMARK    4  A    between atoms: C_12  and  C_13 
REMARK    5  A    between atoms: C_13  and  C_14 
ROOT
HETATM    1  C   UNL     1      -4.433   4.293 -33.048  1.00  0.00     0.102 A 
HETATM    2  N   UNL     1      -4.409   4.563 -34.398  1.00  0.00    -0.360 N 
HETATM    3  H   UNL     1      -5.043   4.137 -35.065  1.00  0.00     0.165 HD
HETATM    4  C   UNL     1      -3.435   5.484 -34.684  1.00  0.00     0.104 A 
HETATM    5  C   UNL     1      -2.788   5.816 -33.507  1.00  0.00     0.033 A 
HETATM    6  C   UNL     1      -3.412   5.039 -32.484  1.00  0.00     0.052 A 
ENDROOT
BRANCH   1   7
HETATM    7  C   UNL     1      -5.396   3.379 -32.472  1.00  0.00     0.282 C 
HETATM    8  N   UNL     1      -6.046   2.561 -33.380  1.00  0.00    -0.281 N 
HETATM    9  H   UNL     1      -5.709   2.449 -34.330  1.00  0.00     0.184 HD
HETATM   10  O   UNL     1      -5.609   3.319 -31.262  1.00  0.00    -0.265 OA
BRANCH   8  11
HETATM   11  N   UNL     1      -6.787   1.473 -32.875  1.00  0.00    -0.203 NA
HETATM   12  H   UNL     1      -7.775   1.573 -33.150  1.00  0.00     0.153 HD
BRANCH  11  13
HETATM   13  C   UNL     1      -6.320   0.213 -33.335  1.00  0.00     0.027 A 
HETATM   14  C   UNL     1      -7.193  -0.568 -34.104  1.00  0.00     0.025 A 
HETATM   15  C   UNL     1      -6.785  -1.794 -34.633  1.00  0.00     0.002 A 
HETATM   16  C   UNL     1      -5.484  -2.242 -34.423  1.00  0.00     0.000 A 
HETATM   17  C   UNL     1      -4.591  -1.461 -33.693  1.00  0.00     0.002 A 
HETATM   18  C   UNL     1      -5.003  -0.236 -33.161  1.00  0.00     0.025 A 
ENDBRANCH  11  13
ENDBRANCH   8  11
ENDBRANCH   1   7
BRANCH   5  19
HETATM   19  C   UNL     1      -1.687   6.756 -33.312  1.00  0.00     0.195 C 
HETATM   20  O   UNL     1      -0.864   6.995 -34.190  1.00  0.00    -0.287 OA
BRANCH  19  21
HETATM   21  C   UNL     1      -1.508   7.379 -31.989  1.00  0.00     0.037 A 
HETATM   22  C   UNL     1      -0.664   6.814 -31.027  1.00  0.00     0.049 A 
HETATM   23 CL   UNL     1       0.307   5.425 -31.351  1.00  0.00    -0.083 Cl
HETATM   24  C   UNL     1      -0.566   7.399 -29.761  1.00  0.00     0.048 A 
HETATM   25  C   UNL     1      -1.313   8.540 -29.466  1.00  0.00     0.035 A 
HETATM   26 CL   UNL     1      -1.194   9.256 -27.906  1.00  0.00    -0.084 Cl
HETATM   27  C   UNL     1      -2.156   9.107 -30.421  1.00  0.00     0.025 A 
HETATM   28  C   UNL     1      -2.260   8.525 -31.685  1.00  0.00     0.019 A 
ENDBRANCH  19  21
ENDBRANCH   5  19
TORSDOF 5
ENDMDL
MODEL 10
REMARK VINA RESULT:      -7.8      6.923      9.896
REMARK  5 active torsions:
REMARK  status: ('A' for Active; 'I' for Inactive)
REMARK    1  A    between atoms: C_4  and  N_5 
REMARK    2  A    between atoms: N_5  and  N_6 
REMARK       I    between atoms: N_6  and  C_7 
REMARK    3  A    between atoms: C_7  and  C_8 
REMARK    4  A    between atoms: C_12  and  C_13 
REMARK    5  A    between atoms: C_13  and  C_14 
ROOT
HETATM    1  C   UNL     1      -9.489   0.697 -33.572  1.00  0.00     0.102 A 
HETATM    2  N   UNL     1     -10.352  -0.157 -32.921  1.00  0.00    -0.360 N 
HETATM    3  H   UNL     1     -10.042  -0.931 -32.344  1.00  0.00     0.165 HD
HETATM    4  C   UNL     1     -11.652   0.206 -33.157  1.00  0.00     0.104 A 
HETATM    5  C   UNL     1     -11.653   1.307 -33.994  1.00  0.00     0.033 A 
HETATM    6  C   UNL     1     -10.281   1.593 -34.269  1.00  0.00     0.052 A 
ENDROOT
BRANCH   1   7
HETATM    7  C   UNL     1      -8.053   0.559 -33.459  1.00  0.00     0.282 C 
HETATM    8  N   UNL     1      -7.580  -0.740 -33.526  1.00  0.00    -0.281 N 
HETATM    9  H   UNL     1      -8.163  -1.500 -33.859  1.00  0.00     0.184 HD
HETATM   10  O   UNL     1      -7.304   1.526 -33.331  1.00  0.00    -0.265 OA
BRANCH   8  11
HETATM   11  N   UNL     1      -6.193  -0.930 -33.695  1.00  0.00    -0.203 NA
HETATM   12  H   UNL     1      -5.707  -0.722 -32.810  1.00  0.00     0.153 HD
BRANCH  11  13
HETATM   13  C   UNL     1      -5.851  -2.249 -34.094  1.00  0.00     0.027 A 
HETATM   14  C   UNL     1      -4.548  -2.695 -33.834  1.00  0.00     0.025 A 
HETATM   15  C   UNL     1      -4.157  -3.997 -34.152  1.00  0.00     0.002 A 
HETATM   16  C   UNL     1      -5.075  -4.882 -34.710  1.00  0.00     0.000 A 
HETATM   17  C   UNL     1      -6.385  -4.467 -34.941  1.00  0.00     0.002 A 
HETATM   18  C   UNL     1      -6.774  -3.162 -34.625  1.00  0.00     0.025 A 
ENDBRANCH  11  13
ENDBRANCH   8  11
ENDBRANCH   1   7
BRANCH   5  19
HETATM   19  C   UNL     1     -12.799   2.047 -34.517  1.00  0.00     0.195 C 
HETATM   20  O   UNL     1     -13.214   1.895 -35.660  1.00  0.00    -0.287 OA
BRANCH  19  21
HETATM   21  C   UNL     1     -13.432   3.074 -33.669  1.00  0.00     0.037 A 
HETATM   22  C   UNL     1     -13.091   4.425 -33.787  1.00  0.00     0.049 A 
HETATM   23 CL   UNL     1     -12.004   5.002 -34.996  1.00  0.00    -0.083 Cl
HETATM   24  C   UNL     1     -13.666   5.362 -32.924  1.00  0.00     0.048 A 
HETATM   25  C   UNL     1     -14.572   4.943 -31.950  1.00  0.00     0.035 A 
HETATM   26 CL   UNL     1     -15.276   6.098 -30.886  1.00  0.00    -0.084 Cl
HETATM   27  C   UNL     1     -14.914   3.596 -31.827  1.00  0.00     0.025 A 
HETATM   28  C   UNL     1     -14.340   2.656 -32.684  1.00  0.00     0.019 A 
ENDBRANCH  19  21
ENDBRANCH   5  19
TORSDOF 5
ENDMDL
