MODEL 1
REMARK VINA RESULT:      -8.9      0.000      0.000
REMARK  6 active torsions:
REMARK  status: ('A' for Active; 'I' for Inactive)
REMARK    1  A    between atoms: O_2  and  C_3 
REMARK    2  A    between atoms: C_5  and  O_6 
REMARK    3  A    between atoms: C_9  and  N_10 
REMARK       I    between atoms: N_10  and  C_11 
REMARK    4  A    between atoms: C_11  and  C_12 
REMARK    5  A    between atoms: C_12  and  N_13 
REMARK    6  A    between atoms: C_19  and  C_20 
ROOT
HETATM    1  N   UNL     1      -3.858   5.794 -33.428  1.00  0.00    -0.063 N 
HETATM    2  H   UNL     1      -4.441   6.645 -33.315  1.00  0.00     0.280 HD
HETATM    3  C   UNL     1      -3.988   5.013 -32.141  1.00  0.00     0.240 C 
HETATM    4  C   UNL     1      -3.377   5.787 -30.987  1.00  0.00     0.083 C 
HETATM    5  C   UNL     1      -1.930   6.186 -31.274  1.00  0.00     0.131 A 
HETATM    6  N   UNL     1      -1.482   7.080 -30.177  1.00  0.00    -0.251 NA
HETATM    7  C   UNL     1      -0.462   6.501 -29.599  1.00  0.00     0.132 A 
HETATM    8  C   UNL     1      -0.138   5.173 -30.243  1.00  0.00     0.272 A 
HETATM    9  O   UNL     1       0.708   4.371 -29.932  1.00  0.00    -0.266 OA
HETATM   10  N   UNL     1      -1.043   5.064 -31.255  1.00  0.00    -0.327 N 
HETATM   11  C   UNL     1      -1.838   6.969 -32.584  1.00  0.00     0.083 C 
HETATM   12  C   UNL     1      -2.446   6.203 -33.744  1.00  0.00     0.240 C 
HETATM   13  H   UNL     1      -1.050   4.224 -31.817  1.00  0.00     0.165 HD
ENDROOT
BRANCH   1  14
HETATM   14  C   UNL     1      -4.516   5.058 -34.610  1.00  0.00     0.337 C 
BRANCH  14  15
HETATM   15  C   UNL     1      -5.816   4.376 -34.177  1.00  0.00     0.248 C 
HETATM   16  N   UNL     1      -5.681   3.033 -33.895  1.00  0.00    -0.326 N 
HETATM   17  H   UNL     1      -4.764   2.607 -33.968  1.00  0.00     0.169 HD
HETATM   18  O   UNL     1      -6.824   5.072 -34.065  1.00  0.00    -0.271 OA
BRANCH  16  19
HETATM   19  C   UNL     1      -6.691   2.150 -33.448  1.00  0.00     0.040 A 
HETATM   20  C   UNL     1      -7.898   1.930 -34.117  1.00  0.00     0.066 A 
HETATM   21  C   UNL     1      -8.838   1.035 -33.595  1.00  0.00     0.073 A 
HETATM   22  C   UNL     1      -8.576   0.368 -32.393  1.00  0.00     0.073 A 
HETATM   23  C   UNL     1      -7.379   0.579 -31.717  1.00  0.00     0.073 A 
HETATM   24  C   UNL     1      -6.439   1.459 -32.255  1.00  0.00     0.066 A 
BRANCH  21  25
HETATM   25  O   UNL     1     -10.047   0.724 -34.157  1.00  0.00    -0.356 OA
HETATM   26  C   UNL     1     -11.081   1.694 -34.062  1.00  0.00     0.210 C 
ENDBRANCH  21  25
BRANCH  23  27
HETATM   27  O   UNL     1      -7.003   0.001 -30.537  1.00  0.00    -0.356 OA
HETATM   28  C   UNL     1      -5.821   0.504 -29.922  1.00  0.00     0.210 C 
ENDBRANCH  23  27
ENDBRANCH  16  19
ENDBRANCH  14  15
ENDBRANCH   1  14
BRANCH   7  29
HETATM   29  C   UNL     1       0.268   7.078 -28.454  1.00  0.00    -0.002 A 
HETATM   30  C   UNL     1       1.091   8.192 -28.677  1.00  0.00     0.016 A 
HETATM   31  C   UNL     1       1.801   8.774 -27.623  1.00  0.00     0.024 A 
HETATM   32  C   UNL     1       1.695   8.242 -26.340  1.00  0.00     0.034 A 
HETATM   33 CL   UNL     1       2.566   8.955 -25.042  1.00  0.00    -0.084 Cl
HETATM   34  C   UNL     1       0.887   7.131 -26.107  1.00  0.00     0.024 A 
HETATM   35  C   UNL     1       0.175   6.549 -27.161  1.00  0.00     0.016 A 
ENDBRANCH   7  29
TORSDOF 6
ENDMDL
MODEL 2
REMARK VINA RESULT:      -8.8      2.779      3.428
REMARK  6 active torsions:
REMARK  status: ('A' for Active; 'I' for Inactive)
REMARK    1  A    between atoms: O_2  and  C_3 
REMARK    2  A    between atoms: C_5  and  O_6 
REMARK    3  A    between atoms: C_9  and  N_10 
REMARK       I    between atoms: N_10  and  C_11 
REMARK    4  A    between atoms: C_11  and  C_12 
REMARK    5  A    between atoms: C_12  and  N_13 
REMARK    6  A    between atoms: C_19  and  C_20 
ROOT
HETATM    1  N   UNL     1      -6.482   4.290 -32.777  1.00  0.00    -0.063 N 
HETATM    2  H   UNL     1      -7.188   4.734 -32.159  1.00  0.00     0.280 HD
HETATM    3  C   UNL     1      -5.656   3.379 -31.901  1.00  0.00     0.240 C 
HETATM    4  C   UNL     1      -4.870   4.189 -30.887  1.00  0.00     0.083 C 
HETATM    5  C   UNL     1      -4.020   5.268 -31.557  1.00  0.00     0.131 A 
HETATM    6  N   UNL     1      -3.434   6.111 -30.486  1.00  0.00    -0.251 NA
HETATM    7  C   UNL     1      -2.133   6.021 -30.592  1.00  0.00     0.132 A 
HETATM    8  C   UNL     1      -1.729   5.111 -31.728  1.00  0.00     0.272 A 
HETATM    9  O   UNL     1      -0.622   4.780 -32.072  1.00  0.00    -0.266 OA
HETATM   10  N   UNL     1      -2.912   4.718 -32.276  1.00  0.00    -0.327 N 
HETATM   11  C   UNL     1      -4.889   6.166 -32.438  1.00  0.00     0.083 C 
HETATM   12  C   UNL     1      -5.679   5.364 -33.456  1.00  0.00     0.240 C 
HETATM   13  H   UNL     1      -2.902   4.061 -33.045  1.00  0.00     0.165 HD
ENDROOT
BRANCH   1  14
HETATM   14  C   UNL     1      -7.334   3.495 -33.784  1.00  0.00     0.337 C 
BRANCH  14  15
HETATM   15  C   UNL     1      -7.276   1.994 -33.487  1.00  0.00     0.248 C 
HETATM   16  N   UNL     1      -6.288   1.321 -34.175  1.00  0.00    -0.326 N 
HETATM   17  H   UNL     1      -5.675   1.846 -34.790  1.00  0.00     0.169 HD
HETATM   18  O   UNL     1      -8.050   1.541 -32.646  1.00  0.00    -0.271 OA
BRANCH  16  19
HETATM   19  C   UNL     1      -5.973  -0.055 -34.088  1.00  0.00     0.040 A 
HETATM   20  C   UNL     1      -6.713  -1.071 -34.698  1.00  0.00     0.066 A 
HETATM   21  C   UNL     1      -6.323  -2.407 -34.555  1.00  0.00     0.073 A 
HETATM   22  C   UNL     1      -5.198  -2.729 -33.786  1.00  0.00     0.073 A 
HETATM   23  C   UNL     1      -4.454  -1.726 -33.172  1.00  0.00     0.073 A 
HETATM   24  C   UNL     1      -4.840  -0.394 -33.338  1.00  0.00     0.066 A 
BRANCH  21  25
HETATM   25  O   UNL     1      -6.951  -3.490 -35.108  1.00  0.00    -0.356 OA
HETATM   26  C   UNL     1      -6.154  -4.629 -35.404  1.00  0.00     0.210 C 
ENDBRANCH  21  25
BRANCH  23  27
HETATM   27  O   UNL     1      -3.345  -1.902 -32.394  1.00  0.00    -0.356 OA
HETATM   28  C   UNL     1      -3.055  -3.233 -31.979  1.00  0.00     0.210 C 
ENDBRANCH  23  27
ENDBRANCH  16  19
ENDBRANCH  14  15
ENDBRANCH   1  14
BRANCH   7  29
HETATM   29  C   UNL     1      -1.187   6.719 -29.700  1.00  0.00    -0.002 A 
HETATM   30  C   UNL     1      -0.102   5.998 -29.180  1.00  0.00     0.016 A 
HETATM   31  C   UNL     1       0.822   6.617 -28.333  1.00  0.00     0.024 A 
HETATM   32  C   UNL     1       0.662   7.959 -27.997  1.00  0.00     0.034 A 
HETATM   33 CL   UNL     1       1.796   8.723 -26.955  1.00  0.00    -0.084 Cl
HETATM   34  C   UNL     1      -0.416   8.684 -28.501  1.00  0.00     0.024 A 
HETATM   35  C   UNL     1      -1.340   8.066 -29.350  1.00  0.00     0.016 A 
ENDBRANCH   7  29
TORSDOF 6
ENDMDL
MODEL 3
REMARK VINA RESULT:      -8.6      4.496      9.819
REMARK  6 active torsions:
REMARK  status: ('A' for Active; 'I' for Inactive)
REMARK    1  A    between atoms: O_2  and  C_3 
REMARK    2  A    between atoms: C_5  and  O_6 
REMARK    3  A    between atoms: C_9  and  N_10 
REMARK       I    between atoms: N_10  and  C_11 
REMARK    4  A    between atoms: C_11  and  C_12 
REMARK    5  A    between atoms: C_12  and  N_13 
REMARK    6  A    between atoms: C_19  and  C_20 
ROOT
HETATM    1  N   UNL     1      -6.536   4.838 -30.582  1.00  0.00    -0.063 N 
HETATM    2  H   UNL     1      -7.563   4.873 -30.725  1.00  0.00     0.280 HD
HETATM    3  C   UNL     1      -5.913   4.796 -31.958  1.00  0.00     0.240 C 
HETATM    4  C   UNL     1      -6.280   3.505 -32.666  1.00  0.00     0.083 C 
HETATM    5  C   UNL     1      -5.916   2.277 -31.833  1.00  0.00     0.131 A 
HETATM    6  N   UNL     1      -6.467   1.084 -32.523  1.00  0.00    -0.251 NA
HETATM    7  C   UNL     1      -5.458   0.306 -32.815  1.00  0.00     0.132 A 
HETATM    8  C   UNL     1      -4.146   0.902 -32.360  1.00  0.00     0.272 A 
HETATM    9  O   UNL     1      -3.030   0.469 -32.507  1.00  0.00    -0.266 OA
HETATM   10  N   UNL     1      -4.503   2.070 -31.758  1.00  0.00    -0.327 N 
HETATM   11  C   UNL     1      -6.560   2.357 -30.449  1.00  0.00     0.083 C 
HETATM   12  C   UNL     1      -6.199   3.645 -29.731  1.00  0.00     0.240 C 
HETATM   13  H   UNL     1      -3.778   2.678 -31.400  1.00  0.00     0.165 HD
ENDROOT
BRANCH   1  14
HETATM   14  C   UNL     1      -6.227   6.160 -29.856  1.00  0.00     0.337 C 
BRANCH  14  15
HETATM   15  C   UNL     1      -4.960   6.812 -30.418  1.00  0.00     0.248 C 
HETATM   16  N   UNL     1      -3.806   6.096 -30.180  1.00  0.00    -0.326 N 
HETATM   17  H   UNL     1      -3.871   5.211 -29.689  1.00  0.00     0.169 HD
HETATM   18  O   UNL     1      -5.082   7.852 -31.062  1.00  0.00    -0.271 OA
BRANCH  16  19
HETATM   19  C   UNL     1      -2.496   6.426 -30.598  1.00  0.00     0.040 A 
HETATM   20  C   UNL     1      -1.449   6.743 -29.728  1.00  0.00     0.066 A 
HETATM   21  C   UNL     1      -0.184   7.057 -30.236  1.00  0.00     0.073 A 
HETATM   22  C   UNL     1       0.031   7.070 -31.619  1.00  0.00     0.073 A 
HETATM   23  C   UNL     1      -1.003   6.759 -32.495  1.00  0.00     0.073 A 
HETATM   24  C   UNL     1      -2.257   6.427 -31.978  1.00  0.00     0.066 A 
BRANCH  21  25
HETATM   25  O   UNL     1       0.923   7.372 -29.494  1.00  0.00    -0.356 OA
HETATM   26  C   UNL     1       0.711   8.004 -28.238  1.00  0.00     0.210 C 
ENDBRANCH  21  25
BRANCH  23  27
HETATM   27  O   UNL     1      -0.930   6.741 -33.859  1.00  0.00    -0.356 OA
HETATM   28  C   UNL     1      -1.654   5.713 -34.529  1.00  0.00     0.210 C 
ENDBRANCH  23  27
ENDBRANCH  16  19
ENDBRANCH  14  15
ENDBRANCH   1  14
BRANCH   7  29
HETATM   29  C   UNL     1      -5.594  -0.988 -33.512  1.00  0.00    -0.002 A 
HETATM   30  C   UNL     1      -6.879  -1.424 -33.870  1.00  0.00     0.016 A 
HETATM   31  C   UNL     1      -7.056  -2.641 -34.533  1.00  0.00     0.024 A 
HETATM   32  C   UNL     1      -5.951  -3.432 -34.838  1.00  0.00     0.034 A 
HETATM   33 CL   UNL     1      -6.166  -4.929 -35.653  1.00  0.00    -0.084 Cl
HETATM   34  C   UNL     1      -4.670  -3.013 -34.481  1.00  0.00     0.024 A 
HETATM   35  C   UNL     1      -4.491  -1.794 -33.819  1.00  0.00     0.016 A 
ENDBRANCH   7  29
TORSDOF 6
ENDMDL
MODEL 4
REMARK VINA RESULT:      -8.6      2.824      3.971
REMARK  6 active torsions:
REMARK  status: ('A' for Active; 'I' for Inactive)
REMARK    1  A    between atoms: O_2  and  C_3 
REMARK    2  A    between atoms: C_5  and  O_6 
REMARK    3  A    between atoms: C_9  and  N_10 
REMARK       I    between atoms: N_10  and  C_11 
REMARK    4  A    between atoms: C_11  and  C_12 
REMARK    5  A    between atoms: C_12  and  N_13 
REMARK    6  A    between atoms: C_19  and  C_20 
ROOT
HETATM    1  N   UNL     1      -6.575   4.300 -32.681  1.00  0.00    -0.063 N 
HETATM    2  H   UNL     1      -7.292   4.865 -32.188  1.00  0.00     0.280 HD
HETATM    3  C   UNL     1      -5.852   3.505 -31.620  1.00  0.00     0.240 C 
HETATM    4  C   UNL     1      -5.086   4.431 -30.694  1.00  0.00     0.083 C 
HETATM    5  C   UNL     1      -4.142   5.353 -31.465  1.00  0.00     0.131 A 
HETATM    6  N   UNL     1      -3.577   6.329 -30.501  1.00  0.00    -0.251 NA
HETATM    7  C   UNL     1      -2.280   6.169 -30.504  1.00  0.00     0.132 A 
HETATM    8  C   UNL     1      -1.857   5.074 -31.455  1.00  0.00     0.272 A 
HETATM    9  O   UNL     1      -0.750   4.646 -31.668  1.00  0.00    -0.266 OA
HETATM   10  N   UNL     1      -3.024   4.650 -32.014  1.00  0.00    -0.327 N 
HETATM   11  C   UNL     1      -4.909   6.136 -32.531  1.00  0.00     0.083 C 
HETATM   12  C   UNL     1      -5.678   5.218 -33.463  1.00  0.00     0.240 C 
HETATM   13  H   UNL     1      -3.002   3.879 -32.669  1.00  0.00     0.165 HD
ENDROOT
BRANCH   1  14
HETATM   14  C   UNL     1      -7.405   3.392 -33.607  1.00  0.00     0.337 C 
BRANCH  14  15
HETATM   15  C   UNL     1      -7.185   1.915 -33.271  1.00  0.00     0.248 C 
HETATM   16  N   UNL     1      -6.092   1.352 -33.895  1.00  0.00    -0.326 N 
HETATM   17  H   UNL     1      -5.517   1.934 -34.495  1.00  0.00     0.169 HD
HETATM   18  O   UNL     1      -7.939   1.389 -32.454  1.00  0.00    -0.271 OA
BRANCH  16  19
HETATM   19  C   UNL     1      -5.621   0.026 -33.760  1.00  0.00     0.040 A 
HETATM   20  C   UNL     1      -4.505  -0.340 -33.003  1.00  0.00     0.066 A 
HETATM   21  C   UNL     1      -4.114  -1.681 -32.928  1.00  0.00     0.073 A 
HETATM   22  C   UNL     1      -4.833  -2.659 -33.625  1.00  0.00     0.073 A 
HETATM   23  C   UNL     1      -5.946  -2.308 -34.384  1.00  0.00     0.073 A 
HETATM   24  C   UNL     1      -6.339  -0.969 -34.436  1.00  0.00     0.066 A 
BRANCH  21  25
HETATM   25  O   UNL     1      -3.052  -2.169 -32.216  1.00  0.00    -0.356 OA
HETATM   26  C   UNL     1      -3.045  -3.559 -31.920  1.00  0.00     0.210 C 
ENDBRANCH  21  25
BRANCH  23  27
HETATM   27  O   UNL     1      -6.728  -3.157 -35.114  1.00  0.00    -0.356 OA
HETATM   28  C   UNL     1      -6.296  -4.511 -35.205  1.00  0.00     0.210 C 
ENDBRANCH  23  27
ENDBRANCH  16  19
ENDBRANCH  14  15
ENDBRANCH   1  14
BRANCH   7  29
HETATM   29  C   UNL     1      -1.353   6.959 -29.669  1.00  0.00    -0.002 A 
HETATM   30  C   UNL     1      -1.788   8.197 -29.175  1.00  0.00     0.016 A 
HETATM   31  C   UNL     1      -0.946   8.979 -28.378  1.00  0.00     0.024 A 
HETATM   32  C   UNL     1       0.337   8.528 -28.077  1.00  0.00     0.034 A 
HETATM   33 CL   UNL     1       1.375   9.487 -27.098  1.00  0.00    -0.084 Cl
HETATM   34  C   UNL     1       0.783   7.303 -28.569  1.00  0.00     0.024 A 
HETATM   35  C   UNL     1      -0.059   6.519 -29.364  1.00  0.00     0.016 A 
ENDBRANCH   7  29
TORSDOF 6
ENDMDL
MODEL 5
REMARK VINA RESULT:      -8.5      4.372     10.298
REMARK  6 active torsions:
REMARK  status: ('A' for Active; 'I' for Inactive)
REMARK    1  A    between atoms: O_2  and  C_3 
REMARK    2  A    between atoms: C_5  and  O_6 
REMARK    3  A    between atoms: C_9  and  N_10 
REMARK       I    between atoms: N_10  and  C_11 
REMARK    4  A    between atoms: C_11  and  C_12 
REMARK    5  A    between atoms: C_12  and  N_13 
REMARK    6  A    between atoms: C_19  and  C_20 
ROOT
HETATM    1  N   UNL     1      -5.164   5.577 -31.902  1.00  0.00    -0.063 N 
HETATM    2  H   UNL     1      -4.756   5.877 -32.808  1.00  0.00     0.280 HD
HETATM    3  C   UNL     1      -4.202   4.576 -31.309  1.00  0.00     0.240 C 
HETATM    4  C   UNL     1      -4.138   3.328 -32.170  1.00  0.00     0.083 C 
HETATM    5  C   UNL     1      -5.523   2.726 -32.401  1.00  0.00     0.131 A 
HETATM    6  N   UNL     1      -5.379   1.627 -33.387  1.00  0.00    -0.251 NA
HETATM    7  C   UNL     1      -5.779   0.528 -32.802  1.00  0.00     0.132 A 
HETATM    8  C   UNL     1      -6.217   0.783 -31.379  1.00  0.00     0.272 A 
HETATM    9  O   UNL     1      -6.598  -0.009 -30.554  1.00  0.00    -0.266 OA
HETATM   10  N   UNL     1      -6.060   2.126 -31.219  1.00  0.00    -0.327 N 
HETATM   11  C   UNL     1      -6.469   3.769 -32.997  1.00  0.00     0.083 C 
HETATM   12  C   UNL     1      -6.540   5.021 -32.143  1.00  0.00     0.240 C 
HETATM   13  H   UNL     1      -6.257   2.538 -30.316  1.00  0.00     0.165 HD
ENDROOT
BRANCH   1  14
HETATM   14  C   UNL     1      -5.212   6.878 -31.080  1.00  0.00     0.337 C 
BRANCH  14  15
HETATM   15  C   UNL     1      -3.802   7.407 -30.805  1.00  0.00     0.248 C 
HETATM   16  N   UNL     1      -3.417   7.325 -29.484  1.00  0.00    -0.326 N 
HETATM   17  H   UNL     1      -4.058   6.917 -28.811  1.00  0.00     0.169 HD
HETATM   18  O   UNL     1      -3.133   7.792 -31.762  1.00  0.00    -0.271 OA
BRANCH  16  19
HETATM   19  C   UNL     1      -2.171   7.705 -28.932  1.00  0.00     0.040 A 
HETATM   20  C   UNL     1      -1.896   8.970 -28.407  1.00  0.00     0.066 A 
HETATM   21  C   UNL     1      -0.630   9.253 -27.882  1.00  0.00     0.073 A 
HETATM   22  C   UNL     1       0.368   8.273 -27.897  1.00  0.00     0.073 A 
HETATM   23  C   UNL     1       0.107   7.010 -28.419  1.00  0.00     0.073 A 
HETATM   24  C   UNL     1      -1.165   6.730 -28.922  1.00  0.00     0.066 A 
BRANCH  21  25
HETATM   25  O   UNL     1      -0.239  10.443 -27.331  1.00  0.00    -0.356 OA
HETATM   26  C   UNL     1       0.921  10.434 -26.509  1.00  0.00     0.210 C 
ENDBRANCH  21  25
BRANCH  23  27
HETATM   27  O   UNL     1       0.989   5.969 -28.499  1.00  0.00    -0.356 OA
HETATM   28  C   UNL     1       0.711   4.964 -29.469  1.00  0.00     0.210 C 
ENDBRANCH  23  27
ENDBRANCH  16  19
ENDBRANCH  14  15
ENDBRANCH   1  14
BRANCH   7  29
HETATM   29  C   UNL     1      -5.787  -0.795 -33.457  1.00  0.00    -0.002 A 
HETATM   30  C   UNL     1      -7.015  -1.322 -33.886  1.00  0.00     0.016 A 
HETATM   31  C   UNL     1      -7.072  -2.570 -34.513  1.00  0.00     0.024 A 
HETATM   32  C   UNL     1      -5.903  -3.300 -34.710  1.00  0.00     0.034 A 
HETATM   33 CL   UNL     1      -5.969  -4.835 -35.481  1.00  0.00    -0.084 Cl
HETATM   34  C   UNL     1      -4.678  -2.791 -34.282  1.00  0.00     0.024 A 
HETATM   35  C   UNL     1      -4.619  -1.541 -33.656  1.00  0.00     0.016 A 
ENDBRANCH   7  29
TORSDOF 6
ENDMDL
MODEL 6
REMARK VINA RESULT:      -8.5      4.493      9.556
REMARK  6 active torsions:
REMARK  status: ('A' for Active; 'I' for Inactive)
REMARK    1  A    between atoms: O_2  and  C_3 
REMARK    2  A    between atoms: C_5  and  O_6 
REMARK    3  A    between atoms: C_9  and  N_10 
REMARK       I    between atoms: N_10  and  C_11 
REMARK    4  A    between atoms: C_11  and  C_12 
REMARK    5  A    between atoms: C_12  and  N_13 
REMARK    6  A    between atoms: C_19  and  C_20 
ROOT
HETATM    1  N   UNL     1      -6.575   4.777 -30.212  1.00  0.00    -0.063 N 
HETATM    2  H   UNL     1      -7.612   4.756 -30.199  1.00  0.00     0.280 HD
HETATM    3  C   UNL     1      -6.165   4.801 -31.666  1.00  0.00     0.240 C 
HETATM    4  C   UNL     1      -6.564   3.506 -32.350  1.00  0.00     0.083 C 
HETATM    5  C   UNL     1      -6.013   2.283 -31.617  1.00  0.00     0.131 A 
HETATM    6  N   UNL     1      -6.597   1.076 -32.251  1.00  0.00    -0.251 NA
HETATM    7  C   UNL     1      -5.603   0.363 -32.714  1.00  0.00     0.132 A 
HETATM    8  C   UNL     1      -4.272   1.024 -32.443  1.00  0.00     0.272 A 
HETATM    9  O   UNL     1      -3.169   0.660 -32.768  1.00  0.00    -0.266 OA
HETATM   10  N   UNL     1      -4.596   2.157 -31.760  1.00  0.00    -0.327 N 
HETATM   11  C   UNL     1      -6.445   2.297 -30.150  1.00  0.00     0.083 C 
HETATM   12  C   UNL     1      -6.050   3.588 -29.457  1.00  0.00     0.240 C 
HETATM   13  H   UNL     1      -3.859   2.797 -31.496  1.00  0.00     0.165 HD
ENDROOT
BRANCH   1  14
HETATM   14  C   UNL     1      -6.231   6.099 -29.502  1.00  0.00     0.337 C 
BRANCH  14  15
HETATM   15  C   UNL     1      -5.025   6.778 -30.158  1.00  0.00     0.248 C 
HETATM   16  N   UNL     1      -3.887   6.001 -30.182  1.00  0.00    -0.326 N 
HETATM   17  H   UNL     1      -3.926   5.062 -29.801  1.00  0.00     0.169 HD
HETATM   18  O   UNL     1      -5.185   7.897 -30.643  1.00  0.00    -0.271 OA
BRANCH  16  19
HETATM   19  C   UNL     1      -2.634   6.341 -30.743  1.00  0.00     0.040 A 
HETATM   20  C   UNL     1      -2.367   6.372 -32.114  1.00  0.00     0.066 A 
HETATM   21  C   UNL     1      -1.093   6.722 -32.575  1.00  0.00     0.073 A 
HETATM   22  C   UNL     1      -0.078   7.026 -31.661  1.00  0.00     0.073 A 
HETATM   23  C   UNL     1      -0.330   6.997 -30.293  1.00  0.00     0.073 A 
HETATM   24  C   UNL     1      -1.610   6.667 -29.843  1.00  0.00     0.066 A 
BRANCH  21  25
HETATM   25  O   UNL     1      -0.708   6.801 -33.886  1.00  0.00    -0.356 OA
HETATM   26  C   UNL     1      -1.144   5.768 -34.760  1.00  0.00     0.210 C 
ENDBRANCH  21  25
BRANCH  23  27
HETATM   27  O   UNL     1       0.568   7.265 -29.298  1.00  0.00    -0.356 OA
HETATM   28  C   UNL     1       0.649   6.322 -28.234  1.00  0.00     0.210 C 
ENDBRANCH  23  27
ENDBRANCH  16  19
ENDBRANCH  14  15
ENDBRANCH   1  14
BRANCH   7  29
HETATM   29  C   UNL     1      -5.773  -0.922 -33.421  1.00  0.00    -0.002 A 
HETATM   30  C   UNL     1      -4.634  -1.699 -33.679  1.00  0.00     0.016 A 
HETATM   31  C   UNL     1      -4.745  -2.923 -34.344  1.00  0.00     0.024 A 
HETATM   32  C   UNL     1      -5.996  -3.375 -34.758  1.00  0.00     0.034 A 
HETATM   33 CL   UNL     1      -6.137  -4.880 -35.576  1.00  0.00    -0.084 Cl
HETATM   34  C   UNL     1      -7.134  -2.609 -34.514  1.00  0.00     0.024 A 
HETATM   35  C   UNL     1      -7.024  -1.384 -33.848  1.00  0.00     0.016 A 
ENDBRANCH   7  29
TORSDOF 6
ENDMDL
MODEL 7
REMARK VINA RESULT:      -8.5      4.446     10.446
REMARK  6 active torsions:
REMARK  status: ('A' for Active; 'I' for Inactive)
REMARK    1  A    between atoms: O_2  and  C_3 
REMARK    2  A    between atoms: C_5  and  O_6 
REMARK    3  A    between atoms: C_9  and  N_10 
REMARK       I    between atoms: N_10  and  C_11 
REMARK    4  A    between atoms: C_11  and  C_12 
REMARK    5  A    between atoms: C_12  and  N_13 
REMARK    6  A    between atoms: C_19  and  C_20 
ROOT
HETATM    1  N   UNL     1      -5.412   4.603 -29.553  1.00  0.00    -0.063 N 
HETATM    2  H   UNL     1      -4.849   4.139 -28.815  1.00  0.00     0.280 HD
HETATM    3  C   UNL     1      -6.732   3.870 -29.610  1.00  0.00     0.240 C 
HETATM    4  C   UNL     1      -6.524   2.442 -30.080  1.00  0.00     0.083 C 
HETATM    5  C   UNL     1      -5.777   2.385 -31.412  1.00  0.00     0.131 A 
HETATM    6  N   UNL     1      -5.470   0.962 -31.697  1.00  0.00    -0.251 NA
HETATM    7  C   UNL     1      -6.058   0.658 -32.825  1.00  0.00     0.132 A 
HETATM    8  C   UNL     1      -6.815   1.837 -33.393  1.00  0.00     0.272 A 
HETATM    9  O   UNL     1      -7.495   1.888 -34.388  1.00  0.00    -0.266 OA
HETATM   10  N   UNL     1      -6.579   2.842 -32.505  1.00  0.00    -0.327 N 
HETATM   11  C   UNL     1      -4.451   3.141 -31.316  1.00  0.00     0.083 C 
HETATM   12  C   UNL     1      -4.648   4.571 -30.847  1.00  0.00     0.240 C 
HETATM   13  H   UNL     1      -7.021   3.740 -32.653  1.00  0.00     0.165 HD
ENDROOT
BRANCH   1  14
HETATM   14  C   UNL     1      -5.581   6.041 -29.028  1.00  0.00     0.337 C 
BRANCH  14  15
HETATM   15  C   UNL     1      -4.294   6.848 -29.212  1.00  0.00     0.248 C 
HETATM   16  N   UNL     1      -3.302   6.541 -28.306  1.00  0.00    -0.326 N 
HETATM   17  H   UNL     1      -3.474   5.815 -27.618  1.00  0.00     0.169 HD
HETATM   18  O   UNL     1      -4.234   7.633 -30.157  1.00  0.00    -0.271 OA
BRANCH  16  19
HETATM   19  C   UNL     1      -2.002   7.094 -28.243  1.00  0.00     0.040 A 
HETATM   20  C   UNL     1      -1.515   7.840 -27.167  1.00  0.00     0.066 A 
HETATM   21  C   UNL     1      -0.212   8.348 -27.195  1.00  0.00     0.073 A 
HETATM   22  C   UNL     1       0.602   8.122 -28.311  1.00  0.00     0.073 A 
HETATM   23  C   UNL     1       0.129   7.383 -29.390  1.00  0.00     0.073 A 
HETATM   24  C   UNL     1      -1.166   6.863 -29.343  1.00  0.00     0.066 A 
BRANCH  21  25
HETATM   25  O   UNL     1       0.386   9.080 -26.205  1.00  0.00    -0.356 OA
HETATM   26  C   UNL     1       1.070  10.265 -26.589  1.00  0.00     0.210 C 
ENDBRANCH  21  25
BRANCH  23  27
HETATM   27  O   UNL     1       0.813   7.096 -30.537  1.00  0.00    -0.356 OA
HETATM   28  C   UNL     1       0.068   6.514 -31.603  1.00  0.00     0.210 C 
ENDBRANCH  23  27
ENDBRANCH  16  19
ENDBRANCH  14  15
ENDBRANCH   1  14
BRANCH   7  29
HETATM   29  C   UNL     1      -5.993  -0.677 -33.452  1.00  0.00    -0.002 A 
HETATM   30  C   UNL     1      -4.733  -1.257 -33.660  1.00  0.00     0.016 A 
HETATM   31  C   UNL     1      -4.622  -2.521 -34.248  1.00  0.00     0.024 A 
HETATM   32  C   UNL     1      -5.769  -3.207 -34.636  1.00  0.00     0.034 A 
HETATM   33 CL   UNL     1      -5.636  -4.761 -35.359  1.00  0.00    -0.084 Cl
HETATM   34  C   UNL     1      -7.026  -2.638 -34.441  1.00  0.00     0.024 A 
HETATM   35  C   UNL     1      -7.139  -1.375 -33.851  1.00  0.00     0.016 A 
ENDBRANCH   7  29
TORSDOF 6
ENDMDL
MODEL 8
REMARK VINA RESULT:      -8.4      4.977     11.496
REMARK  6 active torsions:
REMARK  status: ('A' for Active; 'I' for Inactive)
REMARK    1  A    between atoms: O_2  and  C_3 
REMARK    2  A    between atoms: C_5  and  O_6 
REMARK    3  A    between atoms: C_9  and  N_10 
REMARK       I    between atoms: N_10  and  C_11 
REMARK    4  A    between atoms: C_11  and  C_12 
REMARK    5  A    between atoms: C_12  and  N_13 
REMARK    6  A    between atoms: C_19  and  C_20 
ROOT
HETATM    1  N   UNL     1      -7.048   2.961 -33.291  1.00  0.00    -0.063 N 
HETATM    2  H   UNL     1      -6.891   2.945 -32.265  1.00  0.00     0.280 HD
HETATM    3  C   UNL     1      -7.825   4.222 -33.586  1.00  0.00     0.240 C 
HETATM    4  C   UNL     1      -9.203   4.155 -32.955  1.00  0.00     0.083 C 
HETATM    5  C   UNL     1      -9.963   2.899 -33.381  1.00  0.00     0.131 A 
HETATM    6  N   UNL     1     -11.212   2.835 -32.584  1.00  0.00    -0.251 NA
HETATM    7  C   UNL     1     -12.211   2.865 -33.427  1.00  0.00     0.132 A 
HETATM    8  C   UNL     1     -11.729   2.961 -34.856  1.00  0.00     0.272 A 
HETATM    9  O   UNL     1     -12.381   3.049 -35.867  1.00  0.00    -0.266 OA
HETATM   10  N   UNL     1     -10.372   2.950 -34.751  1.00  0.00    -0.327 N 
HETATM   11  C   UNL     1      -9.144   1.646 -33.071  1.00  0.00     0.083 C 
HETATM   12  C   UNL     1      -7.763   1.703 -33.699  1.00  0.00     0.240 C 
HETATM   13  H   UNL     1      -9.815   3.045 -35.590  1.00  0.00     0.165 HD
ENDROOT
BRANCH   1  14
HETATM   14  C   UNL     1      -5.624   3.019 -33.874  1.00  0.00     0.337 C 
BRANCH  14  15
HETATM   15  C   UNL     1      -4.679   3.779 -32.940  1.00  0.00     0.248 C 
HETATM   16  N   UNL     1      -3.767   4.582 -33.593  1.00  0.00    -0.326 N 
HETATM   17  H   UNL     1      -3.794   4.631 -34.606  1.00  0.00     0.169 HD
HETATM   18  O   UNL     1      -4.845   3.660 -31.727  1.00  0.00    -0.271 OA
BRANCH  16  19
HETATM   19  C   UNL     1      -2.792   5.420 -33.003  1.00  0.00     0.040 A 
HETATM   20  C   UNL     1      -2.880   6.813 -32.951  1.00  0.00     0.066 A 
HETATM   21  C   UNL     1      -1.863   7.560 -32.345  1.00  0.00     0.073 A 
HETATM   22  C   UNL     1      -0.747   6.911 -31.804  1.00  0.00     0.073 A 
HETATM   23  C   UNL     1      -0.646   5.524 -31.852  1.00  0.00     0.073 A 
HETATM   24  C   UNL     1      -1.676   4.787 -32.440  1.00  0.00     0.066 A 
BRANCH  21  25
HETATM   25  O   UNL     1      -1.834   8.922 -32.219  1.00  0.00    -0.356 OA
HETATM   26  C   UNL     1      -2.369   9.480 -31.026  1.00  0.00     0.210 C 
ENDBRANCH  21  25
BRANCH  23  27
HETATM   27  O   UNL     1       0.386   4.770 -31.370  1.00  0.00    -0.356 OA
HETATM   28  C   UNL     1       0.713   4.932 -29.993  1.00  0.00     0.210 C 
ENDBRANCH  23  27
ENDBRANCH  16  19
ENDBRANCH  14  15
ENDBRANCH   1  14
BRANCH   7  29
HETATM   29  C   UNL     1     -13.630   2.822 -33.022  1.00  0.00    -0.002 A 
HETATM   30  C   UNL     1     -14.189   3.960 -32.421  1.00  0.00     0.016 A 
HETATM   31  C   UNL     1     -15.529   3.966 -32.023  1.00  0.00     0.024 A 
HETATM   32  C   UNL     1     -16.315   2.834 -32.219  1.00  0.00     0.034 A 
HETATM   33 CL   UNL     1     -17.963   2.839 -31.730  1.00  0.00    -0.084 Cl
HETATM   34  C   UNL     1     -15.769   1.695 -32.808  1.00  0.00     0.024 A 
HETATM   35  C   UNL     1     -14.429   1.688 -33.208  1.00  0.00     0.016 A 
ENDBRANCH   7  29
TORSDOF 6
ENDMDL
MODEL 9
REMARK VINA RESULT:      -8.1      4.503      9.834
REMARK  6 active torsions:
REMARK  status: ('A' for Active; 'I' for Inactive)
REMARK    1  A    between atoms: O_2  and  C_3 
REMARK    2  A    between atoms: C_5  and  O_6 
REMARK    3  A    between atoms: C_9  and  N_10 
REMARK       I    between atoms: N_10  and  C_11 
REMARK    4  A    between atoms: C_11  and  C_12 
REMARK    5  A    between atoms: C_12  and  N_13 
REMARK    6  A    between atoms: C_19  and  C_20 
ROOT
HETATM    1  N   UNL     1      -6.474   5.757 -32.558  1.00  0.00    -0.063 N 
HETATM    2  H   UNL     1      -7.282   5.883 -33.197  1.00  0.00     0.280 HD
HETATM    3  C   UNL     1      -5.310   5.326 -33.419  1.00  0.00     0.240 C 
HETATM    4  C   UNL     1      -5.577   3.962 -34.027  1.00  0.00     0.083 C 
HETATM    5  C   UNL     1      -5.919   2.922 -32.960  1.00  0.00     0.131 A 
HETATM    6  N   UNL     1      -6.332   1.679 -33.657  1.00  0.00    -0.251 NA
HETATM    7  C   UNL     1      -5.500   0.738 -33.295  1.00  0.00     0.132 A 
HETATM    8  C   UNL     1      -4.454   1.259 -32.337  1.00  0.00     0.272 A 
HETATM    9  O   UNL     1      -3.522   0.672 -31.846  1.00  0.00    -0.266 OA
HETATM   10  N   UNL     1      -4.786   2.568 -32.163  1.00  0.00    -0.327 N 
HETATM   11  C   UNL     1      -7.097   3.395 -32.108  1.00  0.00     0.083 C 
HETATM   12  C   UNL     1      -6.839   4.759 -31.495  1.00  0.00     0.240 C 
HETATM   13  H   UNL     1      -4.197   3.149 -31.581  1.00  0.00     0.165 HD
ENDROOT
BRANCH   1  14
HETATM   14  C   UNL     1      -6.257   7.163 -31.969  1.00  0.00     0.337 C 
BRANCH  14  15
HETATM   15  C   UNL     1      -5.173   7.144 -30.888  1.00  0.00     0.248 C 
HETATM   16  N   UNL     1      -3.926   7.528 -31.335  1.00  0.00    -0.326 N 
HETATM   17  H   UNL     1      -3.818   7.807 -32.304  1.00  0.00     0.169 HD
HETATM   18  O   UNL     1      -5.506   6.856 -29.740  1.00  0.00    -0.271 OA
BRANCH  16  19
HETATM   19  C   UNL     1      -2.742   7.638 -30.570  1.00  0.00     0.040 A 
HETATM   20  C   UNL     1      -1.721   6.683 -30.558  1.00  0.00     0.066 A 
HETATM   21  C   UNL     1      -0.584   6.880 -29.767  1.00  0.00     0.073 A 
HETATM   22  C   UNL     1      -0.474   8.027 -28.974  1.00  0.00     0.073 A 
HETATM   23  C   UNL     1      -1.484   8.984 -28.975  1.00  0.00     0.073 A 
HETATM   24  C   UNL     1      -2.606   8.789 -29.783  1.00  0.00     0.066 A 
BRANCH  21  25
HETATM   25  O   UNL     1       0.486   6.031 -29.676  1.00  0.00    -0.356 OA
HETATM   26  C   UNL     1       0.716   5.148 -30.766  1.00  0.00     0.210 C 
ENDBRANCH  21  25
BRANCH  23  27
HETATM   27  O   UNL     1      -1.506  10.139 -28.246  1.00  0.00    -0.356 OA
HETATM   28  C   UNL     1      -2.170  10.093 -26.987  1.00  0.00     0.210 C 
ENDBRANCH  23  27
ENDBRANCH  16  19
ENDBRANCH  14  15
ENDBRANCH   1  14
BRANCH   7  29
HETATM   29  C   UNL     1      -5.575  -0.655 -33.778  1.00  0.00    -0.002 A 
HETATM   30  C   UNL     1      -6.827  -1.170 -34.145  1.00  0.00     0.016 A 
HETATM   31  C   UNL     1      -6.947  -2.482 -34.610  1.00  0.00     0.024 A 
HETATM   32  C   UNL     1      -5.816  -3.289 -34.705  1.00  0.00     0.034 A 
HETATM   33 CL   UNL     1      -5.960  -4.904 -35.276  1.00  0.00    -0.084 Cl
HETATM   34  C   UNL     1      -4.567  -2.792 -34.336  1.00  0.00     0.024 A 
HETATM   35  C   UNL     1      -4.446  -1.478 -33.872  1.00  0.00     0.016 A 
ENDBRANCH   7  29
TORSDOF 6
ENDMDL
MODEL 10
REMARK VINA RESULT:      -7.8      4.895      9.871
REMARK  6 active torsions:
REMARK  status: ('A' for Active; 'I' for Inactive)
REMARK    1  A    between atoms: O_2  and  C_3 
REMARK    2  A    between atoms: C_5  and  O_6 
REMARK    3  A    between atoms: C_9  and  N_10 
REMARK       I    between atoms: N_10  and  C_11 
REMARK    4  A    between atoms: C_11  and  C_12 
REMARK    5  A    between atoms: C_12  and  N_13 
REMARK    6  A    between atoms: C_19  and  C_20 
ROOT
HETATM    1  N   UNL     1      -5.282   5.942 -32.195  1.00  0.00    -0.063 N 
HETATM    2  H   UNL     1      -4.761   6.186 -33.059  1.00  0.00     0.280 HD
HETATM    3  C   UNL     1      -4.419   4.961 -31.437  1.00  0.00     0.240 C 
HETATM    4  C   UNL     1      -4.278   3.667 -32.217  1.00  0.00     0.083 C 
HETATM    5  C   UNL     1      -5.638   3.073 -32.584  1.00  0.00     0.131 A 
HETATM    6  N   UNL     1      -5.399   1.920 -33.486  1.00  0.00    -0.251 NA
HETATM    7  C   UNL     1      -5.889   0.861 -32.897  1.00  0.00     0.132 A 
HETATM    8  C   UNL     1      -6.490   1.199 -31.552  1.00  0.00     0.272 A 
HETATM    9  O   UNL     1      -6.985   0.459 -30.740  1.00  0.00    -0.266 OA
HETATM   10  N   UNL     1      -6.326   2.547 -31.446  1.00  0.00    -0.327 N 
HETATM   11  C   UNL     1      -6.483   4.096 -33.344  1.00  0.00     0.083 C 
HETATM   12  C   UNL     1      -6.630   5.394 -32.571  1.00  0.00     0.240 C 
HETATM   13  H   UNL     1      -6.621   3.010 -30.596  1.00  0.00     0.165 HD
ENDROOT
BRANCH   1  14
HETATM   14  C   UNL     1      -5.402   7.286 -31.453  1.00  0.00     0.337 C 
BRANCH  14  15
HETATM   15  C   UNL     1      -5.328   7.087 -29.937  1.00  0.00     0.248 C 
HETATM   16  N   UNL     1      -4.243   7.693 -29.341  1.00  0.00    -0.326 N 
HETATM   17  H   UNL     1      -3.603   8.228 -29.918  1.00  0.00     0.169 HD
HETATM   18  O   UNL     1      -6.243   6.474 -29.390  1.00  0.00    -0.271 OA
BRANCH  16  19
HETATM   19  C   UNL     1      -3.924   7.709 -27.964  1.00  0.00     0.040 A 
HETATM   20  C   UNL     1      -4.704   8.327 -26.983  1.00  0.00     0.066 A 
HETATM   21  C   UNL     1      -4.306   8.290 -25.642  1.00  0.00     0.073 A 
HETATM   22  C   UNL     1      -3.117   7.646 -25.283  1.00  0.00     0.073 A 
HETATM   23  C   UNL     1      -2.331   7.028 -26.250  1.00  0.00     0.073 A 
HETATM   24  C   UNL     1      -2.747   7.053 -27.583  1.00  0.00     0.066 A 
BRANCH  21  25
HETATM   25  O   UNL     1      -4.983   8.844 -24.589  1.00  0.00    -0.356 OA
HETATM   26  C   UNL     1      -5.666  10.069 -24.821  1.00  0.00     0.210 C 
ENDBRANCH  21  25
BRANCH  23  27
HETATM   27  O   UNL     1      -1.151   6.373 -26.037  1.00  0.00    -0.356 OA
HETATM   28  C   UNL     1       0.002   6.898 -26.688  1.00  0.00     0.210 C 
ENDBRANCH  23  27
ENDBRANCH  16  19
ENDBRANCH  14  15
ENDBRANCH   1  14
BRANCH   7  29
HETATM   29  C   UNL     1      -5.846  -0.496 -33.478  1.00  0.00    -0.002 A 
HETATM   30  C   UNL     1      -7.055  -1.104 -33.849  1.00  0.00     0.016 A 
HETATM   31  C   UNL     1      -7.063  -2.386 -34.405  1.00  0.00     0.024 A 
HETATM   32  C   UNL     1      -5.864  -3.070 -34.588  1.00  0.00     0.034 A 
HETATM   33 CL   UNL     1      -5.871  -4.646 -35.271  1.00  0.00    -0.084 Cl
HETATM   34  C   UNL     1      -4.657  -2.480 -34.216  1.00  0.00     0.024 A 
HETATM   35  C   UNL     1      -4.647  -1.196 -33.661  1.00  0.00     0.016 A 
ENDBRANCH   7  29
TORSDOF 6
ENDMDL
