MODEL 1
REMARK VINA RESULT:     -10.4      0.000      0.000
REMARK  10 active torsions:
REMARK  status: ('A' for Active; 'I' for Inactive)
REMARK    1  A    between atoms: S_2  and  C_3 
REMARK    2  A    between atoms: C_5  and  N_6 
REMARK    3  A    between atoms: N_6  and  C_7 
REMARK    4  A    between atoms: C_11  and  C_12 
REMARK       I    between atoms: C_12  and  N_13 
REMARK    5  A    between atoms: N_13  and  C_14 
REMARK    6  A    between atoms: C_14  and  C_15 
REMARK    7  A    between atoms: C_15  and  C_16 
REMARK    8  A    between atoms: C_16  and  N_17 
REMARK    9  A    between atoms: C_21  and  C_22 
REMARK   10  A    between atoms: C_22  and  C_23 
ROOT
HETATM    1  C   UNL     1      -4.078  -0.143 -32.798  1.00  0.00     0.252 C 
HETATM    2  N   UNL     1      -4.534   0.592 -31.724  1.00  0.00    -0.357 N 
HETATM    3  O   UNL     1      -2.896  -0.153 -33.126  1.00  0.00    -0.268 OA
HETATM    4  H   UNL     1      -5.543   0.690 -31.678  1.00  0.00     0.162 HD
ENDROOT
BRANCH   1   5
HETATM    5  C   UNL     1      -5.078  -0.787 -33.707  1.00  0.00     0.048 A 
HETATM    6  C   UNL     1      -5.160  -2.156 -34.038  1.00  0.00     0.009 A 
HETATM    7  C   UNL     1      -6.361  -2.560 -34.662  1.00  0.00     0.070 A 
HETATM    8  C   UNL     1      -4.152  -3.134 -33.823  1.00  0.00     0.015 A 
HETATM    9  N   UNL     1      -7.354  -1.712 -34.980  1.00  0.00    -0.231 NA
HETATM   10  C   UNL     1      -6.547  -3.900 -34.963  1.00  0.00     0.032 A 
HETATM   11  C   UNL     1      -7.235  -0.401 -34.728  1.00  0.00     0.129 A 
HETATM   12  C   UNL     1      -6.086   0.088 -34.135  1.00  0.00     0.068 A 
HETATM   13  C   UNL     1      -5.574  -4.863 -34.696  1.00  0.00     0.002 A 
HETATM   14  C   UNL     1      -4.365  -4.476 -34.138  1.00  0.00     0.001 A 
BRANCH  11  15
HETATM   15  N   UNL     1      -8.220   0.545 -35.106  1.00  0.00    -0.341 N 
HETATM   16  H   UNL     1      -7.831   1.168 -35.813  1.00  0.00     0.167 HD
BRANCH  15  17
HETATM   17  C   UNL     1      -9.052   1.342 -34.284  1.00  0.00     0.034 A 
HETATM   18  C   UNL     1     -10.449   1.324 -34.337  1.00  0.00     0.048 A 
HETATM   19  C   UNL     1     -11.213   2.073 -33.433  1.00  0.00     0.002 A 
HETATM   20  C   UNL     1     -10.574   2.831 -32.449  1.00  0.00     0.018 A 
HETATM   21  C   UNL     1      -9.183   2.856 -32.379  1.00  0.00     0.004 A 
HETATM   22  C   UNL     1      -8.431   2.112 -33.287  1.00  0.00     0.029 A 
BRANCH  19  23
HETATM   23  S   UNL     1     -12.993   1.992 -33.519  1.00  0.00    -0.134 SA
HETATM   24  C   UNL     1     -13.195   0.203 -33.727  1.00  0.00     0.095 C 
ENDBRANCH  19  23
ENDBRANCH  15  17
ENDBRANCH  11  15
ENDBRANCH   1   5
BRANCH   2  25
HETATM   25  C   UNL     1      -3.840   1.734 -31.146  1.00  0.00     0.124 C 
BRANCH  25  26
HETATM   26  C   UNL     1      -3.909   3.132 -31.784  1.00  0.00     0.047 C 
BRANCH  26  27
HETATM   27  C   UNL     1      -2.801   3.722 -32.666  1.00  0.00     0.236 C 
BRANCH  27  28
HETATM   28  N   UNL     1      -2.293   5.140 -32.374  1.00  0.00    -0.071 N 
HETATM   29  H   UNL     1      -2.628   5.733 -33.144  1.00  0.00     0.279 HD
HETATM   30  C   UNL     1      -2.987   5.647 -31.113  1.00  0.00     0.235 C 
HETATM   31  C   UNL     1      -2.498   7.034 -30.705  1.00  0.00     0.032 C 
HETATM   32  C   UNL     1      -0.968   7.124 -30.587  1.00  0.00    -0.007 C 
HETATM   33  C   UNL     1      -0.395   6.719 -31.945  1.00  0.00     0.032 C 
HETATM   34  C   UNL     1      -0.804   5.310 -32.339  1.00  0.00     0.235 C 
BRANCH  32  35
HETATM   35  C   UNL     1      -0.450   6.286 -29.392  1.00  0.00     0.043 C 
BRANCH  35  36
HETATM   36  C   UNL     1       0.288   7.052 -28.320  1.00  0.00    -0.058 A 
HETATM   37  C   UNL     1       0.241   6.632 -26.986  1.00  0.00     0.007 A 
HETATM   38  C   UNL     1       0.975   7.308 -26.007  1.00  0.00     0.001 A 
HETATM   39  C   UNL     1       1.757   8.410 -26.348  1.00  0.00     0.000 A 
HETATM   40  C   UNL     1       1.801   8.845 -27.668  1.00  0.00     0.001 A 
HETATM   41  C   UNL     1       1.066   8.173 -28.644  1.00  0.00     0.007 A 
ENDBRANCH  35  36
ENDBRANCH  32  35
ENDBRANCH  27  28
ENDBRANCH  26  27
ENDBRANCH  25  26
ENDBRANCH   2  25
TORSDOF 10
ENDMDL
MODEL 2
REMARK VINA RESULT:     -10.4      1.115      1.925
REMARK  10 active torsions:
REMARK  status: ('A' for Active; 'I' for Inactive)
REMARK    1  A    between atoms: S_2  and  C_3 
REMARK    2  A    between atoms: C_5  and  N_6 
REMARK    3  A    between atoms: N_6  and  C_7 
REMARK    4  A    between atoms: C_11  and  C_12 
REMARK       I    between atoms: C_12  and  N_13 
REMARK    5  A    between atoms: N_13  and  C_14 
REMARK    6  A    between atoms: C_14  and  C_15 
REMARK    7  A    between atoms: C_15  and  C_16 
REMARK    8  A    between atoms: C_16  and  N_17 
REMARK    9  A    between atoms: C_21  and  C_22 
REMARK   10  A    between atoms: C_22  and  C_23 
ROOT
HETATM    1  C   UNL     1      -4.162  -0.110 -32.794  1.00  0.00     0.252 C 
HETATM    2  N   UNL     1      -4.644   0.682 -31.772  1.00  0.00    -0.357 N 
HETATM    3  O   UNL     1      -2.970  -0.150 -33.079  1.00  0.00    -0.268 OA
HETATM    4  H   UNL     1      -5.652   0.795 -31.765  1.00  0.00     0.162 HD
ENDROOT
BRANCH   1   5
HETATM    5  C   UNL     1      -5.140  -0.784 -33.704  1.00  0.00     0.048 A 
HETATM    6  C   UNL     1      -5.177  -2.155 -34.038  1.00  0.00     0.009 A 
HETATM    7  C   UNL     1      -6.363  -2.597 -34.663  1.00  0.00     0.070 A 
HETATM    8  C   UNL     1      -4.137  -3.100 -33.823  1.00  0.00     0.015 A 
HETATM    9  N   UNL     1      -7.383  -1.782 -34.981  1.00  0.00    -0.231 NA
HETATM   10  C   UNL     1      -6.505  -3.942 -34.966  1.00  0.00     0.032 A 
HETATM   11  C   UNL     1      -7.307  -0.467 -34.727  1.00  0.00     0.129 A 
HETATM   12  C   UNL     1      -6.174   0.058 -34.133  1.00  0.00     0.068 A 
HETATM   13  C   UNL     1      -5.501  -4.873 -34.699  1.00  0.00     0.002 A 
HETATM   14  C   UNL     1      -4.306  -4.448 -34.139  1.00  0.00     0.001 A 
BRANCH  11  15
HETATM   15  N   UNL     1      -8.321   0.446 -35.105  1.00  0.00    -0.341 N 
HETATM   16  H   UNL     1      -8.021   0.955 -35.935  1.00  0.00     0.167 HD
BRANCH  15  17
HETATM   17  C   UNL     1      -9.031   1.373 -34.303  1.00  0.00     0.034 A 
HETATM   18  C   UNL     1      -8.501   2.590 -33.864  1.00  0.00     0.048 A 
HETATM   19  C   UNL     1      -9.289   3.499 -33.147  1.00  0.00     0.002 A 
HETATM   20  C   UNL     1     -10.628   3.200 -32.886  1.00  0.00     0.018 A 
HETATM   21  C   UNL     1     -11.172   1.994 -33.322  1.00  0.00     0.004 A 
HETATM   22  C   UNL     1     -10.379   1.092 -34.029  1.00  0.00     0.029 A 
BRANCH  19  23
HETATM   23  S   UNL     1      -8.578   5.054 -32.635  1.00  0.00    -0.134 SA
HETATM   24  C   UNL     1      -7.076   5.037 -33.649  1.00  0.00     0.095 C 
ENDBRANCH  19  23
ENDBRANCH  15  17
ENDBRANCH  11  15
ENDBRANCH   1   5
BRANCH   2  25
HETATM   25  C   UNL     1      -3.954   1.843 -31.226  1.00  0.00     0.124 C 
BRANCH  25  26
HETATM   26  C   UNL     1      -3.995   3.213 -31.924  1.00  0.00     0.047 C 
BRANCH  26  27
HETATM   27  C   UNL     1      -2.819   3.802 -32.715  1.00  0.00     0.236 C 
BRANCH  27  28
HETATM   28  N   UNL     1      -2.404   5.256 -32.459  1.00  0.00    -0.071 N 
HETATM   29  H   UNL     1      -3.057   5.843 -32.993  1.00  0.00     0.279 HD
HETATM   30  C   UNL     1      -2.653   5.572 -30.987  1.00  0.00     0.235 C 
HETATM   31  C   UNL     1      -2.210   6.986 -30.619  1.00  0.00     0.032 C 
HETATM   32  C   UNL     1      -0.760   7.290 -31.029  1.00  0.00    -0.007 C 
HETATM   33  C   UNL     1      -0.669   7.062 -32.538  1.00  0.00     0.032 C 
HETATM   34  C   UNL     1      -1.030   5.638 -32.923  1.00  0.00     0.235 C 
BRANCH  32  35
HETATM   35  C   UNL     1       0.243   6.459 -30.190  1.00  0.00     0.043 C 
BRANCH  35  36
HETATM   36  C   UNL     1       0.528   6.976 -28.800  1.00  0.00    -0.058 A 
HETATM   37  C   UNL     1       1.220   8.178 -28.616  1.00  0.00     0.007 A 
HETATM   38  C   UNL     1       1.428   8.684 -27.330  1.00  0.00     0.001 A 
HETATM   39  C   UNL     1       0.953   7.993 -26.216  1.00  0.00     0.000 A 
HETATM   40  C   UNL     1       0.276   6.791 -26.385  1.00  0.00     0.001 A 
HETATM   41  C   UNL     1       0.072   6.284 -27.668  1.00  0.00     0.007 A 
ENDBRANCH  35  36
ENDBRANCH  32  35
ENDBRANCH  27  28
ENDBRANCH  26  27
ENDBRANCH  25  26
ENDBRANCH   2  25
TORSDOF 10
ENDMDL
MODEL 3
REMARK VINA RESULT:     -10.0      3.720     11.284
REMARK  10 active torsions:
REMARK  status: ('A' for Active; 'I' for Inactive)
REMARK    1  A    between atoms: S_2  and  C_3 
REMARK    2  A    between atoms: C_5  and  N_6 
REMARK    3  A    between atoms: N_6  and  C_7 
REMARK    4  A    between atoms: C_11  and  C_12 
REMARK       I    between atoms: C_12  and  N_13 
REMARK    5  A    between atoms: N_13  and  C_14 
REMARK    6  A    between atoms: C_14  and  C_15 
REMARK    7  A    between atoms: C_15  and  C_16 
REMARK    8  A    between atoms: C_16  and  N_17 
REMARK    9  A    between atoms: C_21  and  C_22 
REMARK   10  A    between atoms: C_22  and  C_23 
ROOT
HETATM    1  C   UNL     1      -4.798   5.012 -30.822  1.00  0.00     0.252 C 
HETATM    2  N   UNL     1      -6.013   5.585 -31.134  1.00  0.00    -0.357 N 
HETATM    3  O   UNL     1      -4.714   3.978 -30.170  1.00  0.00    -0.268 OA
HETATM    4  H   UNL     1      -5.954   6.534 -31.490  1.00  0.00     0.162 HD
ENDROOT
BRANCH   1   5
HETATM    5  C   UNL     1      -3.545   5.777 -31.117  1.00  0.00     0.048 A 
HETATM    6  C   UNL     1      -2.775   5.714 -32.298  1.00  0.00     0.009 A 
HETATM    7  C   UNL     1      -1.822   6.744 -32.459  1.00  0.00     0.070 A 
HETATM    8  C   UNL     1      -2.859   4.713 -33.303  1.00  0.00     0.015 A 
HETATM    9  N   UNL     1      -1.604   7.702 -31.543  1.00  0.00    -0.231 NA
HETATM   10  C   UNL     1      -1.069   6.791 -33.621  1.00  0.00     0.032 A 
HETATM   11  C   UNL     1      -2.289   7.710 -30.390  1.00  0.00     0.129 A 
HETATM   12  C   UNL     1      -3.230   6.729 -30.138  1.00  0.00     0.068 A 
HETATM   13  C   UNL     1      -1.199   5.835 -34.629  1.00  0.00     0.002 A 
HETATM   14  C   UNL     1      -2.087   4.783 -34.462  1.00  0.00     0.001 A 
BRANCH  11  15
HETATM   15  N   UNL     1      -2.048   8.654 -29.361  1.00  0.00    -0.341 N 
HETATM   16  H   UNL     1      -2.156   9.594 -29.738  1.00  0.00     0.167 HD
BRANCH  15  17
HETATM   17  C   UNL     1      -0.975   8.712 -28.439  1.00  0.00     0.034 A 
HETATM   18  C   UNL     1      -1.061   9.309 -27.179  1.00  0.00     0.048 A 
HETATM   19  C   UNL     1       0.013   9.253 -26.281  1.00  0.00     0.002 A 
HETATM   20  C   UNL     1       1.180   8.573 -26.639  1.00  0.00     0.018 A 
HETATM   21  C   UNL     1       1.280   7.968 -27.890  1.00  0.00     0.004 A 
HETATM   22  C   UNL     1       0.208   8.034 -28.779  1.00  0.00     0.029 A 
BRANCH  19  23
HETATM   23  S   UNL     1      -0.156  10.002 -24.671  1.00  0.00    -0.134 SA
HETATM   24  C   UNL     1       1.587  10.359 -24.330  1.00  0.00     0.095 C 
ENDBRANCH  19  23
ENDBRANCH  15  17
ENDBRANCH  11  15
ENDBRANCH   1   5
BRANCH   2  25
HETATM   25  C   UNL     1      -7.254   5.341 -30.414  1.00  0.00     0.124 C 
BRANCH  25  26
HETATM   26  C   UNL     1      -8.207   4.198 -30.805  1.00  0.00     0.047 C 
BRANCH  26  27
HETATM   27  C   UNL     1      -7.921   3.200 -31.935  1.00  0.00     0.236 C 
BRANCH  27  28
HETATM   28  N   UNL     1      -6.743   2.227 -31.788  1.00  0.00    -0.071 N 
HETATM   29  H   UNL     1      -6.205   2.545 -30.971  1.00  0.00     0.279 HD
HETATM   30  C   UNL     1      -7.299   0.854 -31.424  1.00  0.00     0.235 C 
HETATM   31  C   UNL     1      -6.201  -0.201 -31.317  1.00  0.00     0.032 C 
HETATM   32  C   UNL     1      -5.300  -0.263 -32.560  1.00  0.00    -0.007 C 
HETATM   33  C   UNL     1      -4.703   1.132 -32.744  1.00  0.00     0.032 C 
HETATM   34  C   UNL     1      -5.775   2.191 -32.932  1.00  0.00     0.235 C 
BRANCH  32  35
HETATM   35  C   UNL     1      -6.078  -0.799 -33.788  1.00  0.00     0.043 C 
BRANCH  35  36
HETATM   36  C   UNL     1      -5.804  -2.234 -34.167  1.00  0.00    -0.058 A 
HETATM   37  C   UNL     1      -4.545  -2.802 -33.944  1.00  0.00     0.007 A 
HETATM   38  C   UNL     1      -4.314  -4.148 -34.241  1.00  0.00     0.001 A 
HETATM   39  C   UNL     1      -5.335  -4.939 -34.766  1.00  0.00     0.000 A 
HETATM   40  C   UNL     1      -6.586  -4.383 -35.006  1.00  0.00     0.001 A 
HETATM   41  C   UNL     1      -6.816  -3.039 -34.714  1.00  0.00     0.007 A 
ENDBRANCH  35  36
ENDBRANCH  32  35
ENDBRANCH  27  28
ENDBRANCH  26  27
ENDBRANCH  25  26
ENDBRANCH   2  25
TORSDOF 10
ENDMDL
MODEL 4
REMARK VINA RESULT:      -9.9      1.734      2.526
REMARK  10 active torsions:
REMARK  status: ('A' for Active; 'I' for Inactive)
REMARK    1  A    between atoms: S_2  and  C_3 
REMARK    2  A    between atoms: C_5  and  N_6 
REMARK    3  A    between atoms: N_6  and  C_7 
REMARK    4  A    between atoms: C_11  and  C_12 
REMARK       I    between atoms: C_12  and  N_13 
REMARK    5  A    between atoms: N_13  and  C_14 
REMARK    6  A    between atoms: C_14  and  C_15 
REMARK    7  A    between atoms: C_15  and  C_16 
REMARK    8  A    between atoms: C_16  and  N_17 
REMARK    9  A    between atoms: C_21  and  C_22 
REMARK   10  A    between atoms: C_22  and  C_23 
ROOT
HETATM    1  C   UNL     1      -6.206   1.368 -30.921  1.00  0.00     0.252 C 
HETATM    2  N   UNL     1      -6.249   2.746 -30.948  1.00  0.00    -0.357 N 
HETATM    3  O   UNL     1      -5.501   0.754 -30.128  1.00  0.00    -0.268 OA
HETATM    4  H   UNL     1      -6.696   3.139 -31.770  1.00  0.00     0.162 HD
ENDROOT
BRANCH   1   5
HETATM    5  C   UNL     1      -6.884   0.605 -32.017  1.00  0.00     0.048 A 
HETATM    6  C   UNL     1      -6.297  -0.363 -32.859  1.00  0.00     0.009 A 
HETATM    7  C   UNL     1      -7.203  -1.154 -33.600  1.00  0.00     0.070 A 
HETATM    8  C   UNL     1      -4.905  -0.589 -33.038  1.00  0.00     0.015 A 
HETATM    9  N   UNL     1      -8.535  -0.984 -33.566  1.00  0.00    -0.231 NA
HETATM   10  C   UNL     1      -6.710  -2.170 -34.404  1.00  0.00     0.032 A 
HETATM   11  C   UNL     1      -9.078  -0.012 -32.819  1.00  0.00     0.129 A 
HETATM   12  C   UNL     1      -8.267   0.823 -32.074  1.00  0.00     0.068 A 
HETATM   13  C   UNL     1      -5.343  -2.420 -34.529  1.00  0.00     0.002 A 
HETATM   14  C   UNL     1      -4.436  -1.617 -33.856  1.00  0.00     0.001 A 
BRANCH  11  15
HETATM   15  N   UNL     1     -10.469   0.256 -32.803  1.00  0.00    -0.341 N 
HETATM   16  H   UNL     1     -10.980  -0.623 -32.864  1.00  0.00     0.167 HD
BRANCH  15  17
HETATM   17  C   UNL     1     -11.204   1.199 -33.563  1.00  0.00     0.034 A 
HETATM   18  C   UNL     1     -10.687   2.421 -33.999  1.00  0.00     0.048 A 
HETATM   19  C   UNL     1     -11.440   3.268 -34.823  1.00  0.00     0.002 A 
HETATM   20  C   UNL     1     -12.717   2.877 -35.235  1.00  0.00     0.018 A 
HETATM   21  C   UNL     1     -13.244   1.658 -34.813  1.00  0.00     0.004 A 
HETATM   22  C   UNL     1     -12.490   0.826 -33.989  1.00  0.00     0.029 A 
BRANCH  19  23
HETATM   23  S   UNL     1     -10.726   4.805 -35.381  1.00  0.00    -0.134 SA
HETATM   24  C   UNL     1      -9.271   4.859 -34.302  1.00  0.00     0.095 C 
ENDBRANCH  19  23
ENDBRANCH  15  17
ENDBRANCH  11  15
ENDBRANCH   1   5
BRANCH   2  25
HETATM   25  C   UNL     1      -5.214   3.619 -30.412  1.00  0.00     0.124 C 
BRANCH  25  26
HETATM   26  C   UNL     1      -3.891   3.861 -31.158  1.00  0.00     0.047 C 
BRANCH  26  27
HETATM   27  C   UNL     1      -3.753   4.799 -32.364  1.00  0.00     0.236 C 
BRANCH  27  28
HETATM   28  N   UNL     1      -2.700   5.915 -32.323  1.00  0.00    -0.071 N 
HETATM   29  H   UNL     1      -2.943   6.572 -33.074  1.00  0.00     0.279 HD
HETATM   30  C   UNL     1      -2.867   6.682 -31.014  1.00  0.00     0.235 C 
HETATM   31  C   UNL     1      -1.818   7.779 -30.853  1.00  0.00     0.032 C 
HETATM   32  C   UNL     1      -0.379   7.269 -31.033  1.00  0.00    -0.007 C 
HETATM   33  C   UNL     1      -0.303   6.640 -32.424  1.00  0.00     0.032 C 
HETATM   34  C   UNL     1      -1.285   5.492 -32.585  1.00  0.00     0.235 C 
BRANCH  32  35
HETATM   35  C   UNL     1       0.029   6.324 -29.875  1.00  0.00     0.043 C 
BRANCH  35  36
HETATM   36  C   UNL     1       0.459   6.998 -28.594  1.00  0.00    -0.058 A 
HETATM   37  C   UNL     1       0.139   6.436 -27.353  1.00  0.00     0.007 A 
HETATM   38  C   UNL     1       0.592   7.030 -26.171  1.00  0.00     0.001 A 
HETATM   39  C   UNL     1       1.362   8.191 -26.217  1.00  0.00     0.000 A 
HETATM   40  C   UNL     1       1.673   8.767 -27.443  1.00  0.00     0.001 A 
HETATM   41  C   UNL     1       1.219   8.177 -28.622  1.00  0.00     0.007 A 
ENDBRANCH  35  36
ENDBRANCH  32  35
ENDBRANCH  27  28
ENDBRANCH  26  27
ENDBRANCH  25  26
ENDBRANCH   2  25
TORSDOF 10
ENDMDL
MODEL 5
REMARK VINA RESULT:      -9.8      4.754      8.935
REMARK  10 active torsions:
REMARK  status: ('A' for Active; 'I' for Inactive)
REMARK    1  A    between atoms: S_2  and  C_3 
REMARK    2  A    between atoms: C_5  and  N_6 
REMARK    3  A    between atoms: N_6  and  C_7 
REMARK    4  A    between atoms: C_11  and  C_12 
REMARK       I    between atoms: C_12  and  N_13 
REMARK    5  A    between atoms: N_13  and  C_14 
REMARK    6  A    between atoms: C_14  and  C_15 
REMARK    7  A    between atoms: C_15  and  C_16 
REMARK    8  A    between atoms: C_16  and  N_17 
REMARK    9  A    between atoms: C_21  and  C_22 
REMARK   10  A    between atoms: C_22  and  C_23 
ROOT
HETATM    1  C   UNL     1     -10.929   4.751 -30.411  1.00  0.00     0.252 C 
HETATM    2  N   UNL     1     -11.968   3.908 -30.072  1.00  0.00    -0.357 N 
HETATM    3  O   UNL     1     -11.122   5.897 -30.801  1.00  0.00    -0.268 OA
HETATM    4  H   UNL     1     -11.704   2.934 -29.967  1.00  0.00     0.162 HD
ENDROOT
BRANCH   1   5
HETATM    5  C   UNL     1      -9.545   4.189 -30.495  1.00  0.00     0.048 A 
HETATM    6  C   UNL     1      -8.365   4.769 -29.980  1.00  0.00     0.009 A 
HETATM    7  C   UNL     1      -7.244   3.913 -29.916  1.00  0.00     0.070 A 
HETATM    8  C   UNL     1      -8.209   6.115 -29.552  1.00  0.00     0.015 A 
HETATM    9  N   UNL     1      -7.254   2.644 -30.356  1.00  0.00    -0.231 NA
HETATM   10  C   UNL     1      -6.065   4.386 -29.363  1.00  0.00     0.032 A 
HETATM   11  C   UNL     1      -8.359   2.125 -30.912  1.00  0.00     0.129 A 
HETATM   12  C   UNL     1      -9.499   2.897 -31.034  1.00  0.00     0.068 A 
HETATM   13  C   UNL     1      -5.937   5.694 -28.894  1.00  0.00     0.002 A 
HETATM   14  C   UNL     1      -7.009   6.567 -29.003  1.00  0.00     0.001 A 
BRANCH  11  15
HETATM   15  N   UNL     1      -8.401   0.818 -31.457  1.00  0.00    -0.341 N 
HETATM   16  H   UNL     1      -8.230   0.141 -30.716  1.00  0.00     0.167 HD
BRANCH  15  17
HETATM   17  C   UNL     1      -7.760   0.314 -32.615  1.00  0.00     0.034 A 
HETATM   18  C   UNL     1      -6.555  -0.393 -32.594  1.00  0.00     0.048 A 
HETATM   19  C   UNL     1      -6.022  -0.941 -33.768  1.00  0.00     0.002 A 
HETATM   20  C   UNL     1      -6.713  -0.800 -34.974  1.00  0.00     0.018 A 
HETATM   21  C   UNL     1      -7.919  -0.102 -35.011  1.00  0.00     0.004 A 
HETATM   22  C   UNL     1      -8.438   0.445 -33.839  1.00  0.00     0.029 A 
BRANCH  19  23
HETATM   23  S   UNL     1      -4.497  -1.864 -33.686  1.00  0.00    -0.134 SA
HETATM   24  C   UNL     1      -3.413  -0.576 -33.016  1.00  0.00     0.095 C 
ENDBRANCH  19  23
ENDBRANCH  15  17
ENDBRANCH  11  15
ENDBRANCH   1   5
BRANCH   2  25
HETATM   25  C   UNL     1     -13.343   4.064 -30.523  1.00  0.00     0.124 C 
BRANCH  25  26
HETATM   26  C   UNL     1     -13.761   3.754 -31.971  1.00  0.00     0.047 C 
BRANCH  26  27
HETATM   27  C   UNL     1     -13.763   4.796 -33.098  1.00  0.00     0.236 C 
BRANCH  27  28
HETATM   28  N   UNL     1     -12.637   4.766 -34.140  1.00  0.00    -0.071 N 
HETATM   29  H   UNL     1     -13.074   4.503 -35.032  1.00  0.00     0.279 HD
HETATM   30  C   UNL     1     -12.116   6.189 -34.323  1.00  0.00     0.235 C 
HETATM   31  C   UNL     1     -10.946   6.252 -35.301  1.00  0.00     0.032 C 
HETATM   32  C   UNL     1      -9.814   5.273 -34.951  1.00  0.00    -0.007 C 
HETATM   33  C   UNL     1     -10.430   3.874 -34.924  1.00  0.00     0.032 C 
HETATM   34  C   UNL     1     -11.548   3.763 -33.901  1.00  0.00     0.235 C 
BRANCH  32  35
HETATM   35  C   UNL     1      -9.101   5.689 -33.640  1.00  0.00     0.043 C 
BRANCH  35  36
HETATM   36  C   UNL     1      -7.682   5.201 -33.477  1.00  0.00    -0.058 A 
HETATM   37  C   UNL     1      -7.323   3.909 -33.877  1.00  0.00     0.007 A 
HETATM   38  C   UNL     1      -5.995   3.482 -33.781  1.00  0.00     0.001 A 
HETATM   39  C   UNL     1      -5.015   4.338 -33.280  1.00  0.00     0.000 A 
HETATM   40  C   UNL     1      -5.361   5.619 -32.866  1.00  0.00     0.001 A 
HETATM   41  C   UNL     1      -6.686   6.043 -32.958  1.00  0.00     0.007 A 
ENDBRANCH  35  36
ENDBRANCH  32  35
ENDBRANCH  27  28
ENDBRANCH  26  27
ENDBRANCH  25  26
ENDBRANCH   2  25
TORSDOF 10
ENDMDL
MODEL 6
REMARK VINA RESULT:      -9.8      2.934      5.807
REMARK  10 active torsions:
REMARK  status: ('A' for Active; 'I' for Inactive)
REMARK    1  A    between atoms: S_2  and  C_3 
REMARK    2  A    between atoms: C_5  and  N_6 
REMARK    3  A    between atoms: N_6  and  C_7 
REMARK    4  A    between atoms: C_11  and  C_12 
REMARK       I    between atoms: C_12  and  N_13 
REMARK    5  A    between atoms: N_13  and  C_14 
REMARK    6  A    between atoms: C_14  and  C_15 
REMARK    7  A    between atoms: C_15  and  C_16 
REMARK    8  A    between atoms: C_16  and  N_17 
REMARK    9  A    between atoms: C_21  and  C_22 
REMARK   10  A    between atoms: C_22  and  C_23 
ROOT
HETATM    1  C   UNL     1      -8.882   4.576 -31.495  1.00  0.00     0.252 C 
HETATM    2  N   UNL     1      -8.385   5.264 -32.582  1.00  0.00    -0.357 N 
HETATM    3  O   UNL     1      -8.937   5.077 -30.377  1.00  0.00    -0.268 OA
HETATM    4  H   UNL     1      -8.196   4.688 -33.395  1.00  0.00     0.162 HD
ENDROOT
BRANCH   1   5
HETATM    5  C   UNL     1      -9.178   3.116 -31.640  1.00  0.00     0.048 A 
HETATM    6  C   UNL     1     -10.213   2.536 -32.405  1.00  0.00     0.009 A 
HETATM    7  C   UNL     1     -10.100   1.147 -32.627  1.00  0.00     0.070 A 
HETATM    8  C   UNL     1     -11.345   3.212 -32.936  1.00  0.00     0.015 A 
HETATM    9  N   UNL     1      -9.113   0.391 -32.115  1.00  0.00    -0.231 NA
HETATM   10  C   UNL     1     -11.041   0.511 -33.421  1.00  0.00     0.032 A 
HETATM   11  C   UNL     1      -8.175   0.939 -31.329  1.00  0.00     0.129 A 
HETATM   12  C   UNL     1      -8.217   2.291 -31.041  1.00  0.00     0.068 A 
HETATM   13  C   UNL     1     -12.118   1.195 -33.986  1.00  0.00     0.002 A 
HETATM   14  C   UNL     1     -12.279   2.548 -33.730  1.00  0.00     0.001 A 
BRANCH  11  15
HETATM   15  N   UNL     1      -7.156   0.177 -30.706  1.00  0.00    -0.341 N 
HETATM   16  H   UNL     1      -6.979   0.552 -29.776  1.00  0.00     0.167 HD
BRANCH  15  17
HETATM   17  C   UNL     1      -5.899  -0.222 -31.223  1.00  0.00     0.034 A 
HETATM   18  C   UNL     1      -5.739  -1.158 -32.248  1.00  0.00     0.048 A 
HETATM   19  C   UNL     1      -4.471  -1.440 -32.772  1.00  0.00     0.002 A 
HETATM   20  C   UNL     1      -3.353  -0.761 -32.282  1.00  0.00     0.018 A 
HETATM   21  C   UNL     1      -3.496   0.179 -31.265  1.00  0.00     0.004 A 
HETATM   22  C   UNL     1      -4.761   0.448 -30.745  1.00  0.00     0.029 A 
BRANCH  19  23
HETATM   23  S   UNL     1      -4.320  -2.619 -34.103  1.00  0.00    -0.134 SA
HETATM   24  C   UNL     1      -5.996  -2.509 -34.782  1.00  0.00     0.095 C 
ENDBRANCH  19  23
ENDBRANCH  15  17
ENDBRANCH  11  15
ENDBRANCH   1   5
BRANCH   2  25
HETATM   25  C   UNL     1      -7.496   6.414 -32.500  1.00  0.00     0.124 C 
BRANCH  25  26
HETATM   26  C   UNL     1      -6.000   6.308 -32.838  1.00  0.00     0.047 C 
BRANCH  26  27
HETATM   27  C   UNL     1      -5.426   5.320 -33.864  1.00  0.00     0.236 C 
BRANCH  27  28
HETATM   28  N   UNL     1      -3.970   4.858 -33.717  1.00  0.00    -0.071 N 
HETATM   29  H   UNL     1      -3.957   3.859 -33.960  1.00  0.00     0.279 HD
HETATM   30  C   UNL     1      -3.134   5.566 -34.778  1.00  0.00     0.235 C 
HETATM   31  C   UNL     1      -1.652   5.215 -34.672  1.00  0.00     0.032 C 
HETATM   32  C   UNL     1      -1.081   5.430 -33.261  1.00  0.00    -0.007 C 
HETATM   33  C   UNL     1      -1.916   4.573 -32.310  1.00  0.00     0.032 C 
HETATM   34  C   UNL     1      -3.386   4.955 -32.339  1.00  0.00     0.235 C 
BRANCH  32  35
HETATM   35  C   UNL     1      -1.035   6.935 -32.900  1.00  0.00     0.043 C 
BRANCH  35  36
HETATM   36  C   UNL     1      -0.772   7.258 -31.449  1.00  0.00    -0.058 A 
HETATM   37  C   UNL     1       0.422   6.862 -30.836  1.00  0.00     0.007 A 
HETATM   38  C   UNL     1       0.687   7.216 -29.510  1.00  0.00     0.001 A 
HETATM   39  C   UNL     1      -0.237   7.963 -28.782  1.00  0.00     0.000 A 
HETATM   40  C   UNL     1      -1.434   8.351 -29.375  1.00  0.00     0.001 A 
HETATM   41  C   UNL     1      -1.700   7.995 -30.697  1.00  0.00     0.007 A 
ENDBRANCH  35  36
ENDBRANCH  32  35
ENDBRANCH  27  28
ENDBRANCH  26  27
ENDBRANCH  25  26
ENDBRANCH   2  25
TORSDOF 10
ENDMDL
MODEL 7
REMARK VINA RESULT:      -9.7      2.700      5.662
REMARK  10 active torsions:
REMARK  status: ('A' for Active; 'I' for Inactive)
REMARK    1  A    between atoms: S_2  and  C_3 
REMARK    2  A    between atoms: C_5  and  N_6 
REMARK    3  A    between atoms: N_6  and  C_7 
REMARK    4  A    between atoms: C_11  and  C_12 
REMARK       I    between atoms: C_12  and  N_13 
REMARK    5  A    between atoms: N_13  and  C_14 
REMARK    6  A    between atoms: C_14  and  C_15 
REMARK    7  A    between atoms: C_15  and  C_16 
REMARK    8  A    between atoms: C_16  and  N_17 
REMARK    9  A    between atoms: C_21  and  C_22 
REMARK   10  A    between atoms: C_22  and  C_23 
ROOT
HETATM    1  C   UNL     1      -8.324   4.554 -32.885  1.00  0.00     0.252 C 
HETATM    2  N   UNL     1      -7.322   4.908 -33.764  1.00  0.00    -0.357 N 
HETATM    3  O   UNL     1      -8.453   5.095 -31.792  1.00  0.00    -0.268 OA
HETATM    4  H   UNL     1      -7.186   4.260 -34.533  1.00  0.00     0.162 HD
ENDROOT
BRANCH   1   5
HETATM    5  C   UNL     1      -9.153   3.344 -33.187  1.00  0.00     0.048 A 
HETATM    6  C   UNL     1     -10.350   3.306 -33.935  1.00  0.00     0.009 A 
HETATM    7  C   UNL     1     -10.775   2.021 -34.337  1.00  0.00     0.070 A 
HETATM    8  C   UNL     1     -11.155   4.422 -34.288  1.00  0.00     0.015 A 
HETATM    9  N   UNL     1     -10.133   0.889 -34.001  1.00  0.00    -0.231 NA
HETATM   10  C   UNL     1     -11.907   1.901 -35.128  1.00  0.00     0.032 A 
HETATM   11  C   UNL     1      -9.039   0.931 -33.228  1.00  0.00     0.129 A 
HETATM   12  C   UNL     1      -8.560   2.145 -32.772  1.00  0.00     0.068 A 
HETATM   13  C   UNL     1     -12.660   3.009 -35.517  1.00  0.00     0.002 A 
HETATM   14  C   UNL     1     -12.291   4.273 -35.083  1.00  0.00     0.001 A 
BRANCH  11  15
HETATM   15  N   UNL     1      -8.367  -0.236 -32.786  1.00  0.00    -0.341 N 
HETATM   16  H   UNL     1      -8.419  -0.287 -31.770  1.00  0.00     0.167 HD
BRANCH  15  17
HETATM   17  C   UNL     1      -7.084  -0.717 -33.147  1.00  0.00     0.034 A 
HETATM   18  C   UNL     1      -5.937  -0.536 -32.369  1.00  0.00     0.048 A 
HETATM   19  C   UNL     1      -4.718  -1.114 -32.742  1.00  0.00     0.002 A 
HETATM   20  C   UNL     1      -4.648  -1.903 -33.894  1.00  0.00     0.018 A 
HETATM   21  C   UNL     1      -5.784  -2.097 -34.677  1.00  0.00     0.004 A 
HETATM   22  C   UNL     1      -6.992  -1.512 -34.301  1.00  0.00     0.029 A 
BRANCH  19  23
HETATM   23  S   UNL     1      -3.287  -0.882 -31.701  1.00  0.00    -0.134 SA
HETATM   24  C   UNL     1      -3.412   0.905 -31.428  1.00  0.00     0.095 C 
ENDBRANCH  19  23
ENDBRANCH  15  17
ENDBRANCH  11  15
ENDBRANCH   1   5
BRANCH   2  25
HETATM   25  C   UNL     1      -6.089   5.585 -33.387  1.00  0.00     0.124 C 
BRANCH  25  26
HETATM   26  C   UNL     1      -4.708   4.960 -33.649  1.00  0.00     0.047 C 
BRANCH  26  27
HETATM   27  C   UNL     1      -3.750   4.515 -32.536  1.00  0.00     0.236 C 
BRANCH  27  28
HETATM   28  N   UNL     1      -2.329   5.093 -32.502  1.00  0.00    -0.071 N 
HETATM   29  H   UNL     1      -1.834   4.693 -33.310  1.00  0.00     0.279 HD
HETATM   30  C   UNL     1      -2.417   6.595 -32.756  1.00  0.00     0.235 C 
HETATM   31  C   UNL     1      -1.051   7.272 -32.680  1.00  0.00     0.032 C 
HETATM   32  C   UNL     1      -0.294   6.958 -31.380  1.00  0.00    -0.007 C 
HETATM   33  C   UNL     1      -0.156   5.438 -31.303  1.00  0.00     0.032 C 
HETATM   34  C   UNL     1      -1.507   4.742 -31.298  1.00  0.00     0.235 C 
BRANCH  32  35
HETATM   35  C   UNL     1      -0.992   7.605 -30.157  1.00  0.00     0.043 C 
BRANCH  35  36
HETATM   36  C   UNL     1      -0.263   7.483 -28.840  1.00  0.00    -0.058 A 
HETATM   37  C   UNL     1       0.926   8.188 -28.617  1.00  0.00     0.007 A 
HETATM   38  C   UNL     1       1.564   8.119 -27.375  1.00  0.00     0.001 A 
HETATM   39  C   UNL     1       1.027   7.345 -26.348  1.00  0.00     0.000 A 
HETATM   40  C   UNL     1      -0.145   6.629 -26.562  1.00  0.00     0.001 A 
HETATM   41  C   UNL     1      -0.781   6.694 -27.802  1.00  0.00     0.007 A 
ENDBRANCH  35  36
ENDBRANCH  32  35
ENDBRANCH  27  28
ENDBRANCH  26  27
ENDBRANCH  25  26
ENDBRANCH   2  25
TORSDOF 10
ENDMDL
MODEL 8
REMARK VINA RESULT:      -9.7      4.656      8.307
REMARK  10 active torsions:
REMARK  status: ('A' for Active; 'I' for Inactive)
REMARK    1  A    between atoms: S_2  and  C_3 
REMARK    2  A    between atoms: C_5  and  N_6 
REMARK    3  A    between atoms: N_6  and  C_7 
REMARK    4  A    between atoms: C_11  and  C_12 
REMARK       I    between atoms: C_12  and  N_13 
REMARK    5  A    between atoms: N_13  and  C_14 
REMARK    6  A    between atoms: C_14  and  C_15 
REMARK    7  A    between atoms: C_15  and  C_16 
REMARK    8  A    between atoms: C_16  and  N_17 
REMARK    9  A    between atoms: C_21  and  C_22 
REMARK   10  A    between atoms: C_22  and  C_23 
ROOT
HETATM    1  C   UNL     1     -10.636   0.978 -33.921  1.00  0.00     0.252 C 
HETATM    2  N   UNL     1     -11.118   1.805 -34.914  1.00  0.00    -0.357 N 
HETATM    3  O   UNL     1     -11.378   0.283 -33.236  1.00  0.00    -0.268 OA
HETATM    4  H   UNL     1     -10.445   2.478 -35.266  1.00  0.00     0.162 HD
ENDROOT
BRANCH   1   5
HETATM    5  C   UNL     1      -9.193   1.079 -33.537  1.00  0.00     0.048 A 
HETATM    6  C   UNL     1      -8.666   1.714 -32.392  1.00  0.00     0.009 A 
HETATM    7  C   UNL     1      -7.319   1.413 -32.095  1.00  0.00     0.070 A 
HETATM    8  C   UNL     1      -9.353   2.627 -31.547  1.00  0.00     0.015 A 
HETATM    9  N   UNL     1      -6.549   0.621 -32.860  1.00  0.00    -0.231 NA
HETATM   10  C   UNL     1      -6.744   1.947 -30.952  1.00  0.00     0.032 A 
HETATM   11  C   UNL     1      -7.038   0.081 -33.986  1.00  0.00     0.129 A 
HETATM   12  C   UNL     1      -8.342   0.336 -34.367  1.00  0.00     0.068 A 
HETATM   13  C   UNL     1      -7.446   2.798 -30.097  1.00  0.00     0.002 A 
HETATM   14  C   UNL     1      -8.750   3.152 -30.404  1.00  0.00     0.001 A 
BRANCH  11  15
HETATM   15  N   UNL     1      -6.249  -0.702 -34.866  1.00  0.00    -0.341 N 
HETATM   16  H   UNL     1      -6.542  -0.524 -35.825  1.00  0.00     0.167 HD
BRANCH  15  17
HETATM   17  C   UNL     1      -5.935  -2.081 -34.792  1.00  0.00     0.034 A 
HETATM   18  C   UNL     1      -4.816  -2.591 -34.129  1.00  0.00     0.048 A 
HETATM   19  C   UNL     1      -4.613  -3.973 -34.020  1.00  0.00     0.002 A 
HETATM   20  C   UNL     1      -5.552  -4.855 -34.559  1.00  0.00     0.018 A 
HETATM   21  C   UNL     1      -6.676  -4.363 -35.218  1.00  0.00     0.004 A 
HETATM   22  C   UNL     1      -6.866  -2.986 -35.327  1.00  0.00     0.029 A 
BRANCH  19  23
HETATM   23  S   UNL     1      -3.185  -4.578 -33.137  1.00  0.00    -0.134 SA
HETATM   24  C   UNL     1      -3.032  -3.266 -31.896  1.00  0.00     0.095 C 
ENDBRANCH  19  23
ENDBRANCH  15  17
ENDBRANCH  11  15
ENDBRANCH   1   5
BRANCH   2  25
HETATM   25  C   UNL     1     -12.485   2.298 -34.992  1.00  0.00     0.124 C 
BRANCH  25  26
HETATM   26  C   UNL     1     -13.077   3.220 -33.912  1.00  0.00     0.047 C 
BRANCH  26  27
HETATM   27  C   UNL     1     -13.381   4.708 -34.135  1.00  0.00     0.236 C 
BRANCH  27  28
HETATM   28  N   UNL     1     -12.320   5.749 -33.754  1.00  0.00    -0.071 N 
HETATM   29  H   UNL     1     -12.829   6.551 -33.362  1.00  0.00     0.279 HD
HETATM   30  C   UNL     1     -11.479   5.180 -32.615  1.00  0.00     0.235 C 
HETATM   31  C   UNL     1     -10.351   6.124 -32.206  1.00  0.00     0.032 C 
HETATM   32  C   UNL     1      -9.478   6.570 -33.390  1.00  0.00    -0.007 C 
HETATM   33  C   UNL     1     -10.410   7.237 -34.401  1.00  0.00     0.032 C 
HETATM   34  C   UNL     1     -11.498   6.292 -34.884  1.00  0.00     0.235 C 
BRANCH  32  35
HETATM   35  C   UNL     1      -8.655   5.385 -33.955  1.00  0.00     0.043 C 
BRANCH  35  36
HETATM   36  C   UNL     1      -7.268   5.214 -33.386  1.00  0.00    -0.058 A 
HETATM   37  C   UNL     1      -6.866   5.941 -32.260  1.00  0.00     0.007 A 
HETATM   38  C   UNL     1      -5.602   5.734 -31.700  1.00  0.00     0.001 A 
HETATM   39  C   UNL     1      -4.726   4.805 -32.260  1.00  0.00     0.000 A 
HETATM   40  C   UNL     1      -5.108   4.087 -33.387  1.00  0.00     0.001 A 
HETATM   41  C   UNL     1      -6.367   4.296 -33.949  1.00  0.00     0.007 A 
ENDBRANCH  35  36
ENDBRANCH  32  35
ENDBRANCH  27  28
ENDBRANCH  26  27
ENDBRANCH  25  26
ENDBRANCH   2  25
TORSDOF 10
ENDMDL
MODEL 9
REMARK VINA RESULT:      -9.7      2.992     10.193
REMARK  10 active torsions:
REMARK  status: ('A' for Active; 'I' for Inactive)
REMARK    1  A    between atoms: S_2  and  C_3 
REMARK    2  A    between atoms: C_5  and  N_6 
REMARK    3  A    between atoms: N_6  and  C_7 
REMARK    4  A    between atoms: C_11  and  C_12 
REMARK       I    between atoms: C_12  and  N_13 
REMARK    5  A    between atoms: N_13  and  C_14 
REMARK    6  A    between atoms: C_14  and  C_15 
REMARK    7  A    between atoms: C_15  and  C_16 
REMARK    8  A    between atoms: C_16  and  N_17 
REMARK    9  A    between atoms: C_21  and  C_22 
REMARK   10  A    between atoms: C_22  and  C_23 
ROOT
HETATM    1  C   UNL     1      -1.014   5.776 -30.882  1.00  0.00     0.252 C 
HETATM    2  N   UNL     1      -1.453   6.020 -32.166  1.00  0.00    -0.357 N 
HETATM    3  O   UNL     1      -0.371   4.772 -30.593  1.00  0.00    -0.268 OA
HETATM    4  H   UNL     1      -2.142   6.761 -32.243  1.00  0.00     0.162 HD
ENDROOT
BRANCH   1   5
HETATM    5  C   UNL     1      -1.501   6.657 -29.774  1.00  0.00     0.048 A 
HETATM    6  C   UNL     1      -0.717   7.499 -28.957  1.00  0.00     0.009 A 
HETATM    7  C   UNL     1      -1.434   8.449 -28.197  1.00  0.00     0.070 A 
HETATM    8  C   UNL     1       0.697   7.456 -28.820  1.00  0.00     0.015 A 
HETATM    9  N   UNL     1      -2.774   8.536 -28.192  1.00  0.00    -0.231 NA
HETATM   10  C   UNL     1      -0.734   9.356 -27.417  1.00  0.00     0.032 A 
HETATM   11  C   UNL     1      -3.514   7.683 -28.915  1.00  0.00     0.129 A 
HETATM   12  C   UNL     1      -2.898   6.706 -29.675  1.00  0.00     0.068 A 
HETATM   13  C   UNL     1       0.659   9.343 -27.333  1.00  0.00     0.002 A 
HETATM   14  C   UNL     1       1.376   8.379 -28.024  1.00  0.00     0.001 A 
BRANCH  11  15
HETATM   15  N   UNL     1      -4.931   7.685 -28.889  1.00  0.00    -0.341 N 
HETATM   16  H   UNL     1      -5.248   7.879 -27.941  1.00  0.00     0.167 HD
BRANCH  15  17
HETATM   17  C   UNL     1      -5.833   6.733 -29.426  1.00  0.00     0.034 A 
HETATM   18  C   UNL     1      -6.171   6.656 -30.779  1.00  0.00     0.048 A 
HETATM   19  C   UNL     1      -7.001   5.634 -31.256  1.00  0.00     0.002 A 
HETATM   20  C   UNL     1      -7.482   4.664 -30.373  1.00  0.00     0.018 A 
HETATM   21  C   UNL     1      -7.149   4.723 -29.021  1.00  0.00     0.004 A 
HETATM   22  C   UNL     1      -6.327   5.748 -28.555  1.00  0.00     0.029 A 
BRANCH  19  23
HETATM   23  S   UNL     1      -7.379   5.557 -32.998  1.00  0.00    -0.134 SA
HETATM   24  C   UNL     1      -9.008   6.351 -32.979  1.00  0.00     0.095 C 
ENDBRANCH  19  23
ENDBRANCH  15  17
ENDBRANCH  11  15
ENDBRANCH   1   5
BRANCH   2  25
HETATM   25  C   UNL     1      -1.619   5.002 -33.194  1.00  0.00     0.124 C 
BRANCH  25  26
HETATM   26  C   UNL     1      -2.591   3.823 -33.017  1.00  0.00     0.047 C 
BRANCH  26  27
HETATM   27  C   UNL     1      -3.820   3.863 -32.099  1.00  0.00     0.236 C 
BRANCH  27  28
HETATM   28  N   UNL     1      -4.375   2.545 -31.542  1.00  0.00    -0.071 N 
HETATM   29  H   UNL     1      -4.696   2.746 -30.586  1.00  0.00     0.279 HD
HETATM   30  C   UNL     1      -5.620   2.174 -32.341  1.00  0.00     0.235 C 
HETATM   31  C   UNL     1      -6.211   0.838 -31.899  1.00  0.00     0.032 C 
HETATM   32  C   UNL     1      -5.181  -0.304 -31.888  1.00  0.00    -0.007 C 
HETATM   33  C   UNL     1      -4.050   0.130 -30.957  1.00  0.00     0.032 C 
HETATM   34  C   UNL     1      -3.392   1.419 -31.419  1.00  0.00     0.235 C 
BRANCH  32  35
HETATM   35  C   UNL     1      -4.731  -0.663 -33.326  1.00  0.00     0.043 C 
BRANCH  35  36
HETATM   36  C   UNL     1      -5.154  -2.023 -33.829  1.00  0.00    -0.058 A 
HETATM   37  C   UNL     1      -6.459  -2.238 -34.285  1.00  0.00     0.007 A 
HETATM   38  C   UNL     1      -6.828  -3.482 -34.807  1.00  0.00     0.001 A 
HETATM   39  C   UNL     1      -5.902  -4.521 -34.873  1.00  0.00     0.000 A 
HETATM   40  C   UNL     1      -4.606  -4.324 -34.410  1.00  0.00     0.001 A 
HETATM   41  C   UNL     1      -4.239  -3.085 -33.886  1.00  0.00     0.007 A 
ENDBRANCH  35  36
ENDBRANCH  32  35
ENDBRANCH  27  28
ENDBRANCH  26  27
ENDBRANCH  25  26
ENDBRANCH   2  25
TORSDOF 10
ENDMDL
MODEL 10
REMARK VINA RESULT:      -9.5      2.952      5.914
REMARK  10 active torsions:
REMARK  status: ('A' for Active; 'I' for Inactive)
REMARK    1  A    between atoms: S_2  and  C_3 
REMARK    2  A    between atoms: C_5  and  N_6 
REMARK    3  A    between atoms: N_6  and  C_7 
REMARK    4  A    between atoms: C_11  and  C_12 
REMARK       I    between atoms: C_12  and  N_13 
REMARK    5  A    between atoms: N_13  and  C_14 
REMARK    6  A    between atoms: C_14  and  C_15 
REMARK    7  A    between atoms: C_15  and  C_16 
REMARK    8  A    between atoms: C_16  and  N_17 
REMARK    9  A    between atoms: C_21  and  C_22 
REMARK   10  A    between atoms: C_22  and  C_23 
ROOT
HETATM    1  C   UNL     1      -3.474   4.081 -31.951  1.00  0.00     0.252 C 
HETATM    2  N   UNL     1      -3.500   4.880 -33.076  1.00  0.00    -0.357 N 
HETATM    3  O   UNL     1      -2.428   3.630 -31.498  1.00  0.00    -0.268 OA
HETATM    4  H   UNL     1      -4.423   5.019 -33.474  1.00  0.00     0.162 HD
ENDROOT
BRANCH   1   5
HETATM    5  C   UNL     1      -4.771   3.591 -31.387  1.00  0.00     0.048 A 
HETATM    6  C   UNL     1      -5.533   4.202 -30.368  1.00  0.00     0.009 A 
HETATM    7  C   UNL     1      -6.853   3.722 -30.225  1.00  0.00     0.070 A 
HETATM    8  C   UNL     1      -5.088   5.219 -29.481  1.00  0.00     0.015 A 
HETATM    9  N   UNL     1      -7.360   2.716 -30.959  1.00  0.00    -0.231 NA
HETATM   10  C   UNL     1      -7.689   4.312 -29.290  1.00  0.00     0.032 A 
HETATM   11  C   UNL     1      -6.603   2.092 -31.873  1.00  0.00     0.129 A 
HETATM   12  C   UNL     1      -5.292   2.484 -32.069  1.00  0.00     0.068 A 
HETATM   13  C   UNL     1      -7.260   5.350 -28.462  1.00  0.00     0.002 A 
HETATM   14  C   UNL     1      -5.949   5.795 -28.547  1.00  0.00     0.001 A 
BRANCH  11  15
HETATM   15  N   UNL     1      -7.065   0.981 -32.621  1.00  0.00    -0.341 N 
HETATM   16  H   UNL     1      -7.875   0.576 -32.154  1.00  0.00     0.167 HD
BRANCH  15  17
HETATM   17  C   UNL     1      -6.326  -0.103 -33.154  1.00  0.00     0.034 A 
HETATM   18  C   UNL     1      -5.248  -0.707 -32.501  1.00  0.00     0.048 A 
HETATM   19  C   UNL     1      -4.618  -1.834 -33.045  1.00  0.00     0.002 A 
HETATM   20  C   UNL     1      -5.086  -2.378 -34.244  1.00  0.00     0.018 A 
HETATM   21  C   UNL     1      -6.164  -1.791 -34.904  1.00  0.00     0.004 A 
HETATM   22  C   UNL     1      -6.780  -0.666 -34.358  1.00  0.00     0.029 A 
BRANCH  19  23
HETATM   23  S   UNL     1      -3.266  -2.590 -32.160  1.00  0.00    -0.134 SA
HETATM   24  C   UNL     1      -3.314  -4.240 -32.907  1.00  0.00     0.095 C 
ENDBRANCH  19  23
ENDBRANCH  15  17
ENDBRANCH  11  15
ENDBRANCH   1   5
BRANCH   2  25
HETATM   25  C   UNL     1      -2.450   4.928 -34.083  1.00  0.00     0.124 C 
BRANCH  25  26
HETATM   26  C   UNL     1      -1.603   6.192 -34.311  1.00  0.00     0.047 C 
BRANCH  26  27
HETATM   27  C   UNL     1      -0.738   6.845 -33.224  1.00  0.00     0.236 C 
BRANCH  27  28
HETATM   28  N   UNL     1      -0.965   6.454 -31.758  1.00  0.00    -0.071 N 
HETATM   29  H   UNL     1      -1.665   5.702 -31.763  1.00  0.00     0.279 HD
HETATM   30  C   UNL     1       0.323   5.835 -31.223  1.00  0.00     0.235 C 
HETATM   31  C   UNL     1       0.215   5.468 -29.745  1.00  0.00     0.032 C 
HETATM   32  C   UNL     1      -0.262   6.637 -28.867  1.00  0.00    -0.007 C 
HETATM   33  C   UNL     1      -1.614   7.084 -29.421  1.00  0.00     0.032 C 
HETATM   34  C   UNL     1      -1.519   7.529 -30.871  1.00  0.00     0.235 C 
BRANCH  32  35
HETATM   35  C   UNL     1       0.808   7.755 -28.797  1.00  0.00     0.043 C 
BRANCH  35  36
HETATM   36  C   UNL     1       0.963   8.437 -27.459  1.00  0.00    -0.058 A 
HETATM   37  C   UNL     1       0.144   9.517 -27.111  1.00  0.00     0.007 A 
HETATM   38  C   UNL     1       0.249  10.105 -25.848  1.00  0.00     0.001 A 
HETATM   39  C   UNL     1       1.175   9.626 -24.922  1.00  0.00     0.000 A 
HETATM   40  C   UNL     1       2.005   8.563 -25.261  1.00  0.00     0.001 A 
HETATM   41  C   UNL     1       1.902   7.978 -26.522  1.00  0.00     0.007 A 
ENDBRANCH  35  36
ENDBRANCH  32  35
ENDBRANCH  27  28
ENDBRANCH  26  27
ENDBRANCH  25  26
ENDBRANCH   2  25
TORSDOF 10
ENDMDL
