MODEL 1
REMARK VINA RESULT:      -9.1      0.000      0.000
REMARK  4 active torsions:
REMARK  status: ('A' for Active; 'I' for Inactive)
REMARK    1  A    between atoms: C_3  and  N_4 
REMARK       I    between atoms: N_4  and  C_5 
REMARK       I    between atoms: C_5  and  N_6 
REMARK    2  A    between atoms: N_6  and  C_7 
REMARK    3  A    between atoms: C_18  and  C_19 
REMARK       I    between atoms: C_19  and  N_20 
REMARK    4  A    between atoms: N_20  and  C_21 
ROOT
HETATM    1  C   UNL     1      -6.751   3.172 -33.849  1.00  0.00     0.050 C 
HETATM    2  C   UNL     1      -6.622   1.972 -32.949  1.00  0.00    -0.034 A 
HETATM    3  C   UNL     1      -7.545   1.632 -31.949  1.00  0.00     0.042 A 
HETATM    4  C   UNL     1      -7.426   0.400 -31.292  1.00  0.00     0.031 A 
HETATM    5  C   UNL     1      -6.332  -0.442 -31.523  1.00  0.00     0.019 A 
HETATM    6  C   UNL     1      -5.371  -0.093 -32.464  1.00  0.00     0.032 A 
HETATM    7  C   UNL     1      -5.526   1.113 -33.170  1.00  0.00     0.026 A 
ENDROOT
BRANCH   3   8
HETATM    8  N   UNL     1      -8.641   2.426 -31.572  1.00  0.00    -0.308 N 
HETATM    9  C   UNL     1      -9.878   2.566 -32.150  1.00  0.00     0.325 C 
HETATM   10  N   UNL     1     -10.116   1.858 -33.293  1.00  0.00    -0.305 N 
HETATM   11  O   UNL     1     -10.644   3.376 -31.631  1.00  0.00    -0.247 OA
HETATM   12  H   UNL     1      -9.447   1.151 -33.545  1.00  0.00     0.171 HD
HETATM   13  H   UNL     1      -8.445   3.247 -31.012  1.00  0.00     0.170 HD
BRANCH  10  14
HETATM   14  C   UNL     1     -11.225   1.956 -34.121  1.00  0.00     0.086 A 
HETATM   15  C   UNL     1     -12.388   1.150 -34.303  1.00  0.00     0.079 A 
HETATM   16  C   UNL     1     -12.835  -0.075 -33.595  1.00  0.00     0.075 C 
HETATM   17  N   UNL     1     -13.199   1.668 -35.240  1.00  0.00    -0.177 NA
HETATM   18  N   UNL     1     -12.577   2.780 -35.637  1.00  0.00    -0.280 N 
HETATM   19  H   UNL     1     -13.019   3.339 -36.359  1.00  0.00     0.189 HD
HETATM   20  C   UNL     1     -11.400   3.019 -34.987  1.00  0.00     0.052 A 
HETATM   21  C   UNL     1     -10.572   4.206 -35.303  1.00  0.00     0.072 C 
ENDBRANCH  10  14
ENDBRANCH   3   8
BRANCH   6  22
HETATM   22  C   UNL     1      -4.117  -0.850 -32.688  1.00  0.00     0.252 C 
HETATM   23  N   UNL     1      -3.965  -1.901 -33.548  1.00  0.00    -0.352 N 
HETATM   24  H   UNL     1      -3.007  -2.228 -33.484  1.00  0.00     0.163 HD
HETATM   25  O   UNL     1      -3.115  -0.484 -32.069  1.00  0.00    -0.268 OA
BRANCH  23  26
HETATM   26  C   UNL     1      -4.780  -2.650 -34.488  1.00  0.00     0.084 C 
HETATM   27  C   UNL     1      -4.712  -4.167 -34.329  1.00  0.00     0.025 C 
HETATM   28  C   UNL     1      -5.946  -4.648 -35.074  1.00  0.00     0.002 C 
HETATM   29  C   UNL     1      -7.006  -3.607 -34.738  1.00  0.00     0.002 C 
HETATM   30  C   UNL     1      -6.257  -2.278 -34.632  1.00  0.00     0.025 C 
ENDBRANCH  23  26
ENDBRANCH   6  22
TORSDOF 4
ENDMDL
MODEL 2
REMARK VINA RESULT:      -8.7      4.859      7.869
REMARK  4 active torsions:
REMARK  status: ('A' for Active; 'I' for Inactive)
REMARK    1  A    between atoms: C_3  and  N_4 
REMARK       I    between atoms: N_4  and  C_5 
REMARK       I    between atoms: C_5  and  N_6 
REMARK    2  A    between atoms: N_6  and  C_7 
REMARK    3  A    between atoms: C_18  and  C_19 
REMARK       I    between atoms: C_19  and  N_20 
REMARK    4  A    between atoms: N_20  and  C_21 
ROOT
HETATM    1  C   UNL     1      -6.095   4.395 -34.141  1.00  0.00     0.050 C 
HETATM    2  C   UNL     1      -4.751   4.311 -33.468  1.00  0.00    -0.034 A 
HETATM    3  C   UNL     1      -4.452   3.445 -32.407  1.00  0.00     0.042 A 
HETATM    4  C   UNL     1      -3.124   3.318 -31.974  1.00  0.00     0.031 A 
HETATM    5  C   UNL     1      -2.112   4.132 -32.495  1.00  0.00     0.019 A 
HETATM    6  C   UNL     1      -2.400   5.043 -33.503  1.00  0.00     0.032 A 
HETATM    7  C   UNL     1      -3.719   5.124 -33.982  1.00  0.00     0.026 A 
ENDROOT
BRANCH   3   8
HETATM    8  N   UNL     1      -5.391   2.633 -31.751  1.00  0.00    -0.308 N 
HETATM    9  C   UNL     1      -5.815   1.357 -32.032  1.00  0.00     0.325 C 
HETATM   10  N   UNL     1      -5.281   0.753 -33.134  1.00  0.00    -0.305 N 
HETATM   11  O   UNL     1      -6.696   0.893 -31.311  1.00  0.00    -0.247 OA
HETATM   12  H   UNL     1      -4.492   1.199 -33.569  1.00  0.00     0.171 HD
HETATM   13  H   UNL     1      -6.102   3.100 -31.201  1.00  0.00     0.170 HD
BRANCH  10  14
HETATM   14  C   UNL     1      -5.664  -0.460 -33.690  1.00  0.00     0.086 A 
HETATM   15  C   UNL     1      -6.719  -0.848 -34.568  1.00  0.00     0.079 A 
HETATM   16  C   UNL     1      -7.758  -0.034 -35.247  1.00  0.00     0.075 C 
HETATM   17  N   UNL     1      -6.676  -2.163 -34.832  1.00  0.00    -0.177 NA
HETATM   18  N   UNL     1      -5.616  -2.603 -34.150  1.00  0.00    -0.280 N 
HETATM   19  H   UNL     1      -5.395  -3.592 -34.202  1.00  0.00     0.189 HD
HETATM   20  C   UNL     1      -4.954  -1.625 -33.464  1.00  0.00     0.052 A 
HETATM   21  C   UNL     1      -3.757  -1.932 -32.648  1.00  0.00     0.072 C 
ENDBRANCH  10  14
ENDBRANCH   3   8
BRANCH   6  22
HETATM   22  C   UNL     1      -1.429   6.033 -34.027  1.00  0.00     0.252 C 
HETATM   23  N   UNL     1      -0.897   7.076 -33.323  1.00  0.00    -0.352 N 
HETATM   24  H   UNL     1      -0.276   7.591 -33.938  1.00  0.00     0.163 HD
HETATM   25  O   UNL     1      -1.044   5.889 -35.190  1.00  0.00    -0.268 OA
BRANCH  23  26
HETATM   26  C   UNL     1      -0.987   7.627 -31.982  1.00  0.00     0.084 C 
HETATM   27  C   UNL     1      -2.409   7.852 -31.475  1.00  0.00     0.025 C 
HETATM   28  C   UNL     1      -2.225   7.975 -29.971  1.00  0.00     0.002 C 
HETATM   29  C   UNL     1      -1.149   6.946 -29.649  1.00  0.00     0.002 C 
HETATM   30  C   UNL     1      -0.210   6.941 -30.857  1.00  0.00     0.025 C 
ENDBRANCH  23  26
ENDBRANCH   6  22
TORSDOF 4
ENDMDL
MODEL 3
REMARK VINA RESULT:      -8.6      4.924      7.945
REMARK  4 active torsions:
REMARK  status: ('A' for Active; 'I' for Inactive)
REMARK    1  A    between atoms: C_3  and  N_4 
REMARK       I    between atoms: N_4  and  C_5 
REMARK       I    between atoms: C_5  and  N_6 
REMARK    2  A    between atoms: N_6  and  C_7 
REMARK    3  A    between atoms: C_18  and  C_19 
REMARK       I    between atoms: C_19  and  N_20 
REMARK    4  A    between atoms: N_20  and  C_21 
ROOT
HETATM    1  C   UNL     1      -5.949   4.196 -34.187  1.00  0.00     0.050 C 
HETATM    2  C   UNL     1      -4.631   4.208 -33.458  1.00  0.00    -0.034 A 
HETATM    3  C   UNL     1      -4.324   3.382 -32.367  1.00  0.00     0.042 A 
HETATM    4  C   UNL     1      -3.010   3.345 -31.879  1.00  0.00     0.031 A 
HETATM    5  C   UNL     1      -2.028   4.208 -32.376  1.00  0.00     0.019 A 
HETATM    6  C   UNL     1      -2.328   5.081 -33.415  1.00  0.00     0.032 A 
HETATM    7  C   UNL     1      -3.629   5.071 -33.948  1.00  0.00     0.026 A 
ENDROOT
BRANCH   3   8
HETATM    8  N   UNL     1      -5.240   2.527 -31.732  1.00  0.00    -0.308 N 
HETATM    9  C   UNL     1      -5.590   1.230 -32.015  1.00  0.00     0.325 C 
HETATM   10  N   UNL     1      -4.995   0.647 -33.097  1.00  0.00    -0.305 N 
HETATM   11  O   UNL     1      -6.466   0.726 -31.315  1.00  0.00    -0.247 OA
HETATM   12  H   UNL     1      -4.218   1.130 -33.512  1.00  0.00     0.171 HD
HETATM   13  H   UNL     1      -5.988   2.962 -31.206  1.00  0.00     0.170 HD
BRANCH  10  14
HETATM   14  C   UNL     1      -5.300  -0.587 -33.654  1.00  0.00     0.086 A 
HETATM   15  C   UNL     1      -4.772  -1.900 -33.479  1.00  0.00     0.079 A 
HETATM   16  C   UNL     1      -3.719  -2.404 -32.563  1.00  0.00     0.075 C 
HETATM   17  N   UNL     1      -5.413  -2.791 -34.253  1.00  0.00    -0.177 NA
HETATM   18  N   UNL     1      -6.333  -2.069 -34.896  1.00  0.00    -0.280 N 
HETATM   19  H   UNL     1      -6.940  -2.549 -35.552  1.00  0.00     0.189 HD
HETATM   20  C   UNL     1      -6.331  -0.745 -34.562  1.00  0.00     0.052 A 
HETATM   21  C   UNL     1      -7.280   0.208 -35.182  1.00  0.00     0.072 C 
ENDBRANCH  10  14
ENDBRANCH   3   8
BRANCH   6  22
HETATM   22  C   UNL     1      -1.398   6.118 -33.922  1.00  0.00     0.252 C 
HETATM   23  N   UNL     1      -0.824   7.106 -33.174  1.00  0.00    -0.352 N 
HETATM   24  H   UNL     1      -0.247   7.673 -33.785  1.00  0.00     0.163 HD
HETATM   25  O   UNL     1      -1.090   6.068 -35.115  1.00  0.00    -0.268 OA
BRANCH  23  26
HETATM   26  C   UNL     1      -0.827   7.549 -31.790  1.00  0.00     0.084 C 
HETATM   27  C   UNL     1      -2.212   7.677 -31.161  1.00  0.00     0.025 C 
HETATM   28  C   UNL     1      -1.914   7.692 -29.670  1.00  0.00     0.002 C 
HETATM   29  C   UNL     1      -0.782   6.686 -29.513  1.00  0.00     0.002 C 
HETATM   30  C   UNL     1       0.059   6.811 -30.785  1.00  0.00     0.025 C 
ENDBRANCH  23  26
ENDBRANCH   6  22
TORSDOF 4
ENDMDL
MODEL 4
REMARK VINA RESULT:      -8.6      5.320      7.323
REMARK  4 active torsions:
REMARK  status: ('A' for Active; 'I' for Inactive)
REMARK    1  A    between atoms: C_3  and  N_4 
REMARK       I    between atoms: N_4  and  C_5 
REMARK       I    between atoms: C_5  and  N_6 
REMARK    2  A    between atoms: N_6  and  C_7 
REMARK    3  A    between atoms: C_18  and  C_19 
REMARK       I    between atoms: C_19  and  N_20 
REMARK    4  A    between atoms: N_20  and  C_21 
ROOT
HETATM    1  C   UNL     1      -5.474   5.450 -30.538  1.00  0.00     0.050 C 
HETATM    2  C   UNL     1      -4.310   5.025 -31.395  1.00  0.00    -0.034 A 
HETATM    3  C   UNL     1      -4.059   3.703 -31.786  1.00  0.00     0.042 A 
HETATM    4  C   UNL     1      -3.056   3.442 -32.730  1.00  0.00     0.031 A 
HETATM    5  C   UNL     1      -2.216   4.460 -33.194  1.00  0.00     0.019 A 
HETATM    6  C   UNL     1      -2.407   5.769 -32.769  1.00  0.00     0.032 A 
HETATM    7  C   UNL     1      -3.455   6.040 -31.873  1.00  0.00     0.026 A 
ENDROOT
BRANCH   3   8
HETATM    8  N   UNL     1      -4.781   2.586 -31.333  1.00  0.00    -0.308 N 
HETATM    9  C   UNL     1      -5.911   1.992 -31.840  1.00  0.00     0.325 C 
HETATM   10  N   UNL     1      -6.470   2.562 -32.947  1.00  0.00    -0.305 N 
HETATM   11  O   UNL     1      -6.367   1.040 -31.210  1.00  0.00    -0.247 OA
HETATM   12  H   UNL     1      -5.934   3.266 -33.425  1.00  0.00     0.171 HD
HETATM   13  H   UNL     1      -4.699   2.350 -30.351  1.00  0.00     0.170 HD
BRANCH  10  14
HETATM   14  C   UNL     1      -7.681   2.228 -33.537  1.00  0.00     0.086 A 
HETATM   15  C   UNL     1      -9.004   2.750 -33.428  1.00  0.00     0.079 A 
HETATM   16  C   UNL     1      -9.524   3.907 -32.658  1.00  0.00     0.075 C 
HETATM   17  N   UNL     1      -9.859   2.082 -34.218  1.00  0.00    -0.177 NA
HETATM   18  N   UNL     1      -9.102   1.165 -34.824  1.00  0.00    -0.280 N 
HETATM   19  H   UNL     1      -9.554   0.533 -35.476  1.00  0.00     0.189 HD
HETATM   20  C   UNL     1      -7.784   1.217 -34.475  1.00  0.00     0.052 A 
HETATM   21  C   UNL     1      -6.797   0.271 -35.047  1.00  0.00     0.072 C 
ENDBRANCH  10  14
ENDBRANCH   3   8
BRANCH   6  22
HETATM   22  C   UNL     1      -1.496   6.890 -33.102  1.00  0.00     0.252 C 
HETATM   23  N   UNL     1      -0.379   7.244 -32.399  1.00  0.00    -0.352 N 
HETATM   24  H   UNL     1       0.038   8.052 -32.850  1.00  0.00     0.163 HD
HETATM   25  O   UNL     1      -1.748   7.543 -34.117  1.00  0.00    -0.268 OA
BRANCH  23  26
HETATM   26  C   UNL     1       0.338   6.794 -31.219  1.00  0.00     0.084 C 
HETATM   27  C   UNL     1      -0.332   7.138 -29.891  1.00  0.00     0.025 C 
HETATM   28  C   UNL     1       0.342   6.194 -28.909  1.00  0.00     0.002 C 
HETATM   29  C   UNL     1       0.502   4.900 -29.696  1.00  0.00     0.002 C 
HETATM   30  C   UNL     1       0.768   5.328 -31.140  1.00  0.00     0.025 C 
ENDBRANCH  23  26
ENDBRANCH   6  22
TORSDOF 4
ENDMDL
MODEL 5
REMARK VINA RESULT:      -8.3      2.241      8.243
REMARK  4 active torsions:
REMARK  status: ('A' for Active; 'I' for Inactive)
REMARK    1  A    between atoms: C_3  and  N_4 
REMARK       I    between atoms: N_4  and  C_5 
REMARK       I    between atoms: C_5  and  N_6 
REMARK    2  A    between atoms: N_6  and  C_7 
REMARK    3  A    between atoms: C_18  and  C_19 
REMARK       I    between atoms: C_19  and  N_20 
REMARK    4  A    between atoms: N_20  and  C_21 
ROOT
HETATM    1  C   UNL     1      -6.836   0.177 -30.751  1.00  0.00     0.050 C 
HETATM    2  C   UNL     1      -7.481   0.405 -32.092  1.00  0.00    -0.034 A 
HETATM    3  C   UNL     1      -6.796   0.372 -33.314  1.00  0.00     0.042 A 
HETATM    4  C   UNL     1      -7.522   0.416 -34.513  1.00  0.00     0.031 A 
HETATM    5  C   UNL     1      -8.906   0.622 -34.514  1.00  0.00     0.019 A 
HETATM    6  C   UNL     1      -9.597   0.723 -33.313  1.00  0.00     0.032 A 
HETATM    7  C   UNL     1      -8.876   0.612 -32.110  1.00  0.00     0.026 A 
ENDROOT
BRANCH   3   8
HETATM    8  N   UNL     1      -5.403   0.245 -33.445  1.00  0.00    -0.308 N 
HETATM    9  C   UNL     1      -4.625  -0.871 -33.630  1.00  0.00     0.325 C 
HETATM   10  N   UNL     1      -5.265  -2.076 -33.675  1.00  0.00    -0.305 N 
HETATM   11  O   UNL     1      -3.408  -0.699 -33.666  1.00  0.00    -0.247 OA
HETATM   12  H   UNL     1      -6.268  -2.064 -33.746  1.00  0.00     0.171 HD
HETATM   13  H   UNL     1      -4.833   0.979 -33.042  1.00  0.00     0.170 HD
BRANCH  10  14
HETATM   14  C   UNL     1      -4.678  -3.333 -33.705  1.00  0.00     0.086 A 
HETATM   15  C   UNL     1      -3.617  -3.939 -32.968  1.00  0.00     0.079 A 
HETATM   16  C   UNL     1      -2.801  -3.416 -31.844  1.00  0.00     0.075 C 
HETATM   17  N   UNL     1      -3.410  -5.205 -33.362  1.00  0.00    -0.177 NA
HETATM   18  N   UNL     1      -4.321  -5.408 -34.316  1.00  0.00    -0.280 N 
HETATM   19  H   UNL     1      -4.342  -6.317 -34.767  1.00  0.00     0.189 HD
HETATM   20  C   UNL     1      -5.126  -4.331 -34.551  1.00  0.00     0.052 A 
HETATM   21  C   UNL     1      -6.191  -4.374 -35.580  1.00  0.00     0.072 C 
ENDBRANCH  10  14
ENDBRANCH   3   8
BRANCH   6  22
HETATM   22  C   UNL     1     -11.035   1.066 -33.209  1.00  0.00     0.252 C 
HETATM   23  N   UNL     1     -11.538   2.296 -32.892  1.00  0.00    -0.352 N 
HETATM   24  H   UNL     1     -12.551   2.232 -32.883  1.00  0.00     0.163 HD
HETATM   25  O   UNL     1     -11.850   0.176 -33.461  1.00  0.00    -0.268 OA
BRANCH  23  26
HETATM   26  C   UNL     1     -11.030   3.617 -32.567  1.00  0.00     0.084 C 
HETATM   27  C   UNL     1     -12.037   4.752 -32.738  1.00  0.00     0.025 C 
HETATM   28  C   UNL     1     -11.426   5.882 -31.926  1.00  0.00     0.002 C 
HETATM   29  C   UNL     1     -10.836   5.180 -30.709  1.00  0.00     0.002 C 
HETATM   30  C   UNL     1     -10.343   3.824 -31.216  1.00  0.00     0.025 C 
ENDBRANCH  23  26
ENDBRANCH   6  22
TORSDOF 4
ENDMDL
MODEL 6
REMARK VINA RESULT:      -8.3      5.217      7.843
REMARK  4 active torsions:
REMARK  status: ('A' for Active; 'I' for Inactive)
REMARK    1  A    between atoms: C_3  and  N_4 
REMARK       I    between atoms: N_4  and  C_5 
REMARK       I    between atoms: C_5  and  N_6 
REMARK    2  A    between atoms: N_6  and  C_7 
REMARK    3  A    between atoms: C_18  and  C_19 
REMARK       I    between atoms: C_19  and  N_20 
REMARK    4  A    between atoms: N_20  and  C_21 
ROOT
HETATM    1  C   UNL     1      -5.043   5.048 -33.835  1.00  0.00     0.050 C 
HETATM    2  C   UNL     1      -4.712   3.769 -33.111  1.00  0.00    -0.034 A 
HETATM    3  C   UNL     1      -3.441   3.451 -32.612  1.00  0.00     0.042 A 
HETATM    4  C   UNL     1      -3.284   2.320 -31.798  1.00  0.00     0.031 A 
HETATM    5  C   UNL     1      -4.343   1.433 -31.578  1.00  0.00     0.019 A 
HETATM    6  C   UNL     1      -5.596   1.696 -32.118  1.00  0.00     0.032 A 
HETATM    7  C   UNL     1      -5.769   2.865 -32.880  1.00  0.00     0.026 A 
ENDROOT
BRANCH   3   8
HETATM    8  N   UNL     1      -2.285   4.219 -32.825  1.00  0.00    -0.308 N 
HETATM    9  C   UNL     1      -1.703   5.187 -32.044  1.00  0.00     0.325 C 
HETATM   10  N   UNL     1      -2.332   5.504 -30.874  1.00  0.00    -0.305 N 
HETATM   11  O   UNL     1      -0.704   5.741 -32.499  1.00  0.00    -0.247 OA
HETATM   12  H   UNL     1      -3.075   4.899 -30.571  1.00  0.00     0.171 HD
HETATM   13  H   UNL     1      -1.988   4.350 -33.785  1.00  0.00     0.170 HD
BRANCH  10  14
HETATM   14  C   UNL     1      -2.013   6.541 -30.009  1.00  0.00     0.086 A 
HETATM   15  C   UNL     1      -0.939   6.764 -29.098  1.00  0.00     0.079 A 
HETATM   16  C   UNL     1       0.269   5.950 -28.811  1.00  0.00     0.075 C 
HETATM   17  N   UNL     1      -1.066   7.945 -28.472  1.00  0.00    -0.177 NA
HETATM   18  N   UNL     1      -2.185   8.468 -28.978  1.00  0.00    -0.280 N 
HETATM   19  H   UNL     1      -2.482   9.376 -28.635  1.00  0.00     0.189 HD
HETATM   20  C   UNL     1      -2.786   7.684 -29.920  1.00  0.00     0.052 A 
HETATM   21  C   UNL     1      -4.042   8.104 -30.585  1.00  0.00     0.072 C 
ENDBRANCH  10  14
ENDBRANCH   3   8
BRANCH   6  22
HETATM   22  C   UNL     1      -6.742   0.759 -32.050  1.00  0.00     0.252 C 
HETATM   23  N   UNL     1      -6.888  -0.375 -32.797  1.00  0.00    -0.352 N 
HETATM   24  H   UNL     1      -7.771  -0.809 -32.548  1.00  0.00     0.163 HD
HETATM   25  O   UNL     1      -7.627   1.005 -31.227  1.00  0.00    -0.268 OA
BRANCH  23  26
HETATM   26  C   UNL     1      -6.149  -1.094 -33.820  1.00  0.00     0.084 C 
HETATM   27  C   UNL     1      -4.831  -1.705 -33.349  1.00  0.00     0.025 C 
HETATM   28  C   UNL     1      -4.523  -2.734 -34.425  1.00  0.00     0.002 C 
HETATM   29  C   UNL     1      -5.885  -3.321 -34.771  1.00  0.00     0.002 C 
HETATM   30  C   UNL     1      -6.878  -2.165 -34.632  1.00  0.00     0.025 C 
ENDBRANCH  23  26
ENDBRANCH   6  22
TORSDOF 4
ENDMDL
MODEL 7
REMARK VINA RESULT:      -8.3      2.512      3.207
REMARK  4 active torsions:
REMARK  status: ('A' for Active; 'I' for Inactive)
REMARK    1  A    between atoms: C_3  and  N_4 
REMARK       I    between atoms: N_4  and  C_5 
REMARK       I    between atoms: C_5  and  N_6 
REMARK    2  A    between atoms: N_6  and  C_7 
REMARK    3  A    between atoms: C_18  and  C_19 
REMARK       I    between atoms: C_19  and  N_20 
REMARK    4  A    between atoms: N_20  and  C_21 
ROOT
HETATM    1  C   UNL     1      -8.887   4.547 -32.950  1.00  0.00     0.050 C 
HETATM    2  C   UNL     1      -8.879   3.067 -33.227  1.00  0.00    -0.034 A 
HETATM    3  C   UNL     1      -9.715   2.433 -34.157  1.00  0.00     0.042 A 
HETATM    4  C   UNL     1      -9.501   1.083 -34.468  1.00  0.00     0.031 A 
HETATM    5  C   UNL     1      -8.553   0.322 -33.775  1.00  0.00     0.019 A 
HETATM    6  C   UNL     1      -7.758   0.916 -32.803  1.00  0.00     0.032 A 
HETATM    7  C   UNL     1      -7.927   2.286 -32.539  1.00  0.00     0.026 A 
ENDROOT
BRANCH   3   8
HETATM    8  N   UNL     1     -10.751   3.069 -34.861  1.00  0.00    -0.308 N 
HETATM    9  C   UNL     1     -12.087   3.182 -34.567  1.00  0.00     0.325 C 
HETATM   10  N   UNL     1     -12.528   2.571 -33.429  1.00  0.00    -0.305 N 
HETATM   11  O   UNL     1     -12.790   3.761 -35.393  1.00  0.00    -0.247 OA
HETATM   12  H   UNL     1     -11.832   2.229 -32.789  1.00  0.00     0.171 HD
HETATM   13  H   UNL     1     -10.622   3.193 -35.858  1.00  0.00     0.170 HD
BRANCH  10  14
HETATM   14  C   UNL     1     -13.845   2.428 -33.014  1.00  0.00     0.086 A 
HETATM   15  C   UNL     1     -14.929   1.612 -33.453  1.00  0.00     0.079 A 
HETATM   16  C   UNL     1     -14.986   0.565 -34.503  1.00  0.00     0.075 C 
HETATM   17  N   UNL     1     -16.033   1.830 -32.721  1.00  0.00    -0.177 NA
HETATM   18  N   UNL     1     -15.661   2.752 -31.830  1.00  0.00    -0.280 N 
HETATM   19  H   UNL     1     -16.355   3.077 -31.165  1.00  0.00     0.189 HD
HETATM   20  C   UNL     1     -14.355   3.134 -31.940  1.00  0.00     0.052 A 
HETATM   21  C   UNL     1     -13.771   4.153 -31.037  1.00  0.00     0.072 C 
ENDBRANCH  10  14
ENDBRANCH   3   8
BRANCH   6  22
HETATM   22  C   UNL     1      -6.819   0.171 -31.931  1.00  0.00     0.252 C 
HETATM   23  N   UNL     1      -5.949  -0.799 -32.343  1.00  0.00    -0.352 N 
HETATM   24  H   UNL     1      -5.445  -1.139 -31.531  1.00  0.00     0.163 HD
HETATM   25  O   UNL     1      -6.798   0.470 -30.735  1.00  0.00    -0.268 OA
BRANCH  23  26
HETATM   26  C   UNL     1      -5.574  -1.452 -33.585  1.00  0.00     0.084 C 
HETATM   27  C   UNL     1      -4.297  -2.285 -33.510  1.00  0.00     0.025 C 
HETATM   28  C   UNL     1      -4.397  -3.182 -34.734  1.00  0.00     0.002 C 
HETATM   29  C   UNL     1      -5.876  -3.537 -34.807  1.00  0.00     0.002 C 
HETATM   30  C   UNL     1      -6.622  -2.297 -34.311  1.00  0.00     0.025 C 
ENDBRANCH  23  26
ENDBRANCH   6  22
TORSDOF 4
ENDMDL
MODEL 8
REMARK VINA RESULT:      -8.1      2.122      3.254
REMARK  4 active torsions:
REMARK  status: ('A' for Active; 'I' for Inactive)
REMARK    1  A    between atoms: C_3  and  N_4 
REMARK       I    between atoms: N_4  and  C_5 
REMARK       I    between atoms: C_5  and  N_6 
REMARK    2  A    between atoms: N_6  and  C_7 
REMARK    3  A    between atoms: C_18  and  C_19 
REMARK       I    between atoms: C_19  and  N_20 
REMARK    4  A    between atoms: N_20  and  C_21 
ROOT
HETATM    1  C   UNL     1      -9.339   0.375 -31.671  1.00  0.00     0.050 C 
HETATM    2  C   UNL     1      -8.362   0.370 -32.817  1.00  0.00    -0.034 A 
HETATM    3  C   UNL     1      -8.656   0.832 -34.108  1.00  0.00     0.042 A 
HETATM    4  C   UNL     1      -7.623   0.952 -35.049  1.00  0.00     0.031 A 
HETATM    5  C   UNL     1      -6.330   0.498 -34.766  1.00  0.00     0.019 A 
HETATM    6  C   UNL     1      -6.033  -0.024 -33.514  1.00  0.00     0.032 A 
HETATM    7  C   UNL     1      -7.053  -0.082 -32.548  1.00  0.00     0.026 A 
ENDROOT
BRANCH   3   8
HETATM    8  N   UNL     1      -9.928   1.245 -34.537  1.00  0.00    -0.308 N 
HETATM    9  C   UNL     1     -10.580   2.442 -34.368  1.00  0.00     0.325 C 
HETATM   10  N   UNL     1      -9.932   3.407 -33.651  1.00  0.00    -0.305 N 
HETATM   11  O   UNL     1     -11.723   2.519 -34.813  1.00  0.00    -0.247 OA
HETATM   12  H   UNL     1      -8.961   3.253 -33.441  1.00  0.00     0.171 HD
HETATM   13  H   UNL     1     -10.614   0.520 -34.710  1.00  0.00     0.170 HD
BRANCH  10  14
HETATM   14  C   UNL     1     -10.450   4.624 -33.232  1.00  0.00     0.086 A 
HETATM   15  C   UNL     1     -10.782   5.835 -33.908  1.00  0.00     0.079 A 
HETATM   16  C   UNL     1     -10.734   6.178 -35.351  1.00  0.00     0.075 C 
HETATM   17  N   UNL     1     -11.267   6.753 -33.058  1.00  0.00    -0.177 NA
HETATM   18  N   UNL     1     -11.256   6.143 -31.871  1.00  0.00    -0.280 N 
HETATM   19  H   UNL     1     -11.582   6.665 -31.065  1.00  0.00     0.189 HD
HETATM   20  C   UNL     1     -10.799   4.857 -31.914  1.00  0.00     0.052 A 
HETATM   21  C   UNL     1     -10.711   4.028 -30.689  1.00  0.00     0.072 C 
ENDBRANCH  10  14
ENDBRANCH   3   8
BRANCH   6  22
HETATM   22  C   UNL     1      -4.733  -0.644 -33.161  1.00  0.00     0.252 C 
HETATM   23  N   UNL     1      -4.277  -1.848 -33.616  1.00  0.00    -0.352 N 
HETATM   24  H   UNL     1      -3.368  -2.022 -33.200  1.00  0.00     0.163 HD
HETATM   25  O   UNL     1      -3.985  -0.006 -32.417  1.00  0.00    -0.268 OA
BRANCH  23  26
HETATM   26  C   UNL     1      -4.732  -2.909 -34.497  1.00  0.00     0.084 C 
HETATM   27  C   UNL     1      -4.261  -4.310 -34.110  1.00  0.00     0.025 C 
HETATM   28  C   UNL     1      -5.214  -5.217 -34.872  1.00  0.00     0.002 C 
HETATM   29  C   UNL     1      -6.555  -4.500 -34.779  1.00  0.00     0.002 C 
HETATM   30  C   UNL     1      -6.226  -3.007 -34.812  1.00  0.00     0.025 C 
ENDBRANCH  23  26
ENDBRANCH   6  22
TORSDOF 4
ENDMDL
MODEL 9
REMARK VINA RESULT:      -7.8      5.945      8.441
REMARK  4 active torsions:
REMARK  status: ('A' for Active; 'I' for Inactive)
REMARK    1  A    between atoms: C_3  and  N_4 
REMARK       I    between atoms: N_4  and  C_5 
REMARK       I    between atoms: C_5  and  N_6 
REMARK    2  A    between atoms: N_6  and  C_7 
REMARK    3  A    between atoms: C_18  and  C_19 
REMARK       I    between atoms: C_19  and  N_20 
REMARK    4  A    between atoms: N_20  and  C_21 
ROOT
HETATM    1  C   UNL     1      -2.654   4.420 -33.454  1.00  0.00     0.050 C 
HETATM    2  C   UNL     1      -3.476   3.788 -32.361  1.00  0.00    -0.034 A 
HETATM    3  C   UNL     1      -4.205   4.508 -31.405  1.00  0.00     0.042 A 
HETATM    4  C   UNL     1      -5.079   3.826 -30.547  1.00  0.00     0.031 A 
HETATM    5  C   UNL     1      -5.143   2.429 -30.541  1.00  0.00     0.019 A 
HETATM    6  C   UNL     1      -4.380   1.692 -31.438  1.00  0.00     0.032 A 
HETATM    7  C   UNL     1      -3.553   2.380 -32.343  1.00  0.00     0.026 A 
ENDROOT
BRANCH   3   8
HETATM    8  N   UNL     1      -4.168   5.905 -31.260  1.00  0.00    -0.308 N 
HETATM    9  C   UNL     1      -3.233   6.713 -30.661  1.00  0.00     0.325 C 
HETATM   10  N   UNL     1      -2.162   6.099 -30.078  1.00  0.00    -0.305 N 
HETATM   11  O   UNL     1      -3.476   7.918 -30.636  1.00  0.00    -0.247 OA
HETATM   12  H   UNL     1      -2.030   5.121 -30.269  1.00  0.00     0.171 HD
HETATM   13  H   UNL     1      -5.054   6.396 -31.291  1.00  0.00     0.170 HD
BRANCH  10  14
HETATM   14  C   UNL     1      -1.182   6.695 -29.296  1.00  0.00     0.086 A 
HETATM   15  C   UNL     1      -1.135   7.119 -27.936  1.00  0.00     0.079 A 
HETATM   16  C   UNL     1      -2.143   7.003 -26.853  1.00  0.00     0.075 C 
HETATM   17  N   UNL     1       0.061   7.647 -27.629  1.00  0.00    -0.177 NA
HETATM   18  N   UNL     1       0.763   7.553 -28.760  1.00  0.00    -0.280 N 
HETATM   19  H   UNL     1       1.715   7.905 -28.759  1.00  0.00     0.189 HD
HETATM   20  C   UNL     1       0.081   6.969 -29.789  1.00  0.00     0.052 A 
HETATM   21  C   UNL     1       0.702   6.787 -31.121  1.00  0.00     0.072 C 
ENDBRANCH  10  14
ENDBRANCH   3   8
BRANCH   6  22
HETATM   22  C   UNL     1      -4.283   0.213 -31.425  1.00  0.00     0.252 C 
HETATM   23  N   UNL     1      -5.127  -0.646 -32.070  1.00  0.00    -0.352 N 
HETATM   24  H   UNL     1      -4.827  -1.595 -31.873  1.00  0.00     0.163 HD
HETATM   25  O   UNL     1      -3.342  -0.288 -30.804  1.00  0.00    -0.268 OA
BRANCH  23  26
HETATM   26  C   UNL     1      -6.301  -0.565 -32.922  1.00  0.00     0.084 C 
HETATM   27  C   UNL     1      -6.962   0.810 -32.975  1.00  0.00     0.025 C 
HETATM   28  C   UNL     1      -7.819   0.734 -34.228  1.00  0.00     0.002 C 
HETATM   29  C   UNL     1      -6.962  -0.054 -35.210  1.00  0.00     0.002 C 
HETATM   30  C   UNL     1      -6.193  -1.069 -34.362  1.00  0.00     0.025 C 
ENDBRANCH  23  26
ENDBRANCH   6  22
TORSDOF 4
ENDMDL
MODEL 10
REMARK VINA RESULT:      -7.8      5.442      8.081
REMARK  4 active torsions:
REMARK  status: ('A' for Active; 'I' for Inactive)
REMARK    1  A    between atoms: C_3  and  N_4 
REMARK       I    between atoms: N_4  and  C_5 
REMARK       I    between atoms: C_5  and  N_6 
REMARK    2  A    between atoms: N_6  and  C_7 
REMARK    3  A    between atoms: C_18  and  C_19 
REMARK       I    between atoms: C_19  and  N_20 
REMARK    4  A    between atoms: N_20  and  C_21 
ROOT
HETATM    1  C   UNL     1      -6.122   3.750 -34.043  1.00  0.00     0.050 C 
HETATM    2  C   UNL     1      -4.812   3.936 -33.325  1.00  0.00    -0.034 A 
HETATM    3  C   UNL     1      -4.532   3.431 -32.047  1.00  0.00     0.042 A 
HETATM    4  C   UNL     1      -3.224   3.504 -31.548  1.00  0.00     0.031 A 
HETATM    5  C   UNL     1      -2.220   4.185 -32.245  1.00  0.00     0.019 A 
HETATM    6  C   UNL     1      -2.493   4.750 -33.485  1.00  0.00     0.032 A 
HETATM    7  C   UNL     1      -3.788   4.618 -34.015  1.00  0.00     0.026 A 
ENDROOT
BRANCH   3   8
HETATM    8  N   UNL     1      -5.471   2.795 -31.218  1.00  0.00    -0.308 N 
HETATM    9  C   UNL     1      -6.435   3.324 -30.396  1.00  0.00     0.325 C 
HETATM   10  N   UNL     1      -6.512   4.686 -30.323  1.00  0.00    -0.305 N 
HETATM   11  O   UNL     1      -7.100   2.528 -29.737  1.00  0.00    -0.247 OA
HETATM   12  H   UNL     1      -5.985   5.214 -30.997  1.00  0.00     0.171 HD
HETATM   13  H   UNL     1      -5.247   1.859 -30.901  1.00  0.00     0.170 HD
BRANCH  10  14
HETATM   14  C   UNL     1      -7.298   5.432 -29.457  1.00  0.00     0.086 A 
HETATM   15  C   UNL     1      -7.020   6.175 -28.272  1.00  0.00     0.079 A 
HETATM   16  C   UNL     1      -5.733   6.449 -27.584  1.00  0.00     0.075 C 
HETATM   17  N   UNL     1      -8.131   6.743 -27.778  1.00  0.00    -0.177 NA
HETATM   18  N   UNL     1      -9.093   6.382 -28.631  1.00  0.00    -0.280 N 
HETATM   19  H   UNL     1     -10.037   6.703 -28.445  1.00  0.00     0.189 HD
HETATM   20  C   UNL     1      -8.652   5.615 -29.671  1.00  0.00     0.052 A 
HETATM   21  C   UNL     1      -9.582   5.119 -30.712  1.00  0.00     0.072 C 
ENDBRANCH  10  14
ENDBRANCH   3   8
BRANCH   6  22
HETATM   22  C   UNL     1      -1.537   5.595 -34.239  1.00  0.00     0.252 C 
HETATM   23  N   UNL     1      -0.947   6.737 -33.775  1.00  0.00    -0.352 N 
HETATM   24  H   UNL     1      -0.354   7.109 -34.509  1.00  0.00     0.163 HD
HETATM   25  O   UNL     1      -1.222   5.223 -35.372  1.00  0.00    -0.268 OA
BRANCH  23  26
HETATM   26  C   UNL     1      -0.950   7.534 -32.561  1.00  0.00     0.084 C 
HETATM   27  C   UNL     1      -2.326   8.029 -32.123  1.00  0.00     0.025 C 
HETATM   28  C   UNL     1      -2.110   8.404 -30.666  1.00  0.00     0.002 C 
HETATM   29  C   UNL     1      -1.172   7.324 -30.145  1.00  0.00     0.002 C 
HETATM   30  C   UNL     1      -0.255   6.975 -31.318  1.00  0.00     0.025 C 
ENDBRANCH  23  26
ENDBRANCH   6  22
TORSDOF 4
ENDMDL
