MODEL 1
REMARK VINA RESULT:      -9.4      0.000      0.000
REMARK  5 active torsions:
REMARK  status: ('A' for Active; 'I' for Inactive)
REMARK    1  A    between atoms: C_4  and  C_5 
REMARK    2  A    between atoms: C_6  and  N_7 
REMARK    3  A    between atoms: C_9  and  C_10 
REMARK       I    between atoms: C_10  and  N_11 
REMARK    4  A    between atoms: N_11  and  C_12 
REMARK    5  A    between atoms: C_12  and  C_13 
ROOT
HETATM    1  C   UNL     1      -5.545  -0.504 -32.860  1.00  0.00     0.019 A 
HETATM    2  C   UNL     1      -4.689   0.216 -32.087  1.00  0.00     0.111 A 
HETATM    3  C   UNL     1      -3.356  -0.410 -31.686  1.00  0.00     0.273 A 
HETATM    4  O   UNL     1      -2.543   0.165 -30.962  1.00  0.00    -0.266 OA
HETATM    5  N   UNL     1      -3.070  -1.661 -32.151  1.00  0.00    -0.321 N 
HETATM    6  C   UNL     1      -3.920  -2.397 -32.968  1.00  0.00     0.046 A 
HETATM    7  C   UNL     1      -5.155  -1.857 -33.341  1.00  0.00     0.006 A 
HETATM    8  C   UNL     1      -3.515  -3.661 -33.406  1.00  0.00     0.032 A 
HETATM    9  C   UNL     1      -4.349  -4.403 -34.241  1.00  0.00     0.026 A 
HETATM   10  C   UNL     1      -5.579  -3.875 -34.628  1.00  0.00     0.035 A 
HETATM   11 CL   UNL     1      -6.605  -4.786 -35.667  1.00  0.00    -0.084 Cl
HETATM   12  C   UNL     1      -5.983  -2.616 -34.184  1.00  0.00     0.038 A 
HETATM   13  H   UNL     1      -2.177  -2.033 -31.864  1.00  0.00     0.169 HD
ENDROOT
BRANCH   2  14
HETATM   14  N   UNL     1      -4.952   1.527 -31.621  1.00  0.00    -0.375 N 
HETATM   15  C   UNL     1      -4.096   2.643 -32.070  1.00  0.00     0.137 C 
HETATM   16  C   UNL     1      -4.863   3.971 -32.029  1.00  0.00     0.096 C 
HETATM   17  C   UNL     1      -5.445   4.197 -30.623  1.00  0.00     0.017 C 
HETATM   18  C   UNL     1      -6.223   2.981 -30.114  1.00  0.00     0.021 C 
HETATM   19  C   UNL     1      -5.404   1.698 -30.230  1.00  0.00     0.123 C 
BRANCH  16  20
HETATM   20  C   UNL     1      -5.929   4.077 -33.123  1.00  0.00     0.223 C 
HETATM   21  N   UNL     1      -7.136   4.594 -32.705  1.00  0.00    -0.358 N 
HETATM   22  H   UNL     1      -7.340   4.659 -31.716  1.00  0.00     0.162 HD
HETATM   23  O   UNL     1      -5.764   3.660 -34.267  1.00  0.00    -0.273 OA
BRANCH  21  24
HETATM   24  C   UNL     1      -8.260   4.772 -33.606  1.00  0.00     0.154 C 
BRANCH  24  25
HETATM   25  C   UNL     1      -9.570   4.980 -32.853  1.00  0.00     0.139 C 
HETATM   26  O   UNL     1     -10.679   4.498 -33.645  1.00  0.00    -0.384 OA
HETATM   27  C   UNL     1     -11.596   3.817 -32.774  1.00  0.00     0.168 C 
HETATM   28  C   UNL     1     -11.106   4.027 -31.357  1.00  0.00     0.029 C 
HETATM   29  C   UNL     1      -9.623   4.197 -31.551  1.00  0.00     0.035 C 
ENDBRANCH  24  25
ENDBRANCH  21  24
ENDBRANCH  16  20
ENDBRANCH   2  14
BRANCH   1  30
HETATM   30  C   UNL     1      -6.838   0.125 -33.234  1.00  0.00    -0.023 A 
HETATM   31  C   UNL     1      -7.012   0.680 -34.508  1.00  0.00     0.012 A 
HETATM   32  C   UNL     1      -8.234   1.250 -34.869  1.00  0.00     0.001 A 
HETATM   33  C   UNL     1      -9.292   1.264 -33.961  1.00  0.00     0.000 A 
HETATM   34  C   UNL     1      -9.131   0.707 -32.693  1.00  0.00     0.001 A 
HETATM   35  C   UNL     1      -7.910   0.135 -32.330  1.00  0.00     0.012 A 
ENDBRANCH   1  30
TORSDOF 5
ENDMDL
MODEL 2
REMARK VINA RESULT:      -9.0      1.915      3.631
REMARK  5 active torsions:
REMARK  status: ('A' for Active; 'I' for Inactive)
REMARK    1  A    between atoms: C_4  and  C_5 
REMARK    2  A    between atoms: C_6  and  N_7 
REMARK    3  A    between atoms: C_9  and  C_10 
REMARK       I    between atoms: C_10  and  N_11 
REMARK    4  A    between atoms: N_11  and  C_12 
REMARK    5  A    between atoms: C_12  and  C_13 
ROOT
HETATM    1  C   UNL     1      -6.009  -0.301 -32.668  1.00  0.00     0.019 A 
HETATM    2  C   UNL     1      -5.219   0.371 -31.788  1.00  0.00     0.111 A 
HETATM    3  C   UNL     1      -3.862  -0.222 -31.416  1.00  0.00     0.273 A 
HETATM    4  O   UNL     1      -3.106   0.309 -30.603  1.00  0.00    -0.266 OA
HETATM    5  N   UNL     1      -3.489  -1.391 -32.013  1.00  0.00    -0.321 N 
HETATM    6  C   UNL     1      -4.271  -2.074 -32.938  1.00  0.00     0.046 A 
HETATM    7  C   UNL     1      -5.525  -1.564 -33.288  1.00  0.00     0.006 A 
HETATM    8  C   UNL     1      -3.779  -3.252 -33.505  1.00  0.00     0.032 A 
HETATM    9  C   UNL     1      -4.543  -3.937 -34.449  1.00  0.00     0.026 A 
HETATM   10  C   UNL     1      -5.792  -3.438 -34.814  1.00  0.00     0.035 A 
HETATM   11 CL   UNL     1      -6.733  -4.276 -35.986  1.00  0.00    -0.084 Cl
HETATM   12  C   UNL     1      -6.283  -2.264 -34.241  1.00  0.00     0.038 A 
HETATM   13  H   UNL     1      -2.584  -1.744 -31.740  1.00  0.00     0.169 HD
ENDROOT
BRANCH   2  14
HETATM   14  N   UNL     1      -5.574   1.601 -31.182  1.00  0.00    -0.375 N 
HETATM   15  C   UNL     1      -4.516   2.568 -30.830  1.00  0.00     0.137 C 
HETATM   16  C   UNL     1      -5.065   4.001 -30.822  1.00  0.00     0.096 C 
HETATM   17  C   UNL     1      -6.284   4.089 -29.888  1.00  0.00     0.017 C 
HETATM   18  C   UNL     1      -7.318   2.997 -30.178  1.00  0.00     0.021 C 
HETATM   19  C   UNL     1      -6.680   1.610 -30.212  1.00  0.00     0.123 C 
BRANCH  16  20
HETATM   20  C   UNL     1      -5.369   4.531 -32.225  1.00  0.00     0.223 C 
HETATM   21  N   UNL     1      -4.448   4.177 -33.188  1.00  0.00    -0.358 N 
HETATM   22  H   UNL     1      -3.548   3.808 -32.912  1.00  0.00     0.162 HD
HETATM   23  O   UNL     1      -6.308   5.284 -32.472  1.00  0.00    -0.273 OA
BRANCH  21  24
HETATM   24  C   UNL     1      -4.577   4.585 -34.575  1.00  0.00     0.154 C 
BRANCH  24  25
HETATM   25  C   UNL     1      -3.380   5.407 -35.044  1.00  0.00     0.139 C 
HETATM   26  O   UNL     1      -3.295   6.635 -34.286  1.00  0.00    -0.384 OA
HETATM   27  C   UNL     1      -1.913   6.884 -33.982  1.00  0.00     0.168 C 
HETATM   28  C   UNL     1      -1.097   5.845 -34.721  1.00  0.00     0.029 C 
HETATM   29  C   UNL     1      -2.059   4.690 -34.817  1.00  0.00     0.035 C 
ENDBRANCH  24  25
ENDBRANCH  21  24
ENDBRANCH  16  20
ENDBRANCH   2  14
BRANCH   1  30
HETATM   30  C   UNL     1      -7.327   0.294 -33.011  1.00  0.00    -0.023 A 
HETATM   31  C   UNL     1      -7.410   1.341 -33.937  1.00  0.00     0.012 A 
HETATM   32  C   UNL     1      -8.649   1.884 -34.278  1.00  0.00     0.001 A 
HETATM   33  C   UNL     1      -9.814   1.381 -33.700  1.00  0.00     0.000 A 
HETATM   34  C   UNL     1      -9.742   0.334 -32.783  1.00  0.00     0.001 A 
HETATM   35  C   UNL     1      -8.503  -0.212 -32.441  1.00  0.00     0.012 A 
ENDBRANCH   1  30
TORSDOF 5
ENDMDL
MODEL 3
REMARK VINA RESULT:      -8.7      4.192      7.029
REMARK  5 active torsions:
REMARK  status: ('A' for Active; 'I' for Inactive)
REMARK    1  A    between atoms: C_4  and  C_5 
REMARK    2  A    between atoms: C_6  and  N_7 
REMARK    3  A    between atoms: C_9  and  C_10 
REMARK       I    between atoms: C_10  and  N_11 
REMARK    4  A    between atoms: N_11  and  C_12 
REMARK    5  A    between atoms: C_12  and  C_13 
ROOT
HETATM    1  C   UNL     1      -5.139   3.460 -31.726  1.00  0.00     0.019 A 
HETATM    2  C   UNL     1      -5.684   4.251 -30.763  1.00  0.00     0.111 A 
HETATM    3  C   UNL     1      -6.641   3.625 -29.751  1.00  0.00     0.273 A 
HETATM    4  O   UNL     1      -7.200   4.281 -28.871  1.00  0.00    -0.266 OA
HETATM    5  N   UNL     1      -6.883   2.285 -29.842  1.00  0.00    -0.321 N 
HETATM    6  C   UNL     1      -6.309   1.457 -30.800  1.00  0.00     0.046 A 
HETATM    7  C   UNL     1      -5.440   2.002 -31.750  1.00  0.00     0.006 A 
HETATM    8  C   UNL     1      -6.609   0.092 -30.786  1.00  0.00     0.032 A 
HETATM    9  C   UNL     1      -6.027  -0.753 -31.728  1.00  0.00     0.026 A 
HETATM   10  C   UNL     1      -5.153  -0.226 -32.676  1.00  0.00     0.035 A 
HETATM   11 CL   UNL     1      -4.424  -1.271 -33.834  1.00  0.00    -0.084 Cl
HETATM   12  C   UNL     1      -4.860   1.138 -32.692  1.00  0.00     0.038 A 
HETATM   13  H   UNL     1      -7.519   1.915 -29.151  1.00  0.00     0.169 HD
ENDROOT
BRANCH   2  14
HETATM   14  N   UNL     1      -5.422   5.636 -30.632  1.00  0.00    -0.375 N 
HETATM   15  C   UNL     1      -4.901   6.158 -29.353  1.00  0.00     0.137 C 
HETATM   16  C   UNL     1      -4.091   7.442 -29.575  1.00  0.00     0.096 C 
HETATM   17  C   UNL     1      -4.942   8.473 -30.335  1.00  0.00     0.017 C 
HETATM   18  C   UNL     1      -5.584   7.883 -31.593  1.00  0.00     0.021 C 
HETATM   19  C   UNL     1      -6.333   6.586 -31.291  1.00  0.00     0.123 C 
BRANCH  16  20
HETATM   20  C   UNL     1      -2.744   7.186 -30.256  1.00  0.00     0.223 C 
HETATM   21  N   UNL     1      -1.927   6.291 -29.600  1.00  0.00    -0.358 N 
HETATM   22  H   UNL     1      -2.128   6.033 -28.643  1.00  0.00     0.162 HD
HETATM   23  O   UNL     1      -2.372   7.788 -31.261  1.00  0.00    -0.273 OA
BRANCH  21  24
HETATM   24  C   UNL     1      -0.615   5.923 -30.102  1.00  0.00     0.154 C 
BRANCH  24  25
HETATM   25  C   UNL     1       0.499   6.315 -29.135  1.00  0.00     0.139 C 
HETATM   26  O   UNL     1       0.852   7.704 -29.324  1.00  0.00    -0.384 OA
HETATM   27  C   UNL     1       1.064   8.296 -28.033  1.00  0.00     0.168 C 
HETATM   28  C   UNL     1       0.991   7.181 -27.011  1.00  0.00     0.029 C 
HETATM   29  C   UNL     1       0.075   6.191 -27.681  1.00  0.00     0.035 C 
ENDBRANCH  24  25
ENDBRANCH  21  24
ENDBRANCH  16  20
ENDBRANCH   2  14
BRANCH   1  30
HETATM   30  C   UNL     1      -4.213   4.092 -32.701  1.00  0.00    -0.023 A 
HETATM   31  C   UNL     1      -2.836   4.121 -32.452  1.00  0.00     0.012 A 
HETATM   32  C   UNL     1      -1.964   4.693 -33.379  1.00  0.00     0.001 A 
HETATM   33  C   UNL     1      -2.461   5.236 -34.563  1.00  0.00     0.000 A 
HETATM   34  C   UNL     1      -3.831   5.204 -34.823  1.00  0.00     0.001 A 
HETATM   35  C   UNL     1      -4.705   4.631 -33.898  1.00  0.00     0.012 A 
ENDBRANCH   1  30
TORSDOF 5
ENDMDL
MODEL 4
REMARK VINA RESULT:      -8.6      3.126      7.384
REMARK  5 active torsions:
REMARK  status: ('A' for Active; 'I' for Inactive)
REMARK    1  A    between atoms: C_4  and  C_5 
REMARK    2  A    between atoms: C_6  and  N_7 
REMARK    3  A    between atoms: C_9  and  C_10 
REMARK       I    between atoms: C_10  and  N_11 
REMARK    4  A    between atoms: N_11  and  C_12 
REMARK    5  A    between atoms: C_12  and  C_13 
ROOT
HETATM    1  C   UNL     1      -4.826   3.546 -32.326  1.00  0.00     0.019 A 
HETATM    2  C   UNL     1      -6.044   3.783 -32.883  1.00  0.00     0.111 A 
HETATM    3  C   UNL     1      -6.336   5.168 -33.454  1.00  0.00     0.273 A 
HETATM    4  O   UNL     1      -7.425   5.468 -33.945  1.00  0.00    -0.266 OA
HETATM    5  N   UNL     1      -5.342   6.102 -33.408  1.00  0.00    -0.321 N 
HETATM    6  C   UNL     1      -4.081   5.867 -32.871  1.00  0.00     0.046 A 
HETATM    7  C   UNL     1      -3.788   4.614 -32.326  1.00  0.00     0.006 A 
HETATM    8  C   UNL     1      -3.131   6.891 -32.898  1.00  0.00     0.032 A 
HETATM    9  C   UNL     1      -1.856   6.664 -32.381  1.00  0.00     0.026 A 
HETATM   10  C   UNL     1      -1.546   5.418 -31.841  1.00  0.00     0.035 A 
HETATM   11 CL   UNL     1       0.030   5.132 -31.211  1.00  0.00    -0.084 Cl
HETATM   12  C   UNL     1      -2.500   4.399 -31.811  1.00  0.00     0.038 A 
HETATM   13  H   UNL     1      -5.579   7.002 -33.801  1.00  0.00     0.169 HD
ENDROOT
BRANCH   2  14
HETATM   14  N   UNL     1      -7.077   2.818 -32.969  1.00  0.00    -0.375 N 
HETATM   15  C   UNL     1      -7.354   2.166 -34.265  1.00  0.00     0.137 C 
HETATM   16  C   UNL     1      -7.975   0.779 -34.058  1.00  0.00     0.096 C 
HETATM   17  C   UNL     1      -9.226   0.892 -33.170  1.00  0.00     0.017 C 
HETATM   18  C   UNL     1      -8.959   1.683 -31.887  1.00  0.00     0.021 C 
HETATM   19  C   UNL     1      -8.302   3.031 -32.181  1.00  0.00     0.123 C 
BRANCH  16  20
HETATM   20  C   UNL     1      -6.974  -0.248 -33.522  1.00  0.00     0.223 C 
HETATM   21  N   UNL     1      -6.021  -0.653 -34.430  1.00  0.00    -0.358 N 
HETATM   22  H   UNL     1      -6.146  -0.454 -35.414  1.00  0.00     0.162 HD
HETATM   23  O   UNL     1      -7.053  -0.744 -32.400  1.00  0.00    -0.273 OA
BRANCH  21  24
HETATM   24  C   UNL     1      -4.988  -1.617 -34.096  1.00  0.00     0.154 C 
BRANCH  24  25
HETATM   25  C   UNL     1      -5.098  -2.888 -34.933  1.00  0.00     0.139 C 
HETATM   26  O   UNL     1      -4.239  -3.915 -34.389  1.00  0.00    -0.384 OA
HETATM   27  C   UNL     1      -4.940  -5.168 -34.445  1.00  0.00     0.168 C 
HETATM   28  C   UNL     1      -6.228  -4.927 -35.202  1.00  0.00     0.029 C 
HETATM   29  C   UNL     1      -6.501  -3.473 -34.918  1.00  0.00     0.035 C 
ENDBRANCH  24  25
ENDBRANCH  21  24
ENDBRANCH  16  20
ENDBRANCH   2  14
BRANCH   1  30
HETATM   30  C   UNL     1      -4.567   2.192 -31.772  1.00  0.00    -0.023 A 
HETATM   31  C   UNL     1      -3.629   1.348 -32.379  1.00  0.00     0.012 A 
HETATM   32  C   UNL     1      -3.368   0.085 -31.846  1.00  0.00     0.001 A 
HETATM   33  C   UNL     1      -4.037  -0.341 -30.700  1.00  0.00     0.000 A 
HETATM   34  C   UNL     1      -4.967   0.496 -30.084  1.00  0.00     0.001 A 
HETATM   35  C   UNL     1      -5.230   1.761 -30.615  1.00  0.00     0.012 A 
ENDBRANCH   1  30
TORSDOF 5
ENDMDL
MODEL 5
REMARK VINA RESULT:      -8.6      0.824      1.318
REMARK  5 active torsions:
REMARK  status: ('A' for Active; 'I' for Inactive)
REMARK    1  A    between atoms: C_4  and  C_5 
REMARK    2  A    between atoms: C_6  and  N_7 
REMARK    3  A    between atoms: C_9  and  C_10 
REMARK       I    between atoms: C_10  and  N_11 
REMARK    4  A    between atoms: N_11  and  C_12 
REMARK    5  A    between atoms: C_12  and  C_13 
ROOT
HETATM    1  C   UNL     1      -5.938  -0.275 -32.855  1.00  0.00     0.019 A 
HETATM    2  C   UNL     1      -5.111   0.525 -32.130  1.00  0.00     0.111 A 
HETATM    3  C   UNL     1      -3.699   0.036 -31.819  1.00  0.00     0.273 A 
HETATM    4  O   UNL     1      -2.904   0.687 -31.141  1.00  0.00    -0.266 OA
HETATM    5  N   UNL     1      -3.319  -1.178 -32.314  1.00  0.00    -0.321 N 
HETATM    6  C   UNL     1      -4.140  -1.994 -33.083  1.00  0.00     0.046 A 
HETATM    7  C   UNL     1      -5.444  -1.580 -33.373  1.00  0.00     0.006 A 
HETATM    8  C   UNL     1      -3.639  -3.208 -33.558  1.00  0.00     0.032 A 
HETATM    9  C   UNL     1      -4.444  -4.027 -34.348  1.00  0.00     0.026 A 
HETATM   10  C   UNL     1      -5.743  -3.626 -34.651  1.00  0.00     0.035 A 
HETATM   11 CL   UNL     1      -6.736  -4.631 -35.634  1.00  0.00    -0.084 Cl
HETATM   12  C   UNL     1      -6.243  -2.415 -34.170  1.00  0.00     0.038 A 
HETATM   13  H   UNL     1      -2.376  -1.459 -32.086  1.00  0.00     0.169 HD
ENDROOT
BRANCH   2  14
HETATM   14  N   UNL     1      -5.475   1.801 -31.635  1.00  0.00    -0.375 N 
HETATM   15  C   UNL     1      -4.646   2.975 -31.973  1.00  0.00     0.137 C 
HETATM   16  C   UNL     1      -5.480   4.262 -31.940  1.00  0.00     0.096 C 
HETATM   17  C   UNL     1      -6.177   4.400 -30.576  1.00  0.00     0.017 C 
HETATM   18  C   UNL     1      -6.927   3.128 -30.175  1.00  0.00     0.021 C 
HETATM   19  C   UNL     1      -6.037   1.891 -30.277  1.00  0.00     0.123 C 
BRANCH  16  20
HETATM   20  C   UNL     1      -6.465   4.363 -33.108  1.00  0.00     0.223 C 
HETATM   21  N   UNL     1      -7.526   5.216 -32.895  1.00  0.00    -0.358 N 
HETATM   22  H   UNL     1      -7.732   5.541 -31.959  1.00  0.00     0.162 HD
HETATM   23  O   UNL     1      -6.377   3.680 -34.125  1.00  0.00    -0.273 OA
BRANCH  21  24
HETATM   24  C   UNL     1      -8.555   5.442 -33.894  1.00  0.00     0.154 C 
BRANCH  24  25
HETATM   25  C   UNL     1      -9.841   4.684 -33.573  1.00  0.00     0.139 C 
HETATM   26  O   UNL     1     -10.442   5.217 -32.372  1.00  0.00    -0.384 OA
HETATM   27  C   UNL     1     -11.864   5.280 -32.567  1.00  0.00     0.168 C 
HETATM   28  C   UNL     1     -12.165   4.608 -33.890  1.00  0.00     0.029 C 
HETATM   29  C   UNL     1     -10.891   4.834 -34.661  1.00  0.00     0.035 C 
ENDBRANCH  24  25
ENDBRANCH  21  24
ENDBRANCH  16  20
ENDBRANCH   2  14
BRANCH   1  30
HETATM   30  C   UNL     1      -7.308   0.222 -33.142  1.00  0.00    -0.023 A 
HETATM   31  C   UNL     1      -8.306   0.149 -32.162  1.00  0.00     0.012 A 
HETATM   32  C   UNL     1      -9.587   0.637 -32.422  1.00  0.00     0.001 A 
HETATM   33  C   UNL     1      -9.878   1.206 -33.661  1.00  0.00     0.000 A 
HETATM   34  C   UNL     1      -8.889   1.291 -34.640  1.00  0.00     0.001 A 
HETATM   35  C   UNL     1      -7.607   0.804 -34.382  1.00  0.00     0.012 A 
ENDBRANCH   1  30
TORSDOF 5
ENDMDL
MODEL 6
REMARK VINA RESULT:      -8.0      1.585      2.149
REMARK  5 active torsions:
REMARK  status: ('A' for Active; 'I' for Inactive)
REMARK    1  A    between atoms: C_4  and  C_5 
REMARK    2  A    between atoms: C_6  and  N_7 
REMARK    3  A    between atoms: C_9  and  C_10 
REMARK       I    between atoms: C_10  and  N_11 
REMARK    4  A    between atoms: N_11  and  C_12 
REMARK    5  A    between atoms: C_12  and  C_13 
ROOT
HETATM    1  C   UNL     1      -6.707   0.547 -32.801  1.00  0.00     0.019 A 
HETATM    2  C   UNL     1      -6.098   1.515 -32.066  1.00  0.00     0.111 A 
HETATM    3  C   UNL     1      -4.646   1.314 -31.641  1.00  0.00     0.273 A 
HETATM    4  O   UNL     1      -4.038   2.130 -30.947  1.00  0.00    -0.266 OA
HETATM    5  N   UNL     1      -4.012   0.177 -32.049  1.00  0.00    -0.321 N 
HETATM    6  C   UNL     1      -4.609  -0.808 -32.827  1.00  0.00     0.046 A 
HETATM    7  C   UNL     1      -5.943  -0.660 -33.220  1.00  0.00     0.006 A 
HETATM    8  C   UNL     1      -3.857  -1.922 -33.207  1.00  0.00     0.032 A 
HETATM    9  C   UNL     1      -4.436  -2.908 -34.004  1.00  0.00     0.026 A 
HETATM   10  C   UNL     1      -5.762  -2.772 -34.410  1.00  0.00     0.035 A 
HETATM   11 CL   UNL     1      -6.476  -3.983 -35.402  1.00  0.00    -0.084 Cl
HETATM   12  C   UNL     1      -6.512  -1.660 -34.023  1.00  0.00     0.038 A 
HETATM   13  H   UNL     1      -3.052   0.088 -31.747  1.00  0.00     0.169 HD
ENDROOT
BRANCH   2  14
HETATM   14  N   UNL     1      -6.729   2.717 -31.660  1.00  0.00    -0.375 N 
HETATM   15  C   UNL     1      -5.988   3.991 -31.746  1.00  0.00     0.137 C 
HETATM   16  C   UNL     1      -6.950   5.174 -31.909  1.00  0.00     0.096 C 
HETATM   17  C   UNL     1      -7.988   5.166 -30.774  1.00  0.00     0.017 C 
HETATM   18  C   UNL     1      -8.658   3.800 -30.609  1.00  0.00     0.021 C 
HETATM   19  C   UNL     1      -7.630   2.676 -30.496  1.00  0.00     0.123 C 
BRANCH  16  20
HETATM   20  C   UNL     1      -7.605   5.223 -33.293  1.00  0.00     0.223 C 
HETATM   21  N   UNL     1      -8.937   5.575 -33.289  1.00  0.00    -0.358 N 
HETATM   22  H   UNL     1      -9.459   5.559 -32.423  1.00  0.00     0.162 HD
HETATM   23  O   UNL     1      -7.024   4.895 -34.325  1.00  0.00    -0.273 OA
BRANCH  21  24
HETATM   24  C   UNL     1      -9.717   5.678 -34.509  1.00  0.00     0.154 C 
BRANCH  24  25
HETATM   25  C   UNL     1     -11.155   6.110 -34.234  1.00  0.00     0.139 C 
HETATM   26  O   UNL     1     -12.070   5.064 -34.629  1.00  0.00    -0.384 OA
HETATM   27  C   UNL     1     -13.103   4.968 -33.636  1.00  0.00     0.168 C 
HETATM   28  C   UNL     1     -12.901   6.112 -32.666  1.00  0.00     0.029 C 
HETATM   29  C   UNL     1     -11.416   6.350 -32.756  1.00  0.00     0.035 C 
ENDBRANCH  24  25
ENDBRANCH  21  24
ENDBRANCH  16  20
ENDBRANCH   2  14
BRANCH   1  30
HETATM   30  C   UNL     1      -8.122   0.764 -33.200  1.00  0.00    -0.023 A 
HETATM   31  C   UNL     1      -9.143  -0.005 -32.627  1.00  0.00     0.012 A 
HETATM   32  C   UNL     1     -10.474   0.215 -32.983  1.00  0.00     0.001 A 
HETATM   33  C   UNL     1     -10.795   1.206 -33.909  1.00  0.00     0.000 A 
HETATM   34  C   UNL     1      -9.786   1.982 -34.478  1.00  0.00     0.001 A 
HETATM   35  C   UNL     1      -8.453   1.765 -34.123  1.00  0.00     0.012 A 
ENDBRANCH   1  30
TORSDOF 5
ENDMDL
MODEL 7
REMARK VINA RESULT:      -7.9      2.162      4.154
REMARK  5 active torsions:
REMARK  status: ('A' for Active; 'I' for Inactive)
REMARK    1  A    between atoms: C_4  and  C_5 
REMARK    2  A    between atoms: C_6  and  N_7 
REMARK    3  A    between atoms: C_9  and  C_10 
REMARK       I    between atoms: C_10  and  N_11 
REMARK    4  A    between atoms: N_11  and  C_12 
REMARK    5  A    between atoms: C_12  and  C_13 
ROOT
HETATM    1  C   UNL     1      -6.648   0.353 -33.350  1.00  0.00     0.019 A 
HETATM    2  C   UNL     1      -5.921   1.402 -32.882  1.00  0.00     0.111 A 
HETATM    3  C   UNL     1      -4.416   1.229 -32.695  1.00  0.00     0.273 A 
HETATM    4  O   UNL     1      -3.695   2.122 -32.246  1.00  0.00    -0.266 OA
HETATM    5  N   UNL     1      -3.861   0.030 -33.037  1.00  0.00    -0.321 N 
HETATM    6  C   UNL     1      -4.586  -1.042 -33.546  1.00  0.00     0.046 A 
HETATM    7  C   UNL     1      -5.968  -0.920 -33.715  1.00  0.00     0.006 A 
HETATM    8  C   UNL     1      -3.911  -2.217 -33.885  1.00  0.00     0.032 A 
HETATM    9  C   UNL     1      -4.621  -3.294 -34.414  1.00  0.00     0.026 A 
HETATM   10  C   UNL     1      -5.998  -3.185 -34.596  1.00  0.00     0.035 A 
HETATM   11 CL   UNL     1      -6.875  -4.510 -35.259  1.00  0.00    -0.084 Cl
HETATM   12  C   UNL     1      -6.669  -2.012 -34.251  1.00  0.00     0.038 A 
HETATM   13  H   UNL     1      -2.863  -0.038 -32.899  1.00  0.00     0.169 HD
ENDROOT
BRANCH   2  14
HETATM   14  N   UNL     1      -6.471   2.664 -32.552  1.00  0.00    -0.375 N 
HETATM   15  C   UNL     1      -7.310   2.797 -31.344  1.00  0.00     0.137 C 
HETATM   16  C   UNL     1      -7.261   4.230 -30.799  1.00  0.00     0.096 C 
HETATM   17  C   UNL     1      -7.652   5.225 -31.906  1.00  0.00     0.017 C 
HETATM   18  C   UNL     1      -6.866   4.994 -33.199  1.00  0.00     0.021 C 
HETATM   19  C   UNL     1      -6.931   3.535 -33.647  1.00  0.00     0.123 C 
BRANCH  16  20
HETATM   20  C   UNL     1      -5.916   4.577 -30.155  1.00  0.00     0.223 C 
HETATM   21  N   UNL     1      -5.368   5.771 -30.571  1.00  0.00    -0.358 N 
HETATM   22  H   UNL     1      -5.726   6.228 -31.399  1.00  0.00     0.162 HD
HETATM   23  O   UNL     1      -5.321   3.822 -29.391  1.00  0.00    -0.273 OA
BRANCH  21  24
HETATM   24  C   UNL     1      -4.100   6.264 -30.063  1.00  0.00     0.154 C 
BRANCH  24  25
HETATM   25  C   UNL     1      -3.049   6.380 -31.163  1.00  0.00     0.139 C 
HETATM   26  O   UNL     1      -1.858   5.651 -30.788  1.00  0.00    -0.384 OA
HETATM   27  C   UNL     1      -1.364   4.965 -31.949  1.00  0.00     0.168 C 
HETATM   28  C   UNL     1      -2.200   5.419 -33.128  1.00  0.00     0.029 C 
HETATM   29  C   UNL     1      -3.511   5.769 -32.475  1.00  0.00     0.035 C 
ENDBRANCH  24  25
ENDBRANCH  21  24
ENDBRANCH  16  20
ENDBRANCH   2  14
BRANCH   1  30
HETATM   30  C   UNL     1      -8.112   0.544 -33.521  1.00  0.00    -0.023 A 
HETATM   31  C   UNL     1      -9.004   0.087 -32.542  1.00  0.00     0.012 A 
HETATM   32  C   UNL     1     -10.376   0.288 -32.690  1.00  0.00     0.001 A 
HETATM   33  C   UNL     1     -10.867   0.950 -33.814  1.00  0.00     0.000 A 
HETATM   34  C   UNL     1      -9.987   1.415 -34.790  1.00  0.00     0.001 A 
HETATM   35  C   UNL     1      -8.613   1.217 -34.644  1.00  0.00     0.012 A 
ENDBRANCH   1  30
TORSDOF 5
ENDMDL
MODEL 8
REMARK VINA RESULT:      -7.9      2.320      6.853
REMARK  5 active torsions:
REMARK  status: ('A' for Active; 'I' for Inactive)
REMARK    1  A    between atoms: C_4  and  C_5 
REMARK    2  A    between atoms: C_6  and  N_7 
REMARK    3  A    between atoms: C_9  and  C_10 
REMARK       I    between atoms: C_10  and  N_11 
REMARK    4  A    between atoms: N_11  and  C_12 
REMARK    5  A    between atoms: C_12  and  C_13 
ROOT
HETATM    1  C   UNL     1      -9.566   2.384 -33.106  1.00  0.00     0.019 A 
HETATM    2  C   UNL     1      -8.964   3.525 -32.674  1.00  0.00     0.111 A 
HETATM    3  C   UNL     1      -9.836   4.719 -32.293  1.00  0.00     0.273 A 
HETATM    4  O   UNL     1      -9.365   5.795 -31.925  1.00  0.00    -0.266 OA
HETATM    5  N   UNL     1     -11.191   4.574 -32.375  1.00  0.00    -0.321 N 
HETATM    6  C   UNL     1     -11.823   3.405 -32.784  1.00  0.00     0.046 A 
HETATM    7  C   UNL     1     -11.051   2.299 -33.154  1.00  0.00     0.006 A 
HETATM    8  C   UNL     1     -13.219   3.360 -32.807  1.00  0.00     0.032 A 
HETATM    9  C   UNL     1     -13.866   2.189 -33.197  1.00  0.00     0.026 A 
HETATM   10  C   UNL     1     -13.112   1.076 -33.561  1.00  0.00     0.035 A 
HETATM   11 CL   UNL     1     -13.910  -0.375 -34.032  1.00  0.00    -0.084 Cl
HETATM   12  C   UNL     1     -11.718   1.126 -33.542  1.00  0.00     0.038 A 
HETATM   13  H   UNL     1     -11.727   5.387 -32.110  1.00  0.00     0.169 HD
ENDROOT
BRANCH   2  14
HETATM   14  N   UNL     1      -7.563   3.685 -32.552  1.00  0.00    -0.375 N 
HETATM   15  C   UNL     1      -7.007   4.308 -31.334  1.00  0.00     0.137 C 
HETATM   16  C   UNL     1      -5.574   3.823 -31.077  1.00  0.00     0.096 C 
HETATM   17  C   UNL     1      -4.705   4.072 -32.321  1.00  0.00     0.017 C 
HETATM   18  C   UNL     1      -5.354   3.535 -33.600  1.00  0.00     0.021 C 
HETATM   19  C   UNL     1      -6.790   4.031 -33.756  1.00  0.00     0.123 C 
BRANCH  16  20
HETATM   20  C   UNL     1      -5.513   2.367 -30.608  1.00  0.00     0.223 C 
HETATM   21  N   UNL     1      -4.352   1.703 -30.937  1.00  0.00    -0.358 N 
HETATM   22  H   UNL     1      -3.726   2.094 -31.629  1.00  0.00     0.162 HD
HETATM   23  O   UNL     1      -6.452   1.797 -30.056  1.00  0.00    -0.273 OA
BRANCH  21  24
HETATM   24  C   UNL     1      -4.117   0.318 -30.569  1.00  0.00     0.154 C 
BRANCH  24  25
HETATM   25  C   UNL     1      -3.389  -0.451 -31.669  1.00  0.00     0.139 C 
HETATM   26  O   UNL     1      -3.672  -1.864 -31.555  1.00  0.00    -0.384 OA
HETATM   27  C   UNL     1      -3.868  -2.394 -32.876  1.00  0.00     0.168 C 
HETATM   28  C   UNL     1      -3.536  -1.289 -33.856  1.00  0.00     0.029 C 
HETATM   29  C   UNL     1      -3.850  -0.049 -33.060  1.00  0.00     0.035 C 
ENDBRANCH  24  25
ENDBRANCH  21  24
ENDBRANCH  16  20
ENDBRANCH   2  14
BRANCH   1  30
HETATM   30  C   UNL     1      -8.696   1.237 -33.475  1.00  0.00    -0.023 A 
HETATM   31  C   UNL     1      -8.223   0.363 -32.488  1.00  0.00     0.012 A 
HETATM   32  C   UNL     1      -7.427  -0.728 -32.837  1.00  0.00     0.001 A 
HETATM   33  C   UNL     1      -7.101  -0.956 -34.173  1.00  0.00     0.000 A 
HETATM   34  C   UNL     1      -7.573  -0.095 -35.163  1.00  0.00     0.001 A 
HETATM   35  C   UNL     1      -8.372   0.997 -34.817  1.00  0.00     0.012 A 
ENDBRANCH   1  30
TORSDOF 5
ENDMDL
MODEL 9
REMARK VINA RESULT:      -7.9      5.576      8.698
REMARK  5 active torsions:
REMARK  status: ('A' for Active; 'I' for Inactive)
REMARK    1  A    between atoms: C_4  and  C_5 
REMARK    2  A    between atoms: C_6  and  N_7 
REMARK    3  A    between atoms: C_9  and  C_10 
REMARK       I    between atoms: C_10  and  N_11 
REMARK    4  A    between atoms: N_11  and  C_12 
REMARK    5  A    between atoms: C_12  and  C_13 
ROOT
HETATM    1  C   UNL     1      -1.674   6.955 -29.847  1.00  0.00     0.019 A 
HETATM    2  C   UNL     1      -1.092   6.139 -30.766  1.00  0.00     0.111 A 
HETATM    3  C   UNL     1       0.243   5.482 -30.426  1.00  0.00     0.273 A 
HETATM    4  O   UNL     1       0.847   4.757 -31.218  1.00  0.00    -0.266 OA
HETATM    5  N   UNL     1       0.779   5.721 -29.195  1.00  0.00    -0.321 N 
HETATM    6  C   UNL     1       0.182   6.527 -28.232  1.00  0.00     0.046 A 
HETATM    7  C   UNL     1      -1.034   7.155 -28.518  1.00  0.00     0.006 A 
HETATM    8  C   UNL     1       0.809   6.683 -26.993  1.00  0.00     0.032 A 
HETATM    9  C   UNL     1       0.213   7.472 -26.011  1.00  0.00     0.026 A 
HETATM   10  C   UNL     1      -1.002   8.098 -26.278  1.00  0.00     0.035 A 
HETATM   11 CL   UNL     1      -1.745   9.065 -25.063  1.00  0.00    -0.084 Cl
HETATM   12  C   UNL     1      -1.623   7.945 -27.518  1.00  0.00     0.038 A 
HETATM   13  H   UNL     1       1.661   5.263 -29.013  1.00  0.00     0.169 HD
ENDROOT
BRANCH   2  14
HETATM   14  N   UNL     1      -1.648   5.853 -32.036  1.00  0.00    -0.375 N 
HETATM   15  C   UNL     1      -1.951   4.454 -32.398  1.00  0.00     0.137 C 
HETATM   16  C   UNL     1      -3.081   4.388 -33.433  1.00  0.00     0.096 C 
HETATM   17  C   UNL     1      -2.725   5.253 -34.654  1.00  0.00     0.017 C 
HETATM   18  C   UNL     1      -2.287   6.665 -34.257  1.00  0.00     0.021 C 
HETATM   19  C   UNL     1      -1.191   6.639 -33.194  1.00  0.00     0.123 C 
BRANCH  16  20
HETATM   20  C   UNL     1      -4.448   4.748 -32.845  1.00  0.00     0.223 C 
HETATM   21  N   UNL     1      -4.940   3.843 -31.931  1.00  0.00    -0.358 N 
HETATM   22  H   UNL     1      -4.525   2.923 -31.859  1.00  0.00     0.162 HD
HETATM   23  O   UNL     1      -5.105   5.719 -33.214  1.00  0.00    -0.273 OA
BRANCH  21  24
HETATM   24  C   UNL     1      -6.219   4.024 -31.267  1.00  0.00     0.154 C 
BRANCH  24  25
HETATM   25  C   UNL     1      -6.661   2.767 -30.523  1.00  0.00     0.139 C 
HETATM   26  O   UNL     1      -7.405   1.902 -31.410  1.00  0.00    -0.384 OA
HETATM   27  C   UNL     1      -7.006   0.545 -31.159  1.00  0.00     0.168 C 
HETATM   28  C   UNL     1      -6.090   0.563 -29.953  1.00  0.00     0.029 C 
HETATM   29  C   UNL     1      -5.484   1.940 -30.031  1.00  0.00     0.035 C 
ENDBRANCH  24  25
ENDBRANCH  21  24
ENDBRANCH  16  20
ENDBRANCH   2  14
BRANCH   1  30
HETATM   30  C   UNL     1      -2.972   7.586 -30.201  1.00  0.00    -0.023 A 
HETATM   31  C   UNL     1      -4.176   6.922 -29.940  1.00  0.00     0.012 A 
HETATM   32  C   UNL     1      -5.396   7.525 -30.250  1.00  0.00     0.001 A 
HETATM   33  C   UNL     1      -5.421   8.797 -30.820  1.00  0.00     0.000 A 
HETATM   34  C   UNL     1      -4.227   9.469 -31.077  1.00  0.00     0.001 A 
HETATM   35  C   UNL     1      -3.005   8.869 -30.766  1.00  0.00     0.012 A 
ENDBRANCH   1  30
TORSDOF 5
ENDMDL
MODEL 10
REMARK VINA RESULT:      -7.8      5.311      8.901
REMARK  5 active torsions:
REMARK  status: ('A' for Active; 'I' for Inactive)
REMARK    1  A    between atoms: C_4  and  C_5 
REMARK    2  A    between atoms: C_6  and  N_7 
REMARK    3  A    between atoms: C_9  and  C_10 
REMARK       I    between atoms: C_10  and  N_11 
REMARK    4  A    between atoms: N_11  and  C_12 
REMARK    5  A    between atoms: C_12  and  C_13 
ROOT
HETATM    1  C   UNL     1      -2.547   7.063 -29.694  1.00  0.00     0.019 A 
HETATM    2  C   UNL     1      -1.495   6.799 -30.516  1.00  0.00     0.111 A 
HETATM    3  C   UNL     1      -0.078   6.990 -29.982  1.00  0.00     0.273 A 
HETATM    4  O   UNL     1       0.923   6.803 -30.675  1.00  0.00    -0.266 OA
HETATM    5  N   UNL     1       0.070   7.390 -28.686  1.00  0.00    -0.321 N 
HETATM    6  C   UNL     1      -0.993   7.634 -27.824  1.00  0.00     0.046 A 
HETATM    7  C   UNL     1      -2.303   7.482 -28.287  1.00  0.00     0.006 A 
HETATM    8  C   UNL     1      -0.725   8.018 -26.507  1.00  0.00     0.032 A 
HETATM    9  C   UNL     1      -1.780   8.247 -25.626  1.00  0.00     0.026 A 
HETATM   10  C   UNL     1      -3.091   8.093 -26.069  1.00  0.00     0.035 A 
HETATM   11 CL   UNL     1      -4.395   8.365 -24.980  1.00  0.00    -0.084 Cl
HETATM   12  C   UNL     1      -3.356   7.715 -27.386  1.00  0.00     0.038 A 
HETATM   13  H   UNL     1       1.024   7.500 -28.376  1.00  0.00     0.169 HD
ENDROOT
BRANCH   2  14
HETATM   14  N   UNL     1      -1.627   6.352 -31.853  1.00  0.00    -0.375 N 
HETATM   15  C   UNL     1      -1.119   5.016 -32.225  1.00  0.00     0.137 C 
HETATM   16  C   UNL     1      -1.886   4.455 -33.429  1.00  0.00     0.096 C 
HETATM   17  C   UNL     1      -1.836   5.456 -34.596  1.00  0.00     0.017 C 
HETATM   18  C   UNL     1      -2.241   6.869 -34.167  1.00  0.00     0.021 C 
HETATM   19  C   UNL     1      -1.461   7.332 -32.938  1.00  0.00     0.123 C 
BRANCH  16  20
HETATM   20  C   UNL     1      -3.319   4.040 -33.082  1.00  0.00     0.223 C 
HETATM   21  N   UNL     1      -3.420   2.896 -32.320  1.00  0.00    -0.358 N 
HETATM   22  H   UNL     1      -2.620   2.284 -32.222  1.00  0.00     0.162 HD
HETATM   23  O   UNL     1      -4.312   4.622 -33.513  1.00  0.00    -0.273 OA
BRANCH  21  24
HETATM   24  C   UNL     1      -4.698   2.358 -31.892  1.00  0.00     0.154 C 
BRANCH  24  25
HETATM   25  C   UNL     1      -4.676   0.834 -31.802  1.00  0.00     0.139 C 
HETATM   26  O   UNL     1      -4.940   0.258 -33.101  1.00  0.00    -0.384 OA
HETATM   27  C   UNL     1      -4.066  -0.867 -33.282  1.00  0.00     0.168 C 
HETATM   28  C   UNL     1      -3.340  -1.088 -31.972  1.00  0.00     0.029 C 
HETATM   29  C   UNL     1      -3.318   0.297 -31.381  1.00  0.00     0.035 C 
ENDBRANCH  24  25
ENDBRANCH  21  24
ENDBRANCH  16  20
ENDBRANCH   2  14
BRANCH   1  30
HETATM   30  C   UNL     1      -3.917   6.873 -30.237  1.00  0.00    -0.023 A 
HETATM   31  C   UNL     1      -4.603   5.672 -30.020  1.00  0.00     0.012 A 
HETATM   32  C   UNL     1      -5.899   5.502 -30.508  1.00  0.00     0.001 A 
HETATM   33  C   UNL     1      -6.520   6.533 -31.212  1.00  0.00     0.000 A 
HETATM   34  C   UNL     1      -5.847   7.735 -31.426  1.00  0.00     0.001 A 
HETATM   35  C   UNL     1      -4.551   7.908 -30.938  1.00  0.00     0.012 A 
ENDBRANCH   1  30
TORSDOF 5
ENDMDL
