MODEL 1
REMARK VINA RESULT:      -8.8      0.000      0.000
REMARK  6 active torsions:
REMARK  status: ('A' for Active; 'I' for Inactive)
REMARK    1  A    between atoms: C_5  and  N_6 
REMARK       I    between atoms: N_6  and  C_7 
REMARK    2  A    between atoms: C_7  and  C_8 
REMARK    3  A    between atoms: C_8  and  N_9 
REMARK    4  A    between atoms: C_12  and  C_13 
REMARK       I    between atoms: C_13  and  N_14 
REMARK    5  A    between atoms: N_14  and  N_15 
REMARK       I    between atoms: N_15  and  C_16 
REMARK       I    between atoms: C_16  and  N_17 
REMARK    6  A    between atoms: N_17  and  C_18 
ROOT
HETATM    1  N   UNL     1      -6.870   2.639 -33.156  1.00  0.00    -0.358 N 
HETATM    2  C   UNL     1      -6.076   3.458 -33.884  1.00  0.00     0.092 A 
HETATM    3  C   UNL     1      -4.972   4.069 -33.306  1.00  0.00     0.034 A 
HETATM    4  C   UNL     1      -4.679   3.832 -31.962  1.00  0.00     0.036 A 
HETATM    5  C   UNL     1      -5.520   3.006 -31.219  1.00  0.00     0.034 A 
HETATM    6  C   UNL     1      -6.615   2.419 -31.843  1.00  0.00     0.092 A 
ENDROOT
BRANCH   4   7
HETATM    7  C   UNL     1      -3.408   4.379 -31.419  1.00  0.00     0.270 C 
HETATM    8  N   UNL     1      -3.493   5.512 -30.640  1.00  0.00    -0.262 N 
HETATM    9  H   UNL     1      -4.252   6.188 -30.722  1.00  0.00     0.190 HD
HETATM   10  O   UNL     1      -2.350   3.805 -31.661  1.00  0.00    -0.266 OA
BRANCH   8  11
HETATM   11  N   UNL     1      -2.286   6.060 -30.163  1.00  0.00    -0.249 N 
HETATM   12  C   UNL     1      -2.392   6.937 -29.103  1.00  0.00     0.335 C 
HETATM   13  N   UNL     1      -1.175   7.465 -28.761  1.00  0.00    -0.337 N 
HETATM   14  O   UNL     1      -3.458   7.171 -28.544  1.00  0.00    -0.246 OA
HETATM   15  H   UNL     1      -0.380   6.897 -29.022  1.00  0.00     0.164 HD
HETATM   16  H   UNL     1      -1.618   6.306 -30.893  1.00  0.00     0.192 HD
BRANCH  13  17
HETATM   17  C   UNL     1      -1.012   8.342 -27.607  1.00  0.00     0.086 C 
HETATM   18  C   UNL     1      -0.783   7.549 -26.311  1.00  0.00     0.025 C 
HETATM   19  C   UNL     1       0.591   6.881 -26.269  1.00  0.00     0.002 C 
HETATM   20  C   UNL     1       1.712   7.890 -26.496  1.00  0.00     0.000 C 
HETATM   21  C   UNL     1       1.513   8.677 -27.788  1.00  0.00     0.002 C 
HETATM   22  C   UNL     1       0.134   9.335 -27.850  1.00  0.00     0.025 C 
ENDBRANCH  13  17
ENDBRANCH   8  11
ENDBRANCH   4   7
BRANCH   1  23
HETATM   23  C   UNL     1      -7.950   1.872 -33.833  1.00  0.00     0.230 C 
BRANCH  23  24
HETATM   24  C   UNL     1      -7.582   0.398 -33.735  1.00  0.00     0.240 C 
HETATM   25  N   UNL     1      -6.402   0.059 -34.371  1.00  0.00    -0.326 N 
HETATM   26  H   UNL     1      -5.983   0.713 -35.024  1.00  0.00     0.169 HD
HETATM   27  O   UNL     1      -8.307  -0.357 -33.090  1.00  0.00    -0.271 OA
BRANCH  25  28
HETATM   28  C   UNL     1      -5.713  -1.173 -34.261  1.00  0.00     0.034 A 
HETATM   29  C   UNL     1      -6.091  -2.341 -34.925  1.00  0.00     0.030 A 
HETATM   30  C   UNL     1      -5.381  -3.532 -34.730  1.00  0.00     0.009 A 
HETATM   31  C   UNL     1      -4.275  -3.571 -33.877  1.00  0.00    -0.062 A 
HETATM   32  C   UNL     1      -3.544  -4.860 -33.641  1.00  0.00     0.048 C 
HETATM   33  C   UNL     1      -3.902  -2.406 -33.203  1.00  0.00     0.009 A 
HETATM   34  C   UNL     1      -4.613  -1.217 -33.395  1.00  0.00     0.030 A 
ENDBRANCH  25  28
ENDBRANCH  23  24
ENDBRANCH   1  23
TORSDOF 6
ENDMDL
MODEL 2
REMARK VINA RESULT:      -8.6      1.503      2.112
REMARK  6 active torsions:
REMARK  status: ('A' for Active; 'I' for Inactive)
REMARK    1  A    between atoms: C_5  and  N_6 
REMARK       I    between atoms: N_6  and  C_7 
REMARK    2  A    between atoms: C_7  and  C_8 
REMARK    3  A    between atoms: C_8  and  N_9 
REMARK    4  A    between atoms: C_12  and  C_13 
REMARK       I    between atoms: C_13  and  N_14 
REMARK    5  A    between atoms: N_14  and  N_15 
REMARK       I    between atoms: N_15  and  C_16 
REMARK       I    between atoms: C_16  and  N_17 
REMARK    6  A    between atoms: N_17  and  C_18 
ROOT
HETATM    1  N   UNL     1      -8.043   2.269 -33.472  1.00  0.00    -0.358 N 
HETATM    2  C   UNL     1      -6.868   2.792 -33.893  1.00  0.00     0.092 A 
HETATM    3  C   UNL     1      -6.101   3.578 -33.044  1.00  0.00     0.034 A 
HETATM    4  C   UNL     1      -6.546   3.827 -31.746  1.00  0.00     0.036 A 
HETATM    5  C   UNL     1      -7.770   3.303 -31.336  1.00  0.00     0.034 A 
HETATM    6  C   UNL     1      -8.503   2.523 -32.223  1.00  0.00     0.092 A 
ENDROOT
BRANCH   4   7
HETATM    7  C   UNL     1      -5.630   4.543 -30.819  1.00  0.00     0.270 C 
HETATM    8  N   UNL     1      -4.460   5.038 -31.350  1.00  0.00    -0.262 N 
HETATM    9  H   UNL     1      -4.012   4.644 -32.177  1.00  0.00     0.190 HD
HETATM   10  O   UNL     1      -5.949   4.682 -29.642  1.00  0.00    -0.266 OA
BRANCH   8  11
HETATM   11  N   UNL     1      -3.568   5.675 -30.465  1.00  0.00    -0.249 N 
HETATM   12  C   UNL     1      -2.224   5.528 -30.744  1.00  0.00     0.335 C 
HETATM   13  N   UNL     1      -1.443   6.123 -29.789  1.00  0.00    -0.337 N 
HETATM   14  O   UNL     1      -1.817   4.950 -31.745  1.00  0.00    -0.246 OA
HETATM   15  H   UNL     1      -1.894   6.871 -29.279  1.00  0.00     0.164 HD
HETATM   16  H   UNL     1      -3.838   5.621 -29.483  1.00  0.00     0.192 HD
BRANCH  13  17
HETATM   17  C   UNL     1       0.010   6.189 -29.912  1.00  0.00     0.086 C 
HETATM   18  C   UNL     1       0.521   7.638 -29.904  1.00  0.00     0.025 C 
HETATM   19  C   UNL     1       0.393   8.296 -28.531  1.00  0.00     0.002 C 
HETATM   20  C   UNL     1       1.078   7.470 -27.448  1.00  0.00     0.000 C 
HETATM   21  C   UNL     1       0.571   6.031 -27.426  1.00  0.00     0.002 C 
HETATM   22  C   UNL     1       0.678   5.368 -28.800  1.00  0.00     0.025 C 
ENDBRANCH  13  17
ENDBRANCH   8  11
ENDBRANCH   4   7
BRANCH   1  23
HETATM   23  C   UNL     1      -8.768   1.303 -34.340  1.00  0.00     0.230 C 
BRANCH  23  24
HETATM   24  C   UNL     1      -8.214  -0.081 -34.030  1.00  0.00     0.240 C 
HETATM   25  N   UNL     1      -7.139  -0.456 -34.817  1.00  0.00    -0.326 N 
HETATM   26  H   UNL     1      -6.931   0.070 -35.659  1.00  0.00     0.169 HD
HETATM   27  O   UNL     1      -8.709  -0.732 -33.114  1.00  0.00    -0.271 OA
BRANCH  25  28
HETATM   28  C   UNL     1      -6.299  -1.577 -34.611  1.00  0.00     0.034 A 
HETATM   29  C   UNL     1      -6.621  -2.878 -35.001  1.00  0.00     0.030 A 
HETATM   30  C   UNL     1      -5.753  -3.940 -34.723  1.00  0.00     0.009 A 
HETATM   31  C   UNL     1      -4.544  -3.717 -34.059  1.00  0.00    -0.062 A 
HETATM   32  C   UNL     1      -3.637  -4.866 -33.726  1.00  0.00     0.048 C 
HETATM   33  C   UNL     1      -4.225  -2.418 -33.657  1.00  0.00     0.009 A 
HETATM   34  C   UNL     1      -5.094  -1.357 -33.932  1.00  0.00     0.030 A 
ENDBRANCH  25  28
ENDBRANCH  23  24
ENDBRANCH   1  23
TORSDOF 6
ENDMDL
MODEL 3
REMARK VINA RESULT:      -8.5      1.277      1.757
REMARK  6 active torsions:
REMARK  status: ('A' for Active; 'I' for Inactive)
REMARK    1  A    between atoms: C_5  and  N_6 
REMARK       I    between atoms: N_6  and  C_7 
REMARK    2  A    between atoms: C_7  and  C_8 
REMARK    3  A    between atoms: C_8  and  N_9 
REMARK    4  A    between atoms: C_12  and  C_13 
REMARK       I    between atoms: C_13  and  N_14 
REMARK    5  A    between atoms: N_14  and  N_15 
REMARK       I    between atoms: N_15  and  C_16 
REMARK       I    between atoms: C_16  and  N_17 
REMARK    6  A    between atoms: N_17  and  C_18 
ROOT
HETATM    1  N   UNL     1      -7.411   2.784 -32.648  1.00  0.00    -0.358 N 
HETATM    2  C   UNL     1      -7.469   2.434 -31.342  1.00  0.00     0.092 A 
HETATM    3  C   UNL     1      -6.730   3.125 -30.392  1.00  0.00     0.034 A 
HETATM    4  C   UNL     1      -5.923   4.191 -30.789  1.00  0.00     0.036 A 
HETATM    5  C   UNL     1      -5.854   4.524 -32.141  1.00  0.00     0.034 A 
HETATM    6  C   UNL     1      -6.613   3.801 -33.055  1.00  0.00     0.092 A 
ENDROOT
BRANCH   4   7
HETATM    7  C   UNL     1      -5.266   5.002 -29.731  1.00  0.00     0.270 C 
HETATM    8  N   UNL     1      -4.086   5.630 -30.061  1.00  0.00    -0.262 N 
HETATM    9  H   UNL     1      -3.461   5.293 -30.794  1.00  0.00     0.190 HD
HETATM   10  O   UNL     1      -5.796   5.098 -28.627  1.00  0.00    -0.266 OA
BRANCH   8  11
HETATM   11  N   UNL     1      -3.436   6.359 -29.046  1.00  0.00    -0.249 N 
HETATM   12  C   UNL     1      -2.316   7.069 -29.427  1.00  0.00     0.335 C 
HETATM   13  N   UNL     1      -1.720   7.685 -28.358  1.00  0.00    -0.337 N 
HETATM   14  O   UNL     1      -1.943   7.138 -30.592  1.00  0.00    -0.246 OA
HETATM   15  H   UNL     1      -2.338   7.869 -27.579  1.00  0.00     0.164 HD
HETATM   16  H   UNL     1      -3.388   5.880 -28.147  1.00  0.00     0.192 HD
BRANCH  13  17
HETATM   17  C   UNL     1      -0.576   8.576 -28.520  1.00  0.00     0.086 C 
HETATM   18  C   UNL     1      -0.484   9.605 -27.382  1.00  0.00     0.025 C 
HETATM   19  C   UNL     1      -0.076   8.972 -26.053  1.00  0.00     0.002 C 
HETATM   20  C   UNL     1       1.223   8.184 -26.182  1.00  0.00     0.000 C 
HETATM   21  C   UNL     1       1.147   7.143 -27.295  1.00  0.00     0.002 C 
HETATM   22  C   UNL     1       0.722   7.762 -28.627  1.00  0.00     0.025 C 
ENDBRANCH  13  17
ENDBRANCH   8  11
ENDBRANCH   4   7
BRANCH   1  23
HETATM   23  C   UNL     1      -8.330   2.137 -33.622  1.00  0.00     0.230 C 
BRANCH  23  24
HETATM   24  C   UNL     1      -7.939   0.667 -33.699  1.00  0.00     0.240 C 
HETATM   25  N   UNL     1      -6.682   0.437 -34.231  1.00  0.00    -0.326 N 
HETATM   26  H   UNL     1      -6.206   1.184 -34.724  1.00  0.00     0.169 HD
HETATM   27  O   UNL     1      -8.715  -0.181 -33.267  1.00  0.00    -0.271 OA
BRANCH  25  28
HETATM   28  C   UNL     1      -5.980  -0.792 -34.221  1.00  0.00     0.034 A 
HETATM   29  C   UNL     1      -6.374  -1.923 -34.940  1.00  0.00     0.030 A 
HETATM   30  C   UNL     1      -5.647  -3.115 -34.845  1.00  0.00     0.009 A 
HETATM   31  C   UNL     1      -4.509  -3.194 -34.037  1.00  0.00    -0.062 A 
HETATM   32  C   UNL     1      -3.759  -4.488 -33.908  1.00  0.00     0.048 C 
HETATM   33  C   UNL     1      -4.120  -2.068 -33.308  1.00  0.00     0.009 A 
HETATM   34  C   UNL     1      -4.848  -0.877 -33.401  1.00  0.00     0.030 A 
ENDBRANCH  25  28
ENDBRANCH  23  24
ENDBRANCH   1  23
TORSDOF 6
ENDMDL
MODEL 4
REMARK VINA RESULT:      -8.4      3.502      6.390
REMARK  6 active torsions:
REMARK  status: ('A' for Active; 'I' for Inactive)
REMARK    1  A    between atoms: C_5  and  N_6 
REMARK       I    between atoms: N_6  and  C_7 
REMARK    2  A    between atoms: C_7  and  C_8 
REMARK    3  A    between atoms: C_8  and  N_9 
REMARK    4  A    between atoms: C_12  and  C_13 
REMARK       I    between atoms: C_13  and  N_14 
REMARK    5  A    between atoms: N_14  and  N_15 
REMARK       I    between atoms: N_15  and  C_16 
REMARK       I    between atoms: C_16  and  N_17 
REMARK    6  A    between atoms: N_17  and  C_18 
ROOT
HETATM    1  N   UNL     1      -1.282   7.529 -31.971  1.00  0.00    -0.358 N 
HETATM    2  C   UNL     1      -0.142   6.813 -31.828  1.00  0.00     0.092 A 
HETATM    3  C   UNL     1       0.450   6.671 -30.581  1.00  0.00     0.034 A 
HETATM    4  C   UNL     1      -0.137   7.270 -29.466  1.00  0.00     0.036 A 
HETATM    5  C   UNL     1      -1.296   8.025 -29.634  1.00  0.00     0.034 A 
HETATM    6  C   UNL     1      -1.852   8.139 -30.904  1.00  0.00     0.092 A 
ENDROOT
BRANCH   4   7
HETATM    7  C   UNL     1       0.438   6.971 -28.129  1.00  0.00     0.270 C 
HETATM    8  N   UNL     1       1.351   7.869 -27.622  1.00  0.00    -0.262 N 
HETATM    9  H   UNL     1       1.924   8.474 -28.212  1.00  0.00     0.190 HD
HETATM   10  O   UNL     1       0.074   5.966 -27.525  1.00  0.00    -0.266 OA
BRANCH   8  11
HETATM   11  N   UNL     1       1.934   7.565 -26.377  1.00  0.00    -0.249 N 
HETATM   12  C   UNL     1       2.121   8.627 -25.515  1.00  0.00     0.335 C 
HETATM   13  N   UNL     1       2.755   8.238 -24.365  1.00  0.00    -0.337 N 
HETATM   14  O   UNL     1       1.733   9.761 -25.772  1.00  0.00    -0.246 OA
HETATM   15  H   UNL     1       2.645   7.260 -24.132  1.00  0.00     0.164 HD
HETATM   16  H   UNL     1       2.684   6.875 -26.419  1.00  0.00     0.192 HD
BRANCH  13  17
HETATM   17  C   UNL     1       2.978   9.161 -23.257  1.00  0.00     0.086 C 
HETATM   18  C   UNL     1       3.080   8.427 -21.910  1.00  0.00     0.025 C 
HETATM   19  C   UNL     1       4.371   7.621 -21.779  1.00  0.00     0.002 C 
HETATM   20  C   UNL     1       5.601   8.489 -22.022  1.00  0.00     0.000 C 
HETATM   21  C   UNL     1       5.529   9.212 -23.364  1.00  0.00     0.002 C 
HETATM   22  C   UNL     1       4.232  10.009 -23.513  1.00  0.00     0.025 C 
ENDBRANCH  13  17
ENDBRANCH   8  11
ENDBRANCH   4   7
BRANCH   1  23
HETATM   23  C   UNL     1      -1.984   7.534 -33.282  1.00  0.00     0.230 C 
BRANCH  23  24
HETATM   24  C   UNL     1      -2.371   6.094 -33.590  1.00  0.00     0.240 C 
HETATM   25  N   UNL     1      -3.124   5.481 -32.604  1.00  0.00    -0.326 N 
HETATM   26  H   UNL     1      -3.183   5.907 -31.686  1.00  0.00     0.169 HD
HETATM   27  O   UNL     1      -2.038   5.603 -34.666  1.00  0.00    -0.271 OA
BRANCH  25  28
HETATM   28  C   UNL     1      -3.798   4.241 -32.713  1.00  0.00     0.034 A 
HETATM   29  C   UNL     1      -5.060   4.086 -33.289  1.00  0.00     0.030 A 
HETATM   30  C   UNL     1      -5.678   2.830 -33.321  1.00  0.00     0.009 A 
HETATM   31  C   UNL     1      -5.040   1.707 -32.787  1.00  0.00    -0.062 A 
HETATM   32  C   UNL     1      -5.726   0.373 -32.787  1.00  0.00     0.048 C 
HETATM   33  C   UNL     1      -3.782   1.862 -32.200  1.00  0.00     0.009 A 
HETATM   34  C   UNL     1      -3.166   3.118 -32.165  1.00  0.00     0.030 A 
ENDBRANCH  25  28
ENDBRANCH  23  24
ENDBRANCH   1  23
TORSDOF 6
ENDMDL
MODEL 5
REMARK VINA RESULT:      -8.2      3.831     10.997
REMARK  6 active torsions:
REMARK  status: ('A' for Active; 'I' for Inactive)
REMARK    1  A    between atoms: C_5  and  N_6 
REMARK       I    between atoms: N_6  and  C_7 
REMARK    2  A    between atoms: C_7  and  C_8 
REMARK    3  A    between atoms: C_8  and  N_9 
REMARK    4  A    between atoms: C_12  and  C_13 
REMARK       I    between atoms: C_13  and  N_14 
REMARK    5  A    between atoms: N_14  and  N_15 
REMARK       I    between atoms: N_15  and  C_16 
REMARK       I    between atoms: C_16  and  N_17 
REMARK    6  A    between atoms: N_17  and  C_18 
ROOT
HETATM    1  N   UNL     1      -2.507   5.210 -34.015  1.00  0.00    -0.358 N 
HETATM    2  C   UNL     1      -3.591   5.534 -34.758  1.00  0.00     0.092 A 
HETATM    3  C   UNL     1      -4.801   4.882 -34.562  1.00  0.00     0.034 A 
HETATM    4  C   UNL     1      -4.898   3.887 -33.589  1.00  0.00     0.036 A 
HETATM    5  C   UNL     1      -3.767   3.548 -32.850  1.00  0.00     0.034 A 
HETATM    6  C   UNL     1      -2.577   4.228 -33.084  1.00  0.00     0.092 A 
ENDROOT
BRANCH   4   7
HETATM    7  C   UNL     1      -6.242   3.319 -33.303  1.00  0.00     0.270 C 
HETATM    8  N   UNL     1      -7.329   3.984 -33.825  1.00  0.00    -0.262 N 
HETATM    9  H   UNL     1      -7.321   4.980 -34.042  1.00  0.00     0.190 HD
HETATM   10  O   UNL     1      -6.334   2.288 -32.642  1.00  0.00    -0.266 OA
BRANCH   8  11
HETATM   11  N   UNL     1      -8.606   3.475 -33.515  1.00  0.00    -0.249 N 
HETATM   12  C   UNL     1      -9.666   4.028 -34.206  1.00  0.00     0.335 C 
HETATM   13  N   UNL     1     -10.864   3.517 -33.783  1.00  0.00    -0.337 N 
HETATM   14  O   UNL     1      -9.513   4.855 -35.097  1.00  0.00    -0.246 OA
HETATM   15  H   UNL     1     -10.808   2.599 -33.362  1.00  0.00     0.164 HD
HETATM   16  H   UNL     1      -8.756   3.287 -32.525  1.00  0.00     0.192 HD
BRANCH  13  17
HETATM   17  C   UNL     1     -12.124   3.871 -34.429  1.00  0.00     0.086 C 
HETATM   18  C   UNL     1     -12.413   2.983 -35.649  1.00  0.00     0.025 C 
HETATM   19  C   UNL     1     -12.769   1.549 -35.258  1.00  0.00     0.002 C 
HETATM   20  C   UNL     1     -13.928   1.510 -34.268  1.00  0.00     0.000 C 
HETATM   21  C   UNL     1     -13.653   2.371 -33.038  1.00  0.00     0.002 C 
HETATM   22  C   UNL     1     -13.278   3.804 -33.419  1.00  0.00     0.025 C 
ENDBRANCH  13  17
ENDBRANCH   8  11
ENDBRANCH   4   7
BRANCH   1  23
HETATM   23  C   UNL     1      -1.270   6.028 -34.130  1.00  0.00     0.230 C 
BRANCH  23  24
HETATM   24  C   UNL     1      -1.305   7.055 -33.006  1.00  0.00     0.240 C 
HETATM   25  N   UNL     1      -1.070   6.534 -31.747  1.00  0.00    -0.326 N 
HETATM   26  H   UNL     1      -1.112   5.530 -31.608  1.00  0.00     0.169 HD
HETATM   27  O   UNL     1      -1.493   8.237 -33.284  1.00  0.00    -0.271 OA
BRANCH  25  28
HETATM   28  C   UNL     1      -0.830   7.274 -30.564  1.00  0.00     0.034 A 
HETATM   29  C   UNL     1      -1.729   8.195 -30.023  1.00  0.00     0.030 A 
HETATM   30  C   UNL     1      -1.398   8.919 -28.871  1.00  0.00     0.009 A 
HETATM   31  C   UNL     1      -0.168   8.726 -28.236  1.00  0.00    -0.062 A 
HETATM   32  C   UNL     1       0.196   9.536 -27.026  1.00  0.00     0.048 C 
HETATM   33  C   UNL     1       0.737   7.814 -28.782  1.00  0.00     0.009 A 
HETATM   34  C   UNL     1       0.408   7.093 -29.935  1.00  0.00     0.030 A 
ENDBRANCH  25  28
ENDBRANCH  23  24
ENDBRANCH   1  23
TORSDOF 6
ENDMDL
MODEL 6
REMARK VINA RESULT:      -8.1      3.328     11.190
REMARK  6 active torsions:
REMARK  status: ('A' for Active; 'I' for Inactive)
REMARK    1  A    between atoms: C_5  and  N_6 
REMARK       I    between atoms: N_6  and  C_7 
REMARK    2  A    between atoms: C_7  and  C_8 
REMARK    3  A    between atoms: C_8  and  N_9 
REMARK    4  A    between atoms: C_12  and  C_13 
REMARK       I    between atoms: C_13  and  N_14 
REMARK    5  A    between atoms: N_14  and  N_15 
REMARK       I    between atoms: N_15  and  C_16 
REMARK       I    between atoms: C_16  and  N_17 
REMARK    6  A    between atoms: N_17  and  C_18 
ROOT
HETATM    1  N   UNL     1      -2.843   4.358 -32.151  1.00  0.00    -0.358 N 
HETATM    2  C   UNL     1      -3.324   3.431 -31.291  1.00  0.00     0.092 A 
HETATM    3  C   UNL     1      -4.583   2.878 -31.480  1.00  0.00     0.034 A 
HETATM    4  C   UNL     1      -5.356   3.282 -32.569  1.00  0.00     0.036 A 
HETATM    5  C   UNL     1      -4.858   4.256 -33.432  1.00  0.00     0.034 A 
HETATM    6  C   UNL     1      -3.591   4.781 -33.200  1.00  0.00     0.092 A 
ENDROOT
BRANCH   4   7
HETATM    7  C   UNL     1      -6.631   2.561 -32.826  1.00  0.00     0.270 C 
HETATM    8  N   UNL     1      -7.771   3.076 -32.251  1.00  0.00    -0.262 N 
HETATM    9  H   UNL     1      -7.761   3.642 -31.403  1.00  0.00     0.190 HD
HETATM   10  O   UNL     1      -6.627   1.563 -33.542  1.00  0.00    -0.266 OA
BRANCH   8  11
HETATM   11  N   UNL     1      -8.972   2.368 -32.453  1.00  0.00    -0.249 N 
HETATM   12  C   UNL     1      -9.881   2.944 -33.318  1.00  0.00     0.335 C 
HETATM   13  N   UNL     1     -11.039   2.216 -33.391  1.00  0.00    -0.337 N 
HETATM   14  O   UNL     1      -9.638   3.968 -33.945  1.00  0.00    -0.246 OA
HETATM   15  H   UNL     1     -10.939   1.238 -33.155  1.00  0.00     0.164 HD
HETATM   16  H   UNL     1      -9.355   1.937 -31.612  1.00  0.00     0.192 HD
BRANCH  13  17
HETATM   17  C   UNL     1     -12.114   2.567 -34.314  1.00  0.00     0.086 C 
HETATM   18  C   UNL     1     -12.651   1.337 -35.063  1.00  0.00     0.025 C 
HETATM   19  C   UNL     1     -13.447   0.401 -34.155  1.00  0.00     0.002 C 
HETATM   20  C   UNL     1     -14.572   1.138 -33.437  1.00  0.00     0.000 C 
HETATM   21  C   UNL     1     -14.057   2.353 -32.671  1.00  0.00     0.002 C 
HETATM   22  C   UNL     1     -13.244   3.289 -33.567  1.00  0.00     0.025 C 
ENDBRANCH  13  17
ENDBRANCH   8  11
ENDBRANCH   4   7
BRANCH   1  23
HETATM   23  C   UNL     1      -1.435   4.817 -32.022  1.00  0.00     0.230 C 
BRANCH  23  24
HETATM   24  C   UNL     1      -1.373   5.739 -30.811  1.00  0.00     0.240 C 
HETATM   25  N   UNL     1      -0.332   5.471 -29.940  1.00  0.00    -0.326 N 
HETATM   26  H   UNL     1       0.167   4.592 -30.018  1.00  0.00     0.169 HD
HETATM   27  O   UNL     1      -2.192   6.649 -30.711  1.00  0.00    -0.271 OA
BRANCH  25  28
HETATM   28  C   UNL     1       0.094   6.288 -28.865  1.00  0.00     0.034 A 
HETATM   29  C   UNL     1      -0.212   6.039 -27.526  1.00  0.00     0.030 A 
HETATM   30  C   UNL     1       0.213   6.919 -26.523  1.00  0.00     0.009 A 
HETATM   31  C   UNL     1       0.958   8.057 -26.843  1.00  0.00    -0.062 A 
HETATM   32  C   UNL     1       1.373   9.018 -25.768  1.00  0.00     0.048 C 
HETATM   33  C   UNL     1       1.254   8.315 -28.183  1.00  0.00     0.009 A 
HETATM   34  C   UNL     1       0.828   7.437 -29.185  1.00  0.00     0.030 A 
ENDBRANCH  25  28
ENDBRANCH  23  24
ENDBRANCH   1  23
TORSDOF 6
ENDMDL
MODEL 7
REMARK VINA RESULT:      -7.9      5.606      7.031
REMARK  6 active torsions:
REMARK  status: ('A' for Active; 'I' for Inactive)
REMARK    1  A    between atoms: C_5  and  N_6 
REMARK       I    between atoms: N_6  and  C_7 
REMARK    2  A    between atoms: C_7  and  C_8 
REMARK    3  A    between atoms: C_8  and  N_9 
REMARK    4  A    between atoms: C_12  and  C_13 
REMARK       I    between atoms: C_13  and  N_14 
REMARK    5  A    between atoms: N_14  and  N_15 
REMARK       I    between atoms: N_15  and  C_16 
REMARK       I    between atoms: C_16  and  N_17 
REMARK    6  A    between atoms: N_17  and  C_18 
ROOT
HETATM    1  N   UNL     1      -4.616   2.967 -31.240  1.00  0.00    -0.358 N 
HETATM    2  C   UNL     1      -5.263   2.626 -30.101  1.00  0.00     0.092 A 
HETATM    3  C   UNL     1      -6.400   3.313 -29.703  1.00  0.00     0.034 A 
HETATM    4  C   UNL     1      -6.881   4.363 -30.486  1.00  0.00     0.036 A 
HETATM    5  C   UNL     1      -6.190   4.718 -31.643  1.00  0.00     0.034 A 
HETATM    6  C   UNL     1      -5.054   4.000 -32.000  1.00  0.00     0.092 A 
ENDROOT
BRANCH   4   7
HETATM    7  C   UNL     1      -8.183   4.975 -30.111  1.00  0.00     0.270 C 
HETATM    8  N   UNL     1      -8.153   6.002 -29.194  1.00  0.00    -0.262 N 
HETATM    9  H   UNL     1      -7.411   6.110 -28.502  1.00  0.00     0.190 HD
HETATM   10  O   UNL     1      -9.216   4.567 -30.634  1.00  0.00    -0.266 OA
BRANCH   8  11
HETATM   11  N   UNL     1      -9.389   6.552 -28.800  1.00  0.00    -0.249 N 
HETATM   12  C   UNL     1      -9.350   7.448 -27.751  1.00  0.00     0.335 C 
HETATM   13  N   UNL     1     -10.606   7.869 -27.401  1.00  0.00    -0.337 N 
HETATM   14  O   UNL     1      -8.301   7.817 -27.236  1.00  0.00    -0.246 OA
HETATM   15  H   UNL     1     -11.294   7.806 -28.140  1.00  0.00     0.164 HD
HETATM   16  H   UNL     1     -10.165   5.892 -28.807  1.00  0.00     0.192 HD
BRANCH  13  17
HETATM   17  C   UNL     1     -10.820   8.894 -26.385  1.00  0.00     0.086 C 
HETATM   18  C   UNL     1     -11.963   9.849 -26.764  1.00  0.00     0.025 C 
HETATM   19  C   UNL     1     -13.334   9.181 -26.686  1.00  0.00     0.002 C 
HETATM   20  C   UNL     1     -13.577   8.557 -25.316  1.00  0.00     0.000 C 
HETATM   21  C   UNL     1     -12.462   7.590 -24.927  1.00  0.00     0.002 C 
HETATM   22  C   UNL     1     -11.082   8.243 -25.019  1.00  0.00     0.025 C 
ENDBRANCH  13  17
ENDBRANCH   8  11
ENDBRANCH   4   7
BRANCH   1  23
HETATM   23  C   UNL     1      -3.497   2.117 -31.730  1.00  0.00     0.230 C 
BRANCH  23  24
HETATM   24  C   UNL     1      -4.043   0.704 -31.888  1.00  0.00     0.240 C 
HETATM   25  N   UNL     1      -4.715   0.480 -33.076  1.00  0.00    -0.326 N 
HETATM   26  H   UNL     1      -4.996   1.271 -33.646  1.00  0.00     0.169 HD
HETATM   27  O   UNL     1      -3.826  -0.122 -31.005  1.00  0.00    -0.271 OA
BRANCH  25  28
HETATM   28  C   UNL     1      -5.130  -0.776 -33.581  1.00  0.00     0.034 A 
HETATM   29  C   UNL     1      -4.255  -1.811 -33.915  1.00  0.00     0.030 A 
HETATM   30  C   UNL     1      -4.742  -3.010 -34.449  1.00  0.00     0.009 A 
HETATM   31  C   UNL     1      -6.113  -3.197 -34.648  1.00  0.00    -0.062 A 
HETATM   32  C   UNL     1      -6.624  -4.468 -35.259  1.00  0.00     0.048 C 
HETATM   33  C   UNL     1      -6.989  -2.158 -34.325  1.00  0.00     0.009 A 
HETATM   34  C   UNL     1      -6.501  -0.959 -33.795  1.00  0.00     0.030 A 
ENDBRANCH  25  28
ENDBRANCH  23  24
ENDBRANCH   1  23
TORSDOF 6
ENDMDL
MODEL 8
REMARK VINA RESULT:      -7.7      4.382      7.096
REMARK  6 active torsions:
REMARK  status: ('A' for Active; 'I' for Inactive)
REMARK    1  A    between atoms: C_5  and  N_6 
REMARK       I    between atoms: N_6  and  C_7 
REMARK    2  A    between atoms: C_7  and  C_8 
REMARK    3  A    between atoms: C_8  and  N_9 
REMARK    4  A    between atoms: C_12  and  C_13 
REMARK       I    between atoms: C_13  and  N_14 
REMARK    5  A    between atoms: N_14  and  N_15 
REMARK       I    between atoms: N_15  and  C_16 
REMARK       I    between atoms: C_16  and  N_17 
REMARK    6  A    between atoms: N_17  and  C_18 
ROOT
HETATM    1  N   UNL     1      -9.373   1.548 -33.397  1.00  0.00    -0.358 N 
HETATM    2  C   UNL     1      -9.127   1.293 -32.090  1.00  0.00     0.092 A 
HETATM    3  C   UNL     1      -8.018   1.841 -31.461  1.00  0.00     0.034 A 
HETATM    4  C   UNL     1      -7.153   2.664 -32.183  1.00  0.00     0.036 A 
HETATM    5  C   UNL     1      -7.406   2.897 -33.533  1.00  0.00     0.034 A 
HETATM    6  C   UNL     1      -8.530   2.324 -34.119  1.00  0.00     0.092 A 
ENDROOT
BRANCH   4   7
HETATM    7  C   UNL     1      -6.064   3.354 -31.442  1.00  0.00     0.270 C 
HETATM    8  N   UNL     1      -4.777   2.917 -31.664  1.00  0.00    -0.262 N 
HETATM    9  H   UNL     1      -4.556   1.969 -31.971  1.00  0.00     0.190 HD
HETATM   10  O   UNL     1      -6.341   4.281 -30.687  1.00  0.00    -0.266 OA
BRANCH   8  11
HETATM   11  N   UNL     1      -3.749   3.536 -30.927  1.00  0.00    -0.249 N 
HETATM   12  C   UNL     1      -2.684   4.022 -31.658  1.00  0.00     0.335 C 
HETATM   13  N   UNL     1      -1.710   4.540 -30.846  1.00  0.00    -0.337 N 
HETATM   14  O   UNL     1      -2.658   3.998 -32.883  1.00  0.00    -0.246 OA
HETATM   15  H   UNL     1      -2.035   4.849 -29.939  1.00  0.00     0.164 HD
HETATM   16  H   UNL     1      -3.524   3.074 -30.047  1.00  0.00     0.192 HD
BRANCH  13  17
HETATM   17  C   UNL     1      -0.528   5.205 -31.386  1.00  0.00     0.086 C 
HETATM   18  C   UNL     1      -0.748   6.715 -31.561  1.00  0.00     0.025 C 
HETATM   19  C   UNL     1      -0.818   7.455 -30.225  1.00  0.00     0.002 C 
HETATM   20  C   UNL     1       0.412   7.178 -29.367  1.00  0.00     0.000 C 
HETATM   21  C   UNL     1       0.639   5.683 -29.165  1.00  0.00     0.002 C 
HETATM   22  C   UNL     1       0.692   4.929 -30.495  1.00  0.00     0.025 C 
ENDBRANCH  13  17
ENDBRANCH   8  11
ENDBRANCH   4   7
BRANCH   1  23
HETATM   23  C   UNL     1     -10.648   1.083 -34.006  1.00  0.00     0.230 C 
BRANCH  23  24
HETATM   24  C   UNL     1     -11.647   2.226 -33.882  1.00  0.00     0.240 C 
HETATM   25  N   UNL     1     -12.399   2.205 -32.721  1.00  0.00    -0.326 N 
HETATM   26  H   UNL     1     -12.415   1.365 -32.153  1.00  0.00     0.169 HD
HETATM   27  O   UNL     1     -11.692   3.079 -34.766  1.00  0.00    -0.271 OA
BRANCH  25  28
HETATM   28  C   UNL     1     -13.234   3.244 -32.244  1.00  0.00     0.034 A 
HETATM   29  C   UNL     1     -12.770   4.366 -31.556  1.00  0.00     0.030 A 
HETATM   30  C   UNL     1     -13.668   5.330 -31.080  1.00  0.00     0.009 A 
HETATM   31  C   UNL     1     -15.042   5.192 -31.293  1.00  0.00    -0.062 A 
HETATM   32  C   UNL     1     -16.000   6.208 -30.744  1.00  0.00     0.048 C 
HETATM   33  C   UNL     1     -15.509   4.064 -31.971  1.00  0.00     0.009 A 
HETATM   34  C   UNL     1     -14.613   3.099 -32.444  1.00  0.00     0.030 A 
ENDBRANCH  25  28
ENDBRANCH  23  24
ENDBRANCH   1  23
TORSDOF 6
ENDMDL
MODEL 9
REMARK VINA RESULT:      -7.6      5.937     10.726
REMARK  6 active torsions:
REMARK  status: ('A' for Active; 'I' for Inactive)
REMARK    1  A    between atoms: C_5  and  N_6 
REMARK       I    between atoms: N_6  and  C_7 
REMARK    2  A    between atoms: C_7  and  C_8 
REMARK    3  A    between atoms: C_8  and  N_9 
REMARK    4  A    between atoms: C_12  and  C_13 
REMARK       I    between atoms: C_13  and  N_14 
REMARK    5  A    between atoms: N_14  and  N_15 
REMARK       I    between atoms: N_15  and  C_16 
REMARK       I    between atoms: C_16  and  N_17 
REMARK    6  A    between atoms: N_17  and  C_18 
ROOT
HETATM    1  N   UNL     1      -7.447   2.929 -31.885  1.00  0.00    -0.358 N 
HETATM    2  C   UNL     1      -8.417   2.962 -30.941  1.00  0.00     0.092 A 
HETATM    3  C   UNL     1      -9.682   3.443 -31.246  1.00  0.00     0.034 A 
HETATM    4  C   UNL     1      -9.956   3.893 -32.538  1.00  0.00     0.036 A 
HETATM    5  C   UNL     1      -8.940   3.876 -33.491  1.00  0.00     0.034 A 
HETATM    6  C   UNL     1      -7.688   3.386 -33.137  1.00  0.00     0.092 A 
ENDROOT
BRANCH   4   7
HETATM    7  C   UNL     1     -11.358   4.258 -32.868  1.00  0.00     0.270 C 
HETATM    8  N   UNL     1     -12.285   3.239 -32.884  1.00  0.00    -0.262 N 
HETATM    9  H   UNL     1     -12.040   2.265 -33.065  1.00  0.00     0.190 HD
HETATM   10  O   UNL     1     -11.641   5.431 -33.091  1.00  0.00    -0.266 OA
BRANCH   8  11
HETATM   11  N   UNL     1     -13.605   3.573 -33.244  1.00  0.00    -0.249 N 
HETATM   12  C   UNL     1     -14.519   3.644 -32.212  1.00  0.00     0.335 C 
HETATM   13  N   UNL     1     -15.782   3.906 -32.673  1.00  0.00    -0.337 N 
HETATM   14  O   UNL     1     -14.198   3.509 -31.037  1.00  0.00    -0.246 OA
HETATM   15  H   UNL     1     -15.816   4.377 -33.567  1.00  0.00     0.164 HD
HETATM   16  H   UNL     1     -13.929   3.142 -34.110  1.00  0.00     0.192 HD
BRANCH  13  17
HETATM   17  C   UNL     1     -16.904   4.126 -31.766  1.00  0.00     0.086 C 
HETATM   18  C   UNL     1     -17.537   5.512 -31.963  1.00  0.00     0.025 C 
HETATM   19  C   UNL     1     -18.303   5.624 -33.281  1.00  0.00     0.002 C 
HETATM   20  C   UNL     1     -19.348   4.522 -33.417  1.00  0.00     0.000 C 
HETATM   21  C   UNL     1     -18.736   3.135 -33.243  1.00  0.00     0.002 C 
HETATM   22  C   UNL     1     -17.952   3.017 -31.935  1.00  0.00     0.025 C 
ENDBRANCH  13  17
ENDBRANCH   8  11
ENDBRANCH   4   7
BRANCH   1  23
HETATM   23  C   UNL     1      -6.152   2.264 -31.581  1.00  0.00     0.230 C 
BRANCH  23  24
HETATM   24  C   UNL     1      -6.332   0.780 -31.868  1.00  0.00     0.240 C 
HETATM   25  N   UNL     1      -6.054   0.411 -33.172  1.00  0.00    -0.326 N 
HETATM   26  H   UNL     1      -5.974   1.128 -33.885  1.00  0.00     0.169 HD
HETATM   27  O   UNL     1      -6.659   0.029 -30.952  1.00  0.00    -0.271 OA
BRANCH  25  28
HETATM   28  C   UNL     1      -5.926  -0.911 -33.661  1.00  0.00     0.034 A 
HETATM   29  C   UNL     1      -4.711  -1.592 -33.765  1.00  0.00     0.030 A 
HETATM   30  C   UNL     1      -4.664  -2.885 -34.298  1.00  0.00     0.009 A 
HETATM   31  C   UNL     1      -5.831  -3.523 -34.728  1.00  0.00    -0.062 A 
HETATM   32  C   UNL     1      -5.766  -4.893 -35.338  1.00  0.00     0.048 C 
HETATM   33  C   UNL     1      -7.045  -2.839 -34.636  1.00  0.00     0.009 A 
HETATM   34  C   UNL     1      -7.092  -1.546 -34.106  1.00  0.00     0.030 A 
ENDBRANCH  25  28
ENDBRANCH  23  24
ENDBRANCH   1  23
TORSDOF 6
ENDMDL
MODEL 10
REMARK VINA RESULT:      -7.6      3.872     11.476
REMARK  6 active torsions:
REMARK  status: ('A' for Active; 'I' for Inactive)
REMARK    1  A    between atoms: C_5  and  N_6 
REMARK       I    between atoms: N_6  and  C_7 
REMARK    2  A    between atoms: C_7  and  C_8 
REMARK    3  A    between atoms: C_8  and  N_9 
REMARK    4  A    between atoms: C_12  and  C_13 
REMARK       I    between atoms: C_13  and  N_14 
REMARK    5  A    between atoms: N_14  and  N_15 
REMARK       I    between atoms: N_15  and  C_16 
REMARK       I    between atoms: C_16  and  N_17 
REMARK    6  A    between atoms: N_17  and  C_18 
ROOT
HETATM    1  N   UNL     1      -4.370   5.786 -31.061  1.00  0.00    -0.358 N 
HETATM    2  C   UNL     1      -4.563   4.478 -30.771  1.00  0.00     0.092 A 
HETATM    3  C   UNL     1      -5.844   3.949 -30.713  1.00  0.00     0.034 A 
HETATM    4  C   UNL     1      -6.942   4.773 -30.960  1.00  0.00     0.036 A 
HETATM    5  C   UNL     1      -6.729   6.123 -31.233  1.00  0.00     0.034 A 
HETATM    6  C   UNL     1      -5.426   6.607 -31.278  1.00  0.00     0.092 A 
ENDROOT
BRANCH   4   7
HETATM    7  C   UNL     1      -8.286   4.142 -31.039  1.00  0.00     0.270 C 
HETATM    8  N   UNL     1      -8.338   2.821 -31.424  1.00  0.00    -0.262 N 
HETATM    9  H   UNL     1      -7.620   2.380 -32.000  1.00  0.00     0.190 HD
HETATM   10  O   UNL     1      -9.280   4.800 -30.747  1.00  0.00    -0.266 OA
BRANCH   8  11
HETATM   11  N   UNL     1      -9.612   2.234 -31.547  1.00  0.00    -0.249 N 
HETATM   12  C   UNL     1      -9.919   1.697 -32.781  1.00  0.00     0.335 C 
HETATM   13  N   UNL     1     -11.201   1.215 -32.817  1.00  0.00    -0.337 N 
HETATM   14  O   UNL     1      -9.110   1.651 -33.700  1.00  0.00    -0.246 OA
HETATM   15  H   UNL     1     -11.582   0.961 -31.915  1.00  0.00     0.164 HD
HETATM   16  H   UNL     1     -10.358   2.743 -31.074  1.00  0.00     0.192 HD
BRANCH  13  17
HETATM   17  C   UNL     1     -11.728   0.510 -33.981  1.00  0.00     0.086 C 
HETATM   18  C   UNL     1     -12.898  -0.415 -33.610  1.00  0.00     0.025 C 
HETATM   19  C   UNL     1     -14.162   0.361 -33.241  1.00  0.00     0.002 C 
HETATM   20  C   UNL     1     -14.563   1.336 -34.342  1.00  0.00     0.000 C 
HETATM   21  C   UNL     1     -13.420   2.276 -34.713  1.00  0.00     0.002 C 
HETATM   22  C   UNL     1     -12.144   1.511 -35.067  1.00  0.00     0.025 C 
ENDBRANCH  13  17
ENDBRANCH   8  11
ENDBRANCH   4   7
BRANCH   1  23
HETATM   23  C   UNL     1      -2.989   6.293 -31.275  1.00  0.00     0.230 C 
BRANCH  23  24
HETATM   24  C   UNL     1      -2.446   6.706 -29.913  1.00  0.00     0.240 C 
HETATM   25  N   UNL     1      -1.117   6.383 -29.705  1.00  0.00    -0.326 N 
HETATM   26  H   UNL     1      -0.660   5.728 -30.330  1.00  0.00     0.169 HD
HETATM   27  O   UNL     1      -3.182   7.309 -29.135  1.00  0.00    -0.271 OA
BRANCH  25  28
HETATM   28  C   UNL     1      -0.303   6.831 -28.638  1.00  0.00     0.034 A 
HETATM   29  C   UNL     1      -0.414   6.372 -27.324  1.00  0.00     0.030 A 
HETATM   30  C   UNL     1       0.403   6.897 -26.315  1.00  0.00     0.009 A 
HETATM   31  C   UNL     1       1.351   7.881 -26.605  1.00  0.00    -0.062 A 
HETATM   32  C   UNL     1       2.194   8.469 -25.511  1.00  0.00     0.048 C 
HETATM   33  C   UNL     1       1.456   8.350 -27.917  1.00  0.00     0.009 A 
HETATM   34  C   UNL     1       0.638   7.829 -28.924  1.00  0.00     0.030 A 
ENDBRANCH  25  28
ENDBRANCH  23  24
ENDBRANCH   1  23
TORSDOF 6
ENDMDL
