MODEL 1
REMARK VINA RESULT:     -10.1      0.000      0.000
REMARK  7 active torsions:
REMARK  status: ('A' for Active; 'I' for Inactive)
REMARK    1  A    between atoms: C_2  and  C_3 
REMARK    2  A    between atoms: C_6  and  C_7 
REMARK    3  A    between atoms: N_8  and  N_9 
REMARK    4  A    between atoms: C_20  and  C_21 
REMARK       I    between atoms: C_21  and  N_22 
REMARK    5  A    between atoms: N_22  and  C_23 
REMARK    6  A    between atoms: C_23  and  C_24 
REMARK    7  A    between atoms: C_30  and  N_31 
ROOT
HETATM    1  N   UNL     1      -6.915   1.343 -31.609  1.00  0.00    -0.202 N 
HETATM    2  C   UNL     1      -6.678   0.173 -32.306  1.00  0.00     0.183 A 
HETATM    3  C   UNL     1      -7.872  -0.191 -32.916  1.00  0.00     0.124 A 
HETATM    4  N   UNL     1      -7.913  -1.225 -33.794  1.00  0.00    -0.242 NA
HETATM    5  C   UNL     1      -6.749  -1.863 -33.984  1.00  0.00     0.086 A 
HETATM    6  C   UNL     1      -5.554  -1.494 -33.315  1.00  0.00     0.088 A 
HETATM    7  N   UNL     1      -5.488  -0.454 -32.468  1.00  0.00    -0.225 NA
HETATM    8  C   UNL     1      -6.716  -2.922 -34.883  1.00  0.00     0.034 A 
HETATM    9  C   UNL     1      -5.542  -3.635 -35.130  1.00  0.00     0.002 A 
HETATM   10  C   UNL     1      -4.379  -3.289 -34.458  1.00  0.00     0.002 A 
HETATM   11  C   UNL     1      -4.396  -2.222 -33.559  1.00  0.00     0.034 A 
HETATM   12  C   UNL     1      -8.882   0.726 -32.505  1.00  0.00     0.104 C 
HETATM   13  C   UNL     1      -8.289   1.551 -31.557  1.00  0.00     0.123 C 
ENDROOT
BRANCH   1  14
HETATM   14  N   UNL     1      -6.022   2.287 -31.145  1.00  0.00    -0.176 NA
HETATM   15  C   UNL     1      -5.097   2.544 -32.017  1.00  0.00     0.150 C 
BRANCH  15  16
HETATM   16  C   UNL     1      -4.134   3.646 -31.869  1.00  0.00    -0.017 A 
HETATM   17  C   UNL     1      -4.390   4.756 -31.070  1.00  0.00     0.013 A 
HETATM   18  C   UNL     1      -3.492   5.829 -31.068  1.00  0.00     0.009 A 
HETATM   19  C   UNL     1      -2.333   5.818 -31.871  1.00  0.00    -0.051 A 
HETATM   20  C   UNL     1      -2.097   4.673 -32.656  1.00  0.00     0.009 A 
HETATM   21  C   UNL     1      -2.981   3.595 -32.651  1.00  0.00     0.013 A 
BRANCH  19  22
HETATM   22  C   UNL     1      -1.357   7.005 -31.951  1.00  0.00    -0.024 C 
HETATM   23  C   UNL     1      -1.972   8.348 -31.502  1.00  0.00     0.019 C 
HETATM   24  C   UNL     1      -0.890   7.175 -33.413  1.00  0.00     0.019 C 
HETATM   25  C   UNL     1      -0.128   6.742 -31.053  1.00  0.00     0.019 C 
ENDBRANCH  19  22
ENDBRANCH  15  16
ENDBRANCH   1  14
BRANCH  13  26
HETATM   26  N   UNL     1      -8.809   2.548 -30.777  1.00  0.00    -0.286 NA
HETATM   27  H   UNL     1      -9.134   3.372 -31.296  1.00  0.00     0.125 HD
HETATM   28  H   UNL     1      -8.258   2.844 -29.970  1.00  0.00     0.125 HD
ENDBRANCH  13  26
BRANCH  12  29
HETATM   29  C   UNL     1     -10.227   0.836 -33.053  1.00  0.00     0.257 C 
HETATM   30  N   UNL     1     -10.494   2.048 -33.661  1.00  0.00    -0.354 N 
HETATM   31  H   UNL     1      -9.695   2.675 -33.733  1.00  0.00     0.162 HD
HETATM   32  O   UNL     1     -11.018  -0.098 -33.066  1.00  0.00    -0.267 OA
BRANCH  30  33
HETATM   33  C   UNL     1     -11.517   2.193 -34.680  1.00  0.00     0.155 C 
BRANCH  33  34
HETATM   34  C   UNL     1     -12.883   2.684 -34.192  1.00  0.00     0.139 C 
HETATM   35  O   UNL     1     -13.841   1.608 -34.343  1.00  0.00    -0.384 OA
HETATM   36  C   UNL     1     -14.574   1.472 -33.119  1.00  0.00     0.168 C 
HETATM   37  C   UNL     1     -14.354   2.749 -32.345  1.00  0.00     0.029 C 
HETATM   38  C   UNL     1     -12.937   3.093 -32.727  1.00  0.00     0.035 C 
ENDBRANCH  33  34
ENDBRANCH  30  33
ENDBRANCH  12  29
TORSDOF 7
ENDMDL
MODEL 2
REMARK VINA RESULT:      -9.9      1.431      1.942
REMARK  7 active torsions:
REMARK  status: ('A' for Active; 'I' for Inactive)
REMARK    1  A    between atoms: C_2  and  C_3 
REMARK    2  A    between atoms: C_6  and  C_7 
REMARK    3  A    between atoms: N_8  and  N_9 
REMARK    4  A    between atoms: C_20  and  C_21 
REMARK       I    between atoms: C_21  and  N_22 
REMARK    5  A    between atoms: N_22  and  C_23 
REMARK    6  A    between atoms: C_23  and  C_24 
REMARK    7  A    between atoms: C_30  and  N_31 
ROOT
HETATM    1  N   UNL     1      -6.626   1.373 -31.563  1.00  0.00    -0.202 N 
HETATM    2  C   UNL     1      -6.449   0.199 -32.272  1.00  0.00     0.183 A 
HETATM    3  C   UNL     1      -7.614  -0.023 -32.996  1.00  0.00     0.124 A 
HETATM    4  N   UNL     1      -7.682  -1.028 -33.906  1.00  0.00    -0.242 NA
HETATM    5  C   UNL     1      -6.578  -1.782 -34.010  1.00  0.00     0.086 A 
HETATM    6  C   UNL     1      -5.418  -1.557 -33.227  1.00  0.00     0.088 A 
HETATM    7  N   UNL     1      -5.321  -0.548 -32.347  1.00  0.00    -0.225 NA
HETATM    8  C   UNL     1      -6.573  -2.820 -34.935  1.00  0.00     0.034 A 
HETATM    9  C   UNL     1      -5.463  -3.649 -35.098  1.00  0.00     0.002 A 
HETATM   10  C   UNL     1      -4.336  -3.443 -34.315  1.00  0.00     0.002 A 
HETATM   11  C   UNL     1      -4.324  -2.399 -33.389  1.00  0.00     0.034 A 
HETATM   12  C   UNL     1      -8.556   0.987 -32.649  1.00  0.00     0.104 C 
HETATM   13  C   UNL     1      -7.970   1.725 -31.628  1.00  0.00     0.123 C 
ENDROOT
BRANCH   1  14
HETATM   14  N   UNL     1      -5.686   2.206 -30.994  1.00  0.00    -0.176 NA
HETATM   15  C   UNL     1      -4.974   2.814 -31.891  1.00  0.00     0.150 C 
BRANCH  15  16
HETATM   16  C   UNL     1      -4.036   3.902 -31.574  1.00  0.00    -0.017 A 
HETATM   17  C   UNL     1      -4.421   5.031 -30.858  1.00  0.00     0.013 A 
HETATM   18  C   UNL     1      -3.518   6.089 -30.698  1.00  0.00     0.009 A 
HETATM   19  C   UNL     1      -2.227   6.044 -31.259  1.00  0.00    -0.051 A 
HETATM   20  C   UNL     1      -1.865   4.881 -31.966  1.00  0.00     0.009 A 
HETATM   21  C   UNL     1      -2.754   3.817 -32.117  1.00  0.00     0.013 A 
BRANCH  19  22
HETATM   22  C   UNL     1      -1.230   7.213 -31.165  1.00  0.00    -0.024 C 
HETATM   23  C   UNL     1      -1.213   7.907 -29.787  1.00  0.00     0.019 C 
HETATM   24  C   UNL     1      -1.605   8.280 -32.217  1.00  0.00     0.019 C 
HETATM   25  C   UNL     1       0.204   6.710 -31.442  1.00  0.00     0.019 C 
ENDBRANCH  19  22
ENDBRANCH  15  16
ENDBRANCH   1  14
BRANCH  13  26
HETATM   26  N   UNL     1      -8.452   2.755 -30.866  1.00  0.00    -0.286 NA
HETATM   27  H   UNL     1      -8.471   3.665 -31.342  1.00  0.00     0.125 HD
HETATM   28  H   UNL     1      -8.063   2.864 -29.929  1.00  0.00     0.125 HD
ENDBRANCH  13  26
BRANCH  12  29
HETATM   29  C   UNL     1      -9.826   1.251 -33.311  1.00  0.00     0.257 C 
HETATM   30  N   UNL     1     -10.739   1.939 -32.533  1.00  0.00    -0.354 N 
HETATM   31  H   UNL     1     -10.381   2.256 -31.635  1.00  0.00     0.162 HD
HETATM   32  O   UNL     1     -10.033   0.979 -34.487  1.00  0.00    -0.267 OA
BRANCH  30  33
HETATM   33  C   UNL     1     -11.807   2.731 -33.114  1.00  0.00     0.155 C 
BRANCH  33  34
HETATM   34  C   UNL     1     -11.412   4.125 -33.612  1.00  0.00     0.139 C 
HETATM   35  O   UNL     1     -10.158   4.499 -32.988  1.00  0.00    -0.384 OA
HETATM   36  C   UNL     1      -9.270   4.984 -34.003  1.00  0.00     0.168 C 
HETATM   37  C   UNL     1     -10.126   5.303 -35.204  1.00  0.00     0.029 C 
HETATM   38  C   UNL     1     -11.185   4.235 -35.113  1.00  0.00     0.035 C 
ENDBRANCH  33  34
ENDBRANCH  30  33
ENDBRANCH  12  29
TORSDOF 7
ENDMDL
MODEL 3
REMARK VINA RESULT:      -9.6      3.996      9.392
REMARK  7 active torsions:
REMARK  status: ('A' for Active; 'I' for Inactive)
REMARK    1  A    between atoms: C_2  and  C_3 
REMARK    2  A    between atoms: C_6  and  C_7 
REMARK    3  A    between atoms: N_8  and  N_9 
REMARK    4  A    between atoms: C_20  and  C_21 
REMARK       I    between atoms: C_21  and  N_22 
REMARK    5  A    between atoms: N_22  and  C_23 
REMARK    6  A    between atoms: C_23  and  C_24 
REMARK    7  A    between atoms: C_30  and  N_31 
ROOT
HETATM    1  N   UNL     1      -5.340   3.070 -31.118  1.00  0.00    -0.202 N 
HETATM    2  C   UNL     1      -4.541   4.086 -31.608  1.00  0.00     0.183 A 
HETATM    3  C   UNL     1      -4.577   5.121 -30.680  1.00  0.00     0.124 A 
HETATM    4  N   UNL     1      -3.767   6.201 -30.817  1.00  0.00    -0.242 NA
HETATM    5  C   UNL     1      -2.987   6.198 -31.907  1.00  0.00     0.086 A 
HETATM    6  C   UNL     1      -3.001   5.147 -32.859  1.00  0.00     0.088 A 
HETATM    7  N   UNL     1      -3.771   4.056 -32.723  1.00  0.00    -0.225 NA
HETATM    8  C   UNL     1      -2.121   7.268 -32.101  1.00  0.00     0.034 A 
HETATM    9  C   UNL     1      -1.281   7.336 -33.213  1.00  0.00     0.002 A 
HETATM   10  C   UNL     1      -1.312   6.318 -34.156  1.00  0.00     0.002 A 
HETATM   11  C   UNL     1      -2.170   5.234 -33.969  1.00  0.00     0.034 A 
HETATM   12  C   UNL     1      -5.492   4.764 -29.649  1.00  0.00     0.104 C 
HETATM   13  C   UNL     1      -6.076   3.568 -30.048  1.00  0.00     0.123 C 
ENDROOT
BRANCH   1  14
HETATM   14  N   UNL     1      -5.363   1.732 -31.452  1.00  0.00    -0.176 NA
HETATM   15  C   UNL     1      -5.858   1.539 -32.635  1.00  0.00     0.150 C 
BRANCH  15  16
HETATM   16  C   UNL     1      -5.822   0.238 -33.321  1.00  0.00    -0.017 A 
HETATM   17  C   UNL     1      -6.840  -0.184 -34.170  1.00  0.00     0.013 A 
HETATM   18  C   UNL     1      -6.811  -1.482 -34.693  1.00  0.00     0.009 A 
HETATM   19  C   UNL     1      -5.777  -2.382 -34.368  1.00  0.00    -0.051 A 
HETATM   20  C   UNL     1      -4.754  -1.917 -33.518  1.00  0.00     0.009 A 
HETATM   21  C   UNL     1      -4.770  -0.621 -33.005  1.00  0.00     0.013 A 
BRANCH  19  22
HETATM   22  C   UNL     1      -5.744  -3.838 -34.866  1.00  0.00    -0.024 C 
HETATM   23  C   UNL     1      -5.607  -3.969 -36.398  1.00  0.00     0.019 C 
HETATM   24  C   UNL     1      -7.057  -4.540 -34.456  1.00  0.00     0.019 C 
HETATM   25  C   UNL     1      -4.550  -4.587 -34.234  1.00  0.00     0.019 C 
ENDBRANCH  19  22
ENDBRANCH  15  16
ENDBRANCH   1  14
BRANCH  13  26
HETATM   26  N   UNL     1      -7.075   2.819 -29.488  1.00  0.00    -0.286 NA
HETATM   27  H   UNL     1      -7.608   2.250 -30.156  1.00  0.00     0.125 HD
HETATM   28  H   UNL     1      -7.716   3.296 -28.853  1.00  0.00     0.125 HD
ENDBRANCH  13  26
BRANCH  12  29
HETATM   29  C   UNL     1      -5.687   5.462 -28.385  1.00  0.00     0.257 C 
HETATM   30  N   UNL     1      -4.514   5.835 -27.757  1.00  0.00    -0.354 N 
HETATM   31  H   UNL     1      -3.667   5.661 -28.294  1.00  0.00     0.162 HD
HETATM   32  O   UNL     1      -6.792   5.781 -27.965  1.00  0.00    -0.267 OA
BRANCH  30  33
HETATM   33  C   UNL     1      -4.459   6.936 -26.812  1.00  0.00     0.155 C 
BRANCH  33  34
HETATM   34  C   UNL     1      -3.394   8.001 -27.088  1.00  0.00     0.139 C 
HETATM   35  O   UNL     1      -2.111   7.344 -27.234  1.00  0.00    -0.384 OA
HETATM   36  C   UNL     1      -1.474   7.840 -28.419  1.00  0.00     0.168 C 
HETATM   37  C   UNL     1      -2.188   9.118 -28.784  1.00  0.00     0.029 C 
HETATM   38  C   UNL     1      -3.601   8.807 -28.363  1.00  0.00     0.035 C 
ENDBRANCH  33  34
ENDBRANCH  30  33
ENDBRANCH  12  29
TORSDOF 7
ENDMDL
MODEL 4
REMARK VINA RESULT:      -9.5      2.777      8.267
REMARK  7 active torsions:
REMARK  status: ('A' for Active; 'I' for Inactive)
REMARK    1  A    between atoms: C_2  and  C_3 
REMARK    2  A    between atoms: C_6  and  C_7 
REMARK    3  A    between atoms: N_8  and  N_9 
REMARK    4  A    between atoms: C_20  and  C_21 
REMARK       I    between atoms: C_21  and  N_22 
REMARK    5  A    between atoms: N_22  and  C_23 
REMARK    6  A    between atoms: C_23  and  C_24 
REMARK    7  A    between atoms: C_30  and  N_31 
ROOT
HETATM    1  N   UNL     1      -6.889   1.162 -33.950  1.00  0.00    -0.202 N 
HETATM    2  C   UNL     1      -6.299  -0.080 -34.096  1.00  0.00     0.183 A 
HETATM    3  C   UNL     1      -5.037  -0.007 -33.517  1.00  0.00     0.124 A 
HETATM    4  N   UNL     1      -4.275  -1.121 -33.376  1.00  0.00    -0.242 NA
HETATM    5  C   UNL     1      -4.814  -2.249 -33.861  1.00  0.00     0.086 A 
HETATM    6  C   UNL     1      -6.087  -2.286 -34.484  1.00  0.00     0.088 A 
HETATM    7  N   UNL     1      -6.868  -1.200 -34.603  1.00  0.00    -0.225 NA
HETATM    8  C   UNL     1      -4.094  -3.431 -33.735  1.00  0.00     0.034 A 
HETATM    9  C   UNL     1      -4.588  -4.643 -34.219  1.00  0.00     0.002 A 
HETATM   10  C   UNL     1      -5.823  -4.675 -34.848  1.00  0.00     0.002 A 
HETATM   11  C   UNL     1      -6.561  -3.497 -34.974  1.00  0.00     0.034 A 
HETATM   12  C   UNL     1      -4.818   1.335 -33.093  1.00  0.00     0.104 C 
HETATM   13  C   UNL     1      -5.913   2.064 -33.539  1.00  0.00     0.123 C 
ENDROOT
BRANCH   1  14
HETATM   14  N   UNL     1      -8.220   1.516 -34.018  1.00  0.00    -0.176 NA
HETATM   15  C   UNL     1      -8.740   1.664 -32.840  1.00  0.00     0.150 C 
BRANCH  15  16
HETATM   16  C   UNL     1     -10.081   2.227 -32.616  1.00  0.00    -0.017 A 
HETATM   17  C   UNL     1     -11.183   1.848 -33.376  1.00  0.00     0.013 A 
HETATM   18  C   UNL     1     -12.404   2.510 -33.201  1.00  0.00     0.009 A 
HETATM   19  C   UNL     1     -12.541   3.566 -32.278  1.00  0.00    -0.051 A 
HETATM   20  C   UNL     1     -11.409   3.914 -31.515  1.00  0.00     0.009 A 
HETATM   21  C   UNL     1     -10.194   3.249 -31.675  1.00  0.00     0.013 A 
BRANCH  19  22
HETATM   22  C   UNL     1     -13.845   4.365 -32.104  1.00  0.00    -0.024 C 
HETATM   23  C   UNL     1     -13.941   5.114 -30.758  1.00  0.00     0.019 C 
HETATM   24  C   UNL     1     -15.045   3.395 -32.181  1.00  0.00     0.019 C 
HETATM   25  C   UNL     1     -13.973   5.419 -33.225  1.00  0.00     0.019 C 
ENDBRANCH  19  22
ENDBRANCH  15  16
ENDBRANCH   1  14
BRANCH  13  26
HETATM   26  N   UNL     1      -6.189   3.404 -33.486  1.00  0.00    -0.286 NA
HETATM   27  H   UNL     1      -7.163   3.648 -33.696  1.00  0.00     0.125 HD
HETATM   28  H   UNL     1      -5.560   4.030 -33.990  1.00  0.00     0.125 HD
ENDBRANCH  13  26
BRANCH  12  29
HETATM   29  C   UNL     1      -3.718   1.812 -32.265  1.00  0.00     0.257 C 
HETATM   30  N   UNL     1      -3.222   3.048 -32.639  1.00  0.00    -0.354 N 
HETATM   31  H   UNL     1      -3.743   3.510 -33.381  1.00  0.00     0.162 HD
HETATM   32  O   UNL     1      -3.332   1.220 -31.266  1.00  0.00    -0.267 OA
BRANCH  30  33
HETATM   33  C   UNL     1      -2.527   3.915 -31.706  1.00  0.00     0.155 C 
BRANCH  33  34
HETATM   34  C   UNL     1      -1.483   4.854 -32.318  1.00  0.00     0.139 C 
HETATM   35  O   UNL     1      -1.663   4.871 -33.756  1.00  0.00    -0.384 OA
HETATM   36  C   UNL     1      -1.681   6.234 -34.199  1.00  0.00     0.168 C 
HETATM   37  C   UNL     1      -1.089   7.055 -33.079  1.00  0.00     0.029 C 
HETATM   38  C   UNL     1      -1.573   6.304 -31.865  1.00  0.00     0.035 C 
ENDBRANCH  33  34
ENDBRANCH  30  33
ENDBRANCH  12  29
TORSDOF 7
ENDMDL
MODEL 5
REMARK VINA RESULT:      -9.1      2.550      8.579
REMARK  7 active torsions:
REMARK  status: ('A' for Active; 'I' for Inactive)
REMARK    1  A    between atoms: C_2  and  C_3 
REMARK    2  A    between atoms: C_6  and  C_7 
REMARK    3  A    between atoms: N_8  and  N_9 
REMARK    4  A    between atoms: C_20  and  C_21 
REMARK       I    between atoms: C_21  and  N_22 
REMARK    5  A    between atoms: N_22  and  C_23 
REMARK    6  A    between atoms: C_23  and  C_24 
REMARK    7  A    between atoms: C_30  and  N_31 
ROOT
HETATM    1  N   UNL     1      -5.791   3.255 -30.485  1.00  0.00    -0.202 N 
HETATM    2  C   UNL     1      -4.712   3.965 -30.979  1.00  0.00     0.183 A 
HETATM    3  C   UNL     1      -3.719   3.043 -31.287  1.00  0.00     0.124 A 
HETATM    4  N   UNL     1      -2.590   3.432 -31.931  1.00  0.00    -0.242 NA
HETATM    5  C   UNL     1      -2.506   4.743 -32.199  1.00  0.00     0.086 A 
HETATM    6  C   UNL     1      -3.518   5.667 -31.836  1.00  0.00     0.088 A 
HETATM    7  N   UNL     1      -4.656   5.296 -31.227  1.00  0.00    -0.225 NA
HETATM    8  C   UNL     1      -1.382   5.208 -32.872  1.00  0.00     0.034 A 
HETATM    9  C   UNL     1      -1.223   6.559 -33.183  1.00  0.00     0.002 A 
HETATM   10  C   UNL     1      -2.203   7.467 -32.807  1.00  0.00     0.002 A 
HETATM   11  C   UNL     1      -3.340   7.012 -32.138  1.00  0.00     0.034 A 
HETATM   12  C   UNL     1      -4.168   1.752 -30.885  1.00  0.00     0.104 C 
HETATM   13  C   UNL     1      -5.378   1.951 -30.232  1.00  0.00     0.123 C 
ENDROOT
BRANCH   1  14
HETATM   14  N   UNL     1      -7.114   3.629 -30.376  1.00  0.00    -0.176 NA
HETATM   15  C   UNL     1      -7.791   3.322 -31.438  1.00  0.00     0.150 C 
BRANCH  15  16
HETATM   16  C   UNL     1      -9.257   3.426 -31.518  1.00  0.00    -0.017 A 
HETATM   17  C   UNL     1      -9.976   2.972 -32.619  1.00  0.00     0.013 A 
HETATM   18  C   UNL     1     -11.353   3.214 -32.692  1.00  0.00     0.009 A 
HETATM   19  C   UNL     1     -12.030   3.920 -31.678  1.00  0.00    -0.051 A 
HETATM   20  C   UNL     1     -11.274   4.353 -30.571  1.00  0.00     0.009 A 
HETATM   21  C   UNL     1      -9.905   4.104 -30.485  1.00  0.00     0.013 A 
BRANCH  19  22
HETATM   22  C   UNL     1     -13.528   4.266 -31.753  1.00  0.00    -0.024 C 
HETATM   23  C   UNL     1     -14.451   3.030 -31.789  1.00  0.00     0.019 C 
HETATM   24  C   UNL     1     -13.793   5.079 -33.039  1.00  0.00     0.019 C 
HETATM   25  C   UNL     1     -13.939   5.109 -30.527  1.00  0.00     0.019 C 
ENDBRANCH  19  22
ENDBRANCH  15  16
ENDBRANCH   1  14
BRANCH  13  26
HETATM   26  N   UNL     1      -6.204   1.079 -29.575  1.00  0.00    -0.286 NA
HETATM   27  H   UNL     1      -6.524   0.285 -30.142  1.00  0.00     0.125 HD
HETATM   28  H   UNL     1      -6.992   1.478 -29.064  1.00  0.00     0.125 HD
ENDBRANCH  13  26
BRANCH  12  29
HETATM   29  C   UNL     1      -3.532   0.479 -31.197  1.00  0.00     0.257 C 
HETATM   30  N   UNL     1      -4.320  -0.381 -31.939  1.00  0.00    -0.354 N 
HETATM   31  H   UNL     1      -5.204   0.013 -32.254  1.00  0.00     0.162 HD
HETATM   32  O   UNL     1      -2.367   0.230 -30.915  1.00  0.00    -0.267 OA
BRANCH  30  33
HETATM   33  C   UNL     1      -3.752  -1.426 -32.771  1.00  0.00     0.155 C 
BRANCH  33  34
HETATM   34  C   UNL     1      -4.738  -2.473 -33.296  1.00  0.00     0.139 C 
HETATM   35  O   UNL     1      -6.032  -1.844 -33.467  1.00  0.00    -0.384 OA
HETATM   36  C   UNL     1      -6.536  -2.181 -34.766  1.00  0.00     0.168 C 
HETATM   37  C   UNL     1      -5.736  -3.369 -35.239  1.00  0.00     0.029 C 
HETATM   38  C   UNL     1      -4.382  -3.078 -34.646  1.00  0.00     0.035 C 
ENDBRANCH  33  34
ENDBRANCH  30  33
ENDBRANCH  12  29
TORSDOF 7
ENDMDL
MODEL 6
REMARK VINA RESULT:      -8.9      3.999      9.171
REMARK  7 active torsions:
REMARK  status: ('A' for Active; 'I' for Inactive)
REMARK    1  A    between atoms: C_2  and  C_3 
REMARK    2  A    between atoms: C_6  and  C_7 
REMARK    3  A    between atoms: N_8  and  N_9 
REMARK    4  A    between atoms: C_20  and  C_21 
REMARK       I    between atoms: C_21  and  N_22 
REMARK    5  A    between atoms: N_22  and  C_23 
REMARK    6  A    between atoms: C_23  and  C_24 
REMARK    7  A    between atoms: C_30  and  N_31 
ROOT
HETATM    1  N   UNL     1      -4.957   4.045 -32.504  1.00  0.00    -0.202 N 
HETATM    2  C   UNL     1      -3.883   4.765 -32.015  1.00  0.00     0.183 A 
HETATM    3  C   UNL     1      -4.374   5.627 -31.042  1.00  0.00     0.124 A 
HETATM    4  N   UNL     1      -3.528   6.361 -30.276  1.00  0.00    -0.242 NA
HETATM    5  C   UNL     1      -2.226   6.212 -30.557  1.00  0.00     0.086 A 
HETATM    6  C   UNL     1      -1.755   5.354 -31.584  1.00  0.00     0.088 A 
HETATM    7  N   UNL     1      -2.576   4.597 -32.330  1.00  0.00    -0.225 NA
HETATM    8  C   UNL     1      -1.302   6.922 -29.800  1.00  0.00     0.034 A 
HETATM    9  C   UNL     1       0.070   6.821 -30.036  1.00  0.00     0.002 A 
HETATM   10  C   UNL     1       0.528   5.999 -31.056  1.00  0.00     0.002 A 
HETATM   11  C   UNL     1      -0.388   5.274 -31.818  1.00  0.00     0.034 A 
HETATM   12  C   UNL     1      -5.792   5.496 -31.005  1.00  0.00     0.104 C 
HETATM   13  C   UNL     1      -6.128   4.640 -32.046  1.00  0.00     0.123 C 
ENDROOT
BRANCH   1  14
HETATM   14  N   UNL     1      -4.974   2.851 -33.194  1.00  0.00    -0.176 NA
HETATM   15  C   UNL     1      -4.857   1.833 -32.399  1.00  0.00     0.150 C 
BRANCH  15  16
HETATM   16  C   UNL     1      -5.040   0.442 -32.840  1.00  0.00    -0.017 A 
HETATM   17  C   UNL     1      -4.101  -0.551 -32.578  1.00  0.00     0.013 A 
HETATM   18  C   UNL     1      -4.270  -1.826 -33.132  1.00  0.00     0.009 A 
HETATM   19  C   UNL     1      -5.367  -2.126 -33.963  1.00  0.00    -0.051 A 
HETATM   20  C   UNL     1      -6.306  -1.102 -34.195  1.00  0.00     0.009 A 
HETATM   21  C   UNL     1      -6.151   0.166 -33.636  1.00  0.00     0.013 A 
BRANCH  19  22
HETATM   22  C   UNL     1      -5.553  -3.493 -34.646  1.00  0.00    -0.024 C 
HETATM   23  C   UNL     1      -4.575  -4.577 -34.146  1.00  0.00     0.019 C 
HETATM   24  C   UNL     1      -5.328  -3.331 -36.165  1.00  0.00     0.019 C 
HETATM   25  C   UNL     1      -6.984  -4.019 -34.398  1.00  0.00     0.019 C 
ENDBRANCH  19  22
ENDBRANCH  15  16
ENDBRANCH   1  14
BRANCH  13  26
HETATM   26  N   UNL     1      -7.344   4.231 -32.523  1.00  0.00    -0.286 NA
HETATM   27  H   UNL     1      -8.152   4.627 -32.029  1.00  0.00     0.125 HD
HETATM   28  H   UNL     1      -7.479   3.228 -32.657  1.00  0.00     0.125 HD
ENDBRANCH  13  26
BRANCH  12  29
HETATM   29  C   UNL     1      -6.688   6.063 -30.005  1.00  0.00     0.257 C 
HETATM   30  N   UNL     1      -6.052   6.498 -28.857  1.00  0.00    -0.354 N 
HETATM   31  H   UNL     1      -5.036   6.455 -28.888  1.00  0.00     0.162 HD
HETATM   32  O   UNL     1      -7.884   6.234 -30.203  1.00  0.00    -0.267 OA
BRANCH  30  33
HETATM   33  C   UNL     1      -6.625   7.516 -27.995  1.00  0.00     0.155 C 
BRANCH  33  34
HETATM   34  C   UNL     1      -5.624   8.356 -27.196  1.00  0.00     0.139 C 
HETATM   35  O   UNL     1      -5.061   7.529 -26.148  1.00  0.00    -0.384 OA
HETATM   36  C   UNL     1      -3.635   7.673 -26.167  1.00  0.00     0.168 C 
HETATM   37  C   UNL     1      -3.343   8.922 -26.964  1.00  0.00     0.029 C 
HETATM   38  C   UNL     1      -4.442   8.887 -27.994  1.00  0.00     0.035 C 
ENDBRANCH  33  34
ENDBRANCH  30  33
ENDBRANCH  12  29
TORSDOF 7
ENDMDL
MODEL 7
REMARK VINA RESULT:      -8.9      1.628      2.267
REMARK  7 active torsions:
REMARK  status: ('A' for Active; 'I' for Inactive)
REMARK    1  A    between atoms: C_2  and  C_3 
REMARK    2  A    between atoms: C_6  and  C_7 
REMARK    3  A    between atoms: N_8  and  N_9 
REMARK    4  A    between atoms: C_20  and  C_21 
REMARK       I    between atoms: C_21  and  N_22 
REMARK    5  A    between atoms: N_22  and  C_23 
REMARK    6  A    between atoms: C_23  and  C_24 
REMARK    7  A    between atoms: C_30  and  N_31 
ROOT
HETATM    1  N   UNL     1      -6.824   2.262 -30.998  1.00  0.00    -0.202 N 
HETATM    2  C   UNL     1      -6.686   1.130 -31.779  1.00  0.00     0.183 A 
HETATM    3  C   UNL     1      -7.873   0.971 -32.486  1.00  0.00     0.124 A 
HETATM    4  N   UNL     1      -7.982   0.024 -33.451  1.00  0.00    -0.242 NA
HETATM    5  C   UNL     1      -6.896  -0.741 -33.629  1.00  0.00     0.086 A 
HETATM    6  C   UNL     1      -5.712  -0.583 -32.864  1.00  0.00     0.088 A 
HETATM    7  N   UNL     1      -5.575   0.370 -31.928  1.00  0.00    -0.225 NA
HETATM    8  C   UNL     1      -6.933  -1.722 -34.613  1.00  0.00     0.034 A 
HETATM    9  C   UNL     1      -5.842  -2.558 -34.853  1.00  0.00     0.002 A 
HETATM   10  C   UNL     1      -4.693  -2.418 -34.089  1.00  0.00     0.002 A 
HETATM   11  C   UNL     1      -4.639  -1.432 -33.104  1.00  0.00     0.034 A 
HETATM   12  C   UNL     1      -8.787   1.976 -32.055  1.00  0.00     0.104 C 
HETATM   13  C   UNL     1      -8.162   2.641 -31.007  1.00  0.00     0.123 C 
ENDROOT
BRANCH   1  14
HETATM   14  N   UNL     1      -5.855   3.044 -30.405  1.00  0.00    -0.176 NA
HETATM   15  C   UNL     1      -5.338   3.888 -31.242  1.00  0.00     0.150 C 
BRANCH  15  16
HETATM   16  C   UNL     1      -4.427   4.970 -30.836  1.00  0.00    -0.017 A 
HETATM   17  C   UNL     1      -3.148   5.104 -31.366  1.00  0.00     0.013 A 
HETATM   18  C   UNL     1      -2.283   6.076 -30.848  1.00  0.00     0.009 A 
HETATM   19  C   UNL     1      -2.676   6.919 -29.789  1.00  0.00    -0.051 A 
HETATM   20  C   UNL     1      -3.982   6.766 -29.287  1.00  0.00     0.009 A 
HETATM   21  C   UNL     1      -4.853   5.810 -29.807  1.00  0.00     0.013 A 
BRANCH  19  22
HETATM   22  C   UNL     1      -1.733   7.952 -29.147  1.00  0.00    -0.024 C 
HETATM   23  C   UNL     1      -1.954   9.394 -29.651  1.00  0.00     0.019 C 
HETATM   24  C   UNL     1      -0.272   7.569 -29.465  1.00  0.00     0.019 C 
HETATM   25  C   UNL     1      -1.931   7.969 -27.615  1.00  0.00     0.019 C 
ENDBRANCH  19  22
ENDBRANCH  15  16
ENDBRANCH   1  14
BRANCH  13  26
HETATM   26  N   UNL     1      -8.606   3.632 -30.174  1.00  0.00    -0.286 NA
HETATM   27  H   UNL     1      -9.288   4.272 -30.596  1.00  0.00     0.125 HD
HETATM   28  H   UNL     1      -7.900   4.166 -29.667  1.00  0.00     0.125 HD
ENDBRANCH  13  26
BRANCH  12  29
HETATM   29  C   UNL     1     -10.069   2.300 -32.667  1.00  0.00     0.257 C 
HETATM   30  N   UNL     1     -10.227   1.802 -33.947  1.00  0.00    -0.354 N 
HETATM   31  H   UNL     1      -9.474   1.196 -34.266  1.00  0.00     0.162 HD
HETATM   32  O   UNL     1     -10.966   2.876 -32.066  1.00  0.00    -0.267 OA
BRANCH  30  33
HETATM   33  C   UNL     1     -11.536   1.557 -34.524  1.00  0.00     0.155 C 
BRANCH  33  34
HETATM   34  C   UNL     1     -12.181   2.744 -35.246  1.00  0.00     0.139 C 
HETATM   35  O   UNL     1     -13.217   3.294 -34.394  1.00  0.00    -0.384 OA
HETATM   36  C   UNL     1     -13.049   4.716 -34.330  1.00  0.00     0.168 C 
HETATM   37  C   UNL     1     -12.154   5.093 -35.485  1.00  0.00     0.029 C 
HETATM   38  C   UNL     1     -11.241   3.897 -35.563  1.00  0.00     0.035 C 
ENDBRANCH  33  34
ENDBRANCH  30  33
ENDBRANCH  12  29
TORSDOF 7
ENDMDL
MODEL 8
REMARK VINA RESULT:      -8.8      3.886      9.908
REMARK  7 active torsions:
REMARK  status: ('A' for Active; 'I' for Inactive)
REMARK    1  A    between atoms: C_2  and  C_3 
REMARK    2  A    between atoms: C_6  and  C_7 
REMARK    3  A    between atoms: N_8  and  N_9 
REMARK    4  A    between atoms: C_20  and  C_21 
REMARK       I    between atoms: C_21  and  N_22 
REMARK    5  A    between atoms: N_22  and  C_23 
REMARK    6  A    between atoms: C_23  and  C_24 
REMARK    7  A    between atoms: C_30  and  N_31 
ROOT
HETATM    1  N   UNL     1      -5.012   3.200 -31.411  1.00  0.00    -0.202 N 
HETATM    2  C   UNL     1      -5.971   4.154 -31.124  1.00  0.00     0.183 A 
HETATM    3  C   UNL     1      -5.400   5.398 -31.365  1.00  0.00     0.124 A 
HETATM    4  N   UNL     1      -6.151   6.526 -31.312  1.00  0.00    -0.242 NA
HETATM    5  C   UNL     1      -7.437   6.344 -30.981  1.00  0.00     0.086 A 
HETATM    6  C   UNL     1      -7.983   5.065 -30.701  1.00  0.00     0.088 A 
HETATM    7  N   UNL     1      -7.263   3.935 -30.780  1.00  0.00    -0.225 NA
HETATM    8  C   UNL     1      -8.268   7.456 -30.924  1.00  0.00     0.034 A 
HETATM    9  C   UNL     1      -9.618   7.344 -30.584  1.00  0.00     0.002 A 
HETATM   10  C   UNL     1     -10.146   6.096 -30.287  1.00  0.00     0.002 A 
HETATM   11  C   UNL     1      -9.324   4.970 -30.349  1.00  0.00     0.034 A 
HETATM   12  C   UNL     1      -4.033   5.201 -31.716  1.00  0.00     0.104 C 
HETATM   13  C   UNL     1      -3.786   3.843 -31.559  1.00  0.00     0.123 C 
ENDROOT
BRANCH   1  14
HETATM   14  N   UNL     1      -5.161   1.856 -31.680  1.00  0.00    -0.176 NA
HETATM   15  C   UNL     1      -5.600   1.652 -32.883  1.00  0.00     0.150 C 
BRANCH  15  16
HETATM   16  C   UNL     1      -5.665   0.318 -33.501  1.00  0.00    -0.017 A 
HETATM   17  C   UNL     1      -6.806  -0.147 -34.148  1.00  0.00     0.013 A 
HETATM   18  C   UNL     1      -6.851  -1.470 -34.605  1.00  0.00     0.009 A 
HETATM   19  C   UNL     1      -5.768  -2.350 -34.412  1.00  0.00    -0.051 A 
HETATM   20  C   UNL     1      -4.624  -1.842 -33.767  1.00  0.00     0.009 A 
HETATM   21  C   UNL     1      -4.567  -0.522 -33.322  1.00  0.00     0.013 A 
BRANCH  19  22
HETATM   22  C   UNL     1      -5.803  -3.829 -34.837  1.00  0.00    -0.024 C 
HETATM   23  C   UNL     1      -5.682  -4.042 -36.361  1.00  0.00     0.019 C 
HETATM   24  C   UNL     1      -7.144  -4.450 -34.388  1.00  0.00     0.019 C 
HETATM   25  C   UNL     1      -4.641  -4.599 -34.173  1.00  0.00     0.019 C 
ENDBRANCH  19  22
ENDBRANCH  15  16
ENDBRANCH   1  14
BRANCH  13  26
HETATM   26  N   UNL     1      -2.634   3.114 -31.677  1.00  0.00    -0.286 NA
HETATM   27  H   UNL     1      -2.418   2.522 -30.867  1.00  0.00     0.125 HD
HETATM   28  H   UNL     1      -1.794   3.614 -31.973  1.00  0.00     0.125 HD
ENDBRANCH  13  26
BRANCH  12  29
HETATM   29  C   UNL     1      -3.119   6.209 -32.238  1.00  0.00     0.257 C 
HETATM   30  N   UNL     1      -2.330   6.810 -31.275  1.00  0.00    -0.354 N 
HETATM   31  H   UNL     1      -2.416   6.413 -30.342  1.00  0.00     0.162 HD
HETATM   32  O   UNL     1      -2.989   6.433 -33.434  1.00  0.00    -0.267 OA
BRANCH  30  33
HETATM   33  C   UNL     1      -1.055   7.425 -31.595  1.00  0.00     0.155 C 
BRANCH  33  34
HETATM   34  C   UNL     1       0.179   6.774 -30.962  1.00  0.00     0.139 C 
HETATM   35  O   UNL     1       0.194   7.092 -29.549  1.00  0.00    -0.384 OA
HETATM   36  C   UNL     1       0.421   5.885 -28.810  1.00  0.00     0.168 C 
HETATM   37  C   UNL     1       0.965   4.878 -29.794  1.00  0.00     0.029 C 
HETATM   38  C   UNL     1       0.227   5.255 -31.052  1.00  0.00     0.035 C 
ENDBRANCH  33  34
ENDBRANCH  30  33
ENDBRANCH  12  29
TORSDOF 7
ENDMDL
MODEL 9
REMARK VINA RESULT:      -8.8      3.188      9.075
REMARK  7 active torsions:
REMARK  status: ('A' for Active; 'I' for Inactive)
REMARK    1  A    between atoms: C_2  and  C_3 
REMARK    2  A    between atoms: C_6  and  C_7 
REMARK    3  A    between atoms: N_8  and  N_9 
REMARK    4  A    between atoms: C_20  and  C_21 
REMARK       I    between atoms: C_21  and  N_22 
REMARK    5  A    between atoms: N_22  and  C_23 
REMARK    6  A    between atoms: C_23  and  C_24 
REMARK    7  A    between atoms: C_30  and  N_31 
ROOT
HETATM    1  N   UNL     1      -7.148   2.776 -30.530  1.00  0.00    -0.202 N 
HETATM    2  C   UNL     1      -8.252   3.602 -30.417  1.00  0.00     0.183 A 
HETATM    3  C   UNL     1      -7.781   4.905 -30.310  1.00  0.00     0.124 A 
HETATM    4  N   UNL     1      -8.640   5.955 -30.334  1.00  0.00    -0.242 NA
HETATM    5  C   UNL     1      -9.938   5.632 -30.428  1.00  0.00     0.086 A 
HETATM    6  C   UNL     1     -10.392   4.290 -30.495  1.00  0.00     0.088 A 
HETATM    7  N   UNL     1      -9.555   3.240 -30.505  1.00  0.00    -0.225 NA
HETATM    8  C   UNL     1     -10.873   6.659 -30.474  1.00  0.00     0.034 A 
HETATM    9  C   UNL     1     -12.241   6.400 -30.569  1.00  0.00     0.002 A 
HETATM   10  C   UNL     1     -12.686   5.087 -30.611  1.00  0.00     0.002 A 
HETATM   11  C   UNL     1     -11.758   4.045 -30.574  1.00  0.00     0.034 A 
HETATM   12  C   UNL     1      -6.358   4.863 -30.262  1.00  0.00     0.104 C 
HETATM   13  C   UNL     1      -6.013   3.518 -30.220  1.00  0.00     0.123 C 
ENDROOT
BRANCH   1  14
HETATM   14  N   UNL     1      -7.061   1.485 -31.007  1.00  0.00    -0.176 NA
HETATM   15  C   UNL     1      -6.918   1.456 -32.295  1.00  0.00     0.150 C 
BRANCH  15  16
HETATM   16  C   UNL     1      -6.605   0.229 -33.044  1.00  0.00    -0.017 A 
HETATM   17  C   UNL     1      -7.595  -0.604 -33.555  1.00  0.00     0.013 A 
HETATM   18  C   UNL     1      -7.237  -1.821 -34.147  1.00  0.00     0.009 A 
HETATM   19  C   UNL     1      -5.892  -2.231 -34.227  1.00  0.00    -0.051 A 
HETATM   20  C   UNL     1      -4.914  -1.357 -33.713  1.00  0.00     0.009 A 
HETATM   21  C   UNL     1      -5.262  -0.137 -33.135  1.00  0.00     0.013 A 
BRANCH  19  22
HETATM   22  C   UNL     1      -5.462  -3.590 -34.807  1.00  0.00    -0.024 C 
HETATM   23  C   UNL     1      -4.347  -4.287 -33.998  1.00  0.00     0.019 C 
HETATM   24  C   UNL     1      -4.930  -3.381 -36.242  1.00  0.00     0.019 C 
HETATM   25  C   UNL     1      -6.668  -4.554 -34.848  1.00  0.00     0.019 C 
ENDBRANCH  19  22
ENDBRANCH  15  16
ENDBRANCH   1  14
BRANCH  13  26
HETATM   26  N   UNL     1      -4.799   2.901 -30.086  1.00  0.00    -0.286 NA
HETATM   27  H   UNL     1      -4.752   1.959 -30.491  1.00  0.00     0.125 HD
HETATM   28  H   UNL     1      -4.378   2.898 -29.156  1.00  0.00     0.125 HD
ENDBRANCH  13  26
BRANCH  12  29
HETATM   29  C   UNL     1      -5.455   6.004 -30.350  1.00  0.00     0.257 C 
HETATM   30  N   UNL     1      -4.189   5.763 -29.851  1.00  0.00    -0.354 N 
HETATM   31  H   UNL     1      -4.015   4.800 -29.573  1.00  0.00     0.162 HD
HETATM   32  O   UNL     1      -5.758   7.051 -30.907  1.00  0.00    -0.267 OA
BRANCH  30  33
HETATM   33  C   UNL     1      -3.031   6.524 -30.283  1.00  0.00     0.155 C 
BRANCH  33  34
HETATM   34  C   UNL     1      -2.060   5.795 -31.216  1.00  0.00     0.139 C 
HETATM   35  O   UNL     1      -2.483   4.414 -31.333  1.00  0.00    -0.384 OA
HETATM   36  C   UNL     1      -2.507   4.058 -32.721  1.00  0.00     0.168 C 
HETATM   37  C   UNL     1      -1.691   5.102 -33.444  1.00  0.00     0.029 C 
HETATM   38  C   UNL     1      -1.998   6.337 -32.637  1.00  0.00     0.035 C 
ENDBRANCH  33  34
ENDBRANCH  30  33
ENDBRANCH  12  29
TORSDOF 7
ENDMDL
MODEL 10
REMARK VINA RESULT:      -8.6      3.594      9.475
REMARK  7 active torsions:
REMARK  status: ('A' for Active; 'I' for Inactive)
REMARK    1  A    between atoms: C_2  and  C_3 
REMARK    2  A    between atoms: C_6  and  C_7 
REMARK    3  A    between atoms: N_8  and  N_9 
REMARK    4  A    between atoms: C_20  and  C_21 
REMARK       I    between atoms: C_21  and  N_22 
REMARK    5  A    between atoms: N_22  and  C_23 
REMARK    6  A    between atoms: C_23  and  C_24 
REMARK    7  A    between atoms: C_30  and  N_31 
ROOT
HETATM    1  N   UNL     1      -5.523   3.355 -31.496  1.00  0.00    -0.202 N 
HETATM    2  C   UNL     1      -6.677   4.023 -31.129  1.00  0.00     0.183 A 
HETATM    3  C   UNL     1      -6.295   5.267 -30.641  1.00  0.00     0.124 A 
HETATM    4  N   UNL     1      -7.225   6.208 -30.340  1.00  0.00    -0.242 NA
HETATM    5  C   UNL     1      -8.499   5.829 -30.513  1.00  0.00     0.086 A 
HETATM    6  C   UNL     1      -8.861   4.538 -30.973  1.00  0.00     0.088 A 
HETATM    7  N   UNL     1      -7.954   3.606 -31.307  1.00  0.00    -0.225 NA
HETATM    8  C   UNL     1      -9.504   6.749 -30.238  1.00  0.00     0.034 A 
HETATM    9  C   UNL     1     -10.853   6.427 -30.391  1.00  0.00     0.002 A 
HETATM   10  C   UNL     1     -11.207   5.156 -30.820  1.00  0.00     0.002 A 
HETATM   11  C   UNL     1     -10.208   4.225 -31.107  1.00  0.00     0.034 A 
HETATM   12  C   UNL     1      -4.871   5.322 -30.624  1.00  0.00     0.104 C 
HETATM   13  C   UNL     1      -4.432   4.056 -30.991  1.00  0.00     0.123 C 
ENDROOT
BRANCH   1  14
HETATM   14  N   UNL     1      -5.362   2.276 -32.339  1.00  0.00    -0.176 NA
HETATM   15  C   UNL     1      -5.334   1.155 -31.688  1.00  0.00     0.150 C 
BRANCH  15  16
HETATM   16  C   UNL     1      -5.370  -0.160 -32.345  1.00  0.00    -0.017 A 
HETATM   17  C   UNL     1      -4.260  -0.999 -32.393  1.00  0.00     0.013 A 
HETATM   18  C   UNL     1      -4.319  -2.181 -33.141  1.00  0.00     0.009 A 
HETATM   19  C   UNL     1      -5.476  -2.538 -33.861  1.00  0.00    -0.051 A 
HETATM   20  C   UNL     1      -6.585  -1.673 -33.779  1.00  0.00     0.009 A 
HETATM   21  C   UNL     1      -6.538  -0.502 -33.025  1.00  0.00     0.013 A 
BRANCH  19  22
HETATM   22  C   UNL     1      -5.557  -3.791 -34.750  1.00  0.00    -0.024 C 
HETATM   23  C   UNL     1      -4.627  -4.937 -34.297  1.00  0.00     0.019 C 
HETATM   24  C   UNL     1      -5.157  -3.413 -36.193  1.00  0.00     0.019 C 
HETATM   25  C   UNL     1      -6.998  -4.346 -34.753  1.00  0.00     0.019 C 
ENDBRANCH  19  22
ENDBRANCH  15  16
ENDBRANCH   1  14
BRANCH  13  26
HETATM   26  N   UNL     1      -3.175   3.520 -31.061  1.00  0.00    -0.286 NA
HETATM   27  H   UNL     1      -2.482   4.116 -31.530  1.00  0.00     0.125 HD
HETATM   28  H   UNL     1      -3.094   2.562 -31.403  1.00  0.00     0.125 HD
ENDBRANCH  13  26
BRANCH  12  29
HETATM   29  C   UNL     1      -4.053   6.502 -30.376  1.00  0.00     0.257 C 
HETATM   30  N   UNL     1      -2.808   6.225 -29.842  1.00  0.00    -0.354 N 
HETATM   31  H   UNL     1      -2.581   5.236 -29.777  1.00  0.00     0.162 HD
HETATM   32  O   UNL     1      -4.396   7.630 -30.704  1.00  0.00    -0.267 OA
BRANCH  30  33
HETATM   33  C   UNL     1      -1.685   7.132 -29.993  1.00  0.00     0.155 C 
BRANCH  33  34
HETATM   34  C   UNL     1      -0.883   6.995 -31.291  1.00  0.00     0.139 C 
HETATM   35  O   UNL     1      -0.903   5.605 -31.700  1.00  0.00    -0.384 OA
HETATM   36  C   UNL     1      -1.251   5.541 -33.089  1.00  0.00     0.168 C 
HETATM   37  C   UNL     1      -1.038   6.927 -33.647  1.00  0.00     0.029 C 
HETATM   38  C   UNL     1      -1.424   7.789 -32.472  1.00  0.00     0.035 C 
ENDBRANCH  33  34
ENDBRANCH  30  33
ENDBRANCH  12  29
TORSDOF 7
ENDMDL
