MODEL 1
REMARK VINA RESULT:      -7.7      0.000      0.000
REMARK  6 active torsions:
REMARK  status: ('A' for Active; 'I' for Inactive)
REMARK    1  A    between atoms: C_2  and  C_3 
REMARK    2  A    between atoms: C_3  and  N_4 
REMARK       I    between atoms: N_4  and  C_5 
REMARK    3  A    between atoms: C_5  and  C_6 
REMARK    4  A    between atoms: C_11  and  C_12 
REMARK    5  A    between atoms: C_15  and  O_16 
REMARK    6  A    between atoms: C_21  and  C_22 
ROOT
HETATM    1  C   UNL     1     -10.535   1.360 -33.417  1.00  0.00     0.170 A 
HETATM    2  N   UNL     1      -9.638   0.384 -33.712  1.00  0.00    -0.163 NA
HETATM    3  N   UNL     1      -8.577   0.685 -32.943  1.00  0.00    -0.238 N 
HETATM    4  C   UNL     1      -8.773   1.752 -32.113  1.00  0.00     0.145 A 
HETATM    5  N   UNL     1      -7.826   2.137 -31.224  1.00  0.00    -0.365 N 
HETATM    6  C   UNL     1      -6.491   1.551 -31.198  1.00  0.00     0.118 C 
HETATM    7  C   UNL     1      -6.546   0.093 -31.693  1.00  0.00     0.066 C 
HETATM    8  C   UNL     1      -7.366  -0.111 -32.980  1.00  0.00     0.221 C 
HETATM    9  C   UNL     1     -10.028   2.231 -32.413  1.00  0.00     0.115 A 
HETATM   10 CL   UNL     1     -10.791   3.574 -31.711  1.00  0.00    -0.077 Cl
HETATM   11  H   UNL     1      -7.936   3.006 -30.700  1.00  0.00     0.162 HD
ENDROOT
BRANCH   6  12
HETATM   12  C   UNL     1      -5.442   2.424 -31.866  1.00  0.00    -0.035 A 
HETATM   13  C   UNL     1      -5.755   3.609 -32.549  1.00  0.00     0.012 A 
HETATM   14  C   UNL     1      -4.750   4.396 -33.119  1.00  0.00     0.037 A 
HETATM   15  C   UNL     1      -3.408   4.032 -33.013  1.00  0.00     0.068 A 
HETATM   16  C   UNL     1      -3.080   2.859 -32.337  1.00  0.00     0.037 A 
HETATM   17  C   UNL     1      -4.085   2.067 -31.768  1.00  0.00     0.012 A 
BRANCH  15  18
HETATM   18  O   UNL     1      -2.531   4.895 -33.605  1.00  0.00    -0.356 OA
HETATM   19  C   UNL     1      -2.844   5.328 -34.922  1.00  0.00     0.210 C 
ENDBRANCH  15  18
ENDBRANCH   6  12
BRANCH   8  20
HETATM   20  C   UNL     1      -6.596   0.168 -34.252  1.00  0.00     0.409 C 
HETATM   21  F   UNL     1      -6.741   1.424 -34.712  1.00  0.00    -0.169 F 
HETATM   22  F   UNL     1      -5.268  -0.036 -34.049  1.00  0.00    -0.169 F 
HETATM   23  F   UNL     1      -6.957  -0.673 -35.250  1.00  0.00    -0.169 F 
ENDBRANCH   8  20
BRANCH   1  24
HETATM   24  C   UNL     1     -11.834   1.422 -34.107  1.00  0.00     0.273 C 
HETATM   25  N   UNL     1     -12.897   1.149 -33.270  1.00  0.00    -0.356 N 
HETATM   26  H   UNL     1     -12.647   0.881 -32.322  1.00  0.00     0.162 HD
HETATM   27  O   UNL     1     -11.964   1.670 -35.300  1.00  0.00    -0.266 OA
BRANCH  25  28
HETATM   28  C   UNL     1     -14.253   1.003 -33.742  1.00  0.00     0.122 C 
BRANCH  28  29
HETATM   29  C   UNL     1     -15.264   1.709 -32.841  1.00  0.00     0.015 C 
HETATM   30  C   UNL     1     -14.621   2.768 -31.957  1.00  0.00     0.006 C 
ENDBRANCH  28  29
ENDBRANCH  25  28
ENDBRANCH   1  24
TORSDOF 6
ENDMDL
MODEL 2
REMARK VINA RESULT:      -7.7      1.151      1.592
REMARK  6 active torsions:
REMARK  status: ('A' for Active; 'I' for Inactive)
REMARK    1  A    between atoms: C_2  and  C_3 
REMARK    2  A    between atoms: C_3  and  N_4 
REMARK       I    between atoms: N_4  and  C_5 
REMARK    3  A    between atoms: C_5  and  C_6 
REMARK    4  A    between atoms: C_11  and  C_12 
REMARK    5  A    between atoms: C_15  and  O_16 
REMARK    6  A    between atoms: C_21  and  C_22 
ROOT
HETATM    1  C   UNL     1     -10.229   1.999 -32.927  1.00  0.00     0.170 A 
HETATM    2  N   UNL     1      -9.385   1.045 -33.398  1.00  0.00    -0.163 NA
HETATM    3  N   UNL     1      -8.375   1.048 -32.512  1.00  0.00    -0.238 N 
HETATM    4  C   UNL     1      -8.561   1.894 -31.456  1.00  0.00     0.145 A 
HETATM    5  N   UNL     1      -7.667   1.960 -30.439  1.00  0.00    -0.365 N 
HETATM    6  C   UNL     1      -6.387   1.262 -30.474  1.00  0.00     0.118 C 
HETATM    7  C   UNL     1      -6.508  -0.019 -31.321  1.00  0.00     0.066 C 
HETATM    8  C   UNL     1      -7.227   0.175 -32.668  1.00  0.00     0.221 C 
HETATM    9  C   UNL     1      -9.745   2.547 -31.706  1.00  0.00     0.115 A 
HETATM   10 CL   UNL     1     -10.463   3.744 -30.741  1.00  0.00    -0.077 Cl
HETATM   11  H   UNL     1      -7.756   2.682 -29.722  1.00  0.00     0.162 HD
ENDROOT
BRANCH   6  12
HETATM   12  C   UNL     1      -5.222   2.170 -30.833  1.00  0.00    -0.035 A 
HETATM   13  C   UNL     1      -3.941   1.687 -31.140  1.00  0.00     0.012 A 
HETATM   14  C   UNL     1      -2.910   2.561 -31.496  1.00  0.00     0.037 A 
HETATM   15  C   UNL     1      -3.131   3.936 -31.569  1.00  0.00     0.068 A 
HETATM   16  C   UNL     1      -4.397   4.433 -31.269  1.00  0.00     0.037 A 
HETATM   17  C   UNL     1      -5.431   3.559 -30.909  1.00  0.00     0.012 A 
BRANCH  15  18
HETATM   18  O   UNL     1      -2.041   4.672 -31.940  1.00  0.00    -0.356 OA
HETATM   19  C   UNL     1      -1.862   4.897 -33.332  1.00  0.00     0.210 C 
ENDBRANCH  15  18
ENDBRANCH   6  12
BRANCH   8  20
HETATM   20  C   UNL     1      -6.333   0.682 -33.777  1.00  0.00     0.409 C 
HETATM   21  F   UNL     1      -6.211   2.021 -33.810  1.00  0.00    -0.169 F 
HETATM   22  F   UNL     1      -5.083   0.167 -33.642  1.00  0.00    -0.169 F 
HETATM   23  F   UNL     1      -6.772   0.286 -34.995  1.00  0.00    -0.169 F 
ENDBRANCH   8  20
BRANCH   1  24
HETATM   24  C   UNL     1     -11.455   2.349 -33.661  1.00  0.00     0.273 C 
HETATM   25  N   UNL     1     -12.601   1.918 -33.024  1.00  0.00    -0.356 N 
HETATM   26  H   UNL     1     -12.451   1.368 -32.183  1.00  0.00     0.162 HD
HETATM   27  O   UNL     1     -11.464   2.943 -34.734  1.00  0.00    -0.266 OA
BRANCH  25  28
HETATM   28  C   UNL     1     -13.913   2.011 -33.618  1.00  0.00     0.122 C 
BRANCH  28  29
HETATM   29  C   UNL     1     -14.377   0.684 -34.217  1.00  0.00     0.015 C 
HETATM   30  C   UNL     1     -13.636  -0.511 -33.636  1.00  0.00     0.006 C 
ENDBRANCH  28  29
ENDBRANCH  25  28
ENDBRANCH   1  24
TORSDOF 6
ENDMDL
MODEL 3
REMARK VINA RESULT:      -7.4      3.077      4.698
REMARK  6 active torsions:
REMARK  status: ('A' for Active; 'I' for Inactive)
REMARK    1  A    between atoms: C_2  and  C_3 
REMARK    2  A    between atoms: C_3  and  N_4 
REMARK       I    between atoms: N_4  and  C_5 
REMARK    3  A    between atoms: C_5  and  C_6 
REMARK    4  A    between atoms: C_11  and  C_12 
REMARK    5  A    between atoms: C_15  and  O_16 
REMARK    6  A    between atoms: C_21  and  C_22 
ROOT
HETATM    1  C   UNL     1      -9.453   3.108 -31.863  1.00  0.00     0.170 A 
HETATM    2  N   UNL     1      -8.431   2.788 -31.029  1.00  0.00    -0.163 NA
HETATM    3  N   UNL     1      -7.492   2.292 -31.853  1.00  0.00    -0.238 N 
HETATM    4  C   UNL     1      -7.823   2.350 -33.177  1.00  0.00     0.145 A 
HETATM    5  N   UNL     1      -6.954   1.957 -34.140  1.00  0.00    -0.365 N 
HETATM    6  C   UNL     1      -5.686   1.306 -33.832  1.00  0.00     0.118 C 
HETATM    7  C   UNL     1      -5.165   1.786 -32.464  1.00  0.00     0.066 C 
HETATM    8  C   UNL     1      -6.226   1.796 -31.348  1.00  0.00     0.221 C 
HETATM    9  C   UNL     1      -9.103   2.854 -33.219  1.00  0.00     0.115 A 
HETATM   10 CL   UNL     1     -10.042   3.114 -34.608  1.00  0.00    -0.077 Cl
HETATM   11  H   UNL     1      -7.259   1.890 -35.112  1.00  0.00     0.162 HD
ENDROOT
BRANCH   6  12
HETATM   12  C   UNL     1      -5.727  -0.201 -34.018  1.00  0.00    -0.035 A 
HETATM   13  C   UNL     1      -6.882  -0.892 -34.417  1.00  0.00     0.012 A 
HETATM   14  C   UNL     1      -6.861  -2.277 -34.607  1.00  0.00     0.037 A 
HETATM   15  C   UNL     1      -5.688  -3.008 -34.417  1.00  0.00     0.068 A 
HETATM   16  C   UNL     1      -4.533  -2.338 -34.023  1.00  0.00     0.037 A 
HETATM   17  C   UNL     1      -4.552  -0.950 -33.829  1.00  0.00     0.012 A 
BRANCH  15  18
HETATM   18  O   UNL     1      -5.806  -4.349 -34.648  1.00  0.00    -0.356 OA
HETATM   19  C   UNL     1      -4.701  -5.164 -34.277  1.00  0.00     0.210 C 
ENDBRANCH  15  18
ENDBRANCH   6  12
BRANCH   8  20
HETATM   20  C   UNL     1      -6.422   0.458 -30.672  1.00  0.00     0.409 C 
HETATM   21  F   UNL     1      -5.420  -0.414 -30.887  1.00  0.00    -0.169 F 
HETATM   22  F   UNL     1      -6.530   0.624 -29.328  1.00  0.00    -0.169 F 
HETATM   23  F   UNL     1      -7.570  -0.140 -31.069  1.00  0.00    -0.169 F 
ENDBRANCH   8  20
BRANCH   1  24
HETATM   24  C   UNL     1     -10.719   3.640 -31.333  1.00  0.00     0.273 C 
HETATM   25  N   UNL     1     -11.824   3.154 -32.002  1.00  0.00    -0.356 N 
HETATM   26  H   UNL     1     -11.623   2.557 -32.800  1.00  0.00     0.162 HD
HETATM   27  O   UNL     1     -10.791   4.443 -30.409  1.00  0.00    -0.266 OA
BRANCH  25  28
HETATM   28  C   UNL     1     -13.163   3.639 -31.765  1.00  0.00     0.122 C 
BRANCH  28  29
HETATM   29  C   UNL     1     -14.227   2.747 -32.400  1.00  0.00     0.015 C 
HETATM   30  C   UNL     1     -13.683   1.918 -33.555  1.00  0.00     0.006 C 
ENDBRANCH  28  29
ENDBRANCH  25  28
ENDBRANCH   1  24
TORSDOF 6
ENDMDL
MODEL 4
REMARK VINA RESULT:      -7.3      1.523      2.094
REMARK  6 active torsions:
REMARK  status: ('A' for Active; 'I' for Inactive)
REMARK    1  A    between atoms: C_2  and  C_3 
REMARK    2  A    between atoms: C_3  and  N_4 
REMARK       I    between atoms: N_4  and  C_5 
REMARK    3  A    between atoms: C_5  and  C_6 
REMARK    4  A    between atoms: C_11  and  C_12 
REMARK    5  A    between atoms: C_15  and  O_16 
REMARK    6  A    between atoms: C_21  and  C_22 
ROOT
HETATM    1  C   UNL     1     -10.266   1.460 -33.556  1.00  0.00     0.170 A 
HETATM    2  N   UNL     1      -9.387   0.479 -33.885  1.00  0.00    -0.163 NA
HETATM    3  N   UNL     1      -8.419   0.597 -32.960  1.00  0.00    -0.238 N 
HETATM    4  C   UNL     1      -8.666   1.546 -32.010  1.00  0.00     0.145 A 
HETATM    5  N   UNL     1      -7.821   1.738 -30.968  1.00  0.00    -0.365 N 
HETATM    6  C   UNL     1      -6.529   1.067 -30.872  1.00  0.00     0.118 C 
HETATM    7  C   UNL     1      -6.592  -0.299 -31.581  1.00  0.00     0.066 C 
HETATM    8  C   UNL     1      -7.252  -0.264 -32.972  1.00  0.00     0.221 C 
HETATM    9  C   UNL     1      -9.848   2.144 -32.380  1.00  0.00     0.115 A 
HETATM   10 CL   UNL     1     -10.628   3.423 -31.581  1.00  0.00    -0.077 Cl
HETATM   11  H   UNL     1      -7.954   2.530 -30.337  1.00  0.00     0.162 HD
ENDROOT
BRANCH   6  12
HETATM   12  C   UNL     1      -5.364   1.956 -31.275  1.00  0.00    -0.035 A 
HETATM   13  C   UNL     1      -4.027   1.535 -31.221  1.00  0.00     0.012 A 
HETATM   14  C   UNL     1      -2.991   2.379 -31.633  1.00  0.00     0.037 A 
HETATM   15  C   UNL     1      -3.261   3.657 -32.122  1.00  0.00     0.068 A 
HETATM   16  C   UNL     1      -4.583   4.090 -32.184  1.00  0.00     0.037 A 
HETATM   17  C   UNL     1      -5.622   3.247 -31.768  1.00  0.00     0.012 A 
BRANCH  15  18
HETATM   18  O   UNL     1      -2.159   4.370 -32.501  1.00  0.00    -0.356 OA
HETATM   19  C   UNL     1      -2.390   5.602 -33.172  1.00  0.00     0.210 C 
ENDBRANCH  15  18
ENDBRANCH   6  12
BRANCH   8  20
HETATM   20  C   UNL     1      -6.316   0.141 -34.089  1.00  0.00     0.409 C 
HETATM   21  F   UNL     1      -5.021  -0.120 -33.836  1.00  0.00    -0.169 F 
HETATM   22  F   UNL     1      -6.643  -0.513 -35.234  1.00  0.00    -0.169 F 
HETATM   23  F   UNL     1      -6.414   1.462 -34.370  1.00  0.00    -0.169 F 
ENDBRANCH   8  20
BRANCH   1  24
HETATM   24  C   UNL     1     -11.463   1.705 -34.376  1.00  0.00     0.273 C 
HETATM   25  N   UNL     1     -11.288   2.730 -35.285  1.00  0.00    -0.356 N 
HETATM   26  H   UNL     1     -10.397   3.216 -35.226  1.00  0.00     0.162 HD
HETATM   27  O   UNL     1     -12.513   1.083 -34.259  1.00  0.00    -0.266 OA
BRANCH  25  28
HETATM   28  C   UNL     1     -12.360   3.254 -36.096  1.00  0.00     0.122 C 
BRANCH  28  29
HETATM   29  C   UNL     1     -12.741   4.681 -35.708  1.00  0.00     0.015 C 
HETATM   30  C   UNL     1     -11.628   5.402 -34.961  1.00  0.00     0.006 C 
ENDBRANCH  28  29
ENDBRANCH  25  28
ENDBRANCH   1  24
TORSDOF 6
ENDMDL
MODEL 5
REMARK VINA RESULT:      -7.2     16.440     19.158
REMARK  6 active torsions:
REMARK  status: ('A' for Active; 'I' for Inactive)
REMARK    1  A    between atoms: C_2  and  C_3 
REMARK    2  A    between atoms: C_3  and  N_4 
REMARK       I    between atoms: N_4  and  C_5 
REMARK    3  A    between atoms: C_5  and  C_6 
REMARK    4  A    between atoms: C_11  and  C_12 
REMARK    5  A    between atoms: C_15  and  O_16 
REMARK    6  A    between atoms: C_21  and  C_22 
ROOT
HETATM    1  C   UNL     1      -3.950 -15.062 -38.239  1.00  0.00     0.170 A 
HETATM    2  N   UNL     1      -4.244 -13.821 -38.706  1.00  0.00    -0.163 NA
HETATM    3  N   UNL     1      -5.558 -13.691 -38.455  1.00  0.00    -0.238 N 
HETATM    4  C   UNL     1      -6.106 -14.746 -37.782  1.00  0.00     0.145 A 
HETATM    5  N   UNL     1      -7.404 -14.735 -37.391  1.00  0.00    -0.365 N 
HETATM    6  C   UNL     1      -8.334 -13.686 -37.790  1.00  0.00     0.118 C 
HETATM    7  C   UNL     1      -7.576 -12.362 -38.003  1.00  0.00     0.066 C 
HETATM    8  C   UNL     1      -6.286 -12.495 -38.833  1.00  0.00     0.221 C 
HETATM    9  C   UNL     1      -5.094 -15.667 -37.647  1.00  0.00     0.115 A 
HETATM   10 CL   UNL     1      -5.208 -17.194 -36.915  1.00  0.00    -0.077 Cl
HETATM   11  H   UNL     1      -7.829 -15.577 -37.000  1.00  0.00     0.162 HD
ENDROOT
BRANCH   6  12
HETATM   12  C   UNL     1      -9.249 -14.101 -38.930  1.00  0.00    -0.035 A 
HETATM   13  C   UNL     1     -10.175 -13.231 -39.524  1.00  0.00     0.012 A 
HETATM   14  C   UNL     1     -10.972 -13.652 -40.593  1.00  0.00     0.037 A 
HETATM   15  C   UNL     1     -10.858 -14.944 -41.106  1.00  0.00     0.068 A 
HETATM   16  C   UNL     1      -9.943 -15.820 -40.529  1.00  0.00     0.037 A 
HETATM   17  C   UNL     1      -9.146 -15.402 -39.455  1.00  0.00     0.012 A 
BRANCH  15  18
HETATM   18  O   UNL     1     -11.687 -15.218 -42.157  1.00  0.00    -0.356 OA
HETATM   19  C   UNL     1     -11.277 -16.247 -43.047  1.00  0.00     0.210 C 
ENDBRANCH  15  18
ENDBRANCH   6  12
BRANCH   8  20
HETATM   20  C   UNL     1      -6.510 -12.471 -40.328  1.00  0.00     0.409 C 
HETATM   21  F   UNL     1      -7.603 -11.784 -40.705  1.00  0.00    -0.169 F 
HETATM   22  F   UNL     1      -5.443 -11.906 -40.952  1.00  0.00    -0.169 F 
HETATM   23  F   UNL     1      -6.623 -13.721 -40.837  1.00  0.00    -0.169 F 
ENDBRANCH   8  20
BRANCH   1  24
HETATM   24  C   UNL     1      -2.595 -15.618 -38.381  1.00  0.00     0.273 C 
HETATM   25  N   UNL     1      -1.672 -14.990 -37.570  1.00  0.00    -0.356 N 
HETATM   26  H   UNL     1      -2.025 -14.197 -37.041  1.00  0.00     0.162 HD
HETATM   27  O   UNL     1      -2.306 -16.529 -39.149  1.00  0.00    -0.266 OA
BRANCH  25  28
HETATM   28  C   UNL     1      -0.254 -15.255 -37.638  1.00  0.00     0.122 C 
BRANCH  28  29
HETATM   29  C   UNL     1       0.467 -14.324 -38.610  1.00  0.00     0.015 C 
HETATM   30  C   UNL     1       1.962 -14.599 -38.684  1.00  0.00     0.006 C 
ENDBRANCH  28  29
ENDBRANCH  25  28
ENDBRANCH   1  24
TORSDOF 6
ENDMDL
MODEL 6
REMARK VINA RESULT:      -7.0      3.063      7.940
REMARK  6 active torsions:
REMARK  status: ('A' for Active; 'I' for Inactive)
REMARK    1  A    between atoms: C_2  and  C_3 
REMARK    2  A    between atoms: C_3  and  N_4 
REMARK       I    between atoms: N_4  and  C_5 
REMARK    3  A    between atoms: C_5  and  C_6 
REMARK    4  A    between atoms: C_11  and  C_12 
REMARK    5  A    between atoms: C_15  and  O_16 
REMARK    6  A    between atoms: C_21  and  C_22 
ROOT
HETATM    1  C   UNL     1      -4.064   3.947 -31.833  1.00  0.00     0.170 A 
HETATM    2  N   UNL     1      -4.315   2.796 -31.156  1.00  0.00    -0.163 NA
HETATM    3  N   UNL     1      -5.093   2.096 -32.000  1.00  0.00    -0.238 N 
HETATM    4  C   UNL     1      -5.289   2.698 -33.210  1.00  0.00     0.145 A 
HETATM    5  N   UNL     1      -5.990   2.087 -34.196  1.00  0.00    -0.365 N 
HETATM    6  C   UNL     1      -6.707   0.834 -33.988  1.00  0.00     0.118 C 
HETATM    7  C   UNL     1      -6.003  -0.001 -32.902  1.00  0.00     0.066 C 
HETATM    8  C   UNL     1      -5.616   0.792 -31.641  1.00  0.00     0.221 C 
HETATM    9  C   UNL     1      -4.654   3.915 -33.127  1.00  0.00     0.115 A 
HETATM   10 CL   UNL     1      -4.594   5.108 -34.333  1.00  0.00    -0.077 Cl
HETATM   11  H   UNL     1      -6.232   2.597 -35.046  1.00  0.00     0.162 HD
ENDROOT
BRANCH   6  12
HETATM   12  C   UNL     1      -8.201   1.028 -33.792  1.00  0.00    -0.035 A 
HETATM   13  C   UNL     1      -8.875   2.203 -34.155  1.00  0.00     0.012 A 
HETATM   14  C   UNL     1     -10.258   2.320 -33.985  1.00  0.00     0.037 A 
HETATM   15  C   UNL     1     -11.006   1.266 -33.462  1.00  0.00     0.068 A 
HETATM   16  C   UNL     1     -10.354   0.091 -33.098  1.00  0.00     0.037 A 
HETATM   17  C   UNL     1      -8.968  -0.027 -33.264  1.00  0.00     0.012 A 
BRANCH  15  18
HETATM   18  O   UNL     1     -12.347   1.510 -33.361  1.00  0.00    -0.356 OA
HETATM   19  C   UNL     1     -13.145   1.198 -34.494  1.00  0.00     0.210 C 
ENDBRANCH  15  18
ENDBRANCH   6  12
BRANCH   8  20
HETATM   20  C   UNL     1      -6.737   0.938 -30.636  1.00  0.00     0.409 C 
HETATM   21  F   UNL     1      -7.483   2.043 -30.808  1.00  0.00    -0.169 F 
HETATM   22  F   UNL     1      -7.574  -0.130 -30.712  1.00  0.00    -0.169 F 
HETATM   23  F   UNL     1      -6.270   0.959 -29.365  1.00  0.00    -0.169 F 
ENDBRANCH   8  20
BRANCH   1  24
HETATM   24  C   UNL     1      -3.277   5.026 -31.216  1.00  0.00     0.273 C 
HETATM   25  N   UNL     1      -1.926   4.920 -31.478  1.00  0.00    -0.356 N 
HETATM   26  H   UNL     1      -1.647   4.091 -31.996  1.00  0.00     0.162 HD
HETATM   27  O   UNL     1      -3.759   5.917 -30.526  1.00  0.00    -0.266 OA
BRANCH  25  28
HETATM   28  C   UNL     1      -0.935   5.770 -30.863  1.00  0.00     0.122 C 
BRANCH  28  29
HETATM   29  C   UNL     1      -0.739   7.081 -31.622  1.00  0.00     0.015 C 
HETATM   30  C   UNL     1      -0.764   6.892 -33.131  1.00  0.00     0.006 C 
ENDBRANCH  28  29
ENDBRANCH  25  28
ENDBRANCH   1  24
TORSDOF 6
ENDMDL
MODEL 7
REMARK VINA RESULT:      -6.9      5.497      9.370
REMARK  6 active torsions:
REMARK  status: ('A' for Active; 'I' for Inactive)
REMARK    1  A    between atoms: C_2  and  C_3 
REMARK    2  A    between atoms: C_3  and  N_4 
REMARK       I    between atoms: N_4  and  C_5 
REMARK    3  A    between atoms: C_5  and  C_6 
REMARK    4  A    between atoms: C_11  and  C_12 
REMARK    5  A    between atoms: C_15  and  O_16 
REMARK    6  A    between atoms: C_21  and  C_22 
ROOT
HETATM    1  C   UNL     1      -2.699   7.167 -29.069  1.00  0.00     0.170 A 
HETATM    2  N   UNL     1      -2.163   6.896 -30.287  1.00  0.00    -0.163 NA
HETATM    3  N   UNL     1      -3.159   6.272 -30.940  1.00  0.00    -0.238 N 
HETATM    4  C   UNL     1      -4.328   6.200 -30.238  1.00  0.00     0.145 A 
HETATM    5  N   UNL     1      -5.448   5.666 -30.786  1.00  0.00    -0.365 N 
HETATM    6  C   UNL     1      -5.444   4.998 -32.082  1.00  0.00     0.118 C 
HETATM    7  C   UNL     1      -4.350   5.602 -32.983  1.00  0.00     0.066 C 
HETATM    8  C   UNL     1      -2.985   5.780 -32.293  1.00  0.00     0.221 C 
HETATM    9  C   UNL     1      -4.058   6.751 -29.007  1.00  0.00     0.115 A 
HETATM   10 CL   UNL     1      -5.139   6.899 -27.707  1.00  0.00    -0.077 Cl
HETATM   11  H   UNL     1      -6.275   5.507 -30.210  1.00  0.00     0.162 HD
ENDROOT
BRANCH   6  12
HETATM   12  C   UNL     1      -5.432   3.483 -31.973  1.00  0.00    -0.035 A 
HETATM   13  C   UNL     1      -5.474   2.635 -33.089  1.00  0.00     0.012 A 
HETATM   14  C   UNL     1      -5.427   1.245 -32.939  1.00  0.00     0.037 A 
HETATM   15  C   UNL     1      -5.325   0.666 -31.674  1.00  0.00     0.068 A 
HETATM   16  C   UNL     1      -5.281   1.494 -30.555  1.00  0.00     0.037 A 
HETATM   17  C   UNL     1      -5.331   2.886 -30.704  1.00  0.00     0.012 A 
BRANCH  15  18
HETATM   18  O   UNL     1      -5.278  -0.699 -31.672  1.00  0.00    -0.356 OA
HETATM   19  C   UNL     1      -4.808  -1.328 -32.857  1.00  0.00     0.210 C 
ENDBRANCH  15  18
ENDBRANCH   6  12
BRANCH   8  20
HETATM   20  C   UNL     1      -2.129   4.534 -32.289  1.00  0.00     0.409 C 
HETATM   21  F   UNL     1      -2.281   3.771 -31.192  1.00  0.00    -0.169 F 
HETATM   22  F   UNL     1      -2.429   3.758 -33.363  1.00  0.00    -0.169 F 
HETATM   23  F   UNL     1      -0.812   4.831 -32.397  1.00  0.00    -0.169 F 
ENDBRANCH   8  20
BRANCH   1  24
HETATM   24  C   UNL     1      -1.893   7.808 -28.018  1.00  0.00     0.273 C 
HETATM   25  N   UNL     1      -0.901   6.983 -27.527  1.00  0.00    -0.356 N 
HETATM   26  H   UNL     1      -0.898   6.037 -27.899  1.00  0.00     0.162 HD
HETATM   27  O   UNL     1      -2.088   8.945 -27.603  1.00  0.00    -0.266 OA
BRANCH  25  28
HETATM   28  C   UNL     1      -0.079   7.330 -26.393  1.00  0.00     0.122 C 
BRANCH  28  29
HETATM   29  C   UNL     1       1.396   7.474 -26.763  1.00  0.00     0.015 C 
HETATM   30  C   UNL     1       1.662   8.686 -27.645  1.00  0.00     0.006 C 
ENDBRANCH  28  29
ENDBRANCH  25  28
ENDBRANCH   1  24
TORSDOF 6
ENDMDL
MODEL 8
REMARK VINA RESULT:      -6.9     16.382     19.044
REMARK  6 active torsions:
REMARK  status: ('A' for Active; 'I' for Inactive)
REMARK    1  A    between atoms: C_2  and  C_3 
REMARK    2  A    between atoms: C_3  and  N_4 
REMARK       I    between atoms: N_4  and  C_5 
REMARK    3  A    between atoms: C_5  and  C_6 
REMARK    4  A    between atoms: C_11  and  C_12 
REMARK    5  A    between atoms: C_15  and  O_16 
REMARK    6  A    between atoms: C_21  and  C_22 
ROOT
HETATM    1  C   UNL     1      -2.798 -14.908 -37.822  1.00  0.00     0.170 A 
HETATM    2  N   UNL     1      -2.861 -14.420 -39.088  1.00  0.00    -0.163 NA
HETATM    3  N   UNL     1      -3.972 -13.663 -39.082  1.00  0.00    -0.238 N 
HETATM    4  C   UNL     1      -4.580 -13.574 -37.862  1.00  0.00     0.145 A 
HETATM    5  N   UNL     1      -5.670 -12.790 -37.673  1.00  0.00    -0.365 N 
HETATM    6  C   UNL     1      -6.355 -12.122 -38.773  1.00  0.00     0.118 C 
HETATM    7  C   UNL     1      -5.355 -11.804 -39.901  1.00  0.00     0.066 C 
HETATM    8  C   UNL     1      -4.424 -12.972 -40.274  1.00  0.00     0.221 C 
HETATM    9  C   UNL     1      -3.857 -14.391 -37.025  1.00  0.00     0.115 A 
HETATM   10 CL   UNL     1      -4.176 -14.696 -35.386  1.00  0.00    -0.077 Cl
HETATM   11  H   UNL     1      -6.184 -12.829 -36.792  1.00  0.00     0.162 HD
ENDROOT
BRANCH   6  12
HETATM   12  C   UNL     1      -7.621 -12.838 -39.211  1.00  0.00    -0.035 A 
HETATM   13  C   UNL     1      -8.043 -14.055 -38.656  1.00  0.00     0.012 A 
HETATM   14  C   UNL     1      -9.234 -14.659 -39.070  1.00  0.00     0.037 A 
HETATM   15  C   UNL     1     -10.042 -14.060 -40.036  1.00  0.00     0.068 A 
HETATM   16  C   UNL     1      -9.639 -12.850 -40.597  1.00  0.00     0.037 A 
HETATM   17  C   UNL     1      -8.444 -12.246 -40.186  1.00  0.00     0.012 A 
BRANCH  15  18
HETATM   18  O   UNL     1     -11.182 -14.750 -40.338  1.00  0.00    -0.356 OA
HETATM   19  C   UNL     1     -11.186 -15.481 -41.557  1.00  0.00     0.210 C 
ENDBRANCH  15  18
ENDBRANCH   6  12
BRANCH   8  20
HETATM   20  C   UNL     1      -5.031 -13.957 -41.249  1.00  0.00     0.409 C 
HETATM   21  F   UNL     1      -5.982 -13.426 -42.038  1.00  0.00    -0.169 F 
HETATM   22  F   UNL     1      -4.067 -14.462 -42.063  1.00  0.00    -0.169 F 
HETATM   23  F   UNL     1      -5.579 -15.018 -40.612  1.00  0.00    -0.169 F 
ENDBRANCH   8  20
BRANCH   1  24
HETATM   24  C   UNL     1      -1.735 -15.846 -37.429  1.00  0.00     0.273 C 
HETATM   25  N   UNL     1      -0.550 -15.211 -37.115  1.00  0.00    -0.356 N 
HETATM   26  H   UNL     1      -0.545 -14.204 -37.257  1.00  0.00     0.162 HD
HETATM   27  O   UNL     1      -1.872 -17.064 -37.400  1.00  0.00    -0.266 OA
BRANCH  25  28
HETATM   28  C   UNL     1       0.677 -15.921 -36.845  1.00  0.00     0.122 C 
BRANCH  28  29
HETATM   29  C   UNL     1       1.612 -15.949 -38.052  1.00  0.00     0.015 C 
HETATM   30  C   UNL     1       1.844 -14.567 -38.646  1.00  0.00     0.006 C 
ENDBRANCH  28  29
ENDBRANCH  25  28
ENDBRANCH   1  24
TORSDOF 6
ENDMDL
MODEL 9
REMARK VINA RESULT:      -6.8      4.467      6.432
REMARK  6 active torsions:
REMARK  status: ('A' for Active; 'I' for Inactive)
REMARK    1  A    between atoms: C_2  and  C_3 
REMARK    2  A    between atoms: C_3  and  N_4 
REMARK       I    between atoms: N_4  and  C_5 
REMARK    3  A    between atoms: C_5  and  C_6 
REMARK    4  A    between atoms: C_11  and  C_12 
REMARK    5  A    between atoms: C_15  and  O_16 
REMARK    6  A    between atoms: C_21  and  C_22 
ROOT
HETATM    1  C   UNL     1      -5.387   2.390 -32.706  1.00  0.00     0.170 A 
HETATM    2  N   UNL     1      -4.609   2.934 -33.677  1.00  0.00    -0.163 NA
HETATM    3  N   UNL     1      -3.749   3.711 -32.997  1.00  0.00    -0.238 N 
HETATM    4  C   UNL     1      -3.879   3.634 -31.639  1.00  0.00     0.145 A 
HETATM    5  N   UNL     1      -3.039   4.301 -30.811  1.00  0.00    -0.365 N 
HETATM    6  C   UNL     1      -2.053   5.257 -31.299  1.00  0.00     0.118 C 
HETATM    7  C   UNL     1      -1.597   4.866 -32.718  1.00  0.00     0.066 C 
HETATM    8  C   UNL     1      -2.746   4.507 -33.678  1.00  0.00     0.221 C 
HETATM    9  C   UNL     1      -4.952   2.802 -31.415  1.00  0.00     0.115 A 
HETATM   10 CL   UNL     1      -5.597   2.368 -29.907  1.00  0.00    -0.077 Cl
HETATM   11  H   UNL     1      -3.225   4.332 -29.808  1.00  0.00     0.162 HD
ENDROOT
BRANCH   6  12
HETATM   12  C   UNL     1      -2.489   6.703 -31.133  1.00  0.00    -0.035 A 
HETATM   13  C   UNL     1      -1.709   7.791 -31.553  1.00  0.00     0.012 A 
HETATM   14  C   UNL     1      -2.169   9.103 -31.407  1.00  0.00     0.037 A 
HETATM   15  C   UNL     1      -3.422   9.365 -30.852  1.00  0.00     0.068 A 
HETATM   16  C   UNL     1      -4.209   8.296 -30.430  1.00  0.00     0.037 A 
HETATM   17  C   UNL     1      -3.748   6.981 -30.573  1.00  0.00     0.012 A 
BRANCH  15  18
HETATM   18  O   UNL     1      -3.751  10.689 -30.779  1.00  0.00    -0.356 OA
HETATM   19  C   UNL     1      -3.332  11.392 -29.617  1.00  0.00     0.210 C 
ENDBRANCH  15  18
ENDBRANCH   6  12
BRANCH   8  20
HETATM   20  C   UNL     1      -3.392   5.703 -34.342  1.00  0.00     0.409 C 
HETATM   21  F   UNL     1      -3.858   5.454 -35.579  1.00  0.00    -0.169 F 
HETATM   22  F   UNL     1      -4.440   6.142 -33.596  1.00  0.00    -0.169 F 
HETATM   23  F   UNL     1      -2.535   6.746 -34.435  1.00  0.00    -0.169 F 
ENDBRANCH   8  20
BRANCH   1  24
HETATM   24  C   UNL     1      -6.511   1.505 -33.049  1.00  0.00     0.273 C 
HETATM   25  N   UNL     1      -6.156   0.510 -33.938  1.00  0.00    -0.356 N 
HETATM   26  H   UNL     1      -5.202   0.556 -34.285  1.00  0.00     0.162 HD
HETATM   27  O   UNL     1      -7.649   1.641 -32.612  1.00  0.00    -0.266 OA
BRANCH  25  28
HETATM   28  C   UNL     1      -7.114  -0.388 -34.538  1.00  0.00     0.122 C 
BRANCH  28  29
HETATM   29  C   UNL     1      -6.962  -1.823 -34.038  1.00  0.00     0.015 C 
HETATM   30  C   UNL     1      -5.928  -2.612 -34.829  1.00  0.00     0.006 C 
ENDBRANCH  28  29
ENDBRANCH  25  28
ENDBRANCH   1  24
TORSDOF 6
ENDMDL
MODEL 10
REMARK VINA RESULT:      -6.8      4.194      6.069
REMARK  6 active torsions:
REMARK  status: ('A' for Active; 'I' for Inactive)
REMARK    1  A    between atoms: C_2  and  C_3 
REMARK    2  A    between atoms: C_3  and  N_4 
REMARK       I    between atoms: N_4  and  C_5 
REMARK    3  A    between atoms: C_5  and  C_6 
REMARK    4  A    between atoms: C_11  and  C_12 
REMARK    5  A    between atoms: C_15  and  O_16 
REMARK    6  A    between atoms: C_21  and  C_22 
ROOT
HETATM    1  C   UNL     1      -5.729   2.151 -31.952  1.00  0.00     0.170 A 
HETATM    2  N   UNL     1      -6.069   3.439 -32.218  1.00  0.00    -0.163 NA
HETATM    3  N   UNL     1      -4.909   4.001 -32.600  1.00  0.00    -0.238 N 
HETATM    4  C   UNL     1      -3.861   3.127 -32.670  1.00  0.00     0.145 A 
HETATM    5  N   UNL     1      -2.641   3.523 -33.109  1.00  0.00    -0.365 N 
HETATM    6  C   UNL     1      -2.321   4.919 -33.382  1.00  0.00     0.118 C 
HETATM    7  C   UNL     1      -3.589   5.672 -33.826  1.00  0.00     0.066 C 
HETATM    8  C   UNL     1      -4.828   5.405 -32.952  1.00  0.00     0.221 C 
HETATM    9  C   UNL     1      -4.353   1.920 -32.232  1.00  0.00     0.115 A 
HETATM   10 CL   UNL     1      -3.484   0.471 -32.075  1.00  0.00    -0.077 Cl
HETATM   11  H   UNL     1      -1.841   2.893 -33.039  1.00  0.00     0.162 HD
ENDROOT
BRANCH   6  12
HETATM   12  C   UNL     1      -1.531   5.580 -32.265  1.00  0.00    -0.035 A 
HETATM   13  C   UNL     1      -1.081   4.887 -31.132  1.00  0.00     0.012 A 
HETATM   14  C   UNL     1      -0.328   5.533 -30.147  1.00  0.00     0.037 A 
HETATM   15  C   UNL     1       0.007   6.881 -30.271  1.00  0.00     0.068 A 
HETATM   16  C   UNL     1      -0.431   7.584 -31.391  1.00  0.00     0.037 A 
HETATM   17  C   UNL     1      -1.188   6.939 -32.377  1.00  0.00     0.012 A 
BRANCH  15  18
HETATM   18  O   UNL     1       0.755   7.383 -29.244  1.00  0.00    -0.356 OA
HETATM   19  C   UNL     1       0.089   8.233 -28.320  1.00  0.00     0.210 C 
ENDBRANCH  15  18
ENDBRANCH   6  12
BRANCH   8  20
HETATM   20  C   UNL     1      -4.899   6.260 -31.706  1.00  0.00     0.409 C 
HETATM   21  F   UNL     1      -4.306   7.460 -31.834  1.00  0.00    -0.169 F 
HETATM   22  F   UNL     1      -6.195   6.485 -31.367  1.00  0.00    -0.169 F 
HETATM   23  F   UNL     1      -4.334   5.641 -30.642  1.00  0.00    -0.169 F 
ENDBRANCH   8  20
BRANCH   1  24
HETATM   24  C   UNL     1      -6.728   1.199 -31.440  1.00  0.00     0.273 C 
HETATM   25  N   UNL     1      -7.898   1.207 -32.172  1.00  0.00    -0.356 N 
HETATM   26  H   UNL     1      -7.943   1.901 -32.913  1.00  0.00     0.162 HD
HETATM   27  O   UNL     1      -6.554   0.487 -30.457  1.00  0.00    -0.266 OA
BRANCH  25  28
HETATM   28  C   UNL     1      -9.077   0.472 -31.779  1.00  0.00     0.122 C 
BRANCH  28  29
HETATM   29  C   UNL     1     -10.016   0.205 -32.954  1.00  0.00     0.015 C 
HETATM   30  C   UNL     1      -9.797   1.171 -34.109  1.00  0.00     0.006 C 
ENDBRANCH  28  29
ENDBRANCH  25  28
ENDBRANCH   1  24
TORSDOF 6
ENDMDL
