MODEL 1
REMARK VINA RESULT:      -9.1      0.000      0.000
REMARK  6 active torsions:
REMARK  status: ('A' for Active; 'I' for Inactive)
REMARK    1  A    between atoms: O_2  and  C_3 
REMARK    2  A    between atoms: C_5  and  C_6 
REMARK    3  A    between atoms: C_12  and  C_13 
REMARK       I    between atoms: C_13  and  N_14 
REMARK    4  A    between atoms: N_14  and  C_15 
REMARK    5  A    between atoms: C_15  and  C_16 
REMARK    6  A    between atoms: C_23  and  C_24 
ROOT
HETATM    1  C   UNL     1      -3.927   4.797 -30.792  1.00  0.00     0.118 C 
HETATM    2  N   UNL     1      -4.020   3.358 -31.047  1.00  0.00    -0.365 N 
HETATM    3  C   UNL     1      -5.106   2.793 -31.637  1.00  0.00     0.138 A 
HETATM    4  N   UNL     1      -6.219   3.545 -31.927  1.00  0.00    -0.240 N 
HETATM    5  N   UNL     1      -7.258   2.831 -32.384  1.00  0.00    -0.181 NA
HETATM    6  C   UNL     1      -6.760   1.595 -32.472  1.00  0.00     0.160 A 
HETATM    7  C   UNL     1      -5.414   1.504 -32.035  1.00  0.00     0.096 A 
HETATM    8  C   UNL     1      -6.362   4.957 -31.632  1.00  0.00     0.221 C 
HETATM    9  C   UNL     1      -5.333   5.385 -30.573  1.00  0.00     0.066 C 
HETATM   10  H   UNL     1      -3.314   2.798 -30.571  1.00  0.00     0.161 HD
ENDROOT
BRANCH   7  11
HETATM   11  C   UNL     1      -4.616   0.292 -32.018  1.00  0.00     0.257 C 
HETATM   12  N   UNL     1      -4.401  -0.288 -33.246  1.00  0.00    -0.352 N 
HETATM   13  H   UNL     1      -4.983   0.018 -34.013  1.00  0.00     0.163 HD
HETATM   14  O   UNL     1      -4.196  -0.190 -30.970  1.00  0.00    -0.267 OA
BRANCH  12  15
HETATM   15  C   UNL     1      -3.717  -1.554 -33.368  1.00  0.00     0.161 C 
BRANCH  15  16
HETATM   16  C   UNL     1      -4.610  -2.617 -33.955  1.00  0.00    -0.041 A 
HETATM   17  C   UNL     1      -4.178  -3.950 -34.040  1.00  0.00     0.009 A 
HETATM   18  C   UNL     1      -5.028  -4.944 -34.528  1.00  0.00     0.001 A 
HETATM   19  C   UNL     1      -6.323  -4.621 -34.923  1.00  0.00     0.000 A 
HETATM   20  C   UNL     1      -6.770  -3.304 -34.833  1.00  0.00     0.001 A 
HETATM   21  C   UNL     1      -5.920  -2.307 -34.350  1.00  0.00     0.009 A 
ENDBRANCH  15  16
ENDBRANCH  12  15
ENDBRANCH   7  11
BRANCH   1  22
HETATM   22  C   UNL     1      -3.076   5.515 -31.826  1.00  0.00    -0.033 A 
HETATM   23  C   UNL     1      -2.830   6.893 -31.686  1.00  0.00     0.046 A 
HETATM   24  C   UNL     1      -2.058   7.602 -32.614  1.00  0.00     0.068 A 
HETATM   25  C   UNL     1      -1.501   6.926 -33.698  1.00  0.00     0.037 A 
HETATM   26  C   UNL     1      -1.714   5.556 -33.845  1.00  0.00     0.003 A 
HETATM   27  C   UNL     1      -2.488   4.857 -32.918  1.00  0.00     0.009 A 
BRANCH  24  28
HETATM   28  O   UNL     1      -1.926   8.937 -32.347  1.00  0.00    -0.356 OA
HETATM   29  C   UNL     1      -2.339   9.375 -31.057  1.00  0.00     0.210 C 
ENDBRANCH  24  28
ENDBRANCH   1  22
BRANCH   8  30
HETATM   30  C   UNL     1      -6.320   5.766 -32.910  1.00  0.00     0.409 C 
HETATM   31  F   UNL     1      -5.843   7.015 -32.753  1.00  0.00    -0.169 F 
HETATM   32  F   UNL     1      -5.569   5.166 -33.863  1.00  0.00    -0.169 F 
HETATM   33  F   UNL     1      -7.570   5.876 -33.432  1.00  0.00    -0.169 F 
ENDBRANCH   8  30
TORSDOF 6
ENDMDL
MODEL 2
REMARK VINA RESULT:      -9.0      2.768      7.578
REMARK  6 active torsions:
REMARK  status: ('A' for Active; 'I' for Inactive)
REMARK    1  A    between atoms: O_2  and  C_3 
REMARK    2  A    between atoms: C_5  and  C_6 
REMARK    3  A    between atoms: C_12  and  C_13 
REMARK       I    between atoms: C_13  and  N_14 
REMARK    4  A    between atoms: N_14  and  C_15 
REMARK    5  A    between atoms: C_15  and  C_16 
REMARK    6  A    between atoms: C_23  and  C_24 
ROOT
HETATM    1  C   UNL     1      -6.582   1.452 -34.388  1.00  0.00     0.118 C 
HETATM    2  N   UNL     1      -5.895   2.373 -33.480  1.00  0.00    -0.365 N 
HETATM    3  C   UNL     1      -6.437   2.769 -32.299  1.00  0.00     0.138 A 
HETATM    4  N   UNL     1      -7.715   2.399 -31.952  1.00  0.00    -0.240 N 
HETATM    5  N   UNL     1      -8.162   2.970 -30.825  1.00  0.00    -0.181 NA
HETATM    6  C   UNL     1      -7.103   3.658 -30.392  1.00  0.00     0.160 A 
HETATM    7  C   UNL     1      -5.984   3.563 -31.259  1.00  0.00     0.096 A 
HETATM    8  C   UNL     1      -8.595   1.597 -32.778  1.00  0.00     0.221 C 
HETATM    9  C   UNL     1      -8.107   1.603 -34.236  1.00  0.00     0.066 C 
HETATM   10  H   UNL     1      -5.090   2.846 -33.888  1.00  0.00     0.161 HD
ENDROOT
BRANCH   7  11
HETATM   11  C   UNL     1      -4.699   4.202 -31.046  1.00  0.00     0.257 C 
HETATM   12  N   UNL     1      -3.606   3.476 -31.458  1.00  0.00    -0.352 N 
HETATM   13  H   UNL     1      -3.745   2.494 -31.651  1.00  0.00     0.163 HD
HETATM   14  O   UNL     1      -4.605   5.300 -30.506  1.00  0.00    -0.267 OA
BRANCH  12  15
HETATM   15  C   UNL     1      -2.261   3.941 -31.210  1.00  0.00     0.161 C 
BRANCH  15  16
HETATM   16  C   UNL     1      -1.796   4.901 -32.276  1.00  0.00    -0.041 A 
HETATM   17  C   UNL     1      -2.000   4.617 -33.635  1.00  0.00     0.009 A 
HETATM   18  C   UNL     1      -1.624   5.535 -34.617  1.00  0.00     0.001 A 
HETATM   19  C   UNL     1      -1.052   6.751 -34.253  1.00  0.00     0.000 A 
HETATM   20  C   UNL     1      -0.854   7.051 -32.906  1.00  0.00     0.001 A 
HETATM   21  C   UNL     1      -1.226   6.132 -31.922  1.00  0.00     0.009 A 
ENDBRANCH  15  16
ENDBRANCH  12  15
ENDBRANCH   7  11
BRANCH   1  22
HETATM   22  C   UNL     1      -6.057   0.030 -34.278  1.00  0.00    -0.033 A 
HETATM   23  C   UNL     1      -4.982  -0.248 -33.414  1.00  0.00     0.046 A 
HETATM   24  C   UNL     1      -4.458  -1.539 -33.283  1.00  0.00     0.068 A 
HETATM   25  C   UNL     1      -5.025  -2.584 -34.008  1.00  0.00     0.037 A 
HETATM   26  C   UNL     1      -6.107  -2.336 -34.853  1.00  0.00     0.003 A 
HETATM   27  C   UNL     1      -6.620  -1.045 -34.984  1.00  0.00     0.009 A 
BRANCH  24  28
HETATM   28  O   UNL     1      -3.403  -1.642 -32.418  1.00  0.00    -0.356 OA
HETATM   29  C   UNL     1      -3.084  -2.947 -31.950  1.00  0.00     0.210 C 
ENDBRANCH  24  28
ENDBRANCH   1  22
BRANCH   8  30
HETATM   30  C   UNL     1      -8.762   0.218 -32.179  1.00  0.00     0.409 C 
HETATM   31  F   UNL     1      -7.649  -0.264 -31.595  1.00  0.00    -0.169 F 
HETATM   32  F   UNL     1      -9.748   0.185 -31.253  1.00  0.00    -0.169 F 
HETATM   33  F   UNL     1      -9.123  -0.668 -33.144  1.00  0.00    -0.169 F 
ENDBRANCH   8  30
TORSDOF 6
ENDMDL
MODEL 3
REMARK VINA RESULT:      -8.9      3.461      6.014
REMARK  6 active torsions:
REMARK  status: ('A' for Active; 'I' for Inactive)
REMARK    1  A    between atoms: O_2  and  C_3 
REMARK    2  A    between atoms: C_5  and  C_6 
REMARK    3  A    between atoms: C_12  and  C_13 
REMARK       I    between atoms: C_13  and  N_14 
REMARK    4  A    between atoms: N_14  and  C_15 
REMARK    5  A    between atoms: C_15  and  C_16 
REMARK    6  A    between atoms: C_23  and  C_24 
ROOT
HETATM    1  C   UNL     1      -7.938   2.892 -33.871  1.00  0.00     0.118 C 
HETATM    2  N   UNL     1      -6.694   2.241 -33.456  1.00  0.00    -0.365 N 
HETATM    3  C   UNL     1      -6.105   2.495 -32.259  1.00  0.00     0.138 A 
HETATM    4  N   UNL     1      -6.603   3.465 -31.422  1.00  0.00    -0.240 N 
HETATM    5  N   UNL     1      -5.845   3.696 -30.340  1.00  0.00    -0.181 NA
HETATM    6  C   UNL     1      -4.879   2.781 -30.447  1.00  0.00     0.160 A 
HETATM    7  C   UNL     1      -4.990   1.985 -31.617  1.00  0.00     0.096 A 
HETATM    8  C   UNL     1      -7.750   4.302 -31.717  1.00  0.00     0.221 C 
HETATM    9  C   UNL     1      -8.044   4.286 -33.226  1.00  0.00     0.066 C 
HETATM   10  H   UNL     1      -6.205   1.750 -34.203  1.00  0.00     0.161 HD
ENDROOT
BRANCH   7  11
HETATM   11  C   UNL     1      -4.086   0.915 -31.994  1.00  0.00     0.257 C 
HETATM   12  N   UNL     1      -4.584   0.022 -32.914  1.00  0.00    -0.352 N 
HETATM   13  H   UNL     1      -5.581   0.030 -33.077  1.00  0.00     0.163 HD
HETATM   14  O   UNL     1      -2.969   0.807 -31.497  1.00  0.00    -0.267 OA
BRANCH  12  15
HETATM   15  C   UNL     1      -3.836  -1.151 -33.300  1.00  0.00     0.161 C 
BRANCH  15  16
HETATM   16  C   UNL     1      -4.727  -2.213 -33.892  1.00  0.00    -0.041 A 
HETATM   17  C   UNL     1      -4.248  -3.515 -34.103  1.00  0.00     0.009 A 
HETATM   18  C   UNL     1      -5.092  -4.512 -34.595  1.00  0.00     0.001 A 
HETATM   19  C   UNL     1      -6.426  -4.224 -34.869  1.00  0.00     0.000 A 
HETATM   20  C   UNL     1      -6.919  -2.938 -34.654  1.00  0.00     0.001 A 
HETATM   21  C   UNL     1      -6.075  -1.938 -34.166  1.00  0.00     0.009 A 
ENDBRANCH  15  16
ENDBRANCH  12  15
ENDBRANCH   7  11
BRANCH   1  22
HETATM   22  C   UNL     1      -9.152   1.997 -33.684  1.00  0.00    -0.033 A 
HETATM   23  C   UNL     1     -10.407   2.422 -34.157  1.00  0.00     0.046 A 
HETATM   24  C   UNL     1     -11.556   1.638 -34.004  1.00  0.00     0.068 A 
HETATM   25  C   UNL     1     -11.457   0.394 -33.384  1.00  0.00     0.037 A 
HETATM   26  C   UNL     1     -10.219  -0.058 -32.927  1.00  0.00     0.003 A 
HETATM   27  C   UNL     1      -9.079   0.733 -33.079  1.00  0.00     0.009 A 
BRANCH  24  28
HETATM   28  O   UNL     1     -12.701   2.198 -34.501  1.00  0.00    -0.356 OA
HETATM   29  C   UNL     1     -13.876   1.397 -34.460  1.00  0.00     0.210 C 
ENDBRANCH  24  28
ENDBRANCH   1  22
BRANCH   8  30
HETATM   30  C   UNL     1      -8.922   3.908 -30.846  1.00  0.00     0.409 C 
HETATM   31  F   UNL     1      -8.935   2.607 -30.499  1.00  0.00    -0.169 F 
HETATM   32  F   UNL     1      -8.966   4.628 -29.701  1.00  0.00    -0.169 F 
HETATM   33  F   UNL     1     -10.089   4.161 -31.495  1.00  0.00    -0.169 F 
ENDBRANCH   8  30
TORSDOF 6
ENDMDL
MODEL 4
REMARK VINA RESULT:      -8.9      2.898      8.276
REMARK  6 active torsions:
REMARK  status: ('A' for Active; 'I' for Inactive)
REMARK    1  A    between atoms: O_2  and  C_3 
REMARK    2  A    between atoms: C_5  and  C_6 
REMARK    3  A    between atoms: C_12  and  C_13 
REMARK       I    between atoms: C_13  and  N_14 
REMARK    4  A    between atoms: N_14  and  C_15 
REMARK    5  A    between atoms: C_15  and  C_16 
REMARK    6  A    between atoms: C_23  and  C_24 
ROOT
HETATM    1  C   UNL     1      -7.223   1.237 -34.985  1.00  0.00     0.118 C 
HETATM    2  N   UNL     1      -6.430   2.454 -34.804  1.00  0.00    -0.365 N 
HETATM    3  C   UNL     1      -6.640   3.312 -33.772  1.00  0.00     0.138 A 
HETATM    4  N   UNL     1      -7.688   3.123 -32.903  1.00  0.00    -0.240 N 
HETATM    5  N   UNL     1      -7.850   4.117 -32.017  1.00  0.00    -0.181 NA
HETATM    6  C   UNL     1      -6.817   4.923 -32.274  1.00  0.00     0.160 A 
HETATM    7  C   UNL     1      -6.010   4.470 -33.350  1.00  0.00     0.096 A 
HETATM    8  C   UNL     1      -8.655   2.047 -32.995  1.00  0.00     0.221 C 
HETATM    9  C   UNL     1      -8.636   1.437 -34.407  1.00  0.00     0.066 C 
HETATM   10  H   UNL     1      -5.861   2.711 -35.610  1.00  0.00     0.161 HD
ENDROOT
BRANCH   7  11
HETATM   11  C   UNL     1      -4.825   5.140 -33.851  1.00  0.00     0.257 C 
HETATM   12  N   UNL     1      -4.049   5.754 -32.895  1.00  0.00    -0.352 N 
HETATM   13  H   UNL     1      -4.461   5.898 -31.984  1.00  0.00     0.163 HD
HETATM   14  O   UNL     1      -4.559   5.175 -35.048  1.00  0.00    -0.267 OA
BRANCH  12  15
HETATM   15  C   UNL     1      -2.900   6.548 -33.260  1.00  0.00     0.161 C 
BRANCH  15  16
HETATM   16  C   UNL     1      -1.710   6.246 -32.384  1.00  0.00    -0.041 A 
HETATM   17  C   UNL     1      -0.694   7.196 -32.202  1.00  0.00     0.009 A 
HETATM   18  C   UNL     1       0.375   6.938 -31.343  1.00  0.00     0.001 A 
HETATM   19  C   UNL     1       0.435   5.734 -30.646  1.00  0.00     0.000 A 
HETATM   20  C   UNL     1      -0.574   4.786 -30.808  1.00  0.00     0.001 A 
HETATM   21  C   UNL     1      -1.642   5.040 -31.670  1.00  0.00     0.009 A 
ENDBRANCH  15  16
ENDBRANCH  12  15
ENDBRANCH   7  11
BRANCH   1  22
HETATM   22  C   UNL     1      -6.495  -0.007 -34.500  1.00  0.00    -0.033 A 
HETATM   23  C   UNL     1      -7.015  -1.278 -34.803  1.00  0.00     0.046 A 
HETATM   24  C   UNL     1      -6.386  -2.453 -34.375  1.00  0.00     0.068 A 
HETATM   25  C   UNL     1      -5.202  -2.367 -33.646  1.00  0.00     0.037 A 
HETATM   26  C   UNL     1      -4.656  -1.118 -33.353  1.00  0.00     0.003 A 
HETATM   27  C   UNL     1      -5.292   0.049 -33.779  1.00  0.00     0.009 A 
BRANCH  24  28
HETATM   28  O   UNL     1      -7.025  -3.607 -34.735  1.00  0.00    -0.356 OA
HETATM   29  C   UNL     1      -6.252  -4.576 -35.434  1.00  0.00     0.210 C 
ENDBRANCH  24  28
ENDBRANCH   1  22
BRANCH   8  30
HETATM   30  C   UNL     1      -8.437   1.050 -31.879  1.00  0.00     0.409 C 
HETATM   31  F   UNL     1      -7.164   0.983 -31.445  1.00  0.00    -0.169 F 
HETATM   32  F   UNL     1      -9.215   1.316 -30.804  1.00  0.00    -0.169 F 
HETATM   33  F   UNL     1      -8.785  -0.196 -32.295  1.00  0.00    -0.169 F 
ENDBRANCH   8  30
TORSDOF 6
ENDMDL
MODEL 5
REMARK VINA RESULT:      -8.8      3.918      7.480
REMARK  6 active torsions:
REMARK  status: ('A' for Active; 'I' for Inactive)
REMARK    1  A    between atoms: O_2  and  C_3 
REMARK    2  A    between atoms: C_5  and  C_6 
REMARK    3  A    between atoms: C_12  and  C_13 
REMARK       I    between atoms: C_13  and  N_14 
REMARK    4  A    between atoms: N_14  and  C_15 
REMARK    5  A    between atoms: C_15  and  C_16 
REMARK    6  A    between atoms: C_23  and  C_24 
ROOT
HETATM    1  C   UNL     1      -6.675   0.327 -30.991  1.00  0.00     0.118 C 
HETATM    2  N   UNL     1      -7.802   1.262 -30.987  1.00  0.00    -0.365 N 
HETATM    3  C   UNL     1      -7.636   2.602 -31.136  1.00  0.00     0.138 A 
HETATM    4  N   UNL     1      -6.378   3.152 -31.194  1.00  0.00    -0.240 N 
HETATM    5  N   UNL     1      -6.367   4.493 -31.210  1.00  0.00    -0.181 NA
HETATM    6  C   UNL     1      -7.665   4.805 -31.253  1.00  0.00     0.160 A 
HETATM    7  C   UNL     1      -8.514   3.668 -31.226  1.00  0.00     0.096 A 
HETATM    8  C   UNL     1      -5.142   2.402 -31.087  1.00  0.00     0.221 C 
HETATM    9  C   UNL     1      -5.410   1.025 -30.458  1.00  0.00     0.066 C 
HETATM   10  H   UNL     1      -8.682   0.862 -30.662  1.00  0.00     0.161 HD
ENDROOT
BRANCH   7  11
HETATM   11  C   UNL     1      -9.964   3.702 -31.263  1.00  0.00     0.257 C 
HETATM   12  N   UNL     1     -10.519   3.723 -32.520  1.00  0.00    -0.352 N 
HETATM   13  H   UNL     1      -9.910   3.947 -33.294  1.00  0.00     0.163 HD
HETATM   14  O   UNL     1     -10.635   3.739 -30.236  1.00  0.00    -0.267 OA
BRANCH  12  15
HETATM   15  C   UNL     1     -11.944   3.865 -32.707  1.00  0.00     0.161 C 
BRANCH  15  16
HETATM   16  C   UNL     1     -12.590   2.559 -33.094  1.00  0.00    -0.041 A 
HETATM   17  C   UNL     1     -11.808   1.452 -33.457  1.00  0.00     0.009 A 
HETATM   18  C   UNL     1     -12.406   0.226 -33.755  1.00  0.00     0.001 A 
HETATM   19  C   UNL     1     -13.789   0.088 -33.682  1.00  0.00     0.000 A 
HETATM   20  C   UNL     1     -14.578   1.177 -33.311  1.00  0.00     0.001 A 
HETATM   21  C   UNL     1     -13.982   2.405 -33.017  1.00  0.00     0.009 A 
ENDBRANCH  15  16
ENDBRANCH  12  15
ENDBRANCH   7  11
BRANCH   1  22
HETATM   22  C   UNL     1      -6.512  -0.379 -32.327  1.00  0.00    -0.033 A 
HETATM   23  C   UNL     1      -5.398  -1.212 -32.540  1.00  0.00     0.046 A 
HETATM   24  C   UNL     1      -5.200  -1.879 -33.755  1.00  0.00     0.068 A 
HETATM   25  C   UNL     1      -6.136  -1.734 -34.775  1.00  0.00     0.037 A 
HETATM   26  C   UNL     1      -7.260  -0.932 -34.578  1.00  0.00     0.003 A 
HETATM   27  C   UNL     1      -7.449  -0.265 -33.366  1.00  0.00     0.009 A 
BRANCH  24  28
HETATM   28  O   UNL     1      -4.061  -2.635 -33.811  1.00  0.00    -0.356 OA
HETATM   29  C   UNL     1      -4.214  -3.993 -34.209  1.00  0.00     0.210 C 
ENDBRANCH  24  28
ENDBRANCH   1  22
BRANCH   8  30
HETATM   30  C   UNL     1      -4.442   2.353 -32.427  1.00  0.00     0.409 C 
HETATM   31  F   UNL     1      -3.627   1.292 -32.581  1.00  0.00    -0.169 F 
HETATM   32  F   UNL     1      -5.321   2.337 -33.456  1.00  0.00    -0.169 F 
HETATM   33  F   UNL     1      -3.685   3.468 -32.597  1.00  0.00    -0.169 F 
ENDBRANCH   8  30
TORSDOF 6
ENDMDL
MODEL 6
REMARK VINA RESULT:      -8.7      2.887      8.152
REMARK  6 active torsions:
REMARK  status: ('A' for Active; 'I' for Inactive)
REMARK    1  A    between atoms: O_2  and  C_3 
REMARK    2  A    between atoms: C_5  and  C_6 
REMARK    3  A    between atoms: C_12  and  C_13 
REMARK       I    between atoms: C_13  and  N_14 
REMARK    4  A    between atoms: N_14  and  C_15 
REMARK    5  A    between atoms: C_15  and  C_16 
REMARK    6  A    between atoms: C_23  and  C_24 
ROOT
HETATM    1  C   UNL     1      -6.423   1.326 -34.442  1.00  0.00     0.118 C 
HETATM    2  N   UNL     1      -5.408   2.053 -33.678  1.00  0.00    -0.365 N 
HETATM    3  C   UNL     1      -5.641   2.528 -32.427  1.00  0.00     0.138 A 
HETATM    4  N   UNL     1      -6.891   2.433 -31.860  1.00  0.00    -0.240 N 
HETATM    5  N   UNL     1      -7.005   3.060 -30.680  1.00  0.00    -0.181 NA
HETATM    6  C   UNL     1      -5.763   3.491 -30.445  1.00  0.00     0.160 A 
HETATM    7  C   UNL     1      -4.856   3.178 -31.491  1.00  0.00     0.096 A 
HETATM    8  C   UNL     1      -8.052   1.861 -32.512  1.00  0.00     0.221 C 
HETATM    9  C   UNL     1      -7.831   1.798 -34.032  1.00  0.00     0.066 C 
HETATM   10  H   UNL     1      -4.601   2.351 -34.225  1.00  0.00     0.161 HD
ENDROOT
BRANCH   7  11
HETATM   11  C   UNL     1      -3.446   3.519 -31.510  1.00  0.00     0.257 C 
HETATM   12  N   UNL     1      -3.151   4.773 -31.993  1.00  0.00    -0.352 N 
HETATM   13  H   UNL     1      -3.877   5.258 -32.501  1.00  0.00     0.163 HD
HETATM   14  O   UNL     1      -2.584   2.724 -31.148  1.00  0.00    -0.267 OA
BRANCH  12  15
HETATM   15  C   UNL     1      -1.785   5.205 -32.169  1.00  0.00     0.161 C 
BRANCH  15  16
HETATM   16  C   UNL     1      -1.329   6.094 -31.040  1.00  0.00    -0.041 A 
HETATM   17  C   UNL     1       0.038   6.311 -30.806  1.00  0.00     0.009 A 
HETATM   18  C   UNL     1       0.457   7.182 -29.799  1.00  0.00     0.001 A 
HETATM   19  C   UNL     1      -0.483   7.855 -29.023  1.00  0.00     0.000 A 
HETATM   20  C   UNL     1      -1.844   7.658 -29.252  1.00  0.00     0.001 A 
HETATM   21  C   UNL     1      -2.266   6.784 -30.257  1.00  0.00     0.009 A 
ENDBRANCH  15  16
ENDBRANCH  12  15
ENDBRANCH   7  11
BRANCH   1  22
HETATM   22  C   UNL     1      -6.209  -0.179 -34.406  1.00  0.00    -0.033 A 
HETATM   23  C   UNL     1      -5.098  -0.705 -33.721  1.00  0.00     0.046 A 
HETATM   24  C   UNL     1      -4.853  -2.082 -33.663  1.00  0.00     0.068 A 
HETATM   25  C   UNL     1      -5.739  -2.960 -34.283  1.00  0.00     0.037 A 
HETATM   26  C   UNL     1      -6.859  -2.463 -34.949  1.00  0.00     0.003 A 
HETATM   27  C   UNL     1      -7.094  -1.088 -35.006  1.00  0.00     0.009 A 
BRANCH  24  28
HETATM   28  O   UNL     1      -3.724  -2.433 -32.975  1.00  0.00    -0.356 OA
HETATM   29  C   UNL     1      -3.278  -1.526 -31.973  1.00  0.00     0.210 C 
ENDBRANCH  24  28
ENDBRANCH   1  22
BRANCH   8  30
HETATM   30  C   UNL     1      -8.409   0.536 -31.875  1.00  0.00     0.409 C 
HETATM   31  F   UNL     1      -9.259   0.639 -30.836  1.00  0.00    -0.169 F 
HETATM   32  F   UNL     1      -8.964  -0.319 -32.765  1.00  0.00    -0.169 F 
HETATM   33  F   UNL     1      -7.286  -0.076 -31.416  1.00  0.00    -0.169 F 
ENDBRANCH   8  30
TORSDOF 6
ENDMDL
MODEL 7
REMARK VINA RESULT:      -8.5      2.961      7.890
REMARK  6 active torsions:
REMARK  status: ('A' for Active; 'I' for Inactive)
REMARK    1  A    between atoms: O_2  and  C_3 
REMARK    2  A    between atoms: C_5  and  C_6 
REMARK    3  A    between atoms: C_12  and  C_13 
REMARK       I    between atoms: C_13  and  N_14 
REMARK    4  A    between atoms: N_14  and  C_15 
REMARK    5  A    between atoms: C_15  and  C_16 
REMARK    6  A    between atoms: C_23  and  C_24 
ROOT
HETATM    1  C   UNL     1      -6.637   1.504 -34.431  1.00  0.00     0.118 C 
HETATM    2  N   UNL     1      -6.392   2.650 -33.553  1.00  0.00    -0.365 N 
HETATM    3  C   UNL     1      -7.287   3.050 -32.612  1.00  0.00     0.138 A 
HETATM    4  N   UNL     1      -8.520   2.450 -32.516  1.00  0.00    -0.240 N 
HETATM    5  N   UNL     1      -9.344   3.034 -31.633  1.00  0.00    -0.181 NA
HETATM    6  C   UNL     1      -8.579   3.981 -31.086  1.00  0.00     0.160 A 
HETATM    7  C   UNL     1      -7.275   4.036 -31.642  1.00  0.00     0.096 A 
HETATM    8  C   UNL     1      -8.991   1.385 -33.379  1.00  0.00     0.221 C 
HETATM    9  C   UNL     1      -8.149   1.333 -34.665  1.00  0.00     0.066 C 
HETATM   10  H   UNL     1      -5.610   3.239 -33.835  1.00  0.00     0.161 HD
ENDROOT
BRANCH   7  11
HETATM   11  C   UNL     1      -6.231   4.962 -31.244  1.00  0.00     0.257 C 
HETATM   12  N   UNL     1      -5.671   5.690 -32.267  1.00  0.00    -0.352 N 
HETATM   13  H   UNL     1      -5.845   5.377 -33.211  1.00  0.00     0.163 HD
HETATM   14  O   UNL     1      -5.861   5.056 -30.078  1.00  0.00    -0.267 OA
BRANCH  12  15
HETATM   15  C   UNL     1      -4.549   6.570 -32.034  1.00  0.00     0.161 C 
BRANCH  15  16
HETATM   16  C   UNL     1      -3.419   6.301 -32.994  1.00  0.00    -0.041 A 
HETATM   17  C   UNL     1      -2.263   7.097 -32.982  1.00  0.00     0.009 A 
HETATM   18  C   UNL     1      -1.192   6.810 -33.830  1.00  0.00     0.001 A 
HETATM   19  C   UNL     1      -1.258   5.717 -34.691  1.00  0.00     0.000 A 
HETATM   20  C   UNL     1      -2.395   4.911 -34.705  1.00  0.00     0.001 A 
HETATM   21  C   UNL     1      -3.469   5.199 -33.860  1.00  0.00     0.009 A 
ENDBRANCH  15  16
ENDBRANCH  12  15
ENDBRANCH   7  11
BRANCH   1  22
HETATM   22  C   UNL     1      -5.906   0.254 -33.969  1.00  0.00    -0.033 A 
HETATM   23  C   UNL     1      -5.997  -0.924 -34.733  1.00  0.00     0.046 A 
HETATM   24  C   UNL     1      -5.348  -2.103 -34.347  1.00  0.00     0.068 A 
HETATM   25  C   UNL     1      -4.575  -2.111 -33.189  1.00  0.00     0.037 A 
HETATM   26  C   UNL     1      -4.452  -0.948 -32.428  1.00  0.00     0.003 A 
HETATM   27  C   UNL     1      -5.106   0.222 -32.816  1.00  0.00     0.009 A 
BRANCH  24  28
HETATM   28  O   UNL     1      -5.549  -3.166 -35.185  1.00  0.00    -0.356 OA
HETATM   29  C   UNL     1      -6.637  -4.029 -34.875  1.00  0.00     0.210 C 
ENDBRANCH  24  28
ENDBRANCH   1  22
BRANCH   8  30
HETATM   30  C   UNL     1      -9.052   0.081 -32.616  1.00  0.00     0.409 C 
HETATM   31  F   UNL     1      -8.742  -1.001 -33.355  1.00  0.00    -0.169 F 
HETATM   32  F   UNL     1      -8.228   0.084 -31.543  1.00  0.00    -0.169 F 
HETATM   33  F   UNL     1     -10.305  -0.114 -32.127  1.00  0.00    -0.169 F 
ENDBRANCH   8  30
TORSDOF 6
ENDMDL
MODEL 8
REMARK VINA RESULT:      -8.5      3.386      8.197
REMARK  6 active torsions:
REMARK  status: ('A' for Active; 'I' for Inactive)
REMARK    1  A    between atoms: O_2  and  C_3 
REMARK    2  A    between atoms: C_5  and  C_6 
REMARK    3  A    between atoms: C_12  and  C_13 
REMARK       I    between atoms: C_13  and  N_14 
REMARK    4  A    between atoms: N_14  and  C_15 
REMARK    5  A    between atoms: C_15  and  C_16 
REMARK    6  A    between atoms: C_23  and  C_24 
ROOT
HETATM    1  C   UNL     1      -7.480   1.117 -31.016  1.00  0.00     0.118 C 
HETATM    2  N   UNL     1      -6.556   2.253 -30.980  1.00  0.00    -0.365 N 
HETATM    3  C   UNL     1      -5.323   2.206 -31.549  1.00  0.00     0.138 A 
HETATM    4  N   UNL     1      -4.847   1.039 -32.098  1.00  0.00    -0.240 N 
HETATM    5  N   UNL     1      -3.570   1.107 -32.501  1.00  0.00    -0.181 NA
HETATM    6  C   UNL     1      -3.251   2.385 -32.283  1.00  0.00     0.160 A 
HETATM    7  C   UNL     1      -4.308   3.133 -31.703  1.00  0.00     0.096 A 
HETATM    8  C   UNL     1      -5.564  -0.220 -32.114  1.00  0.00     0.221 C 
HETATM    9  C   UNL     1      -6.689  -0.204 -31.066  1.00  0.00     0.066 C 
HETATM   10  H   UNL     1      -6.821   2.992 -30.330  1.00  0.00     0.161 HD
ENDROOT
BRANCH   7  11
HETATM   11  C   UNL     1      -4.250   4.541 -31.358  1.00  0.00     0.257 C 
HETATM   12  N   UNL     1      -3.446   5.311 -32.165  1.00  0.00    -0.352 N 
HETATM   13  H   UNL     1      -2.793   4.830 -32.767  1.00  0.00     0.163 HD
HETATM   14  O   UNL     1      -4.855   4.994 -30.391  1.00  0.00    -0.267 OA
BRANCH  12  15
HETATM   15  C   UNL     1      -3.210   6.706 -31.875  1.00  0.00     0.161 C 
BRANCH  15  16
HETATM   16  C   UNL     1      -1.905   6.912 -31.148  1.00  0.00    -0.041 A 
HETATM   17  C   UNL     1      -1.888   7.239 -29.783  1.00  0.00     0.009 A 
HETATM   18  C   UNL     1      -0.679   7.370 -29.098  1.00  0.00     0.001 A 
HETATM   19  C   UNL     1       0.526   7.164 -29.764  1.00  0.00     0.000 A 
HETATM   20  C   UNL     1       0.524   6.828 -31.117  1.00  0.00     0.001 A 
HETATM   21  C   UNL     1      -0.684   6.700 -31.805  1.00  0.00     0.009 A 
ENDBRANCH  15  16
ENDBRANCH  12  15
ENDBRANCH   7  11
BRANCH   1  22
HETATM   22  C   UNL     1      -8.550   1.273 -32.084  1.00  0.00    -0.033 A 
HETATM   23  C   UNL     1      -8.567   2.431 -32.885  1.00  0.00     0.046 A 
HETATM   24  C   UNL     1      -9.535   2.625 -33.877  1.00  0.00     0.068 A 
HETATM   25  C   UNL     1     -10.496   1.641 -34.097  1.00  0.00     0.037 A 
HETATM   26  C   UNL     1     -10.484   0.475 -33.331  1.00  0.00     0.003 A 
HETATM   27  C   UNL     1      -9.520   0.291 -32.339  1.00  0.00     0.009 A 
BRANCH  24  28
HETATM   28  O   UNL     1      -9.427   3.808 -34.556  1.00  0.00    -0.356 OA
HETATM   29  C   UNL     1     -10.620   4.325 -35.134  1.00  0.00     0.210 C 
ENDBRANCH  24  28
ENDBRANCH   1  22
BRANCH   8  30
HETATM   30  C   UNL     1      -6.021  -0.544 -33.519  1.00  0.00     0.409 C 
HETATM   31  F   UNL     1      -6.342   0.538 -34.254  1.00  0.00    -0.169 F 
HETATM   32  F   UNL     1      -5.083  -1.234 -34.210  1.00  0.00    -0.169 F 
HETATM   33  F   UNL     1      -7.120  -1.342 -33.479  1.00  0.00    -0.169 F 
ENDBRANCH   8  30
TORSDOF 6
ENDMDL
MODEL 9
REMARK VINA RESULT:      -8.3      3.422      5.255
REMARK  6 active torsions:
REMARK  status: ('A' for Active; 'I' for Inactive)
REMARK    1  A    between atoms: O_2  and  C_3 
REMARK    2  A    between atoms: C_5  and  C_6 
REMARK    3  A    between atoms: C_12  and  C_13 
REMARK       I    between atoms: C_13  and  N_14 
REMARK    4  A    between atoms: N_14  and  C_15 
REMARK    5  A    between atoms: C_15  and  C_16 
REMARK    6  A    between atoms: C_23  and  C_24 
ROOT
HETATM    1  C   UNL     1      -2.772   8.113 -31.165  1.00  0.00     0.118 C 
HETATM    2  N   UNL     1      -3.662   6.996 -31.487  1.00  0.00    -0.365 N 
HETATM    3  C   UNL     1      -3.195   5.791 -31.906  1.00  0.00     0.138 A 
HETATM    4  N   UNL     1      -1.854   5.603 -32.147  1.00  0.00    -0.240 N 
HETATM    5  N   UNL     1      -1.557   4.408 -32.679  1.00  0.00    -0.181 NA
HETATM    6  C   UNL     1      -2.737   3.783 -32.695  1.00  0.00     0.160 A 
HETATM    7  C   UNL     1      -3.801   4.585 -32.210  1.00  0.00     0.096 A 
HETATM    8  C   UNL     1      -0.837   6.626 -32.007  1.00  0.00     0.221 C 
HETATM    9  C   UNL     1      -1.485   8.021 -32.005  1.00  0.00     0.066 C 
HETATM   10  H   UNL     1      -4.645   7.250 -31.572  1.00  0.00     0.161 HD
ENDROOT
BRANCH   7  11
HETATM   11  C   UNL     1      -5.188   4.171 -32.110  1.00  0.00     0.257 C 
HETATM   12  N   UNL     1      -5.413   2.826 -32.288  1.00  0.00    -0.352 N 
HETATM   13  H   UNL     1      -4.668   2.279 -32.695  1.00  0.00     0.163 HD
HETATM   14  O   UNL     1      -6.091   4.978 -31.912  1.00  0.00    -0.267 OA
BRANCH  12  15
HETATM   15  C   UNL     1      -6.754   2.289 -32.322  1.00  0.00     0.161 C 
BRANCH  15  16
HETATM   16  C   UNL     1      -6.845   1.069 -33.204  1.00  0.00    -0.041 A 
HETATM   17  C   UNL     1      -7.476   1.136 -34.456  1.00  0.00     0.009 A 
HETATM   18  C   UNL     1      -7.506   0.022 -35.297  1.00  0.00     0.001 A 
HETATM   19  C   UNL     1      -6.897  -1.167 -34.902  1.00  0.00     0.000 A 
HETATM   20  C   UNL     1      -6.258  -1.243 -33.666  1.00  0.00     0.001 A 
HETATM   21  C   UNL     1      -6.229  -0.131 -32.821  1.00  0.00     0.009 A 
ENDBRANCH  15  16
ENDBRANCH  12  15
ENDBRANCH   7  11
BRANCH   1  22
HETATM   22  C   UNL     1      -2.560   8.273 -29.668  1.00  0.00    -0.033 A 
HETATM   23  C   UNL     1      -3.186   7.379 -28.780  1.00  0.00     0.046 A 
HETATM   24  C   UNL     1      -3.027   7.487 -27.393  1.00  0.00     0.068 A 
HETATM   25  C   UNL     1      -2.213   8.491 -26.874  1.00  0.00     0.037 A 
HETATM   26  C   UNL     1      -1.565   9.375 -27.737  1.00  0.00     0.003 A 
HETATM   27  C   UNL     1      -1.733   9.264 -29.119  1.00  0.00     0.009 A 
BRANCH  24  28
HETATM   28  O   UNL     1      -3.714   6.554 -26.666  1.00  0.00    -0.356 OA
HETATM   29  C   UNL     1      -5.038   6.257 -27.093  1.00  0.00     0.210 C 
ENDBRANCH  24  28
ENDBRANCH   1  22
BRANCH   8  30
HETATM   30  C   UNL     1       0.033   6.338 -30.804  1.00  0.00     0.409 C 
HETATM   31  F   UNL     1       0.590   7.434 -30.255  1.00  0.00    -0.169 F 
HETATM   32  F   UNL     1      -0.651   5.702 -29.825  1.00  0.00    -0.169 F 
HETATM   33  F   UNL     1       1.049   5.505 -31.154  1.00  0.00    -0.169 F 
ENDBRANCH   8  30
TORSDOF 6
ENDMDL
MODEL 10
REMARK VINA RESULT:      -8.3      4.209      7.336
REMARK  6 active torsions:
REMARK  status: ('A' for Active; 'I' for Inactive)
REMARK    1  A    between atoms: O_2  and  C_3 
REMARK    2  A    between atoms: C_5  and  C_6 
REMARK    3  A    between atoms: C_12  and  C_13 
REMARK       I    between atoms: C_13  and  N_14 
REMARK    4  A    between atoms: N_14  and  C_15 
REMARK    5  A    between atoms: C_15  and  C_16 
REMARK    6  A    between atoms: C_23  and  C_24 
ROOT
HETATM    1  C   UNL     1      -6.752   1.129 -30.907  1.00  0.00     0.118 C 
HETATM    2  N   UNL     1      -7.835   1.329 -31.873  1.00  0.00    -0.365 N 
HETATM    3  C   UNL     1      -7.966   2.475 -32.591  1.00  0.00     0.138 A 
HETATM    4  N   UNL     1      -7.136   3.546 -32.363  1.00  0.00    -0.240 N 
HETATM    5  N   UNL     1      -7.465   4.649 -33.051  1.00  0.00    -0.181 NA
HETATM    6  C   UNL     1      -8.485   4.239 -33.809  1.00  0.00     0.160 A 
HETATM    7  C   UNL     1      -8.839   2.884 -33.583  1.00  0.00     0.096 A 
HETATM    8  C   UNL     1      -6.088   3.582 -31.362  1.00  0.00     0.221 C 
HETATM    9  C   UNL     1      -6.319   2.482 -30.313  1.00  0.00     0.066 C 
HETATM   10  H   UNL     1      -8.586   0.643 -31.813  1.00  0.00     0.161 HD
ENDROOT
BRANCH   7  11
HETATM   11  C   UNL     1      -9.904   2.170 -34.262  1.00  0.00     0.257 C 
HETATM   12  N   UNL     1     -10.841   2.963 -34.882  1.00  0.00    -0.352 N 
HETATM   13  H   UNL     1     -10.860   3.942 -34.634  1.00  0.00     0.163 HD
HETATM   14  O   UNL     1      -9.970   0.945 -34.250  1.00  0.00    -0.267 OA
BRANCH  12  15
HETATM   15  C   UNL     1     -12.013   2.392 -35.503  1.00  0.00     0.161 C 
BRANCH  15  16
HETATM   16  C   UNL     1     -13.147   2.237 -34.522  1.00  0.00    -0.041 A 
HETATM   17  C   UNL     1     -13.942   1.081 -34.521  1.00  0.00     0.009 A 
HETATM   18  C   UNL     1     -14.953   0.913 -33.573  1.00  0.00     0.001 A 
HETATM   19  C   UNL     1     -15.173   1.893 -32.608  1.00  0.00     0.000 A 
HETATM   20  C   UNL     1     -14.384   3.042 -32.590  1.00  0.00     0.001 A 
HETATM   21  C   UNL     1     -13.375   3.213 -33.541  1.00  0.00     0.009 A 
ENDBRANCH  15  16
ENDBRANCH  12  15
ENDBRANCH   7  11
BRANCH   1  22
HETATM   22  C   UNL     1      -5.625   0.277 -31.469  1.00  0.00    -0.033 A 
HETATM   23  C   UNL     1      -5.842  -0.477 -32.637  1.00  0.00     0.046 A 
HETATM   24  C   UNL     1      -4.838  -1.282 -33.190  1.00  0.00     0.068 A 
HETATM   25  C   UNL     1      -3.585  -1.325 -32.584  1.00  0.00     0.037 A 
HETATM   26  C   UNL     1      -3.341  -0.568 -31.438  1.00  0.00     0.003 A 
HETATM   27  C   UNL     1      -4.348   0.228 -30.889  1.00  0.00     0.009 A 
BRANCH  24  28
HETATM   28  O   UNL     1      -5.210  -1.966 -34.314  1.00  0.00    -0.356 OA
HETATM   29  C   UNL     1      -6.517  -1.711 -34.816  1.00  0.00     0.210 C 
ENDBRANCH  24  28
ENDBRANCH   1  22
BRANCH   8  30
HETATM   30  C   UNL     1      -4.729   3.540 -32.025  1.00  0.00     0.409 C 
HETATM   31  F   UNL     1      -4.655   2.694 -33.069  1.00  0.00    -0.169 F 
HETATM   32  F   UNL     1      -4.345   4.759 -32.467  1.00  0.00    -0.169 F 
HETATM   33  F   UNL     1      -3.786   3.152 -31.127  1.00  0.00    -0.169 F 
ENDBRANCH   8  30
TORSDOF 6
ENDMDL
