MODEL 1
REMARK VINA RESULT:      -8.6      0.000      0.000
REMARK  3 active torsions:
REMARK  status: ('A' for Active; 'I' for Inactive)
REMARK    1  A    between atoms: C_4  and  N_5 
REMARK       I    between atoms: N_5  and  C_6 
REMARK    2  A    between atoms: C_6  and  C_7 
REMARK    3  A    between atoms: C_7  and  C_8 
ROOT
HETATM    1  C   UNL     1      -4.505   1.788 -31.003  1.00  0.00     0.286 C 
HETATM    2  N   UNL     1      -3.362   2.219 -31.922  1.00  0.00    -0.056 N 
HETATM    3  H   UNL     1      -2.479   1.924 -31.455  1.00  0.00     0.278 HD
HETATM    4  H   UNL     1      -3.402   1.704 -32.810  1.00  0.00     0.278 HD
HETATM    5  C   UNL     1      -3.393   3.701 -32.138  1.00  0.00     0.209 C 
HETATM    6  C   UNL     1      -4.729   4.058 -32.830  1.00  0.00     0.115 C 
HETATM    7  N   UNL     1      -5.888   3.524 -32.117  1.00  0.00    -0.353 N 
HETATM    8  C   UNL     1      -5.873   2.275 -31.528  1.00  0.00     0.249 C 
HETATM    9  O   UNL     1      -6.914   1.649 -31.370  1.00  0.00    -0.271 OA
HETATM   10  C   UNL     1      -2.204   4.145 -32.979  1.00  0.00     0.035 C 
HETATM   11  C   UNL     1      -2.274   5.656 -33.213  1.00  0.00     0.002 C 
HETATM   12  C   UNL     1      -3.612   6.091 -33.816  1.00  0.00     0.002 C 
HETATM   13  C   UNL     1      -4.816   5.572 -33.024  1.00  0.00     0.027 C 
HETATM   14  H   UNL     1      -6.813   3.777 -32.461  1.00  0.00     0.163 HD
ENDROOT
BRANCH   1  15
HETATM   15  C   UNL     1      -4.483   0.276 -30.756  1.00  0.00     0.146 C 
BRANCH  15  16
HETATM   16  C   UNL     1      -3.329  -0.341 -31.506  1.00  0.00     0.224 C 
HETATM   17  N   UNL     1      -3.495  -1.070 -32.637  1.00  0.00    -0.327 N 
HETATM   18  H   UNL     1      -2.634  -1.530 -32.922  1.00  0.00     0.169 HD
HETATM   19  O   UNL     1      -2.184  -0.186 -31.058  1.00  0.00    -0.273 OA
BRANCH  17  20
HETATM   20  C   UNL     1      -4.609  -1.350 -33.451  1.00  0.00     0.035 A 
HETATM   21  C   UNL     1      -5.522  -0.404 -33.915  1.00  0.00     0.036 A 
HETATM   22  C   UNL     1      -6.608  -0.788 -34.721  1.00  0.00    -0.059 A 
HETATM   23  C   UNL     1      -7.561   0.242 -35.256  1.00  0.00     0.048 C 
HETATM   24  C   UNL     1      -6.754  -2.131 -35.085  1.00  0.00     0.013 A 
HETATM   25  C   UNL     1      -5.844  -3.092 -34.640  1.00  0.00    -0.059 A 
HETATM   26  C   UNL     1      -4.765  -2.687 -33.844  1.00  0.00     0.036 A 
HETATM   27  C   UNL     1      -5.991  -4.526 -35.060  1.00  0.00     0.048 C 
ENDBRANCH  17  20
ENDBRANCH  15  16
ENDBRANCH   1  15
TORSDOF 3
ENDMDL
MODEL 2
REMARK VINA RESULT:      -8.5      0.174      1.793
REMARK  3 active torsions:
REMARK  status: ('A' for Active; 'I' for Inactive)
REMARK    1  A    between atoms: C_4  and  N_5 
REMARK       I    between atoms: N_5  and  C_6 
REMARK    2  A    between atoms: C_6  and  C_7 
REMARK    3  A    between atoms: C_7  and  C_8 
ROOT
HETATM    1  C   UNL     1      -4.546   1.763 -31.086  1.00  0.00     0.286 C 
HETATM    2  N   UNL     1      -3.420   2.169 -32.037  1.00  0.00    -0.056 N 
HETATM    3  H   UNL     1      -2.530   1.868 -31.587  1.00  0.00     0.278 HD
HETATM    4  H   UNL     1      -3.488   1.646 -32.918  1.00  0.00     0.278 HD
HETATM    5  C   UNL     1      -3.436   3.649 -32.267  1.00  0.00     0.209 C 
HETATM    6  C   UNL     1      -4.783   4.018 -32.931  1.00  0.00     0.115 C 
HETATM    7  N   UNL     1      -5.932   3.507 -32.185  1.00  0.00    -0.353 N 
HETATM    8  C   UNL     1      -5.920   2.264 -31.583  1.00  0.00     0.249 C 
HETATM    9  O   UNL     1      -6.965   1.654 -31.395  1.00  0.00    -0.271 OA
HETATM   10  C   UNL     1      -2.262   4.069 -33.140  1.00  0.00     0.035 C 
HETATM   11  C   UNL     1      -2.317   5.578 -33.388  1.00  0.00     0.002 C 
HETATM   12  C   UNL     1      -3.663   6.025 -33.964  1.00  0.00     0.002 C 
HETATM   13  C   UNL     1      -4.854   5.531 -33.139  1.00  0.00     0.027 C 
HETATM   14  H   UNL     1      -6.861   3.768 -32.510  1.00  0.00     0.163 HD
ENDROOT
BRANCH   1  15
HETATM   15  C   UNL     1      -4.538   0.254 -30.824  1.00  0.00     0.146 C 
BRANCH  15  16
HETATM   16  C   UNL     1      -3.355  -0.373 -31.518  1.00  0.00     0.224 C 
HETATM   17  N   UNL     1      -3.479  -1.155 -32.618  1.00  0.00    -0.327 N 
HETATM   18  H   UNL     1      -2.603  -1.609 -32.862  1.00  0.00     0.169 HD
HETATM   19  O   UNL     1      -2.225  -0.174 -31.050  1.00  0.00    -0.273 OA
BRANCH  17  20
HETATM   20  C   UNL     1      -4.568  -1.493 -33.445  1.00  0.00     0.035 A 
HETATM   21  C   UNL     1      -4.899  -2.787 -33.846  1.00  0.00     0.036 A 
HETATM   22  C   UNL     1      -6.007  -3.019 -34.679  1.00  0.00    -0.059 A 
HETATM   23  C   UNL     1      -6.387  -4.418 -35.070  1.00  0.00     0.048 C 
HETATM   24  C   UNL     1      -6.802  -1.941 -35.083  1.00  0.00     0.013 A 
HETATM   25  C   UNL     1      -6.494  -0.639 -34.682  1.00  0.00    -0.059 A 
HETATM   26  C   UNL     1      -5.390  -0.430 -33.846  1.00  0.00     0.036 A 
HETATM   27  C   UNL     1      -7.370   0.507 -35.096  1.00  0.00     0.048 C 
ENDBRANCH  17  20
ENDBRANCH  15  16
ENDBRANCH   1  15
TORSDOF 3
ENDMDL
MODEL 3
REMARK VINA RESULT:      -8.4      3.425      6.160
REMARK  3 active torsions:
REMARK  status: ('A' for Active; 'I' for Inactive)
REMARK    1  A    between atoms: C_4  and  N_5 
REMARK       I    between atoms: N_5  and  C_6 
REMARK    2  A    between atoms: C_6  and  C_7 
REMARK    3  A    between atoms: C_7  and  C_8 
ROOT
HETATM    1  C   UNL     1      -8.997   2.641 -32.254  1.00  0.00     0.286 C 
HETATM    2  N   UNL     1      -9.661   3.039 -33.572  1.00  0.00    -0.056 N 
HETATM    3  H   UNL     1      -9.627   4.079 -33.618  1.00  0.00     0.278 HD
HETATM    4  H   UNL     1      -9.110   2.699 -34.369  1.00  0.00     0.278 HD
HETATM    5  C   UNL     1     -11.073   2.541 -33.620  1.00  0.00     0.209 C 
HETATM    6  C   UNL     1     -11.041   0.997 -33.544  1.00  0.00     0.115 C 
HETATM    7  N   UNL     1     -10.263   0.509 -32.406  1.00  0.00    -0.353 N 
HETATM    8  C   UNL     1      -9.090   1.119 -32.006  1.00  0.00     0.249 C 
HETATM    9  O   UNL     1      -8.226   0.481 -31.417  1.00  0.00    -0.271 OA
HETATM   10  C   UNL     1     -11.766   3.013 -34.890  1.00  0.00     0.035 C 
HETATM   11  C   UNL     1     -13.195   2.467 -34.932  1.00  0.00     0.002 C 
HETATM   12  C   UNL     1     -13.241   0.944 -34.771  1.00  0.00     0.002 C 
HETATM   13  C   UNL     1     -12.470   0.454 -33.542  1.00  0.00     0.027 C 
HETATM   14  H   UNL     1     -10.252  -0.495 -32.236  1.00  0.00     0.163 HD
ENDROOT
BRANCH   1  15
HETATM   15  C   UNL     1      -7.556   3.155 -32.178  1.00  0.00     0.146 C 
BRANCH  15  16
HETATM   16  C   UNL     1      -7.006   3.323 -33.572  1.00  0.00     0.224 C 
HETATM   17  N   UNL     1      -6.278   2.364 -34.195  1.00  0.00    -0.327 N 
HETATM   18  H   UNL     1      -5.866   2.703 -35.061  1.00  0.00     0.169 HD
HETATM   19  O   UNL     1      -7.218   4.392 -34.164  1.00  0.00    -0.273 OA
BRANCH  17  20
HETATM   20  C   UNL     1      -5.945   1.037 -33.864  1.00  0.00     0.035 A 
HETATM   21  C   UNL     1      -6.512  -0.099 -34.440  1.00  0.00     0.036 A 
HETATM   22  C   UNL     1      -6.113  -1.385 -34.036  1.00  0.00    -0.059 A 
HETATM   23  C   UNL     1      -6.691  -2.605 -34.693  1.00  0.00     0.048 C 
HETATM   24  C   UNL     1      -5.114  -1.522 -33.065  1.00  0.00     0.013 A 
HETATM   25  C   UNL     1      -4.527  -0.396 -32.484  1.00  0.00    -0.059 A 
HETATM   26  C   UNL     1      -4.933   0.875 -32.907  1.00  0.00     0.036 A 
HETATM   27  C   UNL     1      -3.436  -0.553 -31.465  1.00  0.00     0.048 C 
ENDBRANCH  17  20
ENDBRANCH  15  16
ENDBRANCH   1  15
TORSDOF 3
ENDMDL
MODEL 4
REMARK VINA RESULT:      -8.2      1.540      7.203
REMARK  3 active torsions:
REMARK  status: ('A' for Active; 'I' for Inactive)
REMARK    1  A    between atoms: C_4  and  N_5 
REMARK       I    between atoms: N_5  and  C_6 
REMARK    2  A    between atoms: C_6  and  C_7 
REMARK    3  A    between atoms: C_7  and  C_8 
ROOT
HETATM    1  C   UNL     1      -3.835   0.320 -31.563  1.00  0.00     0.286 C 
HETATM    2  N   UNL     1      -4.741   0.533 -32.776  1.00  0.00    -0.056 N 
HETATM    3  H   UNL     1      -5.453   1.239 -32.493  1.00  0.00     0.278 HD
HETATM    4  H   UNL     1      -4.213   0.954 -33.550  1.00  0.00     0.278 HD
HETATM    5  C   UNL     1      -5.388  -0.756 -33.181  1.00  0.00     0.209 C 
HETATM    6  C   UNL     1      -4.271  -1.748 -33.582  1.00  0.00     0.115 C 
HETATM    7  N   UNL     1      -3.245  -1.882 -32.549  1.00  0.00    -0.353 N 
HETATM    8  C   UNL     1      -2.802  -0.800 -31.814  1.00  0.00     0.249 C 
HETATM    9  O   UNL     1      -1.676  -0.795 -31.331  1.00  0.00    -0.271 OA
HETATM   10  C   UNL     1      -6.360  -0.531 -34.330  1.00  0.00     0.035 C 
HETATM   11  C   UNL     1      -6.984  -1.864 -34.747  1.00  0.00     0.002 C 
HETATM   12  C   UNL     1      -5.928  -2.925 -35.074  1.00  0.00     0.002 C 
HETATM   13  C   UNL     1      -4.893  -3.094 -33.957  1.00  0.00     0.027 C 
HETATM   14  H   UNL     1      -2.511  -2.573 -32.698  1.00  0.00     0.163 HD
ENDROOT
BRANCH   1  15
HETATM   15  C   UNL     1      -3.175   1.631 -31.123  1.00  0.00     0.146 C 
BRANCH  15  16
HETATM   16  C   UNL     1      -4.235   2.679 -30.896  1.00  0.00     0.224 C 
HETATM   17  N   UNL     1      -4.005   4.004 -31.064  1.00  0.00    -0.327 N 
HETATM   18  H   UNL     1      -4.780   4.570 -30.726  1.00  0.00     0.169 HD
HETATM   19  O   UNL     1      -5.359   2.309 -30.526  1.00  0.00    -0.273 OA
BRANCH  17  20
HETATM   20  C   UNL     1      -2.910   4.739 -31.557  1.00  0.00     0.035 A 
HETATM   21  C   UNL     1      -2.039   5.501 -30.779  1.00  0.00     0.036 A 
HETATM   22  C   UNL     1      -0.975   6.203 -31.371  1.00  0.00    -0.059 A 
HETATM   23  C   UNL     1      -0.012   6.984 -30.523  1.00  0.00     0.048 C 
HETATM   24  C   UNL     1      -0.773   6.111 -32.752  1.00  0.00     0.013 A 
HETATM   25  C   UNL     1      -1.628   5.344 -33.547  1.00  0.00    -0.059 A 
HETATM   26  C   UNL     1      -2.677   4.646 -32.937  1.00  0.00     0.036 A 
HETATM   27  C   UNL     1      -1.386   5.227 -35.024  1.00  0.00     0.048 C 
ENDBRANCH  17  20
ENDBRANCH  15  16
ENDBRANCH   1  15
TORSDOF 3
ENDMDL
MODEL 5
REMARK VINA RESULT:      -8.1      1.746      2.585
REMARK  3 active torsions:
REMARK  status: ('A' for Active; 'I' for Inactive)
REMARK    1  A    between atoms: C_4  and  N_5 
REMARK       I    between atoms: N_5  and  C_6 
REMARK    2  A    between atoms: C_6  and  C_7 
REMARK    3  A    between atoms: C_7  and  C_8 
ROOT
HETATM    1  C   UNL     1      -3.599   2.889 -31.284  1.00  0.00     0.286 C 
HETATM    2  N   UNL     1      -2.573   3.570 -32.190  1.00  0.00    -0.056 N 
HETATM    3  H   UNL     1      -1.864   2.846 -32.431  1.00  0.00     0.278 HD
HETATM    4  H   UNL     1      -3.008   3.851 -33.077  1.00  0.00     0.278 HD
HETATM    5  C   UNL     1      -1.943   4.733 -31.487  1.00  0.00     0.209 C 
HETATM    6  C   UNL     1      -3.054   5.758 -31.162  1.00  0.00     0.115 C 
HETATM    7  N   UNL     1      -4.179   5.155 -30.449  1.00  0.00    -0.353 N 
HETATM    8  C   UNL     1      -4.648   3.892 -30.755  1.00  0.00     0.249 C 
HETATM    9  O   UNL     1      -5.813   3.590 -30.532  1.00  0.00    -0.271 OA
HETATM   10  C   UNL     1      -0.857   5.358 -32.352  1.00  0.00     0.035 C 
HETATM   11  C   UNL     1      -0.249   6.561 -31.628  1.00  0.00     0.002 C 
HETATM   12  C   UNL     1      -1.311   7.578 -31.197  1.00  0.00     0.002 C 
HETATM   13  C   UNL     1      -2.453   6.940 -30.401  1.00  0.00     0.027 C 
HETATM   14  H   UNL     1      -4.922   5.774 -30.129  1.00  0.00     0.163 HD
ENDROOT
BRANCH   1  15
HETATM   15  C   UNL     1      -4.245   1.686 -31.979  1.00  0.00     0.146 C 
BRANCH  15  16
HETATM   16  C   UNL     1      -3.485   0.432 -31.628  1.00  0.00     0.224 C 
HETATM   17  N   UNL     1      -3.887  -0.803 -32.017  1.00  0.00    -0.327 N 
HETATM   18  H   UNL     1      -3.344  -1.538 -31.571  1.00  0.00     0.169 HD
HETATM   19  O   UNL     1      -2.458   0.537 -30.942  1.00  0.00    -0.273 OA
BRANCH  17  20
HETATM   20  C   UNL     1      -4.916  -1.262 -32.861  1.00  0.00     0.035 A 
HETATM   21  C   UNL     1      -4.817  -2.346 -33.732  1.00  0.00     0.036 A 
HETATM   22  C   UNL     1      -5.905  -2.722 -34.539  1.00  0.00    -0.059 A 
HETATM   23  C   UNL     1      -5.807  -3.920 -35.440  1.00  0.00     0.048 C 
HETATM   24  C   UNL     1      -7.109  -2.017 -34.442  1.00  0.00     0.013 A 
HETATM   25  C   UNL     1      -7.233  -0.936 -33.568  1.00  0.00    -0.059 A 
HETATM   26  C   UNL     1      -6.140  -0.582 -32.767  1.00  0.00     0.036 A 
HETATM   27  C   UNL     1      -8.538  -0.204 -33.449  1.00  0.00     0.048 C 
ENDBRANCH  17  20
ENDBRANCH  15  16
ENDBRANCH   1  15
TORSDOF 3
ENDMDL
MODEL 6
REMARK VINA RESULT:      -8.1      2.344      3.622
REMARK  3 active torsions:
REMARK  status: ('A' for Active; 'I' for Inactive)
REMARK    1  A    between atoms: C_4  and  N_5 
REMARK       I    between atoms: N_5  and  C_6 
REMARK    2  A    between atoms: C_6  and  C_7 
REMARK    3  A    between atoms: C_7  and  C_8 
ROOT
HETATM    1  C   UNL     1      -6.820   3.393 -33.180  1.00  0.00     0.286 C 
HETATM    2  N   UNL     1      -5.362   2.947 -33.290  1.00  0.00    -0.056 N 
HETATM    3  H   UNL     1      -5.295   2.030 -32.801  1.00  0.00     0.278 HD
HETATM    4  H   UNL     1      -5.115   2.766 -34.271  1.00  0.00     0.278 HD
HETATM    5  C   UNL     1      -4.454   3.961 -32.666  1.00  0.00     0.209 C 
HETATM    6  C   UNL     1      -4.611   5.289 -33.442  1.00  0.00     0.115 C 
HETATM    7  N   UNL     1      -6.007   5.710 -33.553  1.00  0.00    -0.353 N 
HETATM    8  C   UNL     1      -7.029   4.806 -33.767  1.00  0.00     0.249 C 
HETATM    9  O   UNL     1      -8.064   5.157 -34.320  1.00  0.00    -0.271 OA
HETATM   10  C   UNL     1      -3.010   3.478 -32.693  1.00  0.00     0.035 C 
HETATM   11  C   UNL     1      -2.098   4.543 -32.079  1.00  0.00     0.002 C 
HETATM   12  C   UNL     1      -2.270   5.911 -32.746  1.00  0.00     0.002 C 
HETATM   13  C   UNL     1      -3.732   6.364 -32.802  1.00  0.00     0.027 C 
HETATM   14  H   UNL     1      -6.196   6.614 -33.983  1.00  0.00     0.163 HD
ENDROOT
BRANCH   1  15
HETATM   15  C   UNL     1      -7.768   2.361 -33.799  1.00  0.00     0.146 C 
BRANCH  15  16
HETATM   16  C   UNL     1      -8.404   1.539 -32.707  1.00  0.00     0.224 C 
HETATM   17  N   UNL     1      -7.947   0.315 -32.348  1.00  0.00    -0.327 N 
HETATM   18  H   UNL     1      -8.580  -0.154 -31.704  1.00  0.00     0.169 HD
HETATM   19  O   UNL     1      -9.396   2.001 -32.124  1.00  0.00    -0.273 OA
BRANCH  17  20
HETATM   20  C   UNL     1      -6.819  -0.441 -32.720  1.00  0.00     0.035 A 
HETATM   21  C   UNL     1      -6.779  -1.364 -33.765  1.00  0.00     0.036 A 
HETATM   22  C   UNL     1      -5.601  -2.073 -34.053  1.00  0.00    -0.059 A 
HETATM   23  C   UNL     1      -5.550  -3.030 -35.209  1.00  0.00     0.048 C 
HETATM   24  C   UNL     1      -4.447  -1.827 -33.300  1.00  0.00     0.013 A 
HETATM   25  C   UNL     1      -4.463  -0.899 -32.256  1.00  0.00    -0.059 A 
HETATM   26  C   UNL     1      -5.646  -0.197 -31.990  1.00  0.00     0.036 A 
HETATM   27  C   UNL     1      -3.214  -0.620 -31.473  1.00  0.00     0.048 C 
ENDBRANCH  17  20
ENDBRANCH  15  16
ENDBRANCH   1  15
TORSDOF 3
ENDMDL
MODEL 7
REMARK VINA RESULT:      -8.1      1.989      3.123
REMARK  3 active torsions:
REMARK  status: ('A' for Active; 'I' for Inactive)
REMARK    1  A    between atoms: C_4  and  N_5 
REMARK       I    between atoms: N_5  and  C_6 
REMARK    2  A    between atoms: C_6  and  C_7 
REMARK    3  A    between atoms: C_7  and  C_8 
ROOT
HETATM    1  C   UNL     1      -4.966   2.968 -32.228  1.00  0.00     0.286 C 
HETATM    2  N   UNL     1      -4.687   3.904 -33.404  1.00  0.00    -0.056 N 
HETATM    3  H   UNL     1      -4.891   3.361 -34.270  1.00  0.00     0.278 HD
HETATM    4  H   UNL     1      -5.345   4.693 -33.399  1.00  0.00     0.278 HD
HETATM    5  C   UNL     1      -3.264   4.369 -33.379  1.00  0.00     0.209 C 
HETATM    6  C   UNL     1      -3.040   5.160 -32.069  1.00  0.00     0.115 C 
HETATM    7  N   UNL     1      -3.455   4.410 -30.885  1.00  0.00    -0.353 N 
HETATM    8  C   UNL     1      -4.586   3.618 -30.880  1.00  0.00     0.249 C 
HETATM    9  O   UNL     1      -5.185   3.395 -29.835  1.00  0.00    -0.271 OA
HETATM   10  C   UNL     1      -2.958   5.229 -34.597  1.00  0.00     0.035 C 
HETATM   11  C   UNL     1      -1.509   5.717 -34.534  1.00  0.00     0.002 C 
HETATM   12  C   UNL     1      -1.194   6.435 -33.218  1.00  0.00     0.002 C 
HETATM   13  C   UNL     1      -1.581   5.612 -31.986  1.00  0.00     0.027 C 
HETATM   14  H   UNL     1      -3.273   4.826 -29.973  1.00  0.00     0.163 HD
ENDROOT
BRANCH   1  15
HETATM   15  C   UNL     1      -6.414   2.468 -32.245  1.00  0.00     0.146 C 
BRANCH  15  16
HETATM   16  C   UNL     1      -6.876   2.303 -33.670  1.00  0.00     0.224 C 
HETATM   17  N   UNL     1      -6.589   1.205 -34.413  1.00  0.00    -0.327 N 
HETATM   18  H   UNL     1      -6.849   1.329 -35.388  1.00  0.00     0.169 HD
HETATM   19  O   UNL     1      -7.533   3.219 -34.187  1.00  0.00    -0.273 OA
BRANCH  17  20
HETATM   20  C   UNL     1      -5.972  -0.025 -34.118  1.00  0.00     0.035 A 
HETATM   21  C   UNL     1      -4.855  -0.187 -33.300  1.00  0.00     0.036 A 
HETATM   22  C   UNL     1      -4.311  -1.463 -33.071  1.00  0.00    -0.059 A 
HETATM   23  C   UNL     1      -3.137  -1.637 -32.151  1.00  0.00     0.048 C 
HETATM   24  C   UNL     1      -4.917  -2.584 -33.650  1.00  0.00     0.013 A 
HETATM   25  C   UNL     1      -6.043  -2.443 -34.464  1.00  0.00    -0.059 A 
HETATM   26  C   UNL     1      -6.574  -1.164 -34.673  1.00  0.00     0.036 A 
HETATM   27  C   UNL     1      -6.704  -3.653 -35.057  1.00  0.00     0.048 C 
ENDBRANCH  17  20
ENDBRANCH  15  16
ENDBRANCH   1  15
TORSDOF 3
ENDMDL
MODEL 8
REMARK VINA RESULT:      -8.0      3.565      6.240
REMARK  3 active torsions:
REMARK  status: ('A' for Active; 'I' for Inactive)
REMARK    1  A    between atoms: C_4  and  N_5 
REMARK       I    between atoms: N_5  and  C_6 
REMARK    2  A    between atoms: C_6  and  C_7 
REMARK    3  A    between atoms: C_7  and  C_8 
ROOT
HETATM    1  C   UNL     1      -8.613   2.517 -33.899  1.00  0.00     0.286 C 
HETATM    2  N   UNL     1      -9.657   1.638 -33.209  1.00  0.00    -0.056 N 
HETATM    3  H   UNL     1      -9.204   0.714 -33.045  1.00  0.00     0.278 HD
HETATM    4  H   UNL     1      -9.886   2.013 -32.281  1.00  0.00     0.278 HD
HETATM    5  C   UNL     1     -10.875   1.498 -34.068  1.00  0.00     0.209 C 
HETATM    6  C   UNL     1     -11.486   2.904 -34.268  1.00  0.00     0.115 C 
HETATM    7  N   UNL     1     -10.508   3.875 -34.756  1.00  0.00    -0.353 N 
HETATM    8  C   UNL     1      -9.201   3.885 -34.308  1.00  0.00     0.249 C 
HETATM    9  O   UNL     1      -8.546   4.920 -34.324  1.00  0.00    -0.271 OA
HETATM   10  C   UNL     1     -11.879   0.550 -33.426  1.00  0.00     0.035 C 
HETATM   11  C   UNL     1     -13.127   0.448 -34.305  1.00  0.00     0.002 C 
HETATM   12  C   UNL     1     -13.735   1.819 -34.617  1.00  0.00     0.002 C 
HETATM   13  C   UNL     1     -12.709   2.806 -35.182  1.00  0.00     0.027 C 
HETATM   14  H   UNL     1     -10.843   4.808 -34.988  1.00  0.00     0.163 HD
ENDROOT
BRANCH   1  15
HETATM   15  C   UNL     1      -7.351   2.660 -33.042  1.00  0.00     0.146 C 
BRANCH  15  16
HETATM   16  C   UNL     1      -7.569   1.997 -31.706  1.00  0.00     0.224 C 
HETATM   17  N   UNL     1      -7.092   0.762 -31.414  1.00  0.00    -0.327 N 
HETATM   18  H   UNL     1      -7.457   0.414 -30.530  1.00  0.00     0.169 HD
HETATM   19  O   UNL     1      -8.224   2.604 -30.847  1.00  0.00    -0.273 OA
BRANCH  17  20
HETATM   20  C   UNL     1      -6.251  -0.135 -32.098  1.00  0.00     0.035 A 
HETATM   21  C   UNL     1      -6.640  -0.951 -33.159  1.00  0.00     0.036 A 
HETATM   22  C   UNL     1      -5.721  -1.819 -33.773  1.00  0.00    -0.059 A 
HETATM   23  C   UNL     1      -6.134  -2.660 -34.946  1.00  0.00     0.048 C 
HETATM   24  C   UNL     1      -4.393  -1.840 -33.332  1.00  0.00     0.013 A 
HETATM   25  C   UNL     1      -3.980  -1.022 -32.278  1.00  0.00    -0.059 A 
HETATM   26  C   UNL     1      -4.910  -0.159 -31.685  1.00  0.00     0.036 A 
HETATM   27  C   UNL     1      -2.548  -1.029 -31.831  1.00  0.00     0.048 C 
ENDBRANCH  17  20
ENDBRANCH  15  16
ENDBRANCH   1  15
TORSDOF 3
ENDMDL
MODEL 9
REMARK VINA RESULT:      -8.0      1.398      2.608
REMARK  3 active torsions:
REMARK  status: ('A' for Active; 'I' for Inactive)
REMARK    1  A    between atoms: C_4  and  N_5 
REMARK       I    between atoms: N_5  and  C_6 
REMARK    2  A    between atoms: C_6  and  C_7 
REMARK    3  A    between atoms: C_7  and  C_8 
ROOT
HETATM    1  C   UNL     1      -5.720   1.462 -30.730  1.00  0.00     0.286 C 
HETATM    2  N   UNL     1      -5.022   2.485 -31.627  1.00  0.00    -0.056 N 
HETATM    3  H   UNL     1      -4.112   2.706 -31.171  1.00  0.00     0.278 HD
HETATM    4  H   UNL     1      -4.793   2.068 -32.537  1.00  0.00     0.278 HD
HETATM    5  C   UNL     1      -5.866   3.714 -31.776  1.00  0.00     0.209 C 
HETATM    6  C   UNL     1      -7.194   3.305 -32.454  1.00  0.00     0.115 C 
HETATM    7  N   UNL     1      -7.854   2.196 -31.768  1.00  0.00    -0.353 N 
HETATM    8  C   UNL     1      -7.143   1.138 -31.236  1.00  0.00     0.249 C 
HETATM    9  O   UNL     1      -7.666   0.038 -31.109  1.00  0.00    -0.271 OA
HETATM   10  C   UNL     1      -5.135   4.770 -32.593  1.00  0.00     0.035 C 
HETATM   11  C   UNL     1      -6.027   6.002 -32.758  1.00  0.00     0.002 C 
HETATM   12  C   UNL     1      -7.398   5.654 -33.345  1.00  0.00     0.002 C 
HETATM   13  C   UNL     1      -8.102   4.530 -32.580  1.00  0.00     0.027 C 
HETATM   14  H   UNL     1      -8.773   1.912 -32.103  1.00  0.00     0.163 HD
ENDROOT
BRANCH   1  15
HETATM   15  C   UNL     1      -4.866   0.202 -30.552  1.00  0.00     0.146 C 
BRANCH  15  16
HETATM   16  C   UNL     1      -3.665   0.273 -31.460  1.00  0.00     0.224 C 
HETATM   17  N   UNL     1      -3.628  -0.322 -32.677  1.00  0.00    -0.327 N 
HETATM   18  H   UNL     1      -2.696  -0.298 -33.084  1.00  0.00     0.169 HD
HETATM   19  O   UNL     1      -2.665   0.892 -31.066  1.00  0.00    -0.273 OA
BRANCH  17  20
HETATM   20  C   UNL     1      -4.591  -0.996 -33.451  1.00  0.00     0.035 A 
HETATM   21  C   UNL     1      -4.593  -2.365 -33.717  1.00  0.00     0.036 A 
HETATM   22  C   UNL     1      -5.601  -2.942 -34.508  1.00  0.00    -0.059 A 
HETATM   23  C   UNL     1      -5.625  -4.424 -34.752  1.00  0.00     0.048 C 
HETATM   24  C   UNL     1      -6.630  -2.136 -35.009  1.00  0.00     0.013 A 
HETATM   25  C   UNL     1      -6.652  -0.765 -34.745  1.00  0.00    -0.059 A 
HETATM   26  C   UNL     1      -5.642  -0.211 -33.948  1.00  0.00     0.036 A 
HETATM   27  C   UNL     1      -7.775   0.087 -35.261  1.00  0.00     0.048 C 
ENDBRANCH  17  20
ENDBRANCH  15  16
ENDBRANCH   1  15
TORSDOF 3
ENDMDL
MODEL 10
REMARK VINA RESULT:      -7.9      2.382      4.045
REMARK  3 active torsions:
REMARK  status: ('A' for Active; 'I' for Inactive)
REMARK    1  A    between atoms: C_4  and  N_5 
REMARK       I    between atoms: N_5  and  C_6 
REMARK    2  A    between atoms: C_6  and  C_7 
REMARK    3  A    between atoms: C_7  and  C_8 
ROOT
HETATM    1  C   UNL     1      -4.247   4.973 -33.084  1.00  0.00     0.286 C 
HETATM    2  N   UNL     1      -3.259   4.554 -31.995  1.00  0.00    -0.056 N 
HETATM    3  H   UNL     1      -3.829   4.293 -31.163  1.00  0.00     0.278 HD
HETATM    4  H   UNL     1      -2.756   3.703 -32.275  1.00  0.00     0.278 HD
HETATM    5  C   UNL     1      -2.320   5.677 -31.678  1.00  0.00     0.209 C 
HETATM    6  C   UNL     1      -1.516   6.006 -32.957  1.00  0.00     0.115 C 
HETATM    7  N   UNL     1      -2.378   6.243 -34.114  1.00  0.00    -0.353 N 
HETATM    8  C   UNL     1      -3.520   5.500 -34.341  1.00  0.00     0.249 C 
HETATM    9  O   UNL     1      -3.952   5.355 -35.477  1.00  0.00    -0.271 OA
HETATM   10  C   UNL     1      -1.394   5.295 -30.532  1.00  0.00     0.035 C 
HETATM   11  C   UNL     1      -0.424   6.443 -30.247  1.00  0.00     0.002 C 
HETATM   12  C   UNL     1       0.344   6.881 -31.498  1.00  0.00     0.002 C 
HETATM   13  C   UNL     1      -0.577   7.182 -32.683  1.00  0.00     0.027 C 
HETATM   14  H   UNL     1      -1.934   6.541 -34.981  1.00  0.00     0.163 HD
ENDROOT
BRANCH   1  15
HETATM   15  C   UNL     1      -5.228   3.843 -33.413  1.00  0.00     0.146 C 
BRANCH  15  16
HETATM   16  C   UNL     1      -6.013   3.481 -32.178  1.00  0.00     0.224 C 
HETATM   17  N   UNL     1      -6.267   2.198 -31.819  1.00  0.00    -0.327 N 
HETATM   18  H   UNL     1      -6.930   2.144 -31.050  1.00  0.00     0.169 HD
HETATM   19  O   UNL     1      -6.457   4.398 -31.472  1.00  0.00    -0.273 OA
BRANCH  17  20
HETATM   20  C   UNL     1      -5.842   0.954 -32.320  1.00  0.00     0.035 A 
HETATM   21  C   UNL     1      -6.567   0.154 -33.203  1.00  0.00     0.036 A 
HETATM   22  C   UNL     1      -6.054  -1.079 -33.642  1.00  0.00    -0.059 A 
HETATM   23  C   UNL     1      -6.818  -1.914 -34.629  1.00  0.00     0.048 C 
HETATM   24  C   UNL     1      -4.789  -1.492 -33.210  1.00  0.00     0.013 A 
HETATM   25  C   UNL     1      -4.043  -0.700 -32.334  1.00  0.00    -0.059 A 
HETATM   26  C   UNL     1      -4.568   0.529 -31.915  1.00  0.00     0.036 A 
HETATM   27  C   UNL     1      -2.674  -1.136 -31.899  1.00  0.00     0.048 C 
ENDBRANCH  17  20
ENDBRANCH  15  16
ENDBRANCH   1  15
TORSDOF 3
ENDMDL
