MODEL 1
REMARK VINA RESULT:      -8.0      0.000      0.000
REMARK  7 active torsions:
REMARK  status: ('A' for Active; 'I' for Inactive)
REMARK    1  A    between atoms: C_2  and  O_3 
REMARK    2  A    between atoms: O_3  and  C_4 
REMARK    3  A    between atoms: C_4  and  C_5 
REMARK    4  A    between atoms: C_12  and  C_13 
REMARK    5  A    between atoms: C_13  and  N_14 
REMARK    6  A    between atoms: C_19  and  N_20 
REMARK    7  A    between atoms: N_23  and  C_25 
ROOT
HETATM    1  C   UNL     1      -3.266   4.791 -32.963  1.00  0.00     0.089 C 
HETATM    2  S   UNL     1      -4.454   5.602 -33.888  1.00  0.00    -0.063 SA
HETATM    3  C   UNL     1      -5.613   4.405 -33.582  1.00  0.00     0.115 C 
HETATM    4  C   UNL     1      -5.123   3.336 -32.856  1.00  0.00     0.053 C 
HETATM    5  C   UNL     1      -3.803   3.666 -32.333  1.00  0.00    -0.022 C 
HETATM    6  C   UNL     1      -3.073   2.897 -31.267  1.00  0.00     0.051 C 
HETATM    7  N   UNL     1      -6.860   4.557 -34.055  1.00  0.00    -0.224 NA
HETATM    8  C   UNL     1      -7.655   3.518 -33.773  1.00  0.00     0.155 C 
HETATM    9  N   UNL     1      -7.274   2.361 -33.192  1.00  0.00    -0.213 NA
HETATM   10  C   UNL     1      -5.998   2.219 -32.732  1.00  0.00     0.141 C 
ENDROOT
BRANCH  10  11
HETATM   11  N   UNL     1      -5.624   1.004 -32.160  1.00  0.00    -0.362 N 
HETATM   12  C   UNL     1      -4.297   0.470 -32.529  1.00  0.00     0.152 C 
HETATM   13  C   UNL     1      -4.370  -0.533 -33.697  1.00  0.00     0.255 C 
HETATM   14  N   UNL     1      -5.378  -1.645 -33.400  1.00  0.00    -0.064 N 
HETATM   15  H   UNL     1      -5.078  -2.098 -32.525  1.00  0.00     0.280 HD
HETATM   16  C   UNL     1      -6.754  -1.013 -33.129  1.00  0.00     0.255 C 
HETATM   17  C   UNL     1      -6.668  -0.014 -31.955  1.00  0.00     0.152 C 
BRANCH  14  18
HETATM   18  C   UNL     1      -5.403  -2.709 -34.474  1.00  0.00     0.188 C 
HETATM   19  C   UNL     1      -4.653  -3.966 -34.042  1.00  0.00     0.033 C 
HETATM   20  C   UNL     1      -5.174  -5.026 -34.998  1.00  0.00     0.002 C 
HETATM   21  C   UNL     1      -6.630  -4.653 -35.261  1.00  0.00     0.002 C 
HETATM   22  C   UNL     1      -6.815  -3.235 -34.718  1.00  0.00     0.033 C 
ENDBRANCH  14  18
ENDBRANCH  10  11
BRANCH   8  23
HETATM   23  C   UNL     1      -9.133   3.733 -34.083  1.00  0.00     0.314 C 
BRANCH  23  24
HETATM   24  N   UNL     1     -10.069   2.764 -33.354  1.00  0.00    -0.072 N 
HETATM   25  H   UNL     1      -9.432   2.069 -32.929  1.00  0.00     0.279 HD
HETATM   26  C   UNL     1     -10.795   3.404 -32.208  1.00  0.00     0.269 C 
HETATM   27  C   UNL     1     -10.990   2.027 -34.275  1.00  0.00     0.269 C 
ENDBRANCH  23  24
ENDBRANCH   8  23
BRANCH   1  28
HETATM   28  C   UNL     1      -1.892   5.283 -32.876  1.00  0.00     0.300 C 
HETATM   29  O   UNL     1      -1.042   5.102 -33.738  1.00  0.00    -0.259 OA
BRANCH  28  30
HETATM   30  O   UNL     1      -1.707   6.050 -31.765  1.00  0.00    -0.317 OA
BRANCH  30  31
HETATM   31  C   UNL     1      -0.592   5.691 -30.932  1.00  0.00     0.174 C 
HETATM   32  C   UNL     1       0.485   6.756 -31.025  1.00  0.00     0.034 C 
ENDBRANCH  30  31
ENDBRANCH  28  30
ENDBRANCH   1  28
TORSDOF 7
ENDMDL
MODEL 2
REMARK VINA RESULT:      -7.9      3.950      8.502
REMARK  7 active torsions:
REMARK  status: ('A' for Active; 'I' for Inactive)
REMARK    1  A    between atoms: C_2  and  O_3 
REMARK    2  A    between atoms: O_3  and  C_4 
REMARK    3  A    between atoms: C_4  and  C_5 
REMARK    4  A    between atoms: C_12  and  C_13 
REMARK    5  A    between atoms: C_13  and  N_14 
REMARK    6  A    between atoms: C_19  and  N_20 
REMARK    7  A    between atoms: N_23  and  C_25 
ROOT
HETATM    1  C   UNL     1     -11.213   2.304 -33.289  1.00  0.00     0.089 C 
HETATM    2  S   UNL     1     -10.705   0.671 -33.301  1.00  0.00    -0.063 SA
HETATM    3  C   UNL     1      -9.138   1.079 -32.803  1.00  0.00     0.115 C 
HETATM    4  C   UNL     1      -8.931   2.442 -32.696  1.00  0.00     0.053 C 
HETATM    5  C   UNL     1     -10.208   3.138 -32.793  1.00  0.00    -0.022 C 
HETATM    6  C   UNL     1     -10.441   4.579 -32.435  1.00  0.00     0.051 C 
HETATM    7  N   UNL     1      -8.243   0.106 -32.575  1.00  0.00    -0.224 NA
HETATM    8  C   UNL     1      -7.039   0.575 -32.229  1.00  0.00     0.155 C 
HETATM    9  N   UNL     1      -6.665   1.871 -32.215  1.00  0.00    -0.213 NA
HETATM   10  C   UNL     1      -7.585   2.847 -32.466  1.00  0.00     0.141 C 
ENDROOT
BRANCH  10  11
HETATM   11  N   UNL     1      -7.166   4.176 -32.472  1.00  0.00    -0.362 N 
HETATM   12  C   UNL     1      -6.795   4.755 -33.779  1.00  0.00     0.152 C 
HETATM   13  C   UNL     1      -5.281   4.671 -34.052  1.00  0.00     0.255 C 
HETATM   14  N   UNL     1      -4.483   5.285 -32.900  1.00  0.00    -0.064 N 
HETATM   15  H   UNL     1      -4.799   6.260 -32.800  1.00  0.00     0.280 HD
HETATM   16  C   UNL     1      -4.850   4.559 -31.595  1.00  0.00     0.255 C 
HETATM   17  C   UNL     1      -6.368   4.655 -31.331  1.00  0.00     0.152 C 
BRANCH  14  18
HETATM   18  C   UNL     1      -2.997   5.319 -33.176  1.00  0.00     0.188 C 
HETATM   19  C   UNL     1      -2.690   5.082 -34.652  1.00  0.00     0.033 C 
HETATM   20  C   UNL     1      -1.271   5.605 -34.800  1.00  0.00     0.002 C 
HETATM   21  C   UNL     1      -1.171   6.782 -33.834  1.00  0.00     0.002 C 
HETATM   22  C   UNL     1      -2.407   6.707 -32.936  1.00  0.00     0.033 C 
ENDBRANCH  14  18
ENDBRANCH  10  11
BRANCH   8  23
HETATM   23  C   UNL     1      -6.052  -0.480 -31.739  1.00  0.00     0.314 C 
BRANCH  23  24
HETATM   24  N   UNL     1      -4.889  -0.740 -32.702  1.00  0.00    -0.072 N 
HETATM   25  H   UNL     1      -4.593   0.205 -33.002  1.00  0.00     0.279 HD
HETATM   26  C   UNL     1      -3.695  -1.345 -32.026  1.00  0.00     0.269 C 
HETATM   27  C   UNL     1      -5.295  -1.496 -33.928  1.00  0.00     0.269 C 
ENDBRANCH  23  24
ENDBRANCH   8  23
BRANCH   1  28
HETATM   28  C   UNL     1     -12.548   2.697 -33.737  1.00  0.00     0.300 C 
HETATM   29  O   UNL     1     -12.820   3.018 -34.887  1.00  0.00    -0.259 OA
BRANCH  28  30
HETATM   30  O   UNL     1     -13.467   2.566 -32.740  1.00  0.00    -0.317 OA
BRANCH  30  31
HETATM   31  C   UNL     1     -14.572   1.688 -33.013  1.00  0.00     0.174 C 
HETATM   32  C   UNL     1     -15.807   2.168 -32.274  1.00  0.00     0.034 C 
ENDBRANCH  30  31
ENDBRANCH  28  30
ENDBRANCH   1  28
TORSDOF 7
ENDMDL
MODEL 3
REMARK VINA RESULT:      -7.9      4.028      8.389
REMARK  7 active torsions:
REMARK  status: ('A' for Active; 'I' for Inactive)
REMARK    1  A    between atoms: C_2  and  O_3 
REMARK    2  A    between atoms: O_3  and  C_4 
REMARK    3  A    between atoms: C_4  and  C_5 
REMARK    4  A    between atoms: C_12  and  C_13 
REMARK    5  A    between atoms: C_13  and  N_14 
REMARK    6  A    between atoms: C_19  and  N_20 
REMARK    7  A    between atoms: N_23  and  C_25 
ROOT
HETATM    1  C   UNL     1     -11.032   2.215 -33.329  1.00  0.00     0.089 C 
HETATM    2  S   UNL     1     -10.364   0.643 -33.249  1.00  0.00    -0.063 SA
HETATM    3  C   UNL     1      -8.894   1.219 -32.634  1.00  0.00     0.115 C 
HETATM    4  C   UNL     1      -8.835   2.598 -32.551  1.00  0.00     0.053 C 
HETATM    5  C   UNL     1     -10.162   3.158 -32.775  1.00  0.00    -0.022 C 
HETATM    6  C   UNL     1     -10.568   4.575 -32.481  1.00  0.00     0.051 C 
HETATM    7  N   UNL     1      -7.930   0.347 -32.303  1.00  0.00    -0.224 NA
HETATM    8  C   UNL     1      -6.813   0.944 -31.871  1.00  0.00     0.155 C 
HETATM    9  N   UNL     1      -6.574   2.272 -31.864  1.00  0.00    -0.213 NA
HETATM   10  C   UNL     1      -7.562   3.143 -32.220  1.00  0.00     0.141 C 
ENDROOT
BRANCH  10  11
HETATM   11  N   UNL     1      -7.279   4.508 -32.230  1.00  0.00    -0.362 N 
HETATM   12  C   UNL     1      -7.118   5.148 -33.551  1.00  0.00     0.152 C 
HETATM   13  C   UNL     1      -5.644   5.224 -33.994  1.00  0.00     0.255 C 
HETATM   14  N   UNL     1      -4.784   5.891 -32.919  1.00  0.00    -0.064 N 
HETATM   15  H   UNL     1      -5.181   6.827 -32.754  1.00  0.00     0.280 HD
HETATM   16  C   UNL     1      -4.927   5.105 -31.605  1.00  0.00     0.255 C 
HETATM   17  C   UNL     1      -6.407   5.041 -31.170  1.00  0.00     0.152 C 
BRANCH  14  18
HETATM   18  C   UNL     1      -3.350   6.082 -33.358  1.00  0.00     0.188 C 
HETATM   19  C   UNL     1      -2.384   5.267 -32.501  1.00  0.00     0.033 C 
HETATM   20  C   UNL     1      -1.126   5.215 -33.352  1.00  0.00     0.002 C 
HETATM   21  C   UNL     1      -1.616   5.170 -34.796  1.00  0.00     0.002 C 
HETATM   22  C   UNL     1      -3.105   5.519 -34.756  1.00  0.00     0.033 C 
ENDBRANCH  14  18
ENDBRANCH  10  11
BRANCH   8  23
HETATM   23  C   UNL     1      -5.772   0.007 -31.268  1.00  0.00     0.314 C 
BRANCH  23  24
HETATM   24  N   UNL     1      -4.460  -0.056 -32.057  1.00  0.00    -0.072 N 
HETATM   25  H   UNL     1      -4.431   0.841 -32.571  1.00  0.00     0.279 HD
HETATM   26  C   UNL     1      -3.247  -0.058 -31.174  1.00  0.00     0.269 C 
HETATM   27  C   UNL     1      -4.432  -1.158 -33.070  1.00  0.00     0.269 C 
ENDBRANCH  23  24
ENDBRANCH   8  23
BRANCH   1  28
HETATM   28  C   UNL     1     -12.355   2.460 -33.899  1.00  0.00     0.300 C 
HETATM   29  O   UNL     1     -12.551   2.802 -35.059  1.00  0.00    -0.259 OA
BRANCH  28  30
HETATM   30  O   UNL     1     -13.344   2.165 -33.009  1.00  0.00    -0.317 OA
BRANCH  30  31
HETATM   31  C   UNL     1     -14.430   1.371 -33.515  1.00  0.00     0.174 C 
HETATM   32  C   UNL     1     -13.992  -0.075 -33.653  1.00  0.00     0.034 C 
ENDBRANCH  30  31
ENDBRANCH  28  30
ENDBRANCH   1  28
TORSDOF 7
ENDMDL
MODEL 4
REMARK VINA RESULT:      -7.8      3.487      8.318
REMARK  7 active torsions:
REMARK  status: ('A' for Active; 'I' for Inactive)
REMARK    1  A    between atoms: C_2  and  O_3 
REMARK    2  A    between atoms: O_3  and  C_4 
REMARK    3  A    between atoms: C_4  and  C_5 
REMARK    4  A    between atoms: C_12  and  C_13 
REMARK    5  A    between atoms: C_13  and  N_14 
REMARK    6  A    between atoms: C_19  and  N_20 
REMARK    7  A    between atoms: N_23  and  C_25 
ROOT
HETATM    1  C   UNL     1      -9.605   3.067 -34.149  1.00  0.00     0.089 C 
HETATM    2  S   UNL     1      -9.218   1.415 -33.937  1.00  0.00    -0.063 SA
HETATM    3  C   UNL     1      -7.681   1.778 -33.325  1.00  0.00     0.115 C 
HETATM    4  C   UNL     1      -7.387   3.130 -33.341  1.00  0.00     0.053 C 
HETATM    5  C   UNL     1      -8.595   3.888 -33.641  1.00  0.00    -0.022 C 
HETATM    6  C   UNL     1      -8.756   5.371 -33.463  1.00  0.00     0.051 C 
HETATM    7  N   UNL     1      -6.885   0.784 -32.905  1.00  0.00    -0.224 NA
HETATM    8  C   UNL     1      -5.689   1.213 -32.487  1.00  0.00     0.155 C 
HETATM    9  N   UNL     1      -5.225   2.478 -32.570  1.00  0.00    -0.213 NA
HETATM   10  C   UNL     1      -6.044   3.474 -33.016  1.00  0.00     0.141 C 
ENDROOT
BRANCH  10  11
HETATM   11  N   UNL     1      -5.531   4.766 -33.118  1.00  0.00    -0.362 N 
HETATM   12  C   UNL     1      -4.648   5.047 -34.268  1.00  0.00     0.152 C 
HETATM   13  C   UNL     1      -3.156   4.888 -33.917  1.00  0.00     0.255 C 
HETATM   14  N   UNL     1      -2.791   5.726 -32.689  1.00  0.00    -0.064 N 
HETATM   15  H   UNL     1      -3.030   6.703 -32.909  1.00  0.00     0.280 HD
HETATM   16  C   UNL     1      -3.683   5.301 -31.511  1.00  0.00     0.255 C 
HETATM   17  C   UNL     1      -5.175   5.469 -31.874  1.00  0.00     0.152 C 
BRANCH  14  18
HETATM   18  C   UNL     1      -1.313   5.682 -32.375  1.00  0.00     0.188 C 
HETATM   19  C   UNL     1      -0.748   7.077 -32.117  1.00  0.00     0.033 C 
HETATM   20  C   UNL     1       0.555   6.794 -31.388  1.00  0.00     0.002 C 
HETATM   21  C   UNL     1       0.286   5.547 -30.550  1.00  0.00     0.002 C 
HETATM   22  C   UNL     1      -1.035   4.966 -31.055  1.00  0.00     0.033 C 
ENDBRANCH  14  18
ENDBRANCH  10  11
BRANCH   8  23
HETATM   23  C   UNL     1      -4.832   0.162 -31.789  1.00  0.00     0.314 C 
BRANCH  23  24
HETATM   24  N   UNL     1      -3.748  -0.451 -32.682  1.00  0.00    -0.072 N 
HETATM   25  H   UNL     1      -3.429   0.338 -33.270  1.00  0.00     0.279 HD
HETATM   26  C   UNL     1      -2.540  -0.897 -31.912  1.00  0.00     0.269 C 
HETATM   27  C   UNL     1      -4.267  -1.515 -33.597  1.00  0.00     0.269 C 
ENDBRANCH  23  24
ENDBRANCH   8  23
BRANCH   1  28
HETATM   28  C   UNL     1     -10.859   3.488 -34.772  1.00  0.00     0.300 C 
HETATM   29  O   UNL     1     -10.930   4.068 -35.848  1.00  0.00    -0.259 OA
BRANCH  28  30
HETATM   30  O   UNL     1     -11.938   3.069 -34.053  1.00  0.00    -0.317 OA
BRANCH  30  31
HETATM   31  C   UNL     1     -13.035   2.541 -34.815  1.00  0.00     0.174 C 
HETATM   32  C   UNL     1     -13.080   1.030 -34.677  1.00  0.00     0.034 C 
ENDBRANCH  30  31
ENDBRANCH  28  30
ENDBRANCH   1  28
TORSDOF 7
ENDMDL
MODEL 5
REMARK VINA RESULT:      -7.8      1.727      5.481
REMARK  7 active torsions:
REMARK  status: ('A' for Active; 'I' for Inactive)
REMARK    1  A    between atoms: C_2  and  O_3 
REMARK    2  A    between atoms: O_3  and  C_4 
REMARK    3  A    between atoms: C_4  and  C_5 
REMARK    4  A    between atoms: C_12  and  C_13 
REMARK    5  A    between atoms: C_13  and  N_14 
REMARK    6  A    between atoms: C_19  and  N_20 
REMARK    7  A    between atoms: N_23  and  C_25 
ROOT
HETATM    1  C   UNL     1      -3.649   4.760 -31.988  1.00  0.00     0.089 C 
HETATM    2  S   UNL     1      -3.092   3.171 -31.691  1.00  0.00    -0.063 SA
HETATM    3  C   UNL     1      -4.603   2.495 -32.049  1.00  0.00     0.115 C 
HETATM    4  C   UNL     1      -5.578   3.438 -32.317  1.00  0.00     0.053 C 
HETATM    5  C   UNL     1      -4.960   4.749 -32.471  1.00  0.00    -0.022 C 
HETATM    6  C   UNL     1      -5.631   5.964 -33.049  1.00  0.00     0.051 C 
HETATM    7  N   UNL     1      -4.752   1.162 -32.032  1.00  0.00    -0.224 NA
HETATM    8  C   UNL     1      -6.005   0.773 -32.293  1.00  0.00     0.155 C 
HETATM    9  N   UNL     1      -7.074   1.584 -32.440  1.00  0.00    -0.213 NA
HETATM   10  C   UNL     1      -6.906   2.937 -32.438  1.00  0.00     0.141 C 
ENDROOT
BRANCH  10  11
HETATM   11  N   UNL     1      -8.030   3.751 -32.565  1.00  0.00    -0.362 N 
HETATM   12  C   UNL     1      -9.115   3.553 -31.582  1.00  0.00     0.152 C 
HETATM   13  C   UNL     1     -10.210   2.601 -32.098  1.00  0.00     0.255 C 
HETATM   14  N   UNL     1     -10.740   3.064 -33.457  1.00  0.00    -0.064 N 
HETATM   15  H   UNL     1     -11.095   4.022 -33.332  1.00  0.00     0.280 HD
HETATM   16  C   UNL     1      -9.568   3.144 -34.449  1.00  0.00     0.255 C 
HETATM   17  C   UNL     1      -8.479   4.104 -33.922  1.00  0.00     0.152 C 
BRANCH  14  18
HETATM   18  C   UNL     1     -11.892   2.217 -33.951  1.00  0.00     0.188 C 
HETATM   19  C   UNL     1     -11.740   0.757 -33.533  1.00  0.00     0.033 C 
HETATM   20  C   UNL     1     -13.146   0.202 -33.695  1.00  0.00     0.002 C 
HETATM   21  C   UNL     1     -14.079   1.355 -33.334  1.00  0.00     0.002 C 
HETATM   22  C   UNL     1     -13.210   2.613 -33.289  1.00  0.00     0.033 C 
ENDBRANCH  14  18
ENDBRANCH  10  11
BRANCH   8  23
HETATM   23  C   UNL     1      -6.184  -0.726 -32.512  1.00  0.00     0.314 C 
BRANCH  23  24
HETATM   24  N   UNL     1      -5.687  -1.220 -33.873  1.00  0.00    -0.072 N 
HETATM   25  H   UNL     1      -5.462  -0.353 -34.391  1.00  0.00     0.279 HD
HETATM   26  C   UNL     1      -4.398  -1.983 -33.783  1.00  0.00     0.269 C 
HETATM   27  C   UNL     1      -6.732  -1.953 -34.655  1.00  0.00     0.269 C 
ENDBRANCH  23  24
ENDBRANCH   8  23
BRANCH   1  28
HETATM   28  C   UNL     1      -2.799   5.927 -31.762  1.00  0.00     0.300 C 
HETATM   29  O   UNL     1      -2.996   6.762 -30.888  1.00  0.00    -0.259 OA
BRANCH  28  30
HETATM   30  O   UNL     1      -1.708   5.916 -32.579  1.00  0.00    -0.317 OA
BRANCH  30  31
HETATM   31  C   UNL     1      -1.935   6.324 -33.937  1.00  0.00     0.174 C 
HETATM   32  C   UNL     1      -1.474   5.235 -34.888  1.00  0.00     0.034 C 
ENDBRANCH  30  31
ENDBRANCH  28  30
ENDBRANCH   1  28
TORSDOF 7
ENDMDL
MODEL 6
REMARK VINA RESULT:      -7.8      3.226      7.615
REMARK  7 active torsions:
REMARK  status: ('A' for Active; 'I' for Inactive)
REMARK    1  A    between atoms: C_2  and  O_3 
REMARK    2  A    between atoms: O_3  and  C_4 
REMARK    3  A    between atoms: C_4  and  C_5 
REMARK    4  A    between atoms: C_12  and  C_13 
REMARK    5  A    between atoms: C_13  and  N_14 
REMARK    6  A    between atoms: C_19  and  N_20 
REMARK    7  A    between atoms: N_23  and  C_25 
ROOT
HETATM    1  C   UNL     1      -5.010  -1.204 -33.730  1.00  0.00     0.089 C 
HETATM    2  S   UNL     1      -6.513  -0.839 -34.461  1.00  0.00    -0.063 SA
HETATM    3  C   UNL     1      -6.530   0.726 -33.815  1.00  0.00     0.115 C 
HETATM    4  C   UNL     1      -5.463   0.988 -32.975  1.00  0.00     0.053 C 
HETATM    5  C   UNL     1      -4.479  -0.082 -33.090  1.00  0.00    -0.022 C 
HETATM    6  C   UNL     1      -3.069  -0.024 -32.572  1.00  0.00     0.051 C 
HETATM    7  N   UNL     1      -7.533   1.560 -34.129  1.00  0.00    -0.224 NA
HETATM    8  C   UNL     1      -7.439   2.745 -33.516  1.00  0.00     0.155 C 
HETATM    9  N   UNL     1      -6.530   3.084 -32.577  1.00  0.00    -0.213 NA
HETATM   10  C   UNL     1      -5.527   2.217 -32.258  1.00  0.00     0.141 C 
ENDROOT
BRANCH  10  11
HETATM   11  N   UNL     1      -4.618   2.581 -31.266  1.00  0.00    -0.362 N 
HETATM   12  C   UNL     1      -5.163   3.272 -30.080  1.00  0.00     0.152 C 
HETATM   13  C   UNL     1      -5.072   4.805 -30.199  1.00  0.00     0.255 C 
HETATM   14  N   UNL     1      -3.641   5.245 -30.517  1.00  0.00    -0.064 N 
HETATM   15  H   UNL     1      -3.040   4.884 -29.763  1.00  0.00     0.280 HD
HETATM   16  C   UNL     1      -3.187   4.563 -31.818  1.00  0.00     0.255 C 
HETATM   17  C   UNL     1      -3.279   3.027 -31.685  1.00  0.00     0.152 C 
BRANCH  14  18
HETATM   18  C   UNL     1      -3.486   6.749 -30.537  1.00  0.00     0.188 C 
HETATM   19  C   UNL     1      -2.379   7.215 -29.594  1.00  0.00     0.033 C 
HETATM   20  C   UNL     1      -2.071   8.619 -30.090  1.00  0.00     0.002 C 
HETATM   21  C   UNL     1      -2.275   8.567 -31.601  1.00  0.00     0.002 C 
HETATM   22  C   UNL     1      -2.996   7.251 -31.893  1.00  0.00     0.033 C 
ENDBRANCH  14  18
ENDBRANCH  10  11
BRANCH   8  23
HETATM   23  C   UNL     1      -8.418   3.807 -34.007  1.00  0.00     0.314 C 
BRANCH  23  24
HETATM   24  N   UNL     1      -9.859   3.307 -34.148  1.00  0.00    -0.072 N 
HETATM   25  H   UNL     1      -9.757   2.328 -34.467  1.00  0.00     0.279 HD
HETATM   26  C   UNL     1     -10.583   3.233 -32.836  1.00  0.00     0.269 C 
HETATM   27  C   UNL     1     -10.641   4.042 -35.191  1.00  0.00     0.269 C 
ENDBRANCH  23  24
ENDBRANCH   8  23
BRANCH   1  28
HETATM   28  C   UNL     1      -4.414  -2.535 -33.823  1.00  0.00     0.300 C 
HETATM   29  O   UNL     1      -3.740  -3.049 -32.939  1.00  0.00    -0.259 OA
BRANCH  28  30
HETATM   30  O   UNL     1      -4.784  -3.168 -34.972  1.00  0.00    -0.317 OA
BRANCH  30  31
HETATM   31  C   UNL     1      -5.326  -4.489 -34.816  1.00  0.00     0.174 C 
HETATM   32  C   UNL     1      -6.768  -4.515 -35.287  1.00  0.00     0.034 C 
ENDBRANCH  30  31
ENDBRANCH  28  30
ENDBRANCH   1  28
TORSDOF 7
ENDMDL
MODEL 7
REMARK VINA RESULT:      -7.6     16.174     18.562
REMARK  7 active torsions:
REMARK  status: ('A' for Active; 'I' for Inactive)
REMARK    1  A    between atoms: C_2  and  O_3 
REMARK    2  A    between atoms: O_3  and  C_4 
REMARK    3  A    between atoms: C_4  and  C_5 
REMARK    4  A    between atoms: C_12  and  C_13 
REMARK    5  A    between atoms: C_13  and  N_14 
REMARK    6  A    between atoms: C_19  and  N_20 
REMARK    7  A    between atoms: N_23  and  C_25 
ROOT
HETATM    1  C   UNL     1      -0.407 -14.524 -39.419  1.00  0.00     0.089 C 
HETATM    2  S   UNL     1      -0.517 -15.502 -40.818  1.00  0.00    -0.063 SA
HETATM    3  C   UNL     1      -2.024 -14.856 -41.241  1.00  0.00     0.115 C 
HETATM    4  C   UNL     1      -2.520 -13.960 -40.311  1.00  0.00     0.053 C 
HETATM    5  C   UNL     1      -1.475 -13.627 -39.350  1.00  0.00    -0.022 C 
HETATM    6  C   UNL     1      -1.524 -12.484 -38.376  1.00  0.00     0.051 C 
HETATM    7  N   UNL     1      -2.616 -15.248 -42.379  1.00  0.00    -0.224 NA
HETATM    8  C   UNL     1      -3.817 -14.688 -42.563  1.00  0.00     0.155 C 
HETATM    9  N   UNL     1      -4.473 -13.906 -41.681  1.00  0.00    -0.213 NA
HETATM   10  C   UNL     1      -3.861 -13.531 -40.520  1.00  0.00     0.141 C 
ENDROOT
BRANCH  10  11
HETATM   11  N   UNL     1      -4.572 -12.745 -39.614  1.00  0.00    -0.362 N 
HETATM   12  C   UNL     1      -5.097 -13.420 -38.410  1.00  0.00     0.152 C 
HETATM   13  C   UNL     1      -6.558 -13.876 -38.582  1.00  0.00     0.255 C 
HETATM   14  N   UNL     1      -7.446 -12.712 -39.025  1.00  0.00    -0.064 N 
HETATM   15  H   UNL     1      -7.357 -11.976 -38.310  1.00  0.00     0.280 HD
HETATM   16  C   UNL     1      -6.892 -12.132 -40.337  1.00  0.00     0.255 C 
HETATM   17  C   UNL     1      -5.429 -11.674 -40.151  1.00  0.00     0.152 C 
BRANCH  14  18
HETATM   18  C   UNL     1      -8.908 -13.092 -39.102  1.00  0.00     0.188 C 
HETATM   19  C   UNL     1      -9.725 -12.045 -39.854  1.00  0.00     0.033 C 
HETATM   20  C   UNL     1     -10.994 -12.795 -40.223  1.00  0.00     0.002 C 
HETATM   21  C   UNL     1     -10.553 -14.234 -40.478  1.00  0.00     0.002 C 
HETATM   22  C   UNL     1      -9.124 -14.346 -39.945  1.00  0.00     0.033 C 
ENDBRANCH  14  18
ENDBRANCH  10  11
BRANCH   8  23
HETATM   23  C   UNL     1      -4.432 -14.917 -43.940  1.00  0.00     0.314 C 
BRANCH  23  24
HETATM   24  N   UNL     1      -5.015 -16.320 -44.136  1.00  0.00    -0.072 N 
HETATM   25  H   UNL     1      -4.302 -16.949 -43.730  1.00  0.00     0.279 HD
HETATM   26  C   UNL     1      -6.263 -16.551 -43.336  1.00  0.00     0.269 C 
HETATM   27  C   UNL     1      -5.181 -16.696 -45.575  1.00  0.00     0.269 C 
ENDBRANCH  23  24
ENDBRANCH   8  23
BRANCH   1  28
HETATM   28  C   UNL     1       0.702 -14.655 -38.476  1.00  0.00     0.300 C 
HETATM   29  O   UNL     1       1.848 -14.294 -38.709  1.00  0.00    -0.259 OA
BRANCH  28  30
HETATM   30  O   UNL     1       0.279 -15.136 -37.273  1.00  0.00    -0.317 OA
BRANCH  30  31
HETATM   31  C   UNL     1       0.022 -16.549 -37.216  1.00  0.00     0.174 C 
HETATM   32  C   UNL     1       1.228 -17.271 -36.643  1.00  0.00     0.034 C 
ENDBRANCH  30  31
ENDBRANCH  28  30
ENDBRANCH   1  28
TORSDOF 7
ENDMDL
MODEL 8
REMARK VINA RESULT:      -7.5      3.687      6.470
REMARK  7 active torsions:
REMARK  status: ('A' for Active; 'I' for Inactive)
REMARK    1  A    between atoms: C_2  and  O_3 
REMARK    2  A    between atoms: O_3  and  C_4 
REMARK    3  A    between atoms: C_4  and  C_5 
REMARK    4  A    between atoms: C_12  and  C_13 
REMARK    5  A    between atoms: C_13  and  N_14 
REMARK    6  A    between atoms: C_19  and  N_20 
REMARK    7  A    between atoms: N_23  and  C_25 
ROOT
HETATM    1  C   UNL     1     -11.132   4.583 -34.054  1.00  0.00     0.089 C 
HETATM    2  S   UNL     1      -9.984   5.846 -33.947  1.00  0.00    -0.063 SA
HETATM    3  C   UNL     1      -8.681   4.764 -33.987  1.00  0.00     0.115 C 
HETATM    4  C   UNL     1      -9.067   3.436 -33.999  1.00  0.00     0.053 C 
HETATM    5  C   UNL     1     -10.503   3.349 -34.236  1.00  0.00    -0.022 C 
HETATM    6  C   UNL     1     -11.247   2.096 -34.606  1.00  0.00     0.051 C 
HETATM    7  N   UNL     1      -7.427   5.240 -33.988  1.00  0.00    -0.224 NA
HETATM    8  C   UNL     1      -6.502   4.274 -33.981  1.00  0.00     0.155 C 
HETATM    9  N   UNL     1      -6.736   2.950 -33.858  1.00  0.00    -0.213 NA
HETATM   10  C   UNL     1      -8.019   2.486 -33.843  1.00  0.00     0.141 C 
ENDROOT
BRANCH  10  11
HETATM   11  N   UNL     1      -8.233   1.117 -33.688  1.00  0.00    -0.362 N 
HETATM   12  C   UNL     1      -7.782   0.508 -32.421  1.00  0.00     0.152 C 
HETATM   13  C   UNL     1      -6.374  -0.107 -32.532  1.00  0.00     0.255 C 
HETATM   14  N   UNL     1      -6.296  -1.088 -33.704  1.00  0.00    -0.064 N 
HETATM   15  H   UNL     1      -7.016  -1.807 -33.543  1.00  0.00     0.280 HD
HETATM   16  C   UNL     1      -6.680  -0.350 -34.998  1.00  0.00     0.255 C 
HETATM   17  C   UNL     1      -8.094   0.257 -34.876  1.00  0.00     0.152 C 
BRANCH  14  18
HETATM   18  C   UNL     1      -4.962  -1.794 -33.783  1.00  0.00     0.188 C 
HETATM   19  C   UNL     1      -4.372  -2.046 -32.398  1.00  0.00     0.033 C 
HETATM   20  C   UNL     1      -3.335  -3.127 -32.654  1.00  0.00     0.002 C 
HETATM   21  C   UNL     1      -3.917  -3.988 -33.771  1.00  0.00     0.002 C 
HETATM   22  C   UNL     1      -5.102  -3.209 -34.343  1.00  0.00     0.033 C 
ENDBRANCH  14  18
ENDBRANCH  10  11
BRANCH   8  23
HETATM   23  C   UNL     1      -5.070   4.748 -34.210  1.00  0.00     0.314 C 
BRANCH  23  24
HETATM   24  N   UNL     1      -4.242   4.873 -32.928  1.00  0.00    -0.072 N 
HETATM   25  H   UNL     1      -4.911   4.646 -32.172  1.00  0.00     0.279 HD
HETATM   26  C   UNL     1      -3.156   3.843 -32.831  1.00  0.00     0.269 C 
HETATM   27  C   UNL     1      -3.738   6.260 -32.682  1.00  0.00     0.269 C 
ENDBRANCH  23  24
ENDBRANCH   8  23
BRANCH   1  28
HETATM   28  C   UNL     1     -12.568   4.842 -33.977  1.00  0.00     0.300 C 
HETATM   29  O   UNL     1     -13.223   5.354 -34.876  1.00  0.00    -0.259 OA
BRANCH  28  30
HETATM   30  O   UNL     1     -13.102   4.353 -32.822  1.00  0.00    -0.317 OA
BRANCH  30  31
HETATM   31  C   UNL     1     -12.769   5.070 -31.622  1.00  0.00     0.174 C 
HETATM   32  C   UNL     1     -12.913   4.157 -30.419  1.00  0.00     0.034 C 
ENDBRANCH  30  31
ENDBRANCH  28  30
ENDBRANCH   1  28
TORSDOF 7
ENDMDL
MODEL 9
REMARK VINA RESULT:      -7.5     15.995     18.001
REMARK  7 active torsions:
REMARK  status: ('A' for Active; 'I' for Inactive)
REMARK    1  A    between atoms: C_2  and  O_3 
REMARK    2  A    between atoms: O_3  and  C_4 
REMARK    3  A    between atoms: C_4  and  C_5 
REMARK    4  A    between atoms: C_12  and  C_13 
REMARK    5  A    between atoms: C_13  and  N_14 
REMARK    6  A    between atoms: C_19  and  N_20 
REMARK    7  A    between atoms: N_23  and  C_25 
ROOT
HETATM    1  C   UNL     1      -8.293 -13.147 -39.271  1.00  0.00     0.089 C 
HETATM    2  S   UNL     1      -8.591 -13.649 -37.663  1.00  0.00    -0.063 SA
HETATM    3  C   UNL     1      -6.971 -13.436 -37.218  1.00  0.00     0.115 C 
HETATM    4  C   UNL     1      -6.154 -13.067 -38.272  1.00  0.00     0.053 C 
HETATM    5  C   UNL     1      -6.975 -12.711 -39.424  1.00  0.00    -0.022 C 
HETATM    6  C   UNL     1      -6.487 -11.988 -40.647  1.00  0.00     0.051 C 
HETATM    7  N   UNL     1      -6.601 -13.645 -35.946  1.00  0.00    -0.224 NA
HETATM    8  C   UNL     1      -5.289 -13.480 -35.749  1.00  0.00     0.155 C 
HETATM    9  N   UNL     1      -4.364 -13.252 -36.706  1.00  0.00    -0.213 NA
HETATM   10  C   UNL     1      -4.757 -13.058 -37.998  1.00  0.00     0.141 C 
ENDROOT
BRANCH  10  11
HETATM   11  N   UNL     1      -3.779 -12.851 -38.970  1.00  0.00    -0.362 N 
HETATM   12  C   UNL     1      -3.339 -14.034 -39.738  1.00  0.00     0.152 C 
HETATM   13  C   UNL     1      -2.075 -14.683 -39.144  1.00  0.00     0.255 C 
HETATM   14  N   UNL     1      -0.957 -13.653 -38.978  1.00  0.00    -0.064 N 
HETATM   15  H   UNL     1      -0.777 -13.250 -39.908  1.00  0.00     0.280 HD
HETATM   16  C   UNL     1      -1.461 -12.508 -38.083  1.00  0.00     0.255 C 
HETATM   17  C   UNL     1      -2.725 -11.863 -38.691  1.00  0.00     0.152 C 
BRANCH  14  18
HETATM   18  C   UNL     1       0.337 -14.271 -38.497  1.00  0.00     0.188 C 
HETATM   19  C   UNL     1       0.090 -15.369 -37.466  1.00  0.00     0.033 C 
HETATM   20  C   UNL     1       1.396 -16.147 -37.469  1.00  0.00     0.002 C 
HETATM   21  C   UNL     1       1.898 -16.087 -38.909  1.00  0.00     0.002 C 
HETATM   22  C   UNL     1       1.055 -15.025 -39.615  1.00  0.00     0.033 C 
ENDBRANCH  14  18
ENDBRANCH  10  11
BRANCH   8  23
HETATM   23  C   UNL     1      -4.849 -13.480 -34.288  1.00  0.00     0.314 C 
BRANCH  23  24
HETATM   24  N   UNL     1      -4.975 -14.843 -33.600  1.00  0.00    -0.072 N 
HETATM   25  H   UNL     1      -5.855 -15.236 -33.977  1.00  0.00     0.279 HD
HETATM   26  C   UNL     1      -3.896 -15.803 -34.005  1.00  0.00     0.269 C 
HETATM   27  C   UNL     1      -5.125 -14.744 -32.115  1.00  0.00     0.269 C 
ENDBRANCH  23  24
ENDBRANCH   8  23
BRANCH   1  28
HETATM   28  C   UNL     1      -9.338 -13.181 -40.293  1.00  0.00     0.300 C 
HETATM   29  O   UNL     1     -10.061 -12.232 -40.567  1.00  0.00    -0.259 OA
BRANCH  28  30
HETATM   30  O   UNL     1      -9.339 -14.366 -40.966  1.00  0.00    -0.317 OA
BRANCH  30  31
HETATM   31  C   UNL     1     -10.403 -15.275 -40.638  1.00  0.00     0.174 C 
HETATM   32  C   UNL     1     -11.387 -15.354 -41.791  1.00  0.00     0.034 C 
ENDBRANCH  30  31
ENDBRANCH  28  30
ENDBRANCH   1  28
TORSDOF 7
ENDMDL
MODEL 10
REMARK VINA RESULT:      -7.2      3.161      6.179
REMARK  7 active torsions:
REMARK  status: ('A' for Active; 'I' for Inactive)
REMARK    1  A    between atoms: C_2  and  O_3 
REMARK    2  A    between atoms: O_3  and  C_4 
REMARK    3  A    between atoms: C_4  and  C_5 
REMARK    4  A    between atoms: C_12  and  C_13 
REMARK    5  A    between atoms: C_13  and  N_14 
REMARK    6  A    between atoms: C_19  and  N_20 
REMARK    7  A    between atoms: N_23  and  C_25 
ROOT
HETATM    1  C   UNL     1      -3.915   1.515 -31.753  1.00  0.00     0.089 C 
HETATM    2  S   UNL     1      -3.420   2.991 -32.463  1.00  0.00    -0.063 SA
HETATM    3  C   UNL     1      -4.901   3.738 -32.119  1.00  0.00     0.115 C 
HETATM    4  C   UNL     1      -5.826   2.887 -31.542  1.00  0.00     0.053 C 
HETATM    5  C   UNL     1      -5.170   1.643 -31.154  1.00  0.00    -0.022 C 
HETATM    6  C   UNL     1      -5.756   0.599 -30.247  1.00  0.00     0.051 C 
HETATM    7  N   UNL     1      -5.076   5.031 -32.426  1.00  0.00    -0.224 NA
HETATM    8  C   UNL     1      -6.304   5.476 -32.135  1.00  0.00     0.155 C 
HETATM    9  N   UNL     1      -7.337   4.726 -31.697  1.00  0.00    -0.213 NA
HETATM   10  C   UNL     1      -7.144   3.408 -31.405  1.00  0.00     0.141 C 
ENDROOT
BRANCH  10  11
HETATM   11  N   UNL     1      -8.234   2.651 -30.979  1.00  0.00    -0.362 N 
HETATM   12  C   UNL     1      -8.562   1.447 -31.769  1.00  0.00     0.152 C 
HETATM   13  C   UNL     1      -9.645   1.718 -32.832  1.00  0.00     0.255 C 
HETATM   14  N   UNL     1     -10.886   2.349 -32.198  1.00  0.00    -0.064 N 
HETATM   15  H   UNL     1     -11.218   1.699 -31.472  1.00  0.00     0.280 HD
HETATM   16  C   UNL     1     -10.477   3.649 -31.485  1.00  0.00     0.255 C 
HETATM   17  C   UNL     1      -9.395   3.364 -30.420  1.00  0.00     0.152 C 
BRANCH  14  18
HETATM   18  C   UNL     1     -12.015   2.533 -33.189  1.00  0.00     0.188 C 
HETATM   19  C   UNL     1     -11.566   3.321 -34.417  1.00  0.00     0.033 C 
HETATM   20  C   UNL     1     -12.638   2.999 -35.445  1.00  0.00     0.002 C 
HETATM   21  C   UNL     1     -13.055   1.560 -35.157  1.00  0.00     0.002 C 
HETATM   22  C   UNL     1     -12.459   1.204 -33.795  1.00  0.00     0.033 C 
ENDBRANCH  14  18
ENDBRANCH  10  11
BRANCH   8  23
HETATM   23  C   UNL     1      -6.489   6.986 -32.250  1.00  0.00     0.314 C 
BRANCH  23  24
HETATM   24  N   UNL     1      -6.747   7.685 -30.912  1.00  0.00    -0.072 N 
HETATM   25  H   UNL     1      -7.510   7.134 -30.482  1.00  0.00     0.279 HD
HETATM   26  C   UNL     1      -5.588   7.580 -29.965  1.00  0.00     0.269 C 
HETATM   27  C   UNL     1      -7.236   9.091 -31.064  1.00  0.00     0.269 C 
ENDBRANCH  23  24
ENDBRANCH   8  23
BRANCH   1  28
HETATM   28  C   UNL     1      -3.069   0.324 -31.791  1.00  0.00     0.300 C 
HETATM   29  O   UNL     1      -2.325  -0.019 -30.881  1.00  0.00    -0.259 OA
BRANCH  28  30
HETATM   30  O   UNL     1      -3.288  -0.407 -32.920  1.00  0.00    -0.317 OA
BRANCH  30  31
HETATM   31  C   UNL     1      -4.081  -1.594 -32.758  1.00  0.00     0.174 C 
HETATM   32  C   UNL     1      -5.359  -1.476 -33.569  1.00  0.00     0.034 C 
ENDBRANCH  30  31
ENDBRANCH  28  30
ENDBRANCH   1  28
TORSDOF 7
ENDMDL
