MODEL 1
REMARK VINA RESULT:      -9.2      0.000      0.000
REMARK  6 active torsions:
REMARK  status: ('A' for Active; 'I' for Inactive)
REMARK    1  A    between atoms: C_9  and  C_10 
REMARK    2  A    between atoms: C_10  and  N_11 
REMARK       I    between atoms: N_11  and  C_12 
REMARK    3  A    between atoms: N_11  and  C_22 
REMARK    4  A    between atoms: C_12  and  C_13 
REMARK    5  A    between atoms: C_15  and  O_16 
REMARK    6  A    between atoms: C_22  and  C_23 
ROOT
HETATM    1  N   UNL     1      -4.690   2.971 -32.558  1.00  0.00    -0.341 N 
HETATM    2  C   UNL     1      -3.735   3.814 -31.959  1.00  0.00     0.254 C 
HETATM    3  O   UNL     1      -3.470   3.804 -30.758  1.00  0.00    -0.267 OA
ENDROOT
BRANCH   1   4
HETATM    4  C   UNL     1      -5.270   1.953 -31.677  1.00  0.00     0.170 C 
BRANCH   4   5
HETATM    5  C   UNL     1      -4.923   0.556 -32.118  1.00  0.00     0.029 A 
HETATM    6  C   UNL     1      -3.580   0.019 -31.740  1.00  0.00     0.253 A 
HETATM    7  N   UNL     1      -3.271  -1.247 -32.168  1.00  0.00    -0.322 N 
HETATM    8  O   UNL     1      -2.768   0.670 -31.085  1.00  0.00    -0.268 OA
HETATM    9  C   UNL     1      -4.107  -2.018 -32.983  1.00  0.00     0.045 A 
HETATM   10  H   UNL     1      -2.363  -1.595 -31.895  1.00  0.00     0.169 HD
HETATM   11  C   UNL     1      -5.346  -1.501 -33.371  1.00  0.00    -0.008 A 
HETATM   12  C   UNL     1      -3.692  -3.274 -33.421  1.00  0.00     0.031 A 
HETATM   13  C   UNL     1      -6.166  -2.245 -34.226  1.00  0.00     0.020 A 
HETATM   14  C   UNL     1      -5.744  -0.182 -32.888  1.00  0.00     0.028 A 
HETATM   15  C   UNL     1      -5.746  -3.494 -34.703  1.00  0.00    -0.061 A 
HETATM   16  C   UNL     1      -6.628  -4.290 -35.619  1.00  0.00     0.048 C 
HETATM   17  C   UNL     1      -4.515  -4.012 -34.276  1.00  0.00     0.009 A 
ENDBRANCH   4   5
ENDBRANCH   1   4
BRANCH   1  18
HETATM   18  C   UNL     1      -5.544   3.529 -33.631  1.00  0.00     0.158 C 
BRANCH  18  19
HETATM   19  C   UNL     1      -6.965   3.971 -33.243  1.00  0.00     0.139 C 
HETATM   20  O   UNL     1      -7.308   5.207 -33.912  1.00  0.00    -0.384 OA
HETATM   21  C   UNL     1      -8.676   5.139 -34.337  1.00  0.00     0.168 C 
HETATM   22  C   UNL     1      -9.254   3.865 -33.760  1.00  0.00     0.029 C 
HETATM   23  C   UNL     1      -8.036   2.980 -33.676  1.00  0.00     0.035 C 
ENDBRANCH  18  19
ENDBRANCH   1  18
BRANCH   2  24
HETATM   24  C   UNL     1      -2.982   4.766 -32.813  1.00  0.00     0.034 A 
HETATM   25  C   UNL     1      -2.858   6.096 -32.388  1.00  0.00     0.053 A 
HETATM   26  C   UNL     1      -2.127   7.003 -33.151  1.00  0.00     0.069 A 
HETATM   27  C   UNL     1      -1.527   6.574 -34.340  1.00  0.00     0.037 A 
HETATM   28  C   UNL     1      -1.624   5.242 -34.750  1.00  0.00     0.004 A 
HETATM   29  C   UNL     1      -2.340   4.330 -33.977  1.00  0.00     0.017 A 
BRANCH  26  30
HETATM   30  O   UNL     1      -1.930   8.325 -32.856  1.00  0.00    -0.356 OA
HETATM   31  C   UNL     1      -2.253   8.735 -31.532  1.00  0.00     0.210 C 
ENDBRANCH  26  30
ENDBRANCH   2  24
TORSDOF 6
ENDMDL
MODEL 2
REMARK VINA RESULT:      -8.9      1.738      2.419
REMARK  6 active torsions:
REMARK  status: ('A' for Active; 'I' for Inactive)
REMARK    1  A    between atoms: C_9  and  C_10 
REMARK    2  A    between atoms: C_10  and  N_11 
REMARK       I    between atoms: N_11  and  C_12 
REMARK    3  A    between atoms: N_11  and  C_22 
REMARK    4  A    between atoms: C_12  and  C_13 
REMARK    5  A    between atoms: C_15  and  O_16 
REMARK    6  A    between atoms: C_22  and  C_23 
ROOT
HETATM    1  N   UNL     1      -4.606   3.487 -31.329  1.00  0.00    -0.341 N 
HETATM    2  C   UNL     1      -3.221   3.355 -31.543  1.00  0.00     0.254 C 
HETATM    3  O   UNL     1      -2.544   2.434 -31.091  1.00  0.00    -0.267 OA
ENDROOT
BRANCH   1   4
HETATM    4  C   UNL     1      -5.246   2.364 -30.637  1.00  0.00     0.170 C 
BRANCH   4   5
HETATM    5  C   UNL     1      -5.751   1.320 -31.596  1.00  0.00     0.029 A 
HETATM    6  C   UNL     1      -7.207   1.332 -31.936  1.00  0.00     0.253 A 
HETATM    7  N   UNL     1      -7.655   0.361 -32.795  1.00  0.00    -0.322 N 
HETATM    8  O   UNL     1      -7.988   2.158 -31.469  1.00  0.00    -0.268 OA
HETATM    9  C   UNL     1      -6.846  -0.661 -33.304  1.00  0.00     0.045 A 
HETATM   10  H   UNL     1      -8.639   0.391 -33.019  1.00  0.00     0.169 HD
HETATM   11  C   UNL     1      -5.493  -0.697 -32.955  1.00  0.00    -0.008 A 
HETATM   12  C   UNL     1      -7.394  -1.643 -34.127  1.00  0.00     0.031 A 
HETATM   13  C   UNL     1      -4.690  -1.744 -33.419  1.00  0.00     0.020 A 
HETATM   14  C   UNL     1      -4.958   0.352 -32.093  1.00  0.00     0.028 A 
HETATM   15  C   UNL     1      -5.236  -2.758 -34.218  1.00  0.00    -0.061 A 
HETATM   16  C   UNL     1      -4.371  -3.878 -34.716  1.00  0.00     0.048 C 
HETATM   17  C   UNL     1      -6.587  -2.686 -34.586  1.00  0.00     0.009 A 
ENDBRANCH   4   5
ENDBRANCH   1   4
BRANCH   1  18
HETATM   18  C   UNL     1      -5.155   4.844 -31.104  1.00  0.00     0.158 C 
BRANCH  18  19
HETATM   19  C   UNL     1      -6.040   5.439 -32.214  1.00  0.00     0.139 C 
HETATM   20  O   UNL     1      -6.105   4.535 -33.342  1.00  0.00    -0.384 OA
HETATM   21  C   UNL     1      -7.445   4.531 -33.854  1.00  0.00     0.168 C 
HETATM   22  C   UNL     1      -8.206   5.605 -33.107  1.00  0.00     0.029 C 
HETATM   23  C   UNL     1      -7.486   5.633 -31.782  1.00  0.00     0.035 C 
ENDBRANCH  18  19
ENDBRANCH   1  18
BRANCH   2  24
HETATM   24  C   UNL     1      -2.524   4.368 -32.374  1.00  0.00     0.034 A 
HETATM   25  C   UNL     1      -1.635   5.253 -31.748  1.00  0.00     0.053 A 
HETATM   26  C   UNL     1      -0.939   6.191 -32.508  1.00  0.00     0.069 A 
HETATM   27  C   UNL     1      -1.142   6.239 -33.891  1.00  0.00     0.037 A 
HETATM   28  C   UNL     1      -2.003   5.338 -34.521  1.00  0.00     0.004 A 
HETATM   29  C   UNL     1      -2.686   4.388 -33.764  1.00  0.00     0.017 A 
BRANCH  26  30
HETATM   30  O   UNL     1      -0.049   7.112 -32.027  1.00  0.00    -0.356 OA
HETATM   31  C   UNL     1       0.443   6.891 -30.710  1.00  0.00     0.210 C 
ENDBRANCH  26  30
ENDBRANCH   2  24
TORSDOF 6
ENDMDL
MODEL 3
REMARK VINA RESULT:      -8.7      2.800      7.538
REMARK  6 active torsions:
REMARK  status: ('A' for Active; 'I' for Inactive)
REMARK    1  A    between atoms: C_9  and  C_10 
REMARK    2  A    between atoms: C_10  and  N_11 
REMARK       I    between atoms: N_11  and  C_12 
REMARK    3  A    between atoms: N_11  and  C_22 
REMARK    4  A    between atoms: C_12  and  C_13 
REMARK    5  A    between atoms: C_15  and  O_16 
REMARK    6  A    between atoms: C_22  and  C_23 
ROOT
HETATM    1  N   UNL     1      -6.450   1.492 -32.492  1.00  0.00    -0.341 N 
HETATM    2  C   UNL     1      -6.417   0.237 -31.855  1.00  0.00     0.254 C 
HETATM    3  O   UNL     1      -7.071  -0.037 -30.850  1.00  0.00    -0.267 OA
ENDROOT
BRANCH   1   4
HETATM    4  C   UNL     1      -7.438   2.439 -31.967  1.00  0.00     0.170 C 
BRANCH   4   5
HETATM    5  C   UNL     1      -8.632   2.574 -32.872  1.00  0.00     0.029 A 
HETATM    6  C   UNL     1      -8.672   3.744 -33.804  1.00  0.00     0.253 A 
HETATM    7  N   UNL     1      -9.777   3.864 -34.607  1.00  0.00    -0.322 N 
HETATM    8  O   UNL     1      -7.771   4.578 -33.855  1.00  0.00    -0.268 OA
HETATM    9  C   UNL     1     -10.878   3.003 -34.550  1.00  0.00     0.045 A 
HETATM   10  H   UNL     1      -9.781   4.655 -35.235  1.00  0.00     0.169 HD
HETATM   11  C   UNL     1     -10.860   1.932 -33.652  1.00  0.00    -0.008 A 
HETATM   12  C   UNL     1     -11.986   3.229 -35.364  1.00  0.00     0.031 A 
HETATM   13  C   UNL     1     -11.977   1.097 -33.553  1.00  0.00     0.020 A 
HETATM   14  C   UNL     1      -9.678   1.728 -32.820  1.00  0.00     0.028 A 
HETATM   15  C   UNL     1     -13.113   1.335 -34.340  1.00  0.00    -0.061 A 
HETATM   16  C   UNL     1     -14.309   0.435 -34.233  1.00  0.00     0.048 C 
HETATM   17  C   UNL     1     -13.100   2.392 -35.260  1.00  0.00     0.009 A 
ENDBRANCH   4   5
ENDBRANCH   1   4
BRANCH   1  18
HETATM   18  C   UNL     1      -5.184   2.038 -33.033  1.00  0.00     0.158 C 
BRANCH  18  19
HETATM   19  C   UNL     1      -4.628   3.312 -32.374  1.00  0.00     0.139 C 
HETATM   20  O   UNL     1      -3.461   2.999 -31.579  1.00  0.00    -0.384 OA
HETATM   21  C   UNL     1      -2.489   4.039 -31.754  1.00  0.00     0.168 C 
HETATM   22  C   UNL     1      -3.150   5.127 -32.571  1.00  0.00     0.029 C 
HETATM   23  C   UNL     1      -4.148   4.344 -33.386  1.00  0.00     0.035 C 
ENDBRANCH  18  19
ENDBRANCH   1  18
BRANCH   2  24
HETATM   24  C   UNL     1      -5.562  -0.834 -32.422  1.00  0.00     0.034 A 
HETATM   25  C   UNL     1      -5.971  -1.464 -33.605  1.00  0.00     0.053 A 
HETATM   26  C   UNL     1      -5.170  -2.448 -34.181  1.00  0.00     0.069 A 
HETATM   27  C   UNL     1      -3.965  -2.799 -33.564  1.00  0.00     0.037 A 
HETATM   28  C   UNL     1      -3.540  -2.151 -32.402  1.00  0.00     0.004 A 
HETATM   29  C   UNL     1      -4.332  -1.155 -31.836  1.00  0.00     0.017 A 
BRANCH  26  30
HETATM   30  O   UNL     1      -5.450  -3.142 -35.327  1.00  0.00    -0.356 OA
HETATM   31  C   UNL     1      -6.317  -4.262 -35.196  1.00  0.00     0.210 C 
ENDBRANCH  26  30
ENDBRANCH   2  24
TORSDOF 6
ENDMDL
MODEL 4
REMARK VINA RESULT:      -8.7      3.310      6.863
REMARK  6 active torsions:
REMARK  status: ('A' for Active; 'I' for Inactive)
REMARK    1  A    between atoms: C_9  and  C_10 
REMARK    2  A    between atoms: C_10  and  N_11 
REMARK       I    between atoms: N_11  and  C_12 
REMARK    3  A    between atoms: N_11  and  C_22 
REMARK    4  A    between atoms: C_12  and  C_13 
REMARK    5  A    between atoms: C_15  and  O_16 
REMARK    6  A    between atoms: C_22  and  C_23 
ROOT
HETATM    1  N   UNL     1      -8.711   2.377 -32.829  1.00  0.00    -0.341 N 
HETATM    2  C   UNL     1      -9.641   3.163 -33.535  1.00  0.00     0.254 C 
HETATM    3  O   UNL     1      -9.325   4.050 -34.327  1.00  0.00    -0.267 OA
ENDROOT
BRANCH   1   4
HETATM    4  C   UNL     1      -7.307   2.577 -33.200  1.00  0.00     0.170 C 
BRANCH   4   5
HETATM    5  C   UNL     1      -6.552   1.278 -33.287  1.00  0.00     0.029 A 
HETATM    6  C   UNL     1      -5.140   1.258 -32.794  1.00  0.00     0.253 A 
HETATM    7  N   UNL     1      -4.459   0.072 -32.900  1.00  0.00    -0.322 N 
HETATM    8  O   UNL     1      -4.591   2.251 -32.321  1.00  0.00    -0.268 OA
HETATM    9  C   UNL     1      -4.987  -1.077 -33.498  1.00  0.00     0.045 A 
HETATM   10  H   UNL     1      -3.511   0.076 -32.553  1.00  0.00     0.169 HD
HETATM   11  C   UNL     1      -6.292  -1.048 -33.997  1.00  0.00    -0.008 A 
HETATM   12  C   UNL     1      -4.207  -2.225 -33.616  1.00  0.00     0.031 A 
HETATM   13  C   UNL     1      -6.809  -2.176 -34.641  1.00  0.00     0.020 A 
HETATM   14  C   UNL     1      -7.078   0.174 -33.850  1.00  0.00     0.028 A 
HETATM   15  C   UNL     1      -6.023  -3.326 -34.799  1.00  0.00    -0.061 A 
HETATM   16  C   UNL     1      -6.581  -4.536 -35.489  1.00  0.00     0.048 C 
HETATM   17  C   UNL     1      -4.728  -3.349 -34.262  1.00  0.00     0.009 A 
ENDBRANCH   4   5
ENDBRANCH   1   4
BRANCH   1  18
HETATM   18  C   UNL     1      -9.014   2.025 -31.422  1.00  0.00     0.158 C 
BRANCH  18  19
HETATM   19  C   UNL     1      -8.525   2.994 -30.333  1.00  0.00     0.139 C 
HETATM   20  O   UNL     1      -7.136   2.739 -30.019  1.00  0.00    -0.384 OA
HETATM   21  C   UNL     1      -6.466   3.992 -29.829  1.00  0.00     0.168 C 
HETATM   22  C   UNL     1      -7.528   5.070 -29.869  1.00  0.00     0.029 C 
HETATM   23  C   UNL     1      -8.566   4.452 -30.770  1.00  0.00     0.035 C 
ENDBRANCH  18  19
ENDBRANCH   1  18
BRANCH   2  24
HETATM   24  C   UNL     1     -11.090   2.912 -33.338  1.00  0.00     0.034 A 
HETATM   25  C   UNL     1     -11.665   1.788 -33.946  1.00  0.00     0.053 A 
HETATM   26  C   UNL     1     -13.016   1.507 -33.749  1.00  0.00     0.069 A 
HETATM   27  C   UNL     1     -13.783   2.358 -32.946  1.00  0.00     0.037 A 
HETATM   28  C   UNL     1     -13.205   3.461 -32.314  1.00  0.00     0.004 A 
HETATM   29  C   UNL     1     -11.850   3.732 -32.497  1.00  0.00     0.017 A 
BRANCH  26  30
HETATM   30  O   UNL     1     -13.702   0.450 -34.283  1.00  0.00    -0.356 OA
HETATM   31  C   UNL     1     -15.116   0.585 -34.361  1.00  0.00     0.210 C 
ENDBRANCH  26  30
ENDBRANCH   2  24
TORSDOF 6
ENDMDL
MODEL 5
REMARK VINA RESULT:      -8.5      2.937      4.149
REMARK  6 active torsions:
REMARK  status: ('A' for Active; 'I' for Inactive)
REMARK    1  A    between atoms: C_9  and  C_10 
REMARK    2  A    between atoms: C_10  and  N_11 
REMARK       I    between atoms: N_11  and  C_12 
REMARK    3  A    between atoms: N_11  and  C_22 
REMARK    4  A    between atoms: C_12  and  C_13 
REMARK    5  A    between atoms: C_15  and  O_16 
REMARK    6  A    between atoms: C_22  and  C_23 
ROOT
HETATM    1  N   UNL     1      -6.935   3.233 -32.473  1.00  0.00    -0.341 N 
HETATM    2  C   UNL     1      -6.421   4.410 -31.896  1.00  0.00     0.254 C 
HETATM    3  O   UNL     1      -5.411   4.985 -32.298  1.00  0.00    -0.267 OA
ENDROOT
BRANCH   1   4
HETATM    4  C   UNL     1      -6.268   2.792 -33.703  1.00  0.00     0.170 C 
BRANCH   4   5
HETATM    5  C   UNL     1      -5.755   1.382 -33.596  1.00  0.00     0.029 A 
HETATM    6  C   UNL     1      -4.461   1.163 -32.878  1.00  0.00     0.253 A 
HETATM    7  N   UNL     1      -3.997  -0.126 -32.808  1.00  0.00    -0.322 N 
HETATM    8  O   UNL     1      -3.821   2.083 -32.375  1.00  0.00    -0.268 OA
HETATM    9  C   UNL     1      -4.626  -1.214 -33.423  1.00  0.00     0.045 A 
HETATM   10  H   UNL     1      -3.127  -0.255 -32.312  1.00  0.00     0.169 HD
HETATM   11  C   UNL     1      -5.814  -1.005 -34.129  1.00  0.00    -0.008 A 
HETATM   12  C   UNL     1      -4.057  -2.484 -33.351  1.00  0.00     0.031 A 
HETATM   13  C   UNL     1      -6.422  -2.078 -34.789  1.00  0.00     0.020 A 
HETATM   14  C   UNL     1      -6.380   0.341 -34.178  1.00  0.00     0.028 A 
HETATM   15  C   UNL     1      -5.841  -3.353 -34.754  1.00  0.00    -0.061 A 
HETATM   16  C   UNL     1      -6.497  -4.503 -35.461  1.00  0.00     0.048 C 
HETATM   17  C   UNL     1      -4.668  -3.552 -34.013  1.00  0.00     0.009 A 
ENDBRANCH   4   5
ENDBRANCH   1   4
BRANCH   1  18
HETATM   18  C   UNL     1      -7.492   2.196 -31.575  1.00  0.00     0.158 C 
BRANCH  18  19
HETATM   19  C   UNL     1      -8.932   1.727 -31.849  1.00  0.00     0.139 C 
HETATM   20  O   UNL     1      -9.418   2.295 -33.087  1.00  0.00    -0.384 OA
HETATM   21  C   UNL     1     -10.177   1.299 -33.785  1.00  0.00     0.168 C 
HETATM   22  C   UNL     1     -10.300   0.108 -32.860  1.00  0.00     0.029 C 
HETATM   23  C   UNL     1      -9.041   0.221 -32.038  1.00  0.00     0.035 C 
ENDBRANCH  18  19
ENDBRANCH   1  18
BRANCH   2  24
HETATM   24  C   UNL     1      -7.134   5.014 -30.744  1.00  0.00     0.034 A 
HETATM   25  C   UNL     1      -6.397   5.355 -29.602  1.00  0.00     0.053 A 
HETATM   26  C   UNL     1      -7.033   5.957 -28.518  1.00  0.00     0.069 A 
HETATM   27  C   UNL     1      -8.407   6.210 -28.584  1.00  0.00     0.037 A 
HETATM   28  C   UNL     1      -9.138   5.900 -29.734  1.00  0.00     0.004 A 
HETATM   29  C   UNL     1      -8.499   5.314 -30.824  1.00  0.00     0.017 A 
BRANCH  26  30
HETATM   30  O   UNL     1      -6.437   6.336 -27.346  1.00  0.00    -0.356 OA
HETATM   31  C   UNL     1      -5.129   5.828 -27.106  1.00  0.00     0.210 C 
ENDBRANCH  26  30
ENDBRANCH   2  24
TORSDOF 6
ENDMDL
MODEL 6
REMARK VINA RESULT:      -8.4      2.366      8.047
REMARK  6 active torsions:
REMARK  status: ('A' for Active; 'I' for Inactive)
REMARK    1  A    between atoms: C_9  and  C_10 
REMARK    2  A    between atoms: C_10  and  N_11 
REMARK       I    between atoms: N_11  and  C_12 
REMARK    3  A    between atoms: N_11  and  C_22 
REMARK    4  A    between atoms: C_12  and  C_13 
REMARK    5  A    between atoms: C_15  and  O_16 
REMARK    6  A    between atoms: C_22  and  C_23 
ROOT
HETATM    1  N   UNL     1      -6.041   4.573 -32.460  1.00  0.00    -0.341 N 
HETATM    2  C   UNL     1      -6.977   4.032 -33.362  1.00  0.00     0.254 C 
HETATM    3  O   UNL     1      -7.559   4.692 -34.221  1.00  0.00    -0.267 OA
ENDROOT
BRANCH   1   4
HETATM    4  C   UNL     1      -5.678   5.974 -32.695  1.00  0.00     0.170 C 
BRANCH   4   5
HETATM    5  C   UNL     1      -4.196   6.205 -32.574  1.00  0.00     0.029 A 
HETATM    6  C   UNL     1      -3.352   5.955 -33.783  1.00  0.00     0.253 A 
HETATM    7  N   UNL     1      -2.000   6.149 -33.650  1.00  0.00    -0.322 N 
HETATM    8  O   UNL     1      -3.824   5.580 -34.853  1.00  0.00    -0.268 OA
HETATM    9  C   UNL     1      -1.379   6.496 -32.445  1.00  0.00     0.045 A 
HETATM   10  H   UNL     1      -1.448   5.984 -34.479  1.00  0.00     0.169 HD
HETATM   11  C   UNL     1      -2.163   6.692 -31.305  1.00  0.00    -0.008 A 
HETATM   12  C   UNL     1       0.008   6.619 -32.384  1.00  0.00     0.031 A 
HETATM   13  C   UNL     1      -1.545   6.989 -30.086  1.00  0.00     0.020 A 
HETATM   14  C   UNL     1      -3.613   6.556 -31.413  1.00  0.00     0.028 A 
HETATM   15  C   UNL     1      -0.149   7.080 -30.002  1.00  0.00    -0.061 A 
HETATM   16  C   UNL     1       0.511   7.402 -28.693  1.00  0.00     0.048 C 
HETATM   17  C   UNL     1       0.620   6.916 -31.163  1.00  0.00     0.009 A 
ENDBRANCH   4   5
ENDBRANCH   1   4
BRANCH   1  18
HETATM   18  C   UNL     1      -6.047   4.082 -31.063  1.00  0.00     0.158 C 
BRANCH  18  19
HETATM   19  C   UNL     1      -4.940   3.093 -30.659  1.00  0.00     0.139 C 
HETATM   20  O   UNL     1      -5.511   1.807 -30.327  1.00  0.00    -0.384 OA
HETATM   21  C   UNL     1      -4.662   0.775 -30.847  1.00  0.00     0.168 C 
HETATM   22  C   UNL     1      -3.423   1.454 -31.388  1.00  0.00     0.029 C 
HETATM   23  C   UNL     1      -3.958   2.807 -31.787  1.00  0.00     0.035 C 
ENDBRANCH  18  19
ENDBRANCH   1  18
BRANCH   2  24
HETATM   24  C   UNL     1      -7.280   2.581 -33.297  1.00  0.00     0.034 A 
HETATM   25  C   UNL     1      -6.468   1.693 -34.016  1.00  0.00     0.053 A 
HETATM   26  C   UNL     1      -6.707   0.322 -33.945  1.00  0.00     0.069 A 
HETATM   27  C   UNL     1      -7.762  -0.151 -33.158  1.00  0.00     0.037 A 
HETATM   28  C   UNL     1      -8.553   0.730 -32.417  1.00  0.00     0.004 A 
HETATM   29  C   UNL     1      -8.303   2.100 -32.473  1.00  0.00     0.017 A 
BRANCH  26  30
HETATM   30  O   UNL     1      -5.997  -0.650 -34.595  1.00  0.00    -0.356 OA
HETATM   31  C   UNL     1      -5.068  -1.390 -33.811  1.00  0.00     0.210 C 
ENDBRANCH  26  30
ENDBRANCH   2  24
TORSDOF 6
ENDMDL
MODEL 7
REMARK VINA RESULT:      -8.1      2.862      7.548
REMARK  6 active torsions:
REMARK  status: ('A' for Active; 'I' for Inactive)
REMARK    1  A    between atoms: C_9  and  C_10 
REMARK    2  A    between atoms: C_10  and  N_11 
REMARK       I    between atoms: N_11  and  C_12 
REMARK    3  A    between atoms: N_11  and  C_22 
REMARK    4  A    between atoms: C_12  and  C_13 
REMARK    5  A    between atoms: C_15  and  O_16 
REMARK    6  A    between atoms: C_22  and  C_23 
ROOT
HETATM    1  N   UNL     1      -6.719   1.612 -32.336  1.00  0.00    -0.341 N 
HETATM    2  C   UNL     1      -6.523   0.299 -31.866  1.00  0.00     0.254 C 
HETATM    3  O   UNL     1      -6.715  -0.047 -30.702  1.00  0.00    -0.267 OA
ENDROOT
BRANCH   1   4
HETATM    4  C   UNL     1      -7.317   2.542 -31.372  1.00  0.00     0.170 C 
BRANCH   4   5
HETATM    5  C   UNL     1      -8.740   2.884 -31.721  1.00  0.00     0.029 A 
HETATM    6  C   UNL     1      -9.333   4.110 -31.105  1.00  0.00     0.253 A 
HETATM    7  N   UNL     1     -10.638   4.396 -31.416  1.00  0.00    -0.322 N 
HETATM    8  O   UNL     1      -8.702   4.838 -30.342  1.00  0.00    -0.268 OA
HETATM    9  C   UNL     1     -11.446   3.575 -32.211  1.00  0.00     0.045 A 
HETATM   10  H   UNL     1     -11.018   5.233 -30.998  1.00  0.00     0.169 HD
HETATM   11  C   UNL     1     -10.905   2.408 -32.755  1.00  0.00    -0.008 A 
HETATM   12  C   UNL     1     -12.780   3.911 -32.432  1.00  0.00     0.031 A 
HETATM   13  C   UNL     1     -11.720   1.557 -33.508  1.00  0.00     0.020 A 
HETATM   14  C   UNL     1      -9.501   2.094 -32.502  1.00  0.00     0.028 A 
HETATM   15  C   UNL     1     -13.073   1.863 -33.709  1.00  0.00    -0.061 A 
HETATM   16  C   UNL     1     -13.944   0.949 -34.520  1.00  0.00     0.048 C 
HETATM   17  C   UNL     1     -13.590   3.056 -33.185  1.00  0.00     0.009 A 
ENDBRANCH   4   5
ENDBRANCH   1   4
BRANCH   1  18
HETATM   18  C   UNL     1      -5.758   2.156 -33.322  1.00  0.00     0.158 C 
BRANCH  18  19
HETATM   19  C   UNL     1      -5.058   3.479 -32.968  1.00  0.00     0.139 C 
HETATM   20  O   UNL     1      -3.659   3.248 -32.683  1.00  0.00    -0.384 OA
HETATM   21  C   UNL     1      -2.889   4.315 -33.252  1.00  0.00     0.168 C 
HETATM   22  C   UNL     1      -3.872   5.339 -33.775  1.00  0.00     0.029 C 
HETATM   23  C   UNL     1      -5.065   4.481 -34.114  1.00  0.00     0.035 C 
ENDBRANCH  18  19
ENDBRANCH   1  18
BRANCH   2  24
HETATM   24  C   UNL     1      -6.074  -0.745 -32.820  1.00  0.00     0.034 A 
HETATM   25  C   UNL     1      -4.932  -1.495 -32.506  1.00  0.00     0.053 A 
HETATM   26  C   UNL     1      -4.508  -2.506 -33.366  1.00  0.00     0.069 A 
HETATM   27  C   UNL     1      -5.228  -2.756 -34.539  1.00  0.00     0.037 A 
HETATM   28  C   UNL     1      -6.384  -2.031 -34.838  1.00  0.00     0.004 A 
HETATM   29  C   UNL     1      -6.819  -1.032 -33.970  1.00  0.00     0.017 A 
BRANCH  26  30
HETATM   30  O   UNL     1      -3.414  -3.307 -33.183  1.00  0.00    -0.356 OA
HETATM   31  C   UNL     1      -2.915  -3.408 -31.854  1.00  0.00     0.210 C 
ENDBRANCH  26  30
ENDBRANCH   2  24
TORSDOF 6
ENDMDL
MODEL 8
REMARK VINA RESULT:      -8.0      2.259      4.055
REMARK  6 active torsions:
REMARK  status: ('A' for Active; 'I' for Inactive)
REMARK    1  A    between atoms: C_9  and  C_10 
REMARK    2  A    between atoms: C_10  and  N_11 
REMARK       I    between atoms: N_11  and  C_12 
REMARK    3  A    between atoms: N_11  and  C_22 
REMARK    4  A    between atoms: C_12  and  C_13 
REMARK    5  A    between atoms: C_15  and  O_16 
REMARK    6  A    between atoms: C_22  and  C_23 
ROOT
HETATM    1  N   UNL     1      -5.724   5.129 -31.864  1.00  0.00    -0.341 N 
HETATM    2  C   UNL     1      -5.398   5.903 -30.735  1.00  0.00     0.254 C 
HETATM    3  O   UNL     1      -6.055   5.908 -29.696  1.00  0.00    -0.267 OA
ENDROOT
BRANCH   1   4
HETATM    4  C   UNL     1      -6.839   4.194 -31.686  1.00  0.00     0.170 C 
BRANCH   4   5
HETATM    5  C   UNL     1      -6.644   2.922 -32.466  1.00  0.00     0.029 A 
HETATM    6  C   UNL     1      -7.552   2.670 -33.626  1.00  0.00     0.253 A 
HETATM    7  N   UNL     1      -7.376   1.496 -34.314  1.00  0.00    -0.322 N 
HETATM    8  O   UNL     1      -8.432   3.460 -33.961  1.00  0.00    -0.268 OA
HETATM    9  C   UNL     1      -6.452   0.511 -33.946  1.00  0.00     0.045 A 
HETATM   10  H   UNL     1      -7.992   1.348 -35.099  1.00  0.00     0.169 HD
HETATM   11  C   UNL     1      -5.629   0.728 -32.837  1.00  0.00    -0.008 A 
HETATM   12  C   UNL     1      -6.375  -0.679 -34.666  1.00  0.00     0.031 A 
HETATM   13  C   UNL     1      -4.739  -0.272 -32.434  1.00  0.00     0.020 A 
HETATM   14  C   UNL     1      -5.739   1.991 -32.112  1.00  0.00     0.028 A 
HETATM   15  C   UNL     1      -4.676  -1.489 -33.127  1.00  0.00    -0.061 A 
HETATM   16  C   UNL     1      -3.719  -2.559 -32.693  1.00  0.00     0.048 C 
HETATM   17  C   UNL     1      -5.484  -1.675 -34.258  1.00  0.00     0.009 A 
ENDBRANCH   4   5
ENDBRANCH   1   4
BRANCH   1  18
HETATM   18  C   UNL     1      -5.525   5.726 -33.205  1.00  0.00     0.158 C 
BRANCH  18  19
HETATM   19  C   UNL     1      -4.269   5.302 -33.986  1.00  0.00     0.139 C 
HETATM   20  O   UNL     1      -3.423   6.448 -34.237  1.00  0.00    -0.384 OA
HETATM   21  C   UNL     1      -2.054   6.059 -34.064  1.00  0.00     0.168 C 
HETATM   22  C   UNL     1      -2.044   4.561 -33.853  1.00  0.00     0.029 C 
HETATM   23  C   UNL     1      -3.390   4.327 -33.215  1.00  0.00     0.035 C 
ENDBRANCH  18  19
ENDBRANCH   1  18
BRANCH   2  24
HETATM   24  C   UNL     1      -4.185   6.757 -30.776  1.00  0.00     0.034 A 
HETATM   25  C   UNL     1      -2.955   6.195 -30.410  1.00  0.00     0.053 A 
HETATM   26  C   UNL     1      -1.794   6.962 -30.473  1.00  0.00     0.069 A 
HETATM   27  C   UNL     1      -1.873   8.292 -30.899  1.00  0.00     0.037 A 
HETATM   28  C   UNL     1      -3.093   8.846 -31.294  1.00  0.00     0.004 A 
HETATM   29  C   UNL     1      -4.252   8.073 -31.248  1.00  0.00     0.017 A 
BRANCH  26  30
HETATM   30  O   UNL     1      -0.534   6.541 -30.143  1.00  0.00    -0.356 OA
HETATM   31  C   UNL     1       0.450   6.619 -31.167  1.00  0.00     0.210 C 
ENDBRANCH  26  30
ENDBRANCH   2  24
TORSDOF 6
ENDMDL
MODEL 9
REMARK VINA RESULT:      -8.0      4.240      6.251
REMARK  6 active torsions:
REMARK  status: ('A' for Active; 'I' for Inactive)
REMARK    1  A    between atoms: C_9  and  C_10 
REMARK    2  A    between atoms: C_10  and  N_11 
REMARK       I    between atoms: N_11  and  C_12 
REMARK    3  A    between atoms: N_11  and  C_22 
REMARK    4  A    between atoms: C_12  and  C_13 
REMARK    5  A    between atoms: C_15  and  O_16 
REMARK    6  A    between atoms: C_22  and  C_23 
ROOT
HETATM    1  N   UNL     1     -10.037   2.292 -33.041  1.00  0.00    -0.341 N 
HETATM    2  C   UNL     1     -10.199   3.626 -32.622  1.00  0.00     0.254 C 
HETATM    3  O   UNL     1     -10.049   4.002 -31.461  1.00  0.00    -0.267 OA
ENDROOT
BRANCH   1   4
HETATM    4  C   UNL     1      -9.528   1.370 -32.021  1.00  0.00     0.170 C 
BRANCH   4   5
HETATM    5  C   UNL     1      -8.301   0.632 -32.485  1.00  0.00     0.029 A 
HETATM    6  C   UNL     1      -6.981   1.321 -32.351  1.00  0.00     0.253 A 
HETATM    7  N   UNL     1      -5.875   0.643 -32.799  1.00  0.00    -0.322 N 
HETATM    8  O   UNL     1      -6.869   2.448 -31.875  1.00  0.00    -0.268 OA
HETATM    9  C   UNL     1      -5.930  -0.608 -33.424  1.00  0.00     0.045 A 
HETATM   10  H   UNL     1      -4.992   1.120 -32.691  1.00  0.00     0.169 HD
HETATM   11  C   UNL     1      -7.168  -1.235 -33.587  1.00  0.00    -0.008 A 
HETATM   12  C   UNL     1      -4.764  -1.203 -33.900  1.00  0.00     0.031 A 
HETATM   13  C   UNL     1      -7.237  -2.461 -34.256  1.00  0.00     0.020 A 
HETATM   14  C   UNL     1      -8.366  -0.579 -33.070  1.00  0.00     0.028 A 
HETATM   15  C   UNL     1      -6.077  -3.054 -34.772  1.00  0.00    -0.061 A 
HETATM   16  C   UNL     1      -6.154  -4.371 -35.488  1.00  0.00     0.048 C 
HETATM   17  C   UNL     1      -4.839  -2.427 -34.569  1.00  0.00     0.009 A 
ENDBRANCH   4   5
ENDBRANCH   1   4
BRANCH   1  18
HETATM   18  C   UNL     1     -10.973   1.757 -34.057  1.00  0.00     0.158 C 
BRANCH  18  19
HETATM   19  C   UNL     1     -12.286   1.138 -33.548  1.00  0.00     0.139 C 
HETATM   20  O   UNL     1     -13.072   2.131 -32.849  1.00  0.00    -0.384 OA
HETATM   21  C   UNL     1     -14.453   1.952 -33.192  1.00  0.00     0.168 C 
HETATM   22  C   UNL     1     -14.543   0.687 -34.016  1.00  0.00     0.029 C 
HETATM   23  C   UNL     1     -13.186   0.645 -34.672  1.00  0.00     0.035 C 
ENDBRANCH  18  19
ENDBRANCH   1  18
BRANCH   2  24
HETATM   24  C   UNL     1     -10.557   4.656 -33.629  1.00  0.00     0.034 A 
HETATM   25  C   UNL     1     -11.802   5.291 -33.527  1.00  0.00     0.053 A 
HETATM   26  C   UNL     1     -12.150   6.288 -34.437  1.00  0.00     0.069 A 
HETATM   27  C   UNL     1     -11.248   6.639 -35.448  1.00  0.00     0.037 A 
HETATM   28  C   UNL     1      -9.994   6.029 -35.532  1.00  0.00     0.004 A 
HETATM   29  C   UNL     1      -9.639   5.045 -34.612  1.00  0.00     0.017 A 
BRANCH  26  30
HETATM   30  O   UNL     1     -13.328   6.983 -34.454  1.00  0.00    -0.356 OA
HETATM   31  C   UNL     1     -13.232   8.399 -34.354  1.00  0.00     0.210 C 
ENDBRANCH  26  30
ENDBRANCH   2  24
TORSDOF 6
ENDMDL
MODEL 10
REMARK VINA RESULT:      -8.0      2.676      7.782
REMARK  6 active torsions:
REMARK  status: ('A' for Active; 'I' for Inactive)
REMARK    1  A    between atoms: C_9  and  C_10 
REMARK    2  A    between atoms: C_10  and  N_11 
REMARK       I    between atoms: N_11  and  C_12 
REMARK    3  A    between atoms: N_11  and  C_22 
REMARK    4  A    between atoms: C_12  and  C_13 
REMARK    5  A    between atoms: C_15  and  O_16 
REMARK    6  A    between atoms: C_22  and  C_23 
ROOT
HETATM    1  N   UNL     1      -7.518   1.809 -32.438  1.00  0.00    -0.341 N 
HETATM    2  C   UNL     1      -8.770   2.323 -32.051  1.00  0.00     0.254 C 
HETATM    3  O   UNL     1      -9.093   2.532 -30.883  1.00  0.00    -0.267 OA
ENDROOT
BRANCH   1   4
HETATM    4  C   UNL     1      -6.537   1.664 -31.358  1.00  0.00     0.170 C 
BRANCH   4   5
HETATM    5  C   UNL     1      -5.492   2.746 -31.391  1.00  0.00     0.029 A 
HETATM    6  C   UNL     1      -5.474   3.733 -30.268  1.00  0.00     0.253 A 
HETATM    7  N   UNL     1      -4.528   4.726 -30.325  1.00  0.00    -0.322 N 
HETATM    8  O   UNL     1      -6.268   3.683 -29.332  1.00  0.00    -0.268 OA
HETATM    9  C   UNL     1      -3.643   4.897 -31.395  1.00  0.00     0.045 A 
HETATM   10  H   UNL     1      -4.526   5.377 -29.553  1.00  0.00     0.169 HD
HETATM   11  C   UNL     1      -3.685   3.999 -32.465  1.00  0.00    -0.008 A 
HETATM   12  C   UNL     1      -2.750   5.966 -31.400  1.00  0.00     0.031 A 
HETATM   13  C   UNL     1      -2.839   4.192 -33.561  1.00  0.00     0.020 A 
HETATM   14  C   UNL     1      -4.634   2.889 -32.419  1.00  0.00     0.028 A 
HETATM   15  C   UNL     1      -1.961   5.284 -33.595  1.00  0.00    -0.061 A 
HETATM   16  C   UNL     1      -1.052   5.488 -34.772  1.00  0.00     0.048 C 
HETATM   17  C   UNL     1      -1.908   6.155 -32.498  1.00  0.00     0.009 A 
ENDBRANCH   4   5
ENDBRANCH   1   4
BRANCH   1  18
HETATM   18  C   UNL     1      -7.473   0.836 -33.553  1.00  0.00     0.158 C 
BRANCH  18  19
HETATM   19  C   UNL     1      -6.753  -0.499 -33.294  1.00  0.00     0.139 C 
HETATM   20  O   UNL     1      -7.493  -1.591 -33.887  1.00  0.00    -0.384 OA
HETATM   21  C   UNL     1      -6.565  -2.515 -34.471  1.00  0.00     0.168 C 
HETATM   22  C   UNL     1      -5.178  -2.053 -34.082  1.00  0.00     0.029 C 
HETATM   23  C   UNL     1      -5.374  -0.565 -33.936  1.00  0.00     0.035 C 
ENDBRANCH  18  19
ENDBRANCH   1  18
BRANCH   2  24
HETATM   24  C   UNL     1      -9.766   2.652 -33.100  1.00  0.00     0.034 A 
HETATM   25  C   UNL     1     -11.029   2.047 -33.041  1.00  0.00     0.053 A 
HETATM   26  C   UNL     1     -11.996   2.364 -33.993  1.00  0.00     0.069 A 
HETATM   27  C   UNL     1     -11.691   3.284 -35.001  1.00  0.00     0.037 A 
HETATM   28  C   UNL     1     -10.444   3.912 -35.044  1.00  0.00     0.004 A 
HETATM   29  C   UNL     1      -9.482   3.608 -34.082  1.00  0.00     0.017 A 
BRANCH  26  30
HETATM   30  O   UNL     1     -13.262   1.846 -34.054  1.00  0.00    -0.356 OA
HETATM   31  C   UNL     1     -13.364   0.434 -34.194  1.00  0.00     0.210 C 
ENDBRANCH  26  30
ENDBRANCH   2  24
TORSDOF 6
ENDMDL
