MODEL 1
REMARK VINA RESULT:      -9.9      0.000      0.000
REMARK  5 active torsions:
REMARK  status: ('A' for Active; 'I' for Inactive)
REMARK    1  A    between atoms: C_7  and  C_8 
REMARK    2  A    between atoms: C_16  and  C_17 
REMARK    3  A    between atoms: C_20  and  O_21 
REMARK    4  A    between atoms: C_24  and  C_25 
REMARK       I    between atoms: C_25  and  N_26 
REMARK    5  A    between atoms: N_26  and  C_27 
ROOT
HETATM    1  C   UNL     1      -9.850   3.310 -30.246  1.00  0.00     0.070 C 
HETATM    2  C   UNL     1      -8.734   3.119 -31.249  1.00  0.00     0.037 A 
HETATM    3  N   UNL     1      -7.547   3.778 -30.939  1.00  0.00    -0.192 N 
HETATM    4  C   UNL     1      -6.486   3.823 -31.759  1.00  0.00     0.726 A 
HETATM    5  N   UNL     1      -6.520   3.122 -32.926  1.00  0.00    -0.083 N 
HETATM    6  N   UNL     1      -5.442   3.380 -33.692  1.00  0.00    -0.135 NA
HETATM    7  C   UNL     1      -4.725   4.176 -32.876  1.00  0.00     0.199 A 
HETATM    8  N   UNL     1      -5.357   4.476 -31.680  1.00  0.00    -0.041 NA
HETATM    9  C   UNL     1      -7.656   2.301 -33.359  1.00  0.00     0.202 A 
HETATM   10  C   UNL     1      -8.843   2.399 -32.401  1.00  0.00     0.062 A 
HETATM   11  H   UNL     1      -7.525   4.329 -30.085  1.00  0.00     0.184 HD
ENDROOT
BRANCH  10  12
HETATM   12  C   UNL     1     -10.109   1.649 -32.721  1.00  0.00     0.256 C 
HETATM   13  N   UNL     1     -11.169   2.423 -33.150  1.00  0.00    -0.323 N 
HETATM   14  H   UNL     1     -11.020   3.399 -33.351  1.00  0.00     0.169 HD
HETATM   15  O   UNL     1     -10.131   0.425 -32.629  1.00  0.00    -0.267 OA
BRANCH  13  16
HETATM   16  C   UNL     1     -12.488   1.984 -33.417  1.00  0.00     0.035 A 
HETATM   17  C   UNL     1     -12.817   1.034 -34.384  1.00  0.00     0.029 A 
HETATM   18  C   UNL     1     -14.146   0.631 -34.561  1.00  0.00     0.002 A 
HETATM   19  C   UNL     1     -15.156   1.181 -33.777  1.00  0.00     0.000 A 
HETATM   20  C   UNL     1     -14.840   2.132 -32.810  1.00  0.00     0.002 A 
HETATM   21  C   UNL     1     -13.512   2.527 -32.628  1.00  0.00     0.029 A 
ENDBRANCH  13  16
ENDBRANCH  10  12
BRANCH   9  22
HETATM   22  C   UNL     1      -7.176   0.875 -33.620  1.00  0.00    -0.028 A 
HETATM   23  C   UNL     1      -6.519   0.120 -32.632  1.00  0.00     0.012 A 
HETATM   24  C   UNL     1      -6.068  -1.174 -32.906  1.00  0.00     0.037 A 
HETATM   25  C   UNL     1      -6.262  -1.715 -34.172  1.00  0.00     0.065 A 
HETATM   26  C   UNL     1      -6.896  -0.983 -35.167  1.00  0.00     0.037 A 
HETATM   27  C   UNL     1      -7.349   0.307 -34.895  1.00  0.00     0.012 A 
BRANCH  25  28
HETATM   28  O   UNL     1      -5.830  -2.969 -34.484  1.00  0.00    -0.361 OA
HETATM   29  H   UNL     1      -6.349  -3.297 -35.237  1.00  0.00     0.217 HD
ENDBRANCH  25  28
ENDBRANCH   9  22
BRANCH   7  30
HETATM   30  C   UNL     1      -3.406   4.702 -33.212  1.00  0.00     0.016 A 
HETATM   31  C   UNL     1      -2.389   4.760 -32.248  1.00  0.00     0.039 A 
HETATM   32  C   UNL     1      -1.135   5.268 -32.581  1.00  0.00     0.035 A 
HETATM   33 CL   UNL     1       0.105   5.335 -31.389  1.00  0.00    -0.084 Cl
HETATM   34  C   UNL     1      -0.874   5.726 -33.872  1.00  0.00     0.024 A 
HETATM   35  C   UNL     1      -1.877   5.674 -34.838  1.00  0.00     0.003 A 
HETATM   36  C   UNL     1      -3.137   5.166 -34.509  1.00  0.00     0.015 A 
ENDBRANCH   7  30
TORSDOF 5
ENDMDL
MODEL 2
REMARK VINA RESULT:      -9.7      4.496      8.271
REMARK  5 active torsions:
REMARK  status: ('A' for Active; 'I' for Inactive)
REMARK    1  A    between atoms: C_7  and  C_8 
REMARK    2  A    between atoms: C_16  and  C_17 
REMARK    3  A    between atoms: C_20  and  O_21 
REMARK    4  A    between atoms: C_24  and  C_25 
REMARK       I    between atoms: C_25  and  N_26 
REMARK    5  A    between atoms: N_26  and  C_27 
ROOT
HETATM    1  C   UNL     1      -8.019   5.682 -30.754  1.00  0.00     0.070 C 
HETATM    2  C   UNL     1      -6.970   4.724 -31.272  1.00  0.00     0.037 A 
HETATM    3  N   UNL     1      -7.471   3.594 -31.912  1.00  0.00    -0.192 N 
HETATM    4  C   UNL     1      -6.704   2.578 -32.335  1.00  0.00     0.726 A 
HETATM    5  N   UNL     1      -5.350   2.676 -32.219  1.00  0.00    -0.083 N 
HETATM    6  N   UNL     1      -4.738   1.526 -32.560  1.00  0.00    -0.135 NA
HETATM    7  C   UNL     1      -5.782   0.789 -32.986  1.00  0.00     0.199 A 
HETATM    8  N   UNL     1      -7.010   1.413 -32.843  1.00  0.00    -0.041 NA
HETATM    9  C   UNL     1      -4.656   3.839 -31.653  1.00  0.00     0.202 A 
HETATM   10  C   UNL     1      -5.626   4.891 -31.116  1.00  0.00     0.062 A 
HETATM   11  H   UNL     1      -8.481   3.499 -31.975  1.00  0.00     0.184 HD
ENDROOT
BRANCH  10  12
HETATM   12  C   UNL     1      -5.076   6.131 -30.462  1.00  0.00     0.256 C 
HETATM   13  N   UNL     1      -4.915   7.222 -31.292  1.00  0.00    -0.323 N 
HETATM   14  H   UNL     1      -5.279   7.189 -32.231  1.00  0.00     0.169 HD
HETATM   15  O   UNL     1      -4.844   6.131 -29.256  1.00  0.00    -0.267 OA
BRANCH  13  16
HETATM   16  C   UNL     1      -4.329   8.466 -30.956  1.00  0.00     0.035 A 
HETATM   17  C   UNL     1      -5.055   9.608 -30.615  1.00  0.00     0.029 A 
HETATM   18  C   UNL     1      -4.395  10.790 -30.263  1.00  0.00     0.002 A 
HETATM   19  C   UNL     1      -3.004  10.843 -30.256  1.00  0.00     0.000 A 
HETATM   20  C   UNL     1      -2.269   9.710 -30.597  1.00  0.00     0.002 A 
HETATM   21  C   UNL     1      -2.928   8.527 -30.939  1.00  0.00     0.029 A 
ENDBRANCH  13  16
ENDBRANCH  10  12
BRANCH   9  22
HETATM   22  C   UNL     1      -3.655   4.372 -32.675  1.00  0.00    -0.028 A 
HETATM   23  C   UNL     1      -4.050   4.771 -33.964  1.00  0.00     0.012 A 
HETATM   24  C   UNL     1      -3.108   5.233 -34.888  1.00  0.00     0.037 A 
HETATM   25  C   UNL     1      -1.766   5.286 -34.530  1.00  0.00     0.065 A 
HETATM   26  C   UNL     1      -1.350   4.884 -33.269  1.00  0.00     0.037 A 
HETATM   27  C   UNL     1      -2.288   4.427 -32.344  1.00  0.00     0.012 A 
BRANCH  25  28
HETATM   28  O   UNL     1      -0.813   5.720 -35.404  1.00  0.00    -0.361 OA
HETATM   29  H   UNL     1      -1.221   5.825 -36.280  1.00  0.00     0.217 HD
ENDBRANCH  25  28
ENDBRANCH   9  22
BRANCH   7  30
HETATM   30  C   UNL     1      -5.653  -0.557 -33.533  1.00  0.00     0.016 A 
HETATM   31  C   UNL     1      -4.674  -1.437 -33.050  1.00  0.00     0.039 A 
HETATM   32  C   UNL     1      -4.558  -2.719 -33.584  1.00  0.00     0.035 A 
HETATM   33 CL   UNL     1      -3.350  -3.790 -32.983  1.00  0.00    -0.084 Cl
HETATM   34  C   UNL     1      -5.409  -3.144 -34.602  1.00  0.00     0.024 A 
HETATM   35  C   UNL     1      -6.386  -2.278 -35.091  1.00  0.00     0.003 A 
HETATM   36  C   UNL     1      -6.506  -0.991 -34.559  1.00  0.00     0.015 A 
ENDBRANCH   7  30
TORSDOF 5
ENDMDL
MODEL 3
REMARK VINA RESULT:      -9.5      4.530      8.253
REMARK  5 active torsions:
REMARK  status: ('A' for Active; 'I' for Inactive)
REMARK    1  A    between atoms: C_7  and  C_8 
REMARK    2  A    between atoms: C_16  and  C_17 
REMARK    3  A    between atoms: C_20  and  O_21 
REMARK    4  A    between atoms: C_24  and  C_25 
REMARK       I    between atoms: C_25  and  N_26 
REMARK    5  A    between atoms: N_26  and  C_27 
ROOT
HETATM    1  C   UNL     1      -8.055   5.326 -30.621  1.00  0.00     0.070 C 
HETATM    2  C   UNL     1      -6.958   4.422 -31.136  1.00  0.00     0.037 A 
HETATM    3  N   UNL     1      -7.401   3.270 -31.781  1.00  0.00    -0.192 N 
HETATM    4  C   UNL     1      -6.583   2.293 -32.203  1.00  0.00     0.726 A 
HETATM    5  N   UNL     1      -5.237   2.457 -32.080  1.00  0.00    -0.083 N 
HETATM    6  N   UNL     1      -4.568   1.338 -32.421  1.00  0.00    -0.135 NA
HETATM    7  C   UNL     1      -5.573   0.552 -32.852  1.00  0.00     0.199 A 
HETATM    8  N   UNL     1      -6.831   1.116 -32.713  1.00  0.00    -0.041 NA
HETATM    9  C   UNL     1      -4.602   3.651 -31.510  1.00  0.00     0.202 A 
HETATM   10  C   UNL     1      -5.624   4.653 -30.975  1.00  0.00     0.062 A 
HETATM   11  H   UNL     1      -8.405   3.125 -31.847  1.00  0.00     0.184 HD
ENDROOT
BRANCH  10  12
HETATM   12  C   UNL     1      -5.139   5.918 -30.317  1.00  0.00     0.256 C 
HETATM   13  N   UNL     1      -4.760   5.796 -28.995  1.00  0.00    -0.323 N 
HETATM   14  H   UNL     1      -4.700   4.880 -28.579  1.00  0.00     0.169 HD
HETATM   15  O   UNL     1      -5.064   6.954 -30.972  1.00  0.00    -0.267 OA
BRANCH  13  16
HETATM   16  C   UNL     1      -4.366   6.840 -28.124  1.00  0.00     0.035 A 
HETATM   17  C   UNL     1      -5.232   7.507 -27.257  1.00  0.00     0.029 A 
HETATM   18  C   UNL     1      -4.753   8.507 -26.405  1.00  0.00     0.002 A 
HETATM   19  C   UNL     1      -3.404   8.854 -26.417  1.00  0.00     0.000 A 
HETATM   20  C   UNL     1      -2.531   8.197 -27.279  1.00  0.00     0.002 A 
HETATM   21  C   UNL     1      -3.008   7.191 -28.124  1.00  0.00     0.029 A 
ENDBRANCH  13  16
ENDBRANCH  10  12
BRANCH   9  22
HETATM   22  C   UNL     1      -3.624   4.235 -32.527  1.00  0.00    -0.028 A 
HETATM   23  C   UNL     1      -2.253   4.372 -32.246  1.00  0.00     0.012 A 
HETATM   24  C   UNL     1      -1.385   4.932 -33.187  1.00  0.00     0.037 A 
HETATM   25  C   UNL     1      -1.886   5.369 -34.408  1.00  0.00     0.065 A 
HETATM   26  C   UNL     1      -3.238   5.257 -34.703  1.00  0.00     0.037 A 
HETATM   27  C   UNL     1      -4.106   4.695 -33.767  1.00  0.00     0.012 A 
BRANCH  25  28
HETATM   28  O   UNL     1      -1.076   5.930 -35.350  1.00  0.00    -0.361 OA
HETATM   29  H   UNL     1      -1.296   6.873 -35.425  1.00  0.00     0.217 HD
ENDBRANCH  25  28
ENDBRANCH   9  22
BRANCH   7  30
HETATM   30  C   UNL     1      -5.376  -0.785 -33.401  1.00  0.00     0.016 A 
HETATM   31  C   UNL     1      -4.453  -1.669 -32.823  1.00  0.00     0.039 A 
HETATM   32  C   UNL     1      -4.271  -2.943 -33.360  1.00  0.00     0.035 A 
HETATM   33 CL   UNL     1      -3.135  -4.018 -32.642  1.00  0.00    -0.084 Cl
HETATM   34  C   UNL     1      -5.000  -3.354 -34.474  1.00  0.00     0.024 A 
HETATM   35  C   UNL     1      -5.919  -2.484 -35.057  1.00  0.00     0.003 A 
HETATM   36  C   UNL     1      -6.105  -1.206 -34.524  1.00  0.00     0.015 A 
ENDBRANCH   7  30
TORSDOF 5
ENDMDL
MODEL 4
REMARK VINA RESULT:      -9.5      4.309      6.270
REMARK  5 active torsions:
REMARK  status: ('A' for Active; 'I' for Inactive)
REMARK    1  A    between atoms: C_7  and  C_8 
REMARK    2  A    between atoms: C_16  and  C_17 
REMARK    3  A    between atoms: C_20  and  O_21 
REMARK    4  A    between atoms: C_24  and  C_25 
REMARK       I    between atoms: C_25  and  N_26 
REMARK    5  A    between atoms: N_26  and  C_27 
ROOT
HETATM    1  C   UNL     1      -8.686   5.356 -31.537  1.00  0.00     0.070 C 
HETATM    2  C   UNL     1      -8.733   4.095 -32.370  1.00  0.00     0.037 A 
HETATM    3  N   UNL     1      -7.795   3.126 -32.022  1.00  0.00    -0.192 N 
HETATM    4  C   UNL     1      -7.605   1.993 -32.715  1.00  0.00     0.726 A 
HETATM    5  N   UNL     1      -8.422   1.715 -33.769  1.00  0.00    -0.083 N 
HETATM    6  N   UNL     1      -8.015   0.618 -34.436  1.00  0.00    -0.135 NA
HETATM    7  C   UNL     1      -6.993   0.204 -33.663  1.00  0.00     0.199 A 
HETATM    8  N   UNL     1      -6.711   1.047 -32.600  1.00  0.00    -0.041 NA
HETATM    9  C   UNL     1      -9.519   2.584 -34.210  1.00  0.00     0.202 A 
HETATM   10  C   UNL     1      -9.583   3.888 -33.415  1.00  0.00     0.062 A 
HETATM   11  H   UNL     1      -7.161   3.340 -31.257  1.00  0.00     0.184 HD
ENDROOT
BRANCH  10  12
HETATM   12  C   UNL     1     -10.628   4.913 -33.769  1.00  0.00     0.256 C 
HETATM   13  N   UNL     1     -10.537   5.444 -35.041  1.00  0.00    -0.323 N 
HETATM   14  H   UNL     1      -9.887   5.045 -35.699  1.00  0.00     0.169 HD
HETATM   15  O   UNL     1     -11.506   5.192 -32.958  1.00  0.00    -0.267 OA
BRANCH  13  16
HETATM   16  C   UNL     1     -11.325   6.487 -35.584  1.00  0.00     0.035 A 
HETATM   17  C   UNL     1     -10.830   7.745 -35.930  1.00  0.00     0.029 A 
HETATM   18  C   UNL     1     -11.673   8.709 -36.493  1.00  0.00     0.002 A 
HETATM   19  C   UNL     1     -13.019   8.426 -36.708  1.00  0.00     0.000 A 
HETATM   20  C   UNL     1     -13.525   7.176 -36.365  1.00  0.00     0.002 A 
HETATM   21  C   UNL     1     -12.681   6.210 -35.812  1.00  0.00     0.029 A 
ENDBRANCH  13  16
ENDBRANCH  10  12
BRANCH   9  22
HETATM   22  C   UNL     1     -10.821   1.786 -34.213  1.00  0.00    -0.028 A 
HETATM   23  C   UNL     1     -11.909   2.143 -35.030  1.00  0.00     0.012 A 
HETATM   24  C   UNL     1     -13.098   1.409 -34.994  1.00  0.00     0.037 A 
HETATM   25  C   UNL     1     -13.209   0.323 -34.133  1.00  0.00     0.065 A 
HETATM   26  C   UNL     1     -12.153  -0.039 -33.307  1.00  0.00     0.037 A 
HETATM   27  C   UNL     1     -10.964   0.690 -33.343  1.00  0.00     0.012 A 
BRANCH  25  28
HETATM   28  O   UNL     1     -14.353  -0.413 -34.059  1.00  0.00    -0.361 OA
HETATM   29  H   UNL     1     -14.237  -1.219 -34.590  1.00  0.00     0.217 HD
ENDBRANCH  25  28
ENDBRANCH   9  22
BRANCH   7  30
HETATM   30  C   UNL     1      -6.226  -1.011 -33.917  1.00  0.00     0.016 A 
HETATM   31  C   UNL     1      -6.815  -2.109 -34.562  1.00  0.00     0.039 A 
HETATM   32  C   UNL     1      -6.072  -3.265 -34.796  1.00  0.00     0.035 A 
HETATM   33 CL   UNL     1      -6.806  -4.607 -35.587  1.00  0.00    -0.084 Cl
HETATM   34  C   UNL     1      -4.740  -3.347 -34.394  1.00  0.00     0.024 A 
HETATM   35  C   UNL     1      -4.145  -2.262 -33.752  1.00  0.00     0.003 A 
HETATM   36  C   UNL     1      -4.885  -1.101 -33.514  1.00  0.00     0.015 A 
ENDBRANCH   7  30
TORSDOF 5
ENDMDL
MODEL 5
REMARK VINA RESULT:      -9.3      3.850      7.550
REMARK  5 active torsions:
REMARK  status: ('A' for Active; 'I' for Inactive)
REMARK    1  A    between atoms: C_7  and  C_8 
REMARK    2  A    between atoms: C_16  and  C_17 
REMARK    3  A    between atoms: C_20  and  O_21 
REMARK    4  A    between atoms: C_24  and  C_25 
REMARK       I    between atoms: C_25  and  N_26 
REMARK    5  A    between atoms: N_26  and  C_27 
ROOT
HETATM    1  C   UNL     1      -2.557   4.337 -31.592  1.00  0.00     0.070 C 
HETATM    2  C   UNL     1      -3.643   3.455 -32.168  1.00  0.00     0.037 A 
HETATM    3  N   UNL     1      -3.377   2.089 -32.118  1.00  0.00    -0.192 N 
HETATM    4  C   UNL     1      -4.164   1.158 -32.681  1.00  0.00     0.726 A 
HETATM    5  N   UNL     1      -5.334   1.542 -33.261  1.00  0.00    -0.083 N 
HETATM    6  N   UNL     1      -5.934   0.515 -33.894  1.00  0.00    -0.135 NA
HETATM    7  C   UNL     1      -5.122  -0.508 -33.565  1.00  0.00     0.199 A 
HETATM    8  N   UNL     1      -4.011  -0.132 -32.827  1.00  0.00    -0.041 NA
HETATM    9  C   UNL     1      -5.808   2.930 -33.317  1.00  0.00     0.202 A 
HETATM   10  C   UNL     1      -4.794   3.914 -32.736  1.00  0.00     0.062 A 
HETATM   11  H   UNL     1      -2.491   1.797 -31.715  1.00  0.00     0.184 HD
ENDROOT
BRANCH  10  12
HETATM   12  C   UNL     1      -5.106   5.387 -32.754  1.00  0.00     0.256 C 
HETATM   13  N   UNL     1      -5.701   5.885 -31.612  1.00  0.00    -0.323 N 
HETATM   14  H   UNL     1      -5.777   5.298 -30.796  1.00  0.00     0.169 HD
HETATM   15  O   UNL     1      -4.793   6.063 -33.730  1.00  0.00    -0.267 OA
BRANCH  13  16
HETATM   16  C   UNL     1      -6.183   7.201 -31.410  1.00  0.00     0.035 A 
HETATM   17  C   UNL     1      -5.434   8.232 -30.843  1.00  0.00     0.029 A 
HETATM   18  C   UNL     1      -5.978   9.515 -30.709  1.00  0.00     0.002 A 
HETATM   19  C   UNL     1      -7.278   9.774 -31.136  1.00  0.00     0.000 A 
HETATM   20  C   UNL     1      -8.035   8.752 -31.701  1.00  0.00     0.002 A 
HETATM   21  C   UNL     1      -7.488   7.474 -31.843  1.00  0.00     0.029 A 
ENDBRANCH  13  16
ENDBRANCH  10  12
BRANCH   9  22
HETATM   22  C   UNL     1      -7.196   3.012 -32.684  1.00  0.00    -0.028 A 
HETATM   23  C   UNL     1      -8.314   3.470 -33.403  1.00  0.00     0.012 A 
HETATM   24  C   UNL     1      -9.567   3.559 -32.792  1.00  0.00     0.037 A 
HETATM   25  C   UNL     1      -9.705   3.200 -31.455  1.00  0.00     0.065 A 
HETATM   26  C   UNL     1      -8.613   2.758 -30.721  1.00  0.00     0.037 A 
HETATM   27  C   UNL     1      -7.362   2.666 -31.330  1.00  0.00     0.012 A 
BRANCH  25  28
HETATM   28  O   UNL     1     -10.908   3.280 -30.818  1.00  0.00    -0.361 OA
HETATM   29  H   UNL     1     -11.309   2.396 -30.802  1.00  0.00     0.217 HD
ENDBRANCH  25  28
ENDBRANCH   9  22
BRANCH   7  30
HETATM   30  C   UNL     1      -5.362  -1.892 -33.958  1.00  0.00     0.016 A 
HETATM   31  C   UNL     1      -4.359  -2.862 -33.818  1.00  0.00     0.039 A 
HETATM   32  C   UNL     1      -4.601  -4.180 -34.202  1.00  0.00     0.035 A 
HETATM   33 CL   UNL     1      -3.362  -5.362 -34.026  1.00  0.00    -0.084 Cl
HETATM   34  C   UNL     1      -5.837  -4.551 -34.729  1.00  0.00     0.024 A 
HETATM   35  C   UNL     1      -6.840  -3.595 -34.873  1.00  0.00     0.003 A 
HETATM   36  C   UNL     1      -6.603  -2.272 -34.491  1.00  0.00     0.015 A 
ENDBRANCH   7  30
TORSDOF 5
ENDMDL
MODEL 6
REMARK VINA RESULT:      -9.3      4.223      7.706
REMARK  5 active torsions:
REMARK  status: ('A' for Active; 'I' for Inactive)
REMARK    1  A    between atoms: C_7  and  C_8 
REMARK    2  A    between atoms: C_16  and  C_17 
REMARK    3  A    between atoms: C_20  and  O_21 
REMARK    4  A    between atoms: C_24  and  C_25 
REMARK       I    between atoms: C_25  and  N_26 
REMARK    5  A    between atoms: N_26  and  C_27 
ROOT
HETATM    1  C   UNL     1      -9.189   4.792 -32.146  1.00  0.00     0.070 C 
HETATM    2  C   UNL     1      -7.929   3.975 -32.328  1.00  0.00     0.037 A 
HETATM    3  N   UNL     1      -8.119   2.726 -32.913  1.00  0.00    -0.192 N 
HETATM    4  C   UNL     1      -7.144   1.814 -33.051  1.00  0.00     0.726 A 
HETATM    5  N   UNL     1      -5.874   2.140 -32.684  1.00  0.00    -0.083 N 
HETATM    6  N   UNL     1      -5.048   1.079 -32.756  1.00  0.00    -0.135 NA
HETATM    7  C   UNL     1      -5.864   0.147 -33.287  1.00  0.00     0.199 A 
HETATM    8  N   UNL     1      -7.170   0.575 -33.465  1.00  0.00    -0.041 NA
HETATM    9  C   UNL     1      -5.487   3.446 -32.137  1.00  0.00     0.202 A 
HETATM   10  C   UNL     1      -6.686   4.370 -31.932  1.00  0.00     0.062 A 
HETATM   11  H   UNL     1      -9.069   2.463 -33.161  1.00  0.00     0.184 HD
ENDROOT
BRANCH  10  12
HETATM   12  C   UNL     1      -6.468   5.737 -31.337  1.00  0.00     0.256 C 
HETATM   13  N   UNL     1      -6.270   5.769 -29.971  1.00  0.00    -0.323 N 
HETATM   14  H   UNL     1      -6.152   4.904 -29.467  1.00  0.00     0.169 HD
HETATM   15  O   UNL     1      -6.435   6.721 -32.071  1.00  0.00    -0.267 OA
BRANCH  13  16
HETATM   16  C   UNL     1      -6.144   6.921 -29.158  1.00  0.00     0.035 A 
HETATM   17  C   UNL     1      -4.936   7.573 -28.906  1.00  0.00     0.029 A 
HETATM   18  C   UNL     1      -4.904   8.727 -28.116  1.00  0.00     0.002 A 
HETATM   19  C   UNL     1      -6.078   9.234 -27.566  1.00  0.00     0.000 A 
HETATM   20  C   UNL     1      -7.289   8.590 -27.808  1.00  0.00     0.002 A 
HETATM   21  C   UNL     1      -7.321   7.443 -28.605  1.00  0.00     0.029 A 
ENDBRANCH  13  16
ENDBRANCH  10  12
BRANCH   9  22
HETATM   22  C   UNL     1      -4.376   4.042 -32.999  1.00  0.00    -0.028 A 
HETATM   23  C   UNL     1      -4.639   4.624 -34.252  1.00  0.00     0.012 A 
HETATM   24  C   UNL     1      -3.599   5.139 -35.030  1.00  0.00     0.037 A 
HETATM   25  C   UNL     1      -2.291   5.064 -34.565  1.00  0.00     0.065 A 
HETATM   26  C   UNL     1      -2.005   4.482 -33.338  1.00  0.00     0.037 A 
HETATM   27  C   UNL     1      -3.042   3.970 -32.557  1.00  0.00     0.012 A 
BRANCH  25  28
HETATM   28  O   UNL     1      -1.246   5.546 -35.297  1.00  0.00    -0.361 OA
HETATM   29  H   UNL     1      -0.435   5.465 -34.768  1.00  0.00     0.217 HD
ENDBRANCH  25  28
ENDBRANCH   9  22
BRANCH   7  30
HETATM   30  C   UNL     1      -5.434  -1.203 -33.632  1.00  0.00     0.016 A 
HETATM   31  C   UNL     1      -6.259  -2.048 -34.388  1.00  0.00     0.039 A 
HETATM   32  C   UNL     1      -5.838  -3.338 -34.708  1.00  0.00     0.035 A 
HETATM   33 CL   UNL     1      -6.861  -4.366 -35.635  1.00  0.00    -0.084 Cl
HETATM   34  C   UNL     1      -4.596  -3.805 -34.282  1.00  0.00     0.024 A 
HETATM   35  C   UNL     1      -3.767  -2.974 -33.529  1.00  0.00     0.003 A 
HETATM   36  C   UNL     1      -4.185  -1.681 -33.206  1.00  0.00     0.015 A 
ENDBRANCH   7  30
TORSDOF 5
ENDMDL
MODEL 7
REMARK VINA RESULT:      -9.3      4.004      7.309
REMARK  5 active torsions:
REMARK  status: ('A' for Active; 'I' for Inactive)
REMARK    1  A    between atoms: C_7  and  C_8 
REMARK    2  A    between atoms: C_16  and  C_17 
REMARK    3  A    between atoms: C_20  and  O_21 
REMARK    4  A    between atoms: C_24  and  C_25 
REMARK       I    between atoms: C_25  and  N_26 
REMARK    5  A    between atoms: N_26  and  C_27 
ROOT
HETATM    1  C   UNL     1     -10.468  -0.792 -32.681  1.00  0.00     0.070 C 
HETATM    2  C   UNL     1      -9.915   0.564 -33.057  1.00  0.00     0.037 A 
HETATM    3  N   UNL     1     -10.865   1.577 -33.159  1.00  0.00    -0.192 N 
HETATM    4  C   UNL     1     -10.586   2.816 -33.593  1.00  0.00     0.726 A 
HETATM    5  N   UNL     1      -9.294   3.146 -33.871  1.00  0.00    -0.083 N 
HETATM    6  N   UNL     1      -9.203   4.372 -34.421  1.00  0.00    -0.135 NA
HETATM    7  C   UNL     1     -10.482   4.788 -34.350  1.00  0.00     0.199 A 
HETATM    8  N   UNL     1     -11.359   3.837 -33.854  1.00  0.00    -0.041 NA
HETATM    9  C   UNL     1      -8.161   2.225 -33.727  1.00  0.00     0.202 A 
HETATM   10  C   UNL     1      -8.603   0.819 -33.323  1.00  0.00     0.062 A 
HETATM   11  H   UNL     1     -11.835   1.331 -32.984  1.00  0.00     0.184 HD
ENDROOT
BRANCH  10  12
HETATM   12  C   UNL     1      -7.565  -0.263 -33.172  1.00  0.00     0.256 C 
HETATM   13  N   UNL     1      -7.289  -0.988 -34.314  1.00  0.00    -0.323 N 
HETATM   14  H   UNL     1      -7.677  -0.692 -35.195  1.00  0.00     0.169 HD
HETATM   15  O   UNL     1      -7.002  -0.419 -32.092  1.00  0.00    -0.267 OA
BRANCH  13  16
HETATM   16  C   UNL     1      -6.437  -2.114 -34.420  1.00  0.00     0.035 A 
HETATM   17  C   UNL     1      -5.056  -2.073 -34.225  1.00  0.00     0.029 A 
HETATM   18  C   UNL     1      -4.291  -3.240 -34.316  1.00  0.00     0.002 A 
HETATM   19  C   UNL     1      -4.900  -4.458 -34.610  1.00  0.00     0.000 A 
HETATM   20  C   UNL     1      -6.277  -4.510 -34.808  1.00  0.00     0.002 A 
HETATM   21  C   UNL     1      -7.041  -3.346 -34.707  1.00  0.00     0.029 A 
ENDBRANCH  13  16
ENDBRANCH  10  12
BRANCH   9  22
HETATM   22  C   UNL     1      -7.122   2.848 -32.796  1.00  0.00    -0.028 A 
HETATM   23  C   UNL     1      -5.816   3.137 -33.229  1.00  0.00     0.012 A 
HETATM   24  C   UNL     1      -4.878   3.684 -32.350  1.00  0.00     0.037 A 
HETATM   25  C   UNL     1      -5.239   3.934 -31.030  1.00  0.00     0.065 A 
HETATM   26  C   UNL     1      -6.519   3.645 -30.577  1.00  0.00     0.037 A 
HETATM   27  C   UNL     1      -7.458   3.101 -31.454  1.00  0.00     0.012 A 
BRANCH  25  28
HETATM   28  O   UNL     1      -4.353   4.459 -30.137  1.00  0.00    -0.361 OA
HETATM   29  H   UNL     1      -4.216   3.814 -29.423  1.00  0.00     0.217 HD
ENDBRANCH  25  28
ENDBRANCH   9  22
BRANCH   7  30
HETATM   30  C   UNL     1     -10.927   6.112 -34.771  1.00  0.00     0.016 A 
HETATM   31  C   UNL     1     -10.325   6.758 -35.861  1.00  0.00     0.039 A 
HETATM   32  C   UNL     1     -10.756   8.025 -36.251  1.00  0.00     0.035 A 
HETATM   33 CL   UNL     1     -10.008   8.809 -37.589  1.00  0.00    -0.084 Cl
HETATM   34  C   UNL     1     -11.788   8.666 -35.567  1.00  0.00     0.024 A 
HETATM   35  C   UNL     1     -12.393   8.033 -34.482  1.00  0.00     0.003 A 
HETATM   36  C   UNL     1     -11.964   6.764 -34.086  1.00  0.00     0.015 A 
ENDBRANCH   7  30
TORSDOF 5
ENDMDL
MODEL 8
REMARK VINA RESULT:      -9.2      3.545      6.282
REMARK  5 active torsions:
REMARK  status: ('A' for Active; 'I' for Inactive)
REMARK    1  A    between atoms: C_7  and  C_8 
REMARK    2  A    between atoms: C_16  and  C_17 
REMARK    3  A    between atoms: C_20  and  O_21 
REMARK    4  A    between atoms: C_24  and  C_25 
REMARK       I    between atoms: C_25  and  N_26 
REMARK    5  A    between atoms: N_26  and  C_27 
ROOT
HETATM    1  C   UNL     1     -10.414  -0.294 -32.698  1.00  0.00     0.070 C 
HETATM    2  C   UNL     1      -9.376   0.772 -32.427  1.00  0.00     0.037 A 
HETATM    3  N   UNL     1      -9.754   1.735 -31.495  1.00  0.00    -0.192 N 
HETATM    4  C   UNL     1      -9.019   2.821 -31.208  1.00  0.00     0.726 A 
HETATM    5  N   UNL     1      -7.793   2.962 -31.785  1.00  0.00    -0.083 N 
HETATM    6  N   UNL     1      -7.247   4.161 -31.502  1.00  0.00    -0.135 NA
HETATM    7  C   UNL     1      -8.155   4.668 -30.647  1.00  0.00     0.199 A 
HETATM    8  N   UNL     1      -9.268   3.863 -30.461  1.00  0.00    -0.041 NA
HETATM    9  C   UNL     1      -7.206   1.992 -32.716  1.00  0.00     0.202 A 
HETATM   10  C   UNL     1      -8.165   0.849 -33.047  1.00  0.00     0.062 A 
HETATM   11  H   UNL     1     -10.680   1.654 -31.084  1.00  0.00     0.184 HD
ENDROOT
BRANCH  10  12
HETATM   12  C   UNL     1      -7.733  -0.214 -34.023  1.00  0.00     0.256 C 
HETATM   13  N   UNL     1      -7.162  -1.340 -33.465  1.00  0.00    -0.323 N 
HETATM   14  H   UNL     1      -7.177  -1.460 -32.465  1.00  0.00     0.169 HD
HETATM   15  O   UNL     1      -7.938  -0.056 -35.223  1.00  0.00    -0.267 OA
BRANCH  13  16
HETATM   16  C   UNL     1      -6.585  -2.432 -34.158  1.00  0.00     0.035 A 
HETATM   17  C   UNL     1      -7.305  -3.533 -34.623  1.00  0.00     0.029 A 
HETATM   18  C   UNL     1      -6.661  -4.555 -35.330  1.00  0.00     0.002 A 
HETATM   19  C   UNL     1      -5.292  -4.487 -35.570  1.00  0.00     0.000 A 
HETATM   20  C   UNL     1      -4.563  -3.394 -35.109  1.00  0.00     0.002 A 
HETATM   21  C   UNL     1      -5.208  -2.369 -34.413  1.00  0.00     0.029 A 
ENDBRANCH  13  16
ENDBRANCH  10  12
BRANCH   9  22
HETATM   22  C   UNL     1      -5.850   1.538 -32.180  1.00  0.00    -0.028 A 
HETATM   23  C   UNL     1      -4.643   1.919 -32.793  1.00  0.00     0.012 A 
HETATM   24  C   UNL     1      -3.418   1.469 -32.295  1.00  0.00     0.037 A 
HETATM   25  C   UNL     1      -3.394   0.626 -31.190  1.00  0.00     0.065 A 
HETATM   26  C   UNL     1      -4.573   0.224 -30.577  1.00  0.00     0.037 A 
HETATM   27  C   UNL     1      -5.797   0.675 -31.069  1.00  0.00     0.012 A 
BRANCH  25  28
HETATM   28  O   UNL     1      -2.221   0.156 -30.678  1.00  0.00    -0.361 OA
HETATM   29  H   UNL     1      -1.572   0.879 -30.677  1.00  0.00     0.217 HD
ENDBRANCH  25  28
ENDBRANCH   9  22
BRANCH   7  30
HETATM   30  C   UNL     1      -8.008   5.958 -29.982  1.00  0.00     0.016 A 
HETATM   31  C   UNL     1      -8.862   6.325 -28.931  1.00  0.00     0.039 A 
HETATM   32  C   UNL     1      -8.713   7.562 -28.306  1.00  0.00     0.035 A 
HETATM   33 CL   UNL     1      -9.768   8.002 -27.019  1.00  0.00    -0.084 Cl
HETATM   34  C   UNL     1      -7.719   8.449 -28.715  1.00  0.00     0.024 A 
HETATM   35  C   UNL     1      -6.865   8.095 -29.759  1.00  0.00     0.003 A 
HETATM   36  C   UNL     1      -7.011   6.857 -30.389  1.00  0.00     0.015 A 
ENDBRANCH   7  30
TORSDOF 5
ENDMDL
MODEL 9
REMARK VINA RESULT:      -9.2      3.689      6.954
REMARK  5 active torsions:
REMARK  status: ('A' for Active; 'I' for Inactive)
REMARK    1  A    between atoms: C_7  and  C_8 
REMARK    2  A    between atoms: C_16  and  C_17 
REMARK    3  A    between atoms: C_20  and  O_21 
REMARK    4  A    between atoms: C_24  and  C_25 
REMARK       I    between atoms: C_25  and  N_26 
REMARK    5  A    between atoms: N_26  and  C_27 
ROOT
HETATM    1  C   UNL     1      -3.565   2.192 -31.608  1.00  0.00     0.070 C 
HETATM    2  C   UNL     1      -5.010   2.529 -31.317  1.00  0.00     0.037 A 
HETATM    3  N   UNL     1      -5.246   3.858 -30.974  1.00  0.00    -0.192 N 
HETATM    4  C   UNL     1      -6.439   4.321 -30.571  1.00  0.00     0.726 A 
HETATM    5  N   UNL     1      -7.511   3.481 -30.573  1.00  0.00    -0.083 N 
HETATM    6  N   UNL     1      -8.594   4.057 -30.016  1.00  0.00    -0.135 NA
HETATM    7  C   UNL     1      -8.140   5.305 -29.789  1.00  0.00     0.199 A 
HETATM    8  N   UNL     1      -6.805   5.488 -30.110  1.00  0.00    -0.041 NA
HETATM    9  C   UNL     1      -7.454   2.077 -30.995  1.00  0.00     0.202 A 
HETATM   10  C   UNL     1      -6.034   1.630 -31.339  1.00  0.00     0.062 A 
HETATM   11  H   UNL     1      -4.445   4.483 -30.939  1.00  0.00     0.184 HD
ENDROOT
BRANCH  10  12
HETATM   12  C   UNL     1      -5.793   0.201 -31.752  1.00  0.00     0.256 C 
HETATM   13  N   UNL     1      -5.790  -0.035 -33.112  1.00  0.00    -0.323 N 
HETATM   14  H   UNL     1      -5.814   0.744 -33.750  1.00  0.00     0.169 HD
HETATM   15  O   UNL     1      -5.577  -0.651 -30.894  1.00  0.00    -0.267 OA
BRANCH  13  16
HETATM   16  C   UNL     1      -5.688  -1.292 -33.755  1.00  0.00     0.035 A 
HETATM   17  C   UNL     1      -4.482  -1.948 -34.006  1.00  0.00     0.029 A 
HETATM   18  C   UNL     1      -4.472  -3.206 -34.619  1.00  0.00     0.002 A 
HETATM   19  C   UNL     1      -5.667  -3.814 -34.992  1.00  0.00     0.000 A 
HETATM   20  C   UNL     1      -6.876  -3.168 -34.749  1.00  0.00     0.002 A 
HETATM   21  C   UNL     1      -6.886  -1.917 -34.128  1.00  0.00     0.029 A 
ENDBRANCH  13  16
ENDBRANCH  10  12
BRANCH   9  22
HETATM   22  C   UNL     1      -8.473   1.846 -32.110  1.00  0.00    -0.028 A 
HETATM   23  C   UNL     1      -9.345   0.743 -32.102  1.00  0.00     0.012 A 
HETATM   24  C   UNL     1     -10.250   0.543 -33.148  1.00  0.00     0.037 A 
HETATM   25  C   UNL     1     -10.279   1.438 -34.211  1.00  0.00     0.065 A 
HETATM   26  C   UNL     1      -9.418   2.527 -34.247  1.00  0.00     0.037 A 
HETATM   27  C   UNL     1      -8.516   2.731 -33.203  1.00  0.00     0.012 A 
BRANCH  25  28
HETATM   28  O   UNL     1     -11.139   1.275 -35.256  1.00  0.00    -0.361 OA
HETATM   29  H   UNL     1     -10.620   1.158 -36.069  1.00  0.00     0.217 HD
ENDBRANCH  25  28
ENDBRANCH   9  22
BRANCH   7  30
HETATM   30  C   UNL     1      -8.961   6.376 -29.235  1.00  0.00     0.016 A 
HETATM   31  C   UNL     1     -10.072   6.864 -29.937  1.00  0.00     0.039 A 
HETATM   32  C   UNL     1     -10.846   7.891 -29.398  1.00  0.00     0.035 A 
HETATM   33 CL   UNL     1     -12.207   8.483 -30.271  1.00  0.00    -0.084 Cl
HETATM   34  C   UNL     1     -10.528   8.446 -28.160  1.00  0.00     0.024 A 
HETATM   35  C   UNL     1      -9.425   7.969 -27.453  1.00  0.00     0.003 A 
HETATM   36  C   UNL     1      -8.645   6.940 -27.989  1.00  0.00     0.015 A 
ENDBRANCH   7  30
TORSDOF 5
ENDMDL
MODEL 10
REMARK VINA RESULT:      -9.1      3.914      9.422
REMARK  5 active torsions:
REMARK  status: ('A' for Active; 'I' for Inactive)
REMARK    1  A    between atoms: C_7  and  C_8 
REMARK    2  A    between atoms: C_16  and  C_17 
REMARK    3  A    between atoms: C_20  and  O_21 
REMARK    4  A    between atoms: C_24  and  C_25 
REMARK       I    between atoms: C_25  and  N_26 
REMARK    5  A    between atoms: N_26  and  C_27 
ROOT
HETATM    1  C   UNL     1      -3.392   0.975 -31.674  1.00  0.00     0.070 C 
HETATM    2  C   UNL     1      -4.563   1.813 -32.135  1.00  0.00     0.037 A 
HETATM    3  N   UNL     1      -5.781   1.140 -32.190  1.00  0.00    -0.192 N 
HETATM    4  C   UNL     1      -6.907   1.681 -32.682  1.00  0.00     0.726 A 
HETATM    5  N   UNL     1      -6.900   2.985 -33.074  1.00  0.00    -0.083 N 
HETATM    6  N   UNL     1      -8.059   3.331 -33.667  1.00  0.00    -0.135 NA
HETATM    7  C   UNL     1      -8.783   2.207 -33.504  1.00  0.00     0.199 A 
HETATM    8  N   UNL     1      -8.086   1.167 -32.911  1.00  0.00    -0.041 NA
HETATM    9  C   UNL     1      -5.725   3.861 -32.995  1.00  0.00     0.202 A 
HETATM   10  C   UNL     1      -4.478   3.120 -32.514  1.00  0.00     0.062 A 
HETATM   11  H   UNL     1      -5.787   0.158 -31.930  1.00  0.00     0.184 HD
ENDROOT
BRANCH  10  12
HETATM   12  C   UNL     1      -3.173   3.864 -32.416  1.00  0.00     0.256 C 
HETATM   13  N   UNL     1      -2.904   4.440 -31.189  1.00  0.00    -0.323 N 
HETATM   14  H   UNL     1      -3.502   4.235 -30.405  1.00  0.00     0.169 HD
HETATM   15  O   UNL     1      -2.414   3.891 -33.381  1.00  0.00    -0.267 OA
BRANCH  13  16
HETATM   16  C   UNL     1      -1.806   5.271 -30.864  1.00  0.00     0.035 A 
HETATM   17  C   UNL     1      -0.487   4.826 -30.770  1.00  0.00     0.029 A 
HETATM   18  C   UNL     1       0.546   5.722 -30.474  1.00  0.00     0.002 A 
HETATM   19  C   UNL     1       0.267   7.070 -30.263  1.00  0.00     0.000 A 
HETATM   20  C   UNL     1      -1.046   7.525 -30.352  1.00  0.00     0.002 A 
HETATM   21  C   UNL     1      -2.075   6.631 -30.657  1.00  0.00     0.029 A 
ENDBRANCH  13  16
ENDBRANCH  10  12
BRANCH   9  22
HETATM   22  C   UNL     1      -6.076   5.098 -32.171  1.00  0.00    -0.028 A 
HETATM   23  C   UNL     1      -5.976   6.397 -32.702  1.00  0.00     0.012 A 
HETATM   24  C   UNL     1      -6.280   7.512 -31.917  1.00  0.00     0.037 A 
HETATM   25  C   UNL     1      -6.675   7.335 -30.596  1.00  0.00     0.065 A 
HETATM   26  C   UNL     1      -6.768   6.064 -30.046  1.00  0.00     0.037 A 
HETATM   27  C   UNL     1      -6.468   4.949 -30.828  1.00  0.00     0.012 A 
BRANCH  25  28
HETATM   28  O   UNL     1      -6.972   8.397 -29.794  1.00  0.00    -0.361 OA
HETATM   29  H   UNL     1      -6.220   8.554 -29.198  1.00  0.00     0.217 HD
ENDBRANCH  25  28
ENDBRANCH   9  22
BRANCH   7  30
HETATM   30  C   UNL     1     -10.172   2.071 -33.928  1.00  0.00     0.016 A 
HETATM   31  C   UNL     1     -10.925   0.944 -33.567  1.00  0.00     0.039 A 
HETATM   32  C   UNL     1     -12.251   0.824 -33.981  1.00  0.00     0.035 A 
HETATM   33 CL   UNL     1     -13.165  -0.565 -33.533  1.00  0.00    -0.084 Cl
HETATM   34  C   UNL     1     -12.845   1.818 -34.758  1.00  0.00     0.024 A 
HETATM   35  C   UNL     1     -12.106   2.942 -35.123  1.00  0.00     0.003 A 
HETATM   36  C   UNL     1     -10.776   3.066 -34.711  1.00  0.00     0.015 A 
ENDBRANCH   7  30
TORSDOF 5
ENDMDL
