MODEL 1
REMARK VINA RESULT:      -8.9      0.000      0.000
REMARK  3 active torsions:
REMARK  status: ('A' for Active; 'I' for Inactive)
REMARK    1  A    between atoms: C_2  and  O_3 
REMARK    2  A    between atoms: O_3  and  C_4 
REMARK    3  A    between atoms: C_5  and  N_6 
REMARK       I    between atoms: N_6  and  C_7 
REMARK       I    between atoms: C_7  and  N_8 
ROOT
HETATM    1  N   UNL     1      -4.092   3.392 -31.859  1.00  0.00    -0.306 N 
HETATM    2  C   UNL     1      -5.144   2.642 -32.324  1.00  0.00     0.323 C 
HETATM    3  N   UNL     1      -4.816   1.352 -32.735  1.00  0.00    -0.328 N 
HETATM    4  C   UNL     1      -5.808   0.718 -33.617  1.00  0.00     0.185 C 
HETATM    5  C   UNL     1      -5.511  -0.724 -33.799  1.00  0.00     0.035 A 
HETATM    6  C   UNL     1      -4.476  -1.441 -33.241  1.00  0.00    -0.020 A 
HETATM    7  C   UNL     1      -3.507  -0.780 -32.335  1.00  0.00     0.061 C 
HETATM    8  C   UNL     1      -3.474   0.737 -32.621  1.00  0.00     0.132 C 
HETATM    9  N   UNL     1      -6.246  -1.574 -34.578  1.00  0.00    -0.357 N 
HETATM   10  H   UNL     1      -7.070  -1.325 -35.108  1.00  0.00     0.166 HD
HETATM   11  C   UNL     1      -5.701  -2.839 -34.531  1.00  0.00     0.043 A 
HETATM   12  C   UNL     1      -4.586  -2.784 -33.689  1.00  0.00    -0.001 A 
HETATM   13  C   UNL     1      -6.111  -4.018 -35.166  1.00  0.00     0.030 A 
HETATM   14  C   UNL     1      -5.365  -5.175 -34.927  1.00  0.00     0.002 A 
HETATM   15  C   UNL     1      -4.253  -5.152 -34.089  1.00  0.00     0.001 A 
HETATM   16  C   UNL     1      -3.853  -3.965 -33.464  1.00  0.00     0.014 A 
HETATM   17  O   UNL     1      -6.294   3.067 -32.421  1.00  0.00    -0.247 OA
HETATM   18  H   UNL     1      -3.183   3.190 -32.251  1.00  0.00     0.171 HD
ENDROOT
BRANCH   1  19
HETATM   19  C   UNL     1      -4.177   4.685 -31.285  1.00  0.00     0.072 A 
HETATM   20  C   UNL     1      -3.319   5.684 -31.799  1.00  0.00     0.096 A 
HETATM   21  C   UNL     1      -3.382   6.980 -31.280  1.00  0.00     0.042 A 
HETATM   22  C   UNL     1      -4.267   7.275 -30.240  1.00  0.00     0.045 A 
HETATM   23  C   UNL     1      -5.083   6.278 -29.725  1.00  0.00     0.118 A 
HETATM   24  C   UNL     1      -5.048   4.987 -30.236  1.00  0.00     0.074 A 
HETATM   25  F   UNL     1      -5.916   6.568 -28.716  1.00  0.00    -0.206 F 
BRANCH  20  26
HETATM   26  O   UNL     1      -2.488   5.271 -32.814  1.00  0.00    -0.344 OA
BRANCH  26  27
HETATM   27  C   UNL     1      -2.544   5.929 -34.085  1.00  0.00     0.121 C 
HETATM   28  C   UNL     1      -3.683   5.348 -34.920  1.00  0.00     0.040 C 
HETATM   29  C   UNL     1      -1.207   5.667 -34.773  1.00  0.00     0.040 C 
ENDBRANCH  26  27
ENDBRANCH  20  26
ENDBRANCH   1  19
TORSDOF 3
ENDMDL
MODEL 2
REMARK VINA RESULT:      -8.9      1.238      1.822
REMARK  3 active torsions:
REMARK  status: ('A' for Active; 'I' for Inactive)
REMARK    1  A    between atoms: C_2  and  O_3 
REMARK    2  A    between atoms: O_3  and  C_4 
REMARK    3  A    between atoms: C_5  and  N_6 
REMARK       I    between atoms: N_6  and  C_7 
REMARK       I    between atoms: C_7  and  N_8 
ROOT
HETATM    1  N   UNL     1      -4.670   3.599 -31.430  1.00  0.00    -0.306 N 
HETATM    2  C   UNL     1      -3.757   2.574 -31.488  1.00  0.00     0.323 C 
HETATM    3  N   UNL     1      -4.248   1.369 -31.985  1.00  0.00    -0.328 N 
HETATM    4  C   UNL     1      -3.437   0.190 -31.649  1.00  0.00     0.185 C 
HETATM    5  C   UNL     1      -3.883  -0.998 -32.418  1.00  0.00     0.035 A 
HETATM    6  C   UNL     1      -4.899  -1.060 -33.345  1.00  0.00    -0.020 A 
HETATM    7  C   UNL     1      -5.682   0.152 -33.683  1.00  0.00     0.061 C 
HETATM    8  C   UNL     1      -5.615   1.161 -32.516  1.00  0.00     0.132 C 
HETATM    9  N   UNL     1      -3.332  -2.244 -32.308  1.00  0.00    -0.357 N 
HETATM   10  H   UNL     1      -2.563  -2.498 -31.702  1.00  0.00     0.166 HD
HETATM   11  C   UNL     1      -3.978  -3.118 -33.156  1.00  0.00     0.043 A 
HETATM   12  C   UNL     1      -4.967  -2.394 -33.828  1.00  0.00    -0.001 A 
HETATM   13  C   UNL     1      -3.759  -4.483 -33.377  1.00  0.00     0.030 A 
HETATM   14  C   UNL     1      -4.569  -5.125 -34.317  1.00  0.00     0.002 A 
HETATM   15  C   UNL     1      -5.560  -4.428 -35.006  1.00  0.00     0.001 A 
HETATM   16  C   UNL     1      -5.769  -3.064 -34.772  1.00  0.00     0.014 A 
HETATM   17  O   UNL     1      -2.595   2.673 -31.097  1.00  0.00    -0.247 OA
HETATM   18  H   UNL     1      -5.635   3.337 -31.289  1.00  0.00     0.171 HD
ENDROOT
BRANCH   1  19
HETATM   19  C   UNL     1      -4.397   4.942 -31.069  1.00  0.00     0.072 A 
HETATM   20  C   UNL     1      -3.582   5.698 -31.941  1.00  0.00     0.096 A 
HETATM   21  C   UNL     1      -3.303   7.034 -31.638  1.00  0.00     0.042 A 
HETATM   22  C   UNL     1      -3.804   7.605 -30.465  1.00  0.00     0.045 A 
HETATM   23  C   UNL     1      -4.580   6.842 -29.603  1.00  0.00     0.118 A 
HETATM   24  C   UNL     1      -4.882   5.517 -29.892  1.00  0.00     0.074 A 
HETATM   25  F   UNL     1      -5.041   7.394 -28.473  1.00  0.00    -0.206 F 
BRANCH  20  26
HETATM   26  O   UNL     1      -3.143   5.026 -33.057  1.00  0.00    -0.344 OA
BRANCH  26  27
HETATM   27  C   UNL     1      -2.942   5.741 -34.281  1.00  0.00     0.121 C 
HETATM   28  C   UNL     1      -3.858   5.181 -35.366  1.00  0.00     0.040 C 
HETATM   29  C   UNL     1      -1.481   5.536 -34.673  1.00  0.00     0.040 C 
ENDBRANCH  26  27
ENDBRANCH  20  26
ENDBRANCH   1  19
TORSDOF 3
ENDMDL
MODEL 3
REMARK VINA RESULT:      -8.7      1.838      3.490
REMARK  3 active torsions:
REMARK  status: ('A' for Active; 'I' for Inactive)
REMARK    1  A    between atoms: C_2  and  O_3 
REMARK    2  A    between atoms: O_3  and  C_4 
REMARK    3  A    between atoms: C_5  and  N_6 
REMARK       I    between atoms: N_6  and  C_7 
REMARK       I    between atoms: C_7  and  N_8 
ROOT
HETATM    1  N   UNL     1      -4.644   3.867 -31.845  1.00  0.00    -0.306 N 
HETATM    2  C   UNL     1      -3.780   2.832 -32.109  1.00  0.00     0.323 C 
HETATM    3  N   UNL     1      -4.385   1.634 -32.482  1.00  0.00    -0.328 N 
HETATM    4  C   UNL     1      -3.532   0.445 -32.338  1.00  0.00     0.185 C 
HETATM    5  C   UNL     1      -4.154  -0.736 -32.986  1.00  0.00     0.035 A 
HETATM    6  C   UNL     1      -5.355  -0.784 -33.658  1.00  0.00    -0.020 A 
HETATM    7  C   UNL     1      -6.181   0.438 -33.809  1.00  0.00     0.061 C 
HETATM    8  C   UNL     1      -5.839   1.442 -32.688  1.00  0.00     0.132 C 
HETATM    9  N   UNL     1      -3.606  -1.988 -33.004  1.00  0.00    -0.357 N 
HETATM   10  H   UNL     1      -2.722  -2.252 -32.589  1.00  0.00     0.166 HD
HETATM   11  C   UNL     1      -4.438  -2.852 -33.683  1.00  0.00     0.043 A 
HETATM   12  C   UNL     1      -5.546  -2.116 -34.112  1.00  0.00    -0.001 A 
HETATM   13  C   UNL     1      -4.291  -4.219 -33.948  1.00  0.00     0.030 A 
HETATM   14  C   UNL     1      -5.301  -4.850 -34.679  1.00  0.00     0.002 A 
HETATM   15  C   UNL     1      -6.414  -4.141 -35.125  1.00  0.00     0.001 A 
HETATM   16  C   UNL     1      -6.549  -2.775 -34.849  1.00  0.00     0.014 A 
HETATM   17  O   UNL     1      -2.558   2.918 -31.993  1.00  0.00    -0.247 OA
HETATM   18  H   UNL     1      -5.555   3.615 -31.488  1.00  0.00     0.171 HD
ENDROOT
BRANCH   1  19
HETATM   19  C   UNL     1      -4.281   5.206 -31.555  1.00  0.00     0.072 A 
HETATM   20  C   UNL     1      -4.771   5.768 -30.354  1.00  0.00     0.096 A 
HETATM   21  C   UNL     1      -4.421   7.078 -30.014  1.00  0.00     0.042 A 
HETATM   22  C   UNL     1      -3.619   7.833 -30.873  1.00  0.00     0.045 A 
HETATM   23  C   UNL     1      -3.169   7.278 -32.063  1.00  0.00     0.118 A 
HETATM   24  C   UNL     1      -3.491   5.973 -32.413  1.00  0.00     0.074 A 
HETATM   25  F   UNL     1      -2.414   8.018 -32.888  1.00  0.00    -0.206 F 
BRANCH  20  26
HETATM   26  O   UNL     1      -5.555   4.930 -29.597  1.00  0.00    -0.344 OA
BRANCH  26  27
HETATM   27  C   UNL     1      -6.970   5.145 -29.542  1.00  0.00     0.121 C 
HETATM   28  C   UNL     1      -7.353   5.739 -28.189  1.00  0.00     0.040 C 
HETATM   29  C   UNL     1      -7.628   3.778 -29.716  1.00  0.00     0.040 C 
ENDBRANCH  26  27
ENDBRANCH  20  26
ENDBRANCH   1  19
TORSDOF 3
ENDMDL
MODEL 4
REMARK VINA RESULT:      -8.4      5.279      8.887
REMARK  3 active torsions:
REMARK  status: ('A' for Active; 'I' for Inactive)
REMARK    1  A    between atoms: C_2  and  O_3 
REMARK    2  A    between atoms: O_3  and  C_4 
REMARK    3  A    between atoms: C_5  and  N_6 
REMARK       I    between atoms: N_6  and  C_7 
REMARK       I    between atoms: C_7  and  N_8 
ROOT
HETATM    1  N   UNL     1      -7.494  -0.773 -33.353  1.00  0.00    -0.306 N 
HETATM    2  C   UNL     1      -8.179   0.130 -34.129  1.00  0.00     0.323 C 
HETATM    3  N   UNL     1      -9.008   1.004 -33.430  1.00  0.00    -0.328 N 
HETATM    4  C   UNL     1     -10.045   1.652 -34.248  1.00  0.00     0.185 C 
HETATM    5  C   UNL     1     -10.711   2.743 -33.494  1.00  0.00     0.035 A 
HETATM    6  C   UNL     1     -10.440   3.155 -32.208  1.00  0.00    -0.020 A 
HETATM    7  C   UNL     1      -9.371   2.500 -31.417  1.00  0.00     0.061 C 
HETATM    8  C   UNL     1      -9.122   1.074 -31.955  1.00  0.00     0.132 C 
HETATM    9  N   UNL     1     -11.727   3.515 -33.983  1.00  0.00    -0.357 N 
HETATM   10  H   UNL     1     -12.133   3.439 -34.906  1.00  0.00     0.166 HD
HETATM   11  C   UNL     1     -12.120   4.429 -33.030  1.00  0.00     0.043 A 
HETATM   12  C   UNL     1     -11.319   4.228 -31.902  1.00  0.00    -0.001 A 
HETATM   13  C   UNL     1     -13.115   5.413 -33.084  1.00  0.00     0.030 A 
HETATM   14  C   UNL     1     -13.291   6.219 -31.956  1.00  0.00     0.002 A 
HETATM   15  C   UNL     1     -12.505   6.045 -30.819  1.00  0.00     0.001 A 
HETATM   16  C   UNL     1     -11.516   5.055 -30.779  1.00  0.00     0.014 A 
HETATM   17  O   UNL     1      -8.115   0.159 -35.357  1.00  0.00    -0.247 OA
HETATM   18  H   UNL     1      -7.940  -1.060 -32.492  1.00  0.00     0.171 HD
ENDROOT
BRANCH   1  19
HETATM   19  C   UNL     1      -6.513  -1.690 -33.805  1.00  0.00     0.072 A 
HETATM   20  C   UNL     1      -5.164  -1.412 -33.484  1.00  0.00     0.096 A 
HETATM   21  C   UNL     1      -4.163  -2.299 -33.891  1.00  0.00     0.042 A 
HETATM   22  C   UNL     1      -4.494  -3.435 -34.634  1.00  0.00     0.045 A 
HETATM   23  C   UNL     1      -5.819  -3.680 -34.966  1.00  0.00     0.118 A 
HETATM   24  C   UNL     1      -6.832  -2.821 -34.560  1.00  0.00     0.074 A 
HETATM   25  F   UNL     1      -6.122  -4.764 -35.694  1.00  0.00    -0.206 F 
BRANCH  20  26
HETATM   26  O   UNL     1      -4.964  -0.263 -32.757  1.00  0.00    -0.344 OA
BRANCH  26  27
HETATM   27  C   UNL     1      -4.585  -0.354 -31.379  1.00  0.00     0.121 C 
HETATM   28  C   UNL     1      -5.549   0.461 -30.521  1.00  0.00     0.040 C 
HETATM   29  C   UNL     1      -3.176   0.223 -31.273  1.00  0.00     0.040 C 
ENDBRANCH  26  27
ENDBRANCH  20  26
ENDBRANCH   1  19
TORSDOF 3
ENDMDL
MODEL 5
REMARK VINA RESULT:      -8.2      4.868      6.600
REMARK  3 active torsions:
REMARK  status: ('A' for Active; 'I' for Inactive)
REMARK    1  A    between atoms: C_2  and  O_3 
REMARK    2  A    between atoms: O_3  and  C_4 
REMARK    3  A    between atoms: C_5  and  N_6 
REMARK       I    between atoms: N_6  and  C_7 
REMARK       I    between atoms: C_7  and  N_8 
ROOT
HETATM    1  N   UNL     1      -6.083   3.591 -33.806  1.00  0.00    -0.306 N 
HETATM    2  C   UNL     1      -7.206   4.034 -33.150  1.00  0.00     0.323 C 
HETATM    3  N   UNL     1      -8.378   3.341 -33.446  1.00  0.00    -0.328 N 
HETATM    4  C   UNL     1      -9.616   4.058 -33.108  1.00  0.00     0.185 C 
HETATM    5  C   UNL     1     -10.794   3.163 -33.217  1.00  0.00     0.035 A 
HETATM    6  C   UNL     1     -10.802   1.831 -33.568  1.00  0.00    -0.020 A 
HETATM    7  C   UNL     1      -9.534   1.128 -33.878  1.00  0.00     0.061 C 
HETATM    8  C   UNL     1      -8.465   2.150 -34.322  1.00  0.00     0.132 C 
HETATM    9  N   UNL     1     -12.085   3.548 -32.982  1.00  0.00    -0.357 N 
HETATM   10  H   UNL     1     -12.383   4.473 -32.704  1.00  0.00     0.166 HD
HETATM   11  C   UNL     1     -12.934   2.479 -33.174  1.00  0.00     0.043 A 
HETATM   12  C   UNL     1     -12.148   1.381 -33.538  1.00  0.00    -0.001 A 
HETATM   13  C   UNL     1     -14.327   2.404 -33.050  1.00  0.00     0.030 A 
HETATM   14  C   UNL     1     -14.933   1.170 -33.298  1.00  0.00     0.002 A 
HETATM   15  C   UNL     1     -14.176   0.057 -33.658  1.00  0.00     0.001 A 
HETATM   16  C   UNL     1     -12.785   0.148 -33.781  1.00  0.00     0.014 A 
HETATM   17  O   UNL     1      -7.213   4.995 -32.383  1.00  0.00    -0.247 OA
HETATM   18  H   UNL     1      -6.225   3.182 -34.719  1.00  0.00     0.171 HD
ENDROOT
BRANCH   1  19
HETATM   19  C   UNL     1      -4.759   4.051 -33.600  1.00  0.00     0.072 A 
HETATM   20  C   UNL     1      -3.961   3.344 -32.672  1.00  0.00     0.096 A 
HETATM   21  C   UNL     1      -2.640   3.748 -32.451  1.00  0.00     0.042 A 
HETATM   22  C   UNL     1      -2.127   4.860 -33.123  1.00  0.00     0.045 A 
HETATM   23  C   UNL     1      -2.931   5.561 -34.011  1.00  0.00     0.118 A 
HETATM   24  C   UNL     1      -4.240   5.170 -34.257  1.00  0.00     0.074 A 
HETATM   25  F   UNL     1      -2.433   6.637 -34.637  1.00  0.00    -0.206 F 
BRANCH  20  26
HETATM   26  O   UNL     1      -4.579   2.275 -32.069  1.00  0.00    -0.344 OA
BRANCH  26  27
HETATM   27  C   UNL     1      -4.181   0.943 -32.410  1.00  0.00     0.121 C 
HETATM   28  C   UNL     1      -5.402   0.127 -32.825  1.00  0.00     0.040 C 
HETATM   29  C   UNL     1      -3.550   0.339 -31.158  1.00  0.00     0.040 C 
ENDBRANCH  26  27
ENDBRANCH  20  26
ENDBRANCH   1  19
TORSDOF 3
ENDMDL
MODEL 6
REMARK VINA RESULT:      -8.1      5.466      8.824
REMARK  3 active torsions:
REMARK  status: ('A' for Active; 'I' for Inactive)
REMARK    1  A    between atoms: C_2  and  O_3 
REMARK    2  A    between atoms: O_3  and  C_4 
REMARK    3  A    between atoms: C_5  and  N_6 
REMARK       I    between atoms: N_6  and  C_7 
REMARK       I    between atoms: C_7  and  N_8 
ROOT
HETATM    1  N   UNL     1      -7.360   0.032 -33.893  1.00  0.00    -0.306 N 
HETATM    2  C   UNL     1      -7.971   0.390 -32.716  1.00  0.00     0.323 C 
HETATM    3  N   UNL     1      -8.935   1.390 -32.828  1.00  0.00    -0.328 N 
HETATM    4  C   UNL     1      -9.264   2.069 -31.566  1.00  0.00     0.185 C 
HETATM    5  C   UNL     1     -10.462   2.930 -31.724  1.00  0.00     0.035 A 
HETATM    6  C   UNL     1     -11.219   3.108 -32.861  1.00  0.00    -0.020 A 
HETATM    7  C   UNL     1     -10.878   2.389 -34.111  1.00  0.00     0.061 C 
HETATM    8  C   UNL     1      -9.383   2.001 -34.101  1.00  0.00     0.132 C 
HETATM    9  N   UNL     1     -10.999   3.700 -30.731  1.00  0.00    -0.357 N 
HETATM   10  H   UNL     1     -10.651   3.768 -29.783  1.00  0.00     0.166 HD
HETATM   11  C   UNL     1     -12.101   4.377 -31.208  1.00  0.00     0.043 A 
HETATM   12  C   UNL     1     -12.265   4.016 -32.549  1.00  0.00    -0.001 A 
HETATM   13  C   UNL     1     -12.958   5.272 -30.556  1.00  0.00     0.030 A 
HETATM   14  C   UNL     1     -14.017   5.808 -31.293  1.00  0.00     0.002 A 
HETATM   15  C   UNL     1     -14.209   5.462 -32.629  1.00  0.00     0.001 A 
HETATM   16  C   UNL     1     -13.342   4.568 -33.268  1.00  0.00     0.014 A 
HETATM   17  O   UNL     1      -7.679  -0.091 -31.622  1.00  0.00    -0.247 OA
HETATM   18  H   UNL     1      -7.278   0.751 -34.597  1.00  0.00     0.171 HD
ENDROOT
BRANCH   1  19
HETATM   19  C   UNL     1      -6.432  -1.026 -34.064  1.00  0.00     0.072 A 
HETATM   20  C   UNL     1      -5.090  -0.781 -33.695  1.00  0.00     0.096 A 
HETATM   21  C   UNL     1      -4.143  -1.802 -33.826  1.00  0.00     0.042 A 
HETATM   22  C   UNL     1      -4.519  -3.043 -34.346  1.00  0.00     0.045 A 
HETATM   23  C   UNL     1      -5.834  -3.260 -34.731  1.00  0.00     0.118 A 
HETATM   24  C   UNL     1      -6.795  -2.266 -34.596  1.00  0.00     0.074 A 
HETATM   25  F   UNL     1      -6.180  -4.449 -35.244  1.00  0.00    -0.206 F 
BRANCH  20  26
HETATM   26  O   UNL     1      -4.841   0.479 -33.205  1.00  0.00    -0.344 OA
BRANCH  26  27
HETATM   27  C   UNL     1      -3.799   0.670 -32.242  1.00  0.00     0.121 C 
HETATM   28  C   UNL     1      -4.285   0.242 -30.860  1.00  0.00     0.040 C 
HETATM   29  C   UNL     1      -3.472   2.161 -32.241  1.00  0.00     0.040 C 
ENDBRANCH  26  27
ENDBRANCH  20  26
ENDBRANCH   1  19
TORSDOF 3
ENDMDL
MODEL 7
REMARK VINA RESULT:      -8.0      4.800      8.204
REMARK  3 active torsions:
REMARK  status: ('A' for Active; 'I' for Inactive)
REMARK    1  A    between atoms: C_2  and  O_3 
REMARK    2  A    between atoms: O_3  and  C_4 
REMARK    3  A    between atoms: C_5  and  N_6 
REMARK       I    between atoms: N_6  and  C_7 
REMARK       I    between atoms: C_7  and  N_8 
ROOT
HETATM    1  N   UNL     1      -8.520   2.458 -33.857  1.00  0.00    -0.306 N 
HETATM    2  C   UNL     1      -7.828   2.775 -32.713  1.00  0.00     0.323 C 
HETATM    3  N   UNL     1      -6.568   3.332 -32.917  1.00  0.00    -0.328 N 
HETATM    4  C   UNL     1      -5.672   3.265 -31.753  1.00  0.00     0.185 C 
HETATM    5  C   UNL     1      -4.460   4.093 -31.968  1.00  0.00     0.035 A 
HETATM    6  C   UNL     1      -4.155   4.856 -33.073  1.00  0.00    -0.020 A 
HETATM    7  C   UNL     1      -5.091   4.925 -34.221  1.00  0.00     0.061 C 
HETATM    8  C   UNL     1      -5.990   3.670 -34.238  1.00  0.00     0.132 C 
HETATM    9  N   UNL     1      -3.436   4.216 -31.071  1.00  0.00    -0.357 N 
HETATM   10  H   UNL     1      -3.389   3.768 -30.165  1.00  0.00     0.166 HD
HETATM   11  C   UNL     1      -2.467   5.054 -31.579  1.00  0.00     0.043 A 
HETATM   12  C   UNL     1      -2.899   5.477 -32.840  1.00  0.00    -0.001 A 
HETATM   13  C   UNL     1      -1.252   5.467 -31.019  1.00  0.00     0.030 A 
HETATM   14  C   UNL     1      -0.459   6.342 -31.766  1.00  0.00     0.002 A 
HETATM   15  C   UNL     1      -0.866   6.785 -33.022  1.00  0.00     0.001 A 
HETATM   16  C   UNL     1      -2.082   6.361 -33.571  1.00  0.00     0.014 A 
HETATM   17  O   UNL     1      -8.251   2.557 -31.578  1.00  0.00    -0.247 OA
HETATM   18  H   UNL     1      -7.968   2.204 -34.664  1.00  0.00     0.171 HD
ENDROOT
BRANCH   1  19
HETATM   19  C   UNL     1      -9.855   1.985 -33.923  1.00  0.00     0.072 A 
HETATM   20  C   UNL     1     -10.818   2.835 -34.512  1.00  0.00     0.096 A 
HETATM   21  C   UNL     1     -12.144   2.403 -34.619  1.00  0.00     0.042 A 
HETATM   22  C   UNL     1     -12.515   1.152 -34.120  1.00  0.00     0.045 A 
HETATM   23  C   UNL     1     -11.564   0.340 -33.518  1.00  0.00     0.118 A 
HETATM   24  C   UNL     1     -10.238   0.742 -33.414  1.00  0.00     0.074 A 
HETATM   25  F   UNL     1     -11.934  -0.851 -33.026  1.00  0.00    -0.206 F 
BRANCH  20  26
HETATM   26  O   UNL     1     -10.334   4.042 -34.959  1.00  0.00    -0.344 OA
BRANCH  26  27
HETATM   27  C   UNL     1     -10.735   5.251 -34.303  1.00  0.00     0.121 C 
HETATM   28  C   UNL     1     -11.539   6.120 -35.266  1.00  0.00     0.040 C 
HETATM   29  C   UNL     1      -9.453   5.972 -33.894  1.00  0.00     0.040 C 
ENDBRANCH  26  27
ENDBRANCH  20  26
ENDBRANCH   1  19
TORSDOF 3
ENDMDL
MODEL 8
REMARK VINA RESULT:      -7.9      3.335      8.288
REMARK  3 active torsions:
REMARK  status: ('A' for Active; 'I' for Inactive)
REMARK    1  A    between atoms: C_2  and  O_3 
REMARK    2  A    between atoms: O_3  and  C_4 
REMARK    3  A    between atoms: C_5  and  N_6 
REMARK       I    between atoms: N_6  and  C_7 
REMARK       I    between atoms: C_7  and  N_8 
ROOT
HETATM    1  N   UNL     1      -7.089   2.811 -32.953  1.00  0.00    -0.306 N 
HETATM    2  C   UNL     1      -6.829   3.871 -32.119  1.00  0.00     0.323 C 
HETATM    3  N   UNL     1      -5.480   4.159 -31.927  1.00  0.00    -0.328 N 
HETATM    4  C   UNL     1      -5.189   4.970 -30.736  1.00  0.00     0.185 C 
HETATM    5  C   UNL     1      -3.781   5.439 -30.745  1.00  0.00     0.035 A 
HETATM    6  C   UNL     1      -2.826   5.197 -31.707  1.00  0.00    -0.020 A 
HETATM    7  C   UNL     1      -3.157   4.397 -32.910  1.00  0.00     0.061 C 
HETATM    8  C   UNL     1      -4.358   3.475 -32.611  1.00  0.00     0.132 C 
HETATM    9  N   UNL     1      -3.212   6.199 -29.761  1.00  0.00    -0.357 N 
HETATM   10  H   UNL     1      -3.678   6.531 -28.928  1.00  0.00     0.166 HD
HETATM   11  C   UNL     1      -1.894   6.457 -30.074  1.00  0.00     0.043 A 
HETATM   12  C   UNL     1      -1.627   5.841 -31.301  1.00  0.00    -0.001 A 
HETATM   13  C   UNL     1      -0.929   7.186 -29.369  1.00  0.00     0.030 A 
HETATM   14  C   UNL     1       0.343   7.295 -29.936  1.00  0.00     0.002 A 
HETATM   15  C   UNL     1       0.637   6.697 -31.160  1.00  0.00     0.001 A 
HETATM   16  C   UNL     1      -0.338   5.969 -31.852  1.00  0.00     0.014 A 
HETATM   17  O   UNL     1      -7.705   4.511 -31.538  1.00  0.00    -0.247 OA
HETATM   18  H   UNL     1      -6.396   2.077 -32.981  1.00  0.00     0.171 HD
ENDROOT
BRANCH   1  19
HETATM   19  C   UNL     1      -8.368   2.388 -33.394  1.00  0.00     0.072 A 
HETATM   20  C   UNL     1      -8.727   1.042 -33.155  1.00  0.00     0.096 A 
HETATM   21  C   UNL     1      -9.987   0.584 -33.552  1.00  0.00     0.042 A 
HETATM   22  C   UNL     1     -10.870   1.446 -34.207  1.00  0.00     0.045 A 
HETATM   23  C   UNL     1     -10.494   2.758 -34.460  1.00  0.00     0.118 A 
HETATM   24  C   UNL     1      -9.253   3.238 -34.061  1.00  0.00     0.074 A 
HETATM   25  F   UNL     1     -11.342   3.571 -35.104  1.00  0.00    -0.206 F 
BRANCH  20  26
HETATM   26  O   UNL     1      -7.772   0.291 -32.512  1.00  0.00    -0.344 OA
BRANCH  26  27
HETATM   27  C   UNL     1      -6.697  -0.283 -33.264  1.00  0.00     0.121 C 
HETATM   28  C   UNL     1      -7.149  -1.598 -33.895  1.00  0.00     0.040 C 
HETATM   29  C   UNL     1      -5.560  -0.541 -32.278  1.00  0.00     0.040 C 
ENDBRANCH  26  27
ENDBRANCH  20  26
ENDBRANCH   1  19
TORSDOF 3
ENDMDL
MODEL 9
REMARK VINA RESULT:      -7.8     16.917     18.543
REMARK  3 active torsions:
REMARK  status: ('A' for Active; 'I' for Inactive)
REMARK    1  A    between atoms: C_2  and  O_3 
REMARK    2  A    between atoms: O_3  and  C_4 
REMARK    3  A    between atoms: C_5  and  N_6 
REMARK       I    between atoms: N_6  and  C_7 
REMARK       I    between atoms: C_7  and  N_8 
ROOT
HETATM    1  N   UNL     1      -7.056 -13.426 -39.143  1.00  0.00    -0.306 N 
HETATM    2  C   UNL     1      -5.959 -13.583 -39.955  1.00  0.00     0.323 C 
HETATM    3  N   UNL     1      -4.757 -13.817 -39.291  1.00  0.00    -0.328 N 
HETATM    4  C   UNL     1      -3.552 -13.552 -40.090  1.00  0.00     0.185 C 
HETATM    5  C   UNL     1      -2.338 -14.061 -39.406  1.00  0.00     0.035 A 
HETATM    6  C   UNL     1      -2.274 -14.713 -38.194  1.00  0.00    -0.020 A 
HETATM    7  C   UNL     1      -3.510 -14.990 -37.423  1.00  0.00     0.061 C 
HETATM    8  C   UNL     1      -4.613 -13.988 -37.827  1.00  0.00     0.132 C 
HETATM    9  N   UNL     1      -1.067 -13.947 -39.895  1.00  0.00    -0.357 N 
HETATM   10  H   UNL     1      -0.809 -13.513 -40.771  1.00  0.00     0.166 HD
HETATM   11  C   UNL     1      -0.174 -14.520 -39.015  1.00  0.00     0.043 A 
HETATM   12  C   UNL     1      -0.911 -15.018 -37.936  1.00  0.00    -0.001 A 
HETATM   13  C   UNL     1       1.219 -14.636 -39.096  1.00  0.00     0.030 A 
HETATM   14  C   UNL     1       1.877 -15.285 -38.048  1.00  0.00     0.002 A 
HETATM   15  C   UNL     1       1.168 -15.796 -36.962  1.00  0.00     0.001 A 
HETATM   16  C   UNL     1      -0.224 -15.670 -36.894  1.00  0.00     0.014 A 
HETATM   17  O   UNL     1      -5.999 -13.487 -41.181  1.00  0.00    -0.247 OA
HETATM   18  H   UNL     1      -6.888 -13.036 -38.227  1.00  0.00     0.171 HD
ENDROOT
BRANCH   1  19
HETATM   19  C   UNL     1      -8.400 -13.287 -39.571  1.00  0.00     0.072 A 
HETATM   20  C   UNL     1      -9.154 -14.470 -39.742  1.00  0.00     0.096 A 
HETATM   21  C   UNL     1     -10.491 -14.382 -40.141  1.00  0.00     0.042 A 
HETATM   22  C   UNL     1     -11.064 -13.135 -40.398  1.00  0.00     0.045 A 
HETATM   23  C   UNL     1     -10.303 -11.983 -40.254  1.00  0.00     0.118 A 
HETATM   24  C   UNL     1      -8.978 -12.045 -39.843  1.00  0.00     0.074 A 
HETATM   25  F   UNL     1     -10.859 -10.792 -40.520  1.00  0.00    -0.206 F 
BRANCH  20  26
HETATM   26  O   UNL     1      -8.479 -15.636 -39.466  1.00  0.00    -0.344 OA
BRANCH  26  27
HETATM   27  C   UNL     1      -8.877 -16.437 -38.348  1.00  0.00     0.121 C 
HETATM   28  C   UNL     1      -7.726 -16.543 -37.351  1.00  0.00     0.040 C 
HETATM   29  C   UNL     1      -9.220 -17.818 -38.899  1.00  0.00     0.040 C 
ENDBRANCH  26  27
ENDBRANCH  20  26
ENDBRANCH   1  19
TORSDOF 3
ENDMDL
MODEL 10
REMARK VINA RESULT:      -7.8      4.338      8.743
REMARK  3 active torsions:
REMARK  status: ('A' for Active; 'I' for Inactive)
REMARK    1  A    between atoms: C_2  and  O_3 
REMARK    2  A    between atoms: O_3  and  C_4 
REMARK    3  A    between atoms: C_5  and  N_6 
REMARK       I    between atoms: N_6  and  C_7 
REMARK       I    between atoms: C_7  and  N_8 
ROOT
HETATM    1  N   UNL     1      -6.871  -0.399 -32.856  1.00  0.00    -0.306 N 
HETATM    2  C   UNL     1      -7.303   0.799 -33.369  1.00  0.00     0.323 C 
HETATM    3  N   UNL     1      -7.692   1.745 -32.423  1.00  0.00    -0.328 N 
HETATM    4  C   UNL     1      -8.543   2.823 -32.948  1.00  0.00     0.185 C 
HETATM    5  C   UNL     1      -8.700   3.909 -31.948  1.00  0.00     0.035 A 
HETATM    6  C   UNL     1      -8.146   3.972 -30.690  1.00  0.00    -0.020 A 
HETATM    7  C   UNL     1      -7.270   2.881 -30.199  1.00  0.00     0.061 C 
HETATM    8  C   UNL     1      -7.588   1.574 -30.956  1.00  0.00     0.132 C 
HETATM    9  N   UNL     1      -9.449   5.036 -32.140  1.00  0.00    -0.357 N 
HETATM   10  H   UNL     1      -9.970   5.263 -32.977  1.00  0.00     0.166 HD
HETATM   11  C   UNL     1      -9.385   5.836 -31.019  1.00  0.00     0.043 A 
HETATM   12  C   UNL     1      -8.563   5.190 -30.091  1.00  0.00    -0.001 A 
HETATM   13  C   UNL     1      -9.987   7.074 -30.763  1.00  0.00     0.030 A 
HETATM   14  C   UNL     1      -9.737   7.672 -29.525  1.00  0.00     0.002 A 
HETATM   15  C   UNL     1      -8.918   7.054 -28.582  1.00  0.00     0.001 A 
HETATM   16  C   UNL     1      -8.325   5.815 -28.852  1.00  0.00     0.014 A 
HETATM   17  O   UNL     1      -7.389   1.033 -34.574  1.00  0.00    -0.247 OA
HETATM   18  H   UNL     1      -7.275  -0.686 -31.975  1.00  0.00     0.171 HD
ENDROOT
BRANCH   1  19
HETATM   19  C   UNL     1      -6.323  -1.477 -33.595  1.00  0.00     0.072 A 
HETATM   20  C   UNL     1      -4.915  -1.550 -33.693  1.00  0.00     0.096 A 
HETATM   21  C   UNL     1      -4.328  -2.608 -34.394  1.00  0.00     0.042 A 
HETATM   22  C   UNL     1      -5.131  -3.566 -35.016  1.00  0.00     0.045 A 
HETATM   23  C   UNL     1      -6.513  -3.466 -34.936  1.00  0.00     0.118 A 
HETATM   24  C   UNL     1      -7.118  -2.432 -34.232  1.00  0.00     0.074 A 
HETATM   25  F   UNL     1      -7.274  -4.382 -35.552  1.00  0.00    -0.206 F 
BRANCH  20  26
HETATM   26  O   UNL     1      -4.234  -0.547 -33.046  1.00  0.00    -0.344 OA
BRANCH  26  27
HETATM   27  C   UNL     1      -3.808  -0.739 -31.692  1.00  0.00     0.121 C 
HETATM   28  C   UNL     1      -4.031   0.542 -30.892  1.00  0.00     0.040 C 
HETATM   29  C   UNL     1      -2.319  -1.070 -31.743  1.00  0.00     0.040 C 
ENDBRANCH  26  27
ENDBRANCH  20  26
ENDBRANCH   1  19
TORSDOF 3
ENDMDL
