MODEL 1
REMARK VINA RESULT:      -8.7      0.000      0.000
REMARK  7 active torsions:
REMARK  status: ('A' for Active; 'I' for Inactive)
REMARK    1  A    between atoms: C_4  and  C_5 
REMARK    2  A    between atoms: C_5  and  N_6 
REMARK       I    between atoms: N_6  and  C_7 
REMARK       I    between atoms: C_7  and  N_8 
REMARK    3  A    between atoms: N_8  and  C_9 
REMARK    4  A    between atoms: C_9  and  C_10 
REMARK    5  A    between atoms: C_12  and  O_13 
REMARK    6  A    between atoms: O_13  and  C_14 
REMARK    7  A    between atoms: C_23  and  O_24 
ROOT
HETATM    1  N   UNL     1      -6.772   1.476 -33.036  1.00  0.00    -0.335 N 
HETATM    2  C   UNL     1      -6.782   2.481 -32.120  1.00  0.00     0.316 C 
HETATM    3  N   UNL     1      -6.270   3.669 -32.533  1.00  0.00    -0.339 N 
HETATM    4  O   UNL     1      -7.241   2.390 -30.988  1.00  0.00    -0.247 OA
HETATM    5  H   UNL     1      -6.097   1.549 -33.776  1.00  0.00     0.165 HD
HETATM    6  H   UNL     1      -6.336   4.384 -31.820  1.00  0.00     0.164 HD
ENDROOT
BRANCH   1   7
HETATM    7  C   UNL     1      -7.225   0.128 -32.706  1.00  0.00     0.118 C 
HETATM    8  C   UNL     1      -8.668  -0.044 -33.186  1.00  0.00     0.037 C 
BRANCH   7   9
HETATM    9  C   UNL     1      -6.342  -0.969 -33.300  1.00  0.00    -0.002 A 
HETATM   10  C   UNL     1      -6.889  -2.019 -34.066  1.00  0.00     0.018 A 
HETATM   11  C   UNL     1      -6.084  -3.041 -34.584  1.00  0.00    -0.061 A 
HETATM   12  C   UNL     1      -6.676  -4.153 -35.399  1.00  0.00     0.048 C 
HETATM   13  C   UNL     1      -4.712  -3.019 -34.324  1.00  0.00     0.009 A 
HETATM   14  C   UNL     1      -4.153  -1.996 -33.556  1.00  0.00     0.038 A 
HETATM   15  C   UNL     1      -4.955  -0.973 -33.040  1.00  0.00     0.076 A 
BRANCH  15  16
HETATM   16  O   UNL     1      -4.487   0.046 -32.250  1.00  0.00    -0.355 OA
HETATM   17  C   UNL     1      -3.423  -0.251 -31.356  1.00  0.00     0.210 C 
ENDBRANCH  15  16
ENDBRANCH   7   9
ENDBRANCH   1   7
BRANCH   3  18
HETATM   18  C   UNL     1      -5.821   4.060 -33.851  1.00  0.00     0.163 C 
BRANCH  18  19
HETATM   19  C   UNL     1      -4.371   4.469 -33.872  1.00  0.00    -0.035 A 
HETATM   20  C   UNL     1      -3.550   4.221 -32.768  1.00  0.00     0.066 A 
HETATM   21  C   UNL     1      -2.220   4.606 -32.830  1.00  0.00     0.164 A 
HETATM   22  N   UNL     1      -1.654   5.200 -33.899  1.00  0.00    -0.237 NA
HETATM   23  C   UNL     1      -2.456   5.413 -34.963  1.00  0.00     0.120 A 
HETATM   24  C   UNL     1      -3.797   5.068 -34.999  1.00  0.00     0.028 A 
BRANCH  21  25
HETATM   25  O   UNL     1      -1.452   4.359 -31.708  1.00  0.00    -0.329 OA
BRANCH  25  26
HETATM   26  C   UNL     1      -0.432   5.337 -31.412  1.00  0.00     0.130 C 
HETATM   27  C   UNL     1      -0.902   6.663 -30.755  1.00  0.00     0.032 C 
HETATM   28  C   UNL     1       0.354   6.598 -29.867  1.00  0.00     0.005 C 
HETATM   29  C   UNL     1       0.356   5.076 -30.101  1.00  0.00     0.032 C 
ENDBRANCH  25  26
ENDBRANCH  21  25
ENDBRANCH  18  19
ENDBRANCH   3  18
TORSDOF 7
ENDMDL
MODEL 2
REMARK VINA RESULT:      -8.3      1.921      2.933
REMARK  7 active torsions:
REMARK  status: ('A' for Active; 'I' for Inactive)
REMARK    1  A    between atoms: C_4  and  C_5 
REMARK    2  A    between atoms: C_5  and  N_6 
REMARK       I    between atoms: N_6  and  C_7 
REMARK       I    between atoms: C_7  and  N_8 
REMARK    3  A    between atoms: N_8  and  C_9 
REMARK    4  A    between atoms: C_9  and  C_10 
REMARK    5  A    between atoms: C_12  and  O_13 
REMARK    6  A    between atoms: O_13  and  C_14 
REMARK    7  A    between atoms: C_23  and  O_24 
ROOT
HETATM    1  N   UNL     1      -6.863   0.465 -32.355  1.00  0.00    -0.335 N 
HETATM    2  C   UNL     1      -7.848   0.964 -31.561  1.00  0.00     0.316 C 
HETATM    3  N   UNL     1      -7.462   1.394 -30.332  1.00  0.00    -0.339 N 
HETATM    4  O   UNL     1      -9.023   1.074 -31.891  1.00  0.00    -0.247 OA
HETATM    5  H   UNL     1      -6.044   0.117 -31.890  1.00  0.00     0.165 HD
HETATM    6  H   UNL     1      -8.232   1.784 -29.803  1.00  0.00     0.164 HD
ENDROOT
BRANCH   1   7
HETATM    7  C   UNL     1      -7.146  -0.097 -33.672  1.00  0.00     0.118 C 
HETATM    8  C   UNL     1      -6.944   0.988 -34.731  1.00  0.00     0.037 C 
BRANCH   7   9
HETATM    9  C   UNL     1      -6.290  -1.319 -34.004  1.00  0.00    -0.002 A 
HETATM   10  C   UNL     1      -6.843  -2.457 -34.628  1.00  0.00     0.018 A 
HETATM   11  C   UNL     1      -6.066  -3.588 -34.905  1.00  0.00    -0.061 A 
HETATM   12  C   UNL     1      -6.664  -4.792 -35.570  1.00  0.00     0.048 C 
HETATM   13  C   UNL     1      -4.717  -3.588 -34.542  1.00  0.00     0.009 A 
HETATM   14  C   UNL     1      -4.154  -2.477 -33.910  1.00  0.00     0.038 A 
HETATM   15  C   UNL     1      -4.928  -1.345 -33.636  1.00  0.00     0.076 A 
BRANCH  15  16
HETATM   16  O   UNL     1      -4.458  -0.230 -32.989  1.00  0.00    -0.355 OA
HETATM   17  C   UNL     1      -3.106  -0.247 -32.551  1.00  0.00     0.210 C 
ENDBRANCH  15  16
ENDBRANCH   7   9
ENDBRANCH   1   7
BRANCH   3  18
HETATM   18  C   UNL     1      -6.129   1.510 -29.783  1.00  0.00     0.163 C 
BRANCH  18  19
HETATM   19  C   UNL     1      -5.456   2.802 -30.164  1.00  0.00    -0.035 A 
HETATM   20  C   UNL     1      -4.355   2.800 -31.025  1.00  0.00     0.066 A 
HETATM   21  C   UNL     1      -3.768   4.011 -31.357  1.00  0.00     0.164 A 
HETATM   22  N   UNL     1      -4.197   5.207 -30.909  1.00  0.00    -0.237 NA
HETATM   23  C   UNL     1      -5.273   5.192 -30.095  1.00  0.00     0.120 A 
HETATM   24  C   UNL     1      -5.928   4.037 -29.703  1.00  0.00     0.028 A 
BRANCH  21  25
HETATM   25  O   UNL     1      -2.671   3.956 -32.196  1.00  0.00    -0.329 OA
BRANCH  25  26
HETATM   26  C   UNL     1      -2.421   5.138 -32.987  1.00  0.00     0.130 C 
HETATM   27  C   UNL     1      -0.964   5.673 -33.008  1.00  0.00     0.032 C 
HETATM   28  C   UNL     1      -1.154   5.960 -34.508  1.00  0.00     0.005 C 
HETATM   29  C   UNL     1      -2.247   4.876 -34.507  1.00  0.00     0.032 C 
ENDBRANCH  25  26
ENDBRANCH  21  25
ENDBRANCH  18  19
ENDBRANCH   3  18
TORSDOF 7
ENDMDL
MODEL 3
REMARK VINA RESULT:      -8.0      3.485      6.902
REMARK  7 active torsions:
REMARK  status: ('A' for Active; 'I' for Inactive)
REMARK    1  A    between atoms: C_4  and  C_5 
REMARK    2  A    between atoms: C_5  and  N_6 
REMARK       I    between atoms: N_6  and  C_7 
REMARK       I    between atoms: C_7  and  N_8 
REMARK    3  A    between atoms: N_8  and  C_9 
REMARK    4  A    between atoms: C_9  and  C_10 
REMARK    5  A    between atoms: C_12  and  O_13 
REMARK    6  A    between atoms: O_13  and  C_14 
REMARK    7  A    between atoms: C_23  and  O_24 
ROOT
HETATM    1  N   UNL     1      -4.576   0.539 -31.832  1.00  0.00    -0.335 N 
HETATM    2  C   UNL     1      -4.296   1.849 -31.600  1.00  0.00     0.316 C 
HETATM    3  N   UNL     1      -5.156   2.507 -30.782  1.00  0.00    -0.339 N 
HETATM    4  O   UNL     1      -3.324   2.445 -32.049  1.00  0.00    -0.247 OA
HETATM    5  H   UNL     1      -5.531   0.254 -31.705  1.00  0.00     0.165 HD
HETATM    6  H   UNL     1      -4.877   3.466 -30.622  1.00  0.00     0.164 HD
ENDROOT
BRANCH   1   7
HETATM    7  C   UNL     1      -3.777  -0.271 -32.747  1.00  0.00     0.118 C 
HETATM    8  C   UNL     1      -2.641  -0.932 -31.964  1.00  0.00     0.037 C 
BRANCH   7   9
HETATM    9  C   UNL     1      -4.593  -1.332 -33.484  1.00  0.00    -0.002 A 
HETATM   10  C   UNL     1      -4.196  -2.686 -33.499  1.00  0.00     0.018 A 
HETATM   11  C   UNL     1      -4.926  -3.653 -34.199  1.00  0.00    -0.061 A 
HETATM   12  C   UNL     1      -4.495  -5.091 -34.208  1.00  0.00     0.048 C 
HETATM   13  C   UNL     1      -6.065  -3.261 -34.906  1.00  0.00     0.009 A 
HETATM   14  C   UNL     1      -6.467  -1.924 -34.916  1.00  0.00     0.038 A 
HETATM   15  C   UNL     1      -5.741  -0.957 -34.214  1.00  0.00     0.076 A 
BRANCH  15  16
HETATM   16  O   UNL     1      -6.051   0.380 -34.203  1.00  0.00    -0.355 OA
HETATM   17  C   UNL     1      -7.145   0.806 -35.003  1.00  0.00     0.210 C 
ENDBRANCH  15  16
ENDBRANCH   7   9
ENDBRANCH   1   7
BRANCH   3  18
HETATM   18  C   UNL     1      -6.269   1.986 -30.019  1.00  0.00     0.163 C 
BRANCH  18  19
HETATM   19  C   UNL     1      -7.603   2.414 -30.572  1.00  0.00    -0.035 A 
HETATM   20  C   UNL     1      -8.265   1.623 -31.515  1.00  0.00     0.066 A 
HETATM   21  C   UNL     1      -9.494   2.049 -31.994  1.00  0.00     0.164 A 
HETATM   22  N   UNL     1     -10.108   3.183 -31.599  1.00  0.00    -0.237 NA
HETATM   23  C   UNL     1      -9.464   3.923 -30.674  1.00  0.00     0.120 A 
HETATM   24  C   UNL     1      -8.233   3.585 -30.135  1.00  0.00     0.028 A 
BRANCH  21  25
HETATM   25  O   UNL     1     -10.102   1.245 -32.939  1.00  0.00    -0.329 OA
BRANCH  25  26
HETATM   26  C   UNL     1     -11.411   1.666 -33.380  1.00  0.00     0.130 C 
HETATM   27  C   UNL     1     -11.561   2.026 -34.883  1.00  0.00     0.032 C 
HETATM   28  C   UNL     1     -12.928   1.320 -34.853  1.00  0.00     0.005 C 
HETATM   29  C   UNL     1     -12.406   0.507 -33.655  1.00  0.00     0.032 C 
ENDBRANCH  25  26
ENDBRANCH  21  25
ENDBRANCH  18  19
ENDBRANCH   3  18
TORSDOF 7
ENDMDL
MODEL 4
REMARK VINA RESULT:      -8.0      2.352      3.384
REMARK  7 active torsions:
REMARK  status: ('A' for Active; 'I' for Inactive)
REMARK    1  A    between atoms: C_4  and  C_5 
REMARK    2  A    between atoms: C_5  and  N_6 
REMARK       I    between atoms: N_6  and  C_7 
REMARK       I    between atoms: C_7  and  N_8 
REMARK    3  A    between atoms: N_8  and  C_9 
REMARK    4  A    between atoms: C_9  and  C_10 
REMARK    5  A    between atoms: C_12  and  O_13 
REMARK    6  A    between atoms: O_13  and  C_14 
REMARK    7  A    between atoms: C_23  and  O_24 
ROOT
HETATM    1  N   UNL     1      -4.677   1.722 -31.516  1.00  0.00    -0.335 N 
HETATM    2  C   UNL     1      -3.352   1.938 -31.293  1.00  0.00     0.316 C 
HETATM    3  N   UNL     1      -2.913   3.206 -31.499  1.00  0.00    -0.339 N 
HETATM    4  O   UNL     1      -2.562   1.087 -30.901  1.00  0.00    -0.247 OA
HETATM    5  H   UNL     1      -5.140   2.364 -32.133  1.00  0.00     0.165 HD
HETATM    6  H   UNL     1      -1.929   3.310 -31.285  1.00  0.00     0.164 HD
ENDROOT
BRANCH   1   7
HETATM    7  C   UNL     1      -5.270   0.393 -31.403  1.00  0.00     0.118 C 
HETATM    8  C   UNL     1      -6.309   0.405 -30.279  1.00  0.00     0.037 C 
BRANCH   7   9
HETATM    9  C   UNL     1      -5.910  -0.095 -32.702  1.00  0.00    -0.002 A 
HETATM   10  C   UNL     1      -5.554  -1.333 -33.277  1.00  0.00     0.018 A 
HETATM   11  C   UNL     1      -6.117  -1.767 -34.484  1.00  0.00    -0.061 A 
HETATM   12  C   UNL     1      -5.732  -3.086 -35.086  1.00  0.00     0.048 C 
HETATM   13  C   UNL     1      -7.042  -0.946 -35.132  1.00  0.00     0.009 A 
HETATM   14  C   UNL     1      -7.398   0.290 -34.587  1.00  0.00     0.038 A 
HETATM   15  C   UNL     1      -6.839   0.723 -33.380  1.00  0.00     0.076 A 
BRANCH  15  16
HETATM   16  O   UNL     1      -7.109   1.935 -32.799  1.00  0.00    -0.355 OA
HETATM   17  C   UNL     1      -8.473   2.323 -32.692  1.00  0.00     0.210 C 
ENDBRANCH  15  16
ENDBRANCH   7   9
ENDBRANCH   1   7
BRANCH   3  18
HETATM   18  C   UNL     1      -3.674   4.397 -31.806  1.00  0.00     0.163 C 
BRANCH  18  19
HETATM   19  C   UNL     1      -2.854   5.441 -32.518  1.00  0.00    -0.035 A 
HETATM   20  C   UNL     1      -2.792   6.748 -32.027  1.00  0.00     0.066 A 
HETATM   21  C   UNL     1      -2.021   7.678 -32.707  1.00  0.00     0.164 A 
HETATM   22  N   UNL     1      -1.309   7.402 -33.817  1.00  0.00    -0.237 NA
HETATM   23  C   UNL     1      -1.364   6.131 -34.265  1.00  0.00     0.120 A 
HETATM   24  C   UNL     1      -2.106   5.130 -33.659  1.00  0.00     0.028 A 
BRANCH  21  25
HETATM   25  O   UNL     1      -2.006   8.961 -32.195  1.00  0.00    -0.329 OA
BRANCH  25  26
HETATM   26  C   UNL     1      -2.521   9.113 -30.854  1.00  0.00     0.130 C 
HETATM   27  C   UNL     1      -1.537   8.825 -29.689  1.00  0.00     0.032 C 
HETATM   28  C   UNL     1      -2.145  10.033 -28.956  1.00  0.00     0.005 C 
HETATM   29  C   UNL     1      -2.560  10.575 -30.336  1.00  0.00     0.032 C 
ENDBRANCH  25  26
ENDBRANCH  21  25
ENDBRANCH  18  19
ENDBRANCH   3  18
TORSDOF 7
ENDMDL
MODEL 5
REMARK VINA RESULT:      -7.7      2.086      3.237
REMARK  7 active torsions:
REMARK  status: ('A' for Active; 'I' for Inactive)
REMARK    1  A    between atoms: C_4  and  C_5 
REMARK    2  A    between atoms: C_5  and  N_6 
REMARK       I    between atoms: N_6  and  C_7 
REMARK       I    between atoms: C_7  and  N_8 
REMARK    3  A    between atoms: N_8  and  C_9 
REMARK    4  A    between atoms: C_9  and  C_10 
REMARK    5  A    between atoms: C_12  and  O_13 
REMARK    6  A    between atoms: O_13  and  C_14 
REMARK    7  A    between atoms: C_23  and  O_24 
ROOT
HETATM    1  N   UNL     1      -4.659   1.573 -31.426  1.00  0.00    -0.335 N 
HETATM    2  C   UNL     1      -3.325   1.677 -31.179  1.00  0.00     0.316 C 
HETATM    3  N   UNL     1      -2.792   2.919 -31.300  1.00  0.00    -0.339 N 
HETATM    4  O   UNL     1      -2.605   0.748 -30.835  1.00  0.00    -0.247 OA
HETATM    5  H   UNL     1      -5.066   2.286 -32.005  1.00  0.00     0.165 HD
HETATM    6  H   UNL     1      -1.806   2.937 -31.072  1.00  0.00     0.164 HD
ENDROOT
BRANCH   1   7
HETATM    7  C   UNL     1      -5.350   0.288 -31.402  1.00  0.00     0.118 C 
HETATM    8  C   UNL     1      -6.382   0.297 -30.273  1.00  0.00     0.037 C 
BRANCH   7   9
HETATM    9  C   UNL     1      -6.027  -0.058 -32.728  1.00  0.00    -0.002 A 
HETATM   10  C   UNL     1      -6.065  -1.383 -33.211  1.00  0.00     0.018 A 
HETATM   11  C   UNL     1      -6.659  -1.696 -34.440  1.00  0.00    -0.061 A 
HETATM   12  C   UNL     1      -6.695  -3.109 -34.943  1.00  0.00     0.048 C 
HETATM   13  C   UNL     1      -7.213  -0.668 -35.205  1.00  0.00     0.009 A 
HETATM   14  C   UNL     1      -7.173   0.653 -34.752  1.00  0.00     0.038 A 
HETATM   15  C   UNL     1      -6.584   0.967 -33.523  1.00  0.00     0.076 A 
BRANCH  15  16
HETATM   16  O   UNL     1      -6.474   2.240 -33.025  1.00  0.00    -0.355 OA
HETATM   17  C   UNL     1      -6.535   3.315 -33.954  1.00  0.00     0.210 C 
ENDBRANCH  15  16
ENDBRANCH   7   9
ENDBRANCH   1   7
BRANCH   3  18
HETATM   18  C   UNL     1      -3.460   4.180 -31.537  1.00  0.00     0.163 C 
BRANCH  18  19
HETATM   19  C   UNL     1      -2.494   5.320 -31.729  1.00  0.00    -0.035 A 
HETATM   20  C   UNL     1      -2.053   6.066 -30.633  1.00  0.00     0.066 A 
HETATM   21  C   UNL     1      -1.159   7.103 -30.850  1.00  0.00     0.164 A 
HETATM   22  N   UNL     1      -0.671   7.439 -32.061  1.00  0.00    -0.237 NA
HETATM   23  C   UNL     1      -1.092   6.695 -33.105  1.00  0.00     0.120 A 
HETATM   24  C   UNL     1      -1.984   5.641 -32.992  1.00  0.00     0.028 A 
BRANCH  21  25
HETATM   25  O   UNL     1      -0.768   7.825 -29.739  1.00  0.00    -0.329 OA
BRANCH  25  26
HETATM   26  C   UNL     1       0.362   7.298 -29.009  1.00  0.00     0.130 C 
HETATM   27  C   UNL     1       1.192   8.311 -28.176  1.00  0.00     0.032 C 
HETATM   28  C   UNL     1       1.292   7.236 -27.079  1.00  0.00     0.005 C 
HETATM   29  C   UNL     1       0.003   6.624 -27.658  1.00  0.00     0.032 C 
ENDBRANCH  25  26
ENDBRANCH  21  25
ENDBRANCH  18  19
ENDBRANCH   3  18
TORSDOF 7
ENDMDL
MODEL 6
REMARK VINA RESULT:      -7.7      2.840      4.458
REMARK  7 active torsions:
REMARK  status: ('A' for Active; 'I' for Inactive)
REMARK    1  A    between atoms: C_4  and  C_5 
REMARK    2  A    between atoms: C_5  and  N_6 
REMARK       I    between atoms: N_6  and  C_7 
REMARK       I    between atoms: C_7  and  N_8 
REMARK    3  A    between atoms: N_8  and  C_9 
REMARK    4  A    between atoms: C_9  and  C_10 
REMARK    5  A    between atoms: C_12  and  O_13 
REMARK    6  A    between atoms: O_13  and  C_14 
REMARK    7  A    between atoms: C_23  and  O_24 
ROOT
HETATM    1  N   UNL     1      -7.979   0.377 -32.907  1.00  0.00    -0.335 N 
HETATM    2  C   UNL     1      -9.190   0.355 -32.290  1.00  0.00     0.316 C 
HETATM    3  N   UNL     1      -9.408   1.328 -31.369  1.00  0.00    -0.339 N 
HETATM    4  O   UNL     1     -10.082  -0.450 -32.531  1.00  0.00    -0.247 OA
HETATM    5  H   UNL     1      -7.233   0.839 -32.418  1.00  0.00     0.165 HD
HETATM    6  H   UNL     1     -10.337   1.279 -30.970  1.00  0.00     0.164 HD
ENDROOT
BRANCH   1   7
HETATM    7  C   UNL     1      -7.583  -0.650 -33.866  1.00  0.00     0.118 C 
HETATM    8  C   UNL     1      -7.582  -0.047 -35.272  1.00  0.00     0.037 C 
BRANCH   7   9
HETATM    9  C   UNL     1      -6.219  -1.268 -33.561  1.00  0.00    -0.002 A 
HETATM   10  C   UNL     1      -5.268  -0.596 -32.765  1.00  0.00     0.018 A 
HETATM   11  C   UNL     1      -4.007  -1.148 -32.511  1.00  0.00    -0.061 A 
HETATM   12  C   UNL     1      -3.004  -0.424 -31.662  1.00  0.00     0.048 C 
HETATM   13  C   UNL     1      -3.686  -2.387 -33.069  1.00  0.00     0.009 A 
HETATM   14  C   UNL     1      -4.607  -3.063 -33.872  1.00  0.00     0.038 A 
HETATM   15  C   UNL     1      -5.869  -2.514 -34.124  1.00  0.00     0.076 A 
BRANCH  15  16
HETATM   16  O   UNL     1      -6.815  -3.098 -34.928  1.00  0.00    -0.355 OA
HETATM   17  C   UNL     1      -6.594  -4.444 -35.329  1.00  0.00     0.210 C 
ENDBRANCH  15  16
ENDBRANCH   7   9
ENDBRANCH   1   7
BRANCH   3  18
HETATM   18  C   UNL     1      -8.581   2.466 -31.031  1.00  0.00     0.163 C 
BRANCH  18  19
HETATM   19  C   UNL     1      -8.470   3.459 -32.158  1.00  0.00    -0.035 A 
HETATM   20  C   UNL     1      -7.262   4.116 -32.406  1.00  0.00     0.066 A 
HETATM   21  C   UNL     1      -7.199   5.017 -33.457  1.00  0.00     0.164 A 
HETATM   22  N   UNL     1      -8.234   5.299 -34.274  1.00  0.00    -0.237 NA
HETATM   23  C   UNL     1      -9.386   4.640 -34.032  1.00  0.00     0.120 A 
HETATM   24  C   UNL     1      -9.551   3.724 -33.007  1.00  0.00     0.028 A 
BRANCH  21  25
HETATM   25  O   UNL     1      -5.990   5.657 -33.652  1.00  0.00    -0.329 OA
BRANCH  25  26
HETATM   26  C   UNL     1      -4.851   4.799 -33.878  1.00  0.00     0.130 C 
HETATM   27  C   UNL     1      -3.882   5.209 -35.020  1.00  0.00     0.032 C 
HETATM   28  C   UNL     1      -2.720   4.785 -34.104  1.00  0.00     0.005 C 
HETATM   29  C   UNL     1      -3.660   5.033 -32.910  1.00  0.00     0.032 C 
ENDBRANCH  25  26
ENDBRANCH  21  25
ENDBRANCH  18  19
ENDBRANCH   3  18
TORSDOF 7
ENDMDL
MODEL 7
REMARK VINA RESULT:      -7.6      1.857      8.729
REMARK  7 active torsions:
REMARK  status: ('A' for Active; 'I' for Inactive)
REMARK    1  A    between atoms: C_4  and  C_5 
REMARK    2  A    between atoms: C_5  and  N_6 
REMARK       I    between atoms: N_6  and  C_7 
REMARK       I    between atoms: C_7  and  N_8 
REMARK    3  A    between atoms: N_8  and  C_9 
REMARK    4  A    between atoms: C_9  and  C_10 
REMARK    5  A    between atoms: C_12  and  O_13 
REMARK    6  A    between atoms: O_13  and  C_14 
REMARK    7  A    between atoms: C_23  and  O_24 
ROOT
HETATM    1  N   UNL     1      -2.905   4.355 -33.088  1.00  0.00    -0.335 N 
HETATM    2  C   UNL     1      -3.251   3.397 -32.187  1.00  0.00     0.316 C 
HETATM    3  N   UNL     1      -4.522   2.927 -32.277  1.00  0.00    -0.339 N 
HETATM    4  O   UNL     1      -2.497   2.926 -31.344  1.00  0.00    -0.247 OA
HETATM    5  H   UNL     1      -3.655   4.890 -33.488  1.00  0.00     0.165 HD
HETATM    6  H   UNL     1      -4.708   2.195 -31.603  1.00  0.00     0.164 HD
ENDROOT
BRANCH   1   7
HETATM    7  C   UNL     1      -1.595   5.000 -33.062  1.00  0.00     0.118 C 
HETATM    8  C   UNL     1      -1.337   5.660 -34.418  1.00  0.00     0.037 C 
BRANCH   7   9
HETATM    9  C   UNL     1      -1.452   6.031 -31.943  1.00  0.00    -0.002 A 
HETATM   10  C   UNL     1      -2.160   7.250 -31.970  1.00  0.00     0.018 A 
HETATM   11  C   UNL     1      -2.006   8.207 -30.960  1.00  0.00    -0.061 A 
HETATM   12  C   UNL     1      -2.765   9.501 -30.999  1.00  0.00     0.048 C 
HETATM   13  C   UNL     1      -1.121   7.948 -29.912  1.00  0.00     0.009 A 
HETATM   14  C   UNL     1      -0.399   6.753 -29.873  1.00  0.00     0.038 A 
HETATM   15  C   UNL     1      -0.555   5.794 -30.879  1.00  0.00     0.076 A 
BRANCH  15  16
HETATM   16  O   UNL     1       0.142   4.614 -30.930  1.00  0.00    -0.355 OA
HETATM   17  C   UNL     1       1.552   4.676 -30.761  1.00  0.00     0.210 C 
ENDBRANCH  15  16
ENDBRANCH   7   9
ENDBRANCH   1   7
BRANCH   3  18
HETATM   18  C   UNL     1      -5.532   3.210 -33.273  1.00  0.00     0.163 C 
BRANCH  18  19
HETATM   19  C   UNL     1      -6.365   2.003 -33.614  1.00  0.00    -0.035 A 
HETATM   20  C   UNL     1      -5.868   0.715 -33.393  1.00  0.00     0.066 A 
HETATM   21  C   UNL     1      -6.669  -0.370 -33.713  1.00  0.00     0.164 A 
HETATM   22  N   UNL     1      -7.914  -0.267 -34.219  1.00  0.00    -0.237 NA
HETATM   23  C   UNL     1      -8.385   0.982 -34.407  1.00  0.00     0.120 A 
HETATM   24  C   UNL     1      -7.663   2.130 -34.121  1.00  0.00     0.028 A 
BRANCH  21  25
HETATM   25  O   UNL     1      -6.128  -1.623 -33.496  1.00  0.00    -0.329 OA
BRANCH  25  26
HETATM   26  C   UNL     1      -6.042  -2.483 -34.652  1.00  0.00     0.130 C 
HETATM   27  C   UNL     1      -4.890  -3.524 -34.667  1.00  0.00     0.032 C 
HETATM   28  C   UNL     1      -5.886  -4.529 -35.273  1.00  0.00     0.005 C 
HETATM   29  C   UNL     1      -7.011  -3.695 -34.632  1.00  0.00     0.032 C 
ENDBRANCH  25  26
ENDBRANCH  21  25
ENDBRANCH  18  19
ENDBRANCH   3  18
TORSDOF 7
ENDMDL
MODEL 8
REMARK VINA RESULT:      -7.5      1.907      8.803
REMARK  7 active torsions:
REMARK  status: ('A' for Active; 'I' for Inactive)
REMARK    1  A    between atoms: C_4  and  C_5 
REMARK    2  A    between atoms: C_5  and  N_6 
REMARK       I    between atoms: N_6  and  C_7 
REMARK       I    between atoms: C_7  and  N_8 
REMARK    3  A    between atoms: N_8  and  C_9 
REMARK    4  A    between atoms: C_9  and  C_10 
REMARK    5  A    between atoms: C_12  and  O_13 
REMARK    6  A    between atoms: O_13  and  C_14 
REMARK    7  A    between atoms: C_23  and  O_24 
ROOT
HETATM    1  N   UNL     1      -2.981   4.248 -32.983  1.00  0.00    -0.335 N 
HETATM    2  C   UNL     1      -3.311   3.242 -32.130  1.00  0.00     0.316 C 
HETATM    3  N   UNL     1      -4.574   2.755 -32.243  1.00  0.00    -0.339 N 
HETATM    4  O   UNL     1      -2.549   2.742 -31.310  1.00  0.00    -0.247 OA
HETATM    5  H   UNL     1      -3.741   4.789 -33.356  1.00  0.00     0.165 HD
HETATM    6  H   UNL     1      -4.748   1.988 -31.606  1.00  0.00     0.164 HD
ENDROOT
BRANCH   1   7
HETATM    7  C   UNL     1      -1.682   4.912 -32.925  1.00  0.00     0.118 C 
HETATM    8  C   UNL     1      -1.321   5.423 -34.321  1.00  0.00     0.037 C 
BRANCH   7   9
HETATM    9  C   UNL     1      -1.637   6.062 -31.919  1.00  0.00    -0.002 A 
HETATM   10  C   UNL     1      -0.537   6.238 -31.053  1.00  0.00     0.018 A 
HETATM   11  C   UNL     1      -0.509   7.273 -30.110  1.00  0.00    -0.061 A 
HETATM   12  C   UNL     1       0.666   7.452 -29.195  1.00  0.00     0.048 C 
HETATM   13  C   UNL     1      -1.600   8.140 -30.023  1.00  0.00     0.009 A 
HETATM   14  C   UNL     1      -2.705   7.974 -30.862  1.00  0.00     0.038 A 
HETATM   15  C   UNL     1      -2.734   6.943 -31.806  1.00  0.00     0.076 A 
BRANCH  15  16
HETATM   16  O   UNL     1      -3.794   6.693 -32.640  1.00  0.00    -0.355 OA
HETATM   17  C   UNL     1      -5.101   6.845 -32.104  1.00  0.00     0.210 C 
ENDBRANCH  15  16
ENDBRANCH   7   9
ENDBRANCH   1   7
BRANCH   3  18
HETATM   18  C   UNL     1      -5.589   3.070 -33.224  1.00  0.00     0.163 C 
BRANCH  18  19
HETATM   19  C   UNL     1      -6.427   1.875 -33.595  1.00  0.00    -0.035 A 
HETATM   20  C   UNL     1      -5.951   0.580 -33.372  1.00  0.00     0.066 A 
HETATM   21  C   UNL     1      -6.756  -0.493 -33.721  1.00  0.00     0.164 A 
HETATM   22  N   UNL     1      -7.986  -0.372 -34.258  1.00  0.00    -0.237 NA
HETATM   23  C   UNL     1      -8.438   0.885 -34.447  1.00  0.00     0.120 A 
HETATM   24  C   UNL     1      -7.710   2.021 -34.134  1.00  0.00     0.028 A 
BRANCH  21  25
HETATM   25  O   UNL     1      -6.234  -1.754 -33.501  1.00  0.00    -0.329 OA
BRANCH  25  26
HETATM   26  C   UNL     1      -6.138  -2.609 -34.660  1.00  0.00     0.130 C 
HETATM   27  C   UNL     1      -4.917  -3.566 -34.725  1.00  0.00     0.032 C 
HETATM   28  C   UNL     1      -5.865  -4.640 -35.287  1.00  0.00     0.005 C 
HETATM   29  C   UNL     1      -7.017  -3.887 -34.598  1.00  0.00     0.032 C 
ENDBRANCH  25  26
ENDBRANCH  21  25
ENDBRANCH  18  19
ENDBRANCH   3  18
TORSDOF 7
ENDMDL
MODEL 9
REMARK VINA RESULT:      -7.4      2.114      9.238
REMARK  7 active torsions:
REMARK  status: ('A' for Active; 'I' for Inactive)
REMARK    1  A    between atoms: C_4  and  C_5 
REMARK    2  A    between atoms: C_5  and  N_6 
REMARK       I    between atoms: N_6  and  C_7 
REMARK       I    between atoms: C_7  and  N_8 
REMARK    3  A    between atoms: N_8  and  C_9 
REMARK    4  A    between atoms: C_9  and  C_10 
REMARK    5  A    between atoms: C_12  and  O_13 
REMARK    6  A    between atoms: O_13  and  C_14 
REMARK    7  A    between atoms: C_23  and  O_24 
ROOT
HETATM    1  N   UNL     1      -2.350   5.621 -31.373  1.00  0.00    -0.335 N 
HETATM    2  C   UNL     1      -2.488   4.823 -32.465  1.00  0.00     0.316 C 
HETATM    3  N   UNL     1      -3.342   3.776 -32.333  1.00  0.00    -0.339 N 
HETATM    4  O   UNL     1      -1.927   5.005 -33.539  1.00  0.00    -0.247 OA
HETATM    5  H   UNL     1      -2.573   5.210 -30.484  1.00  0.00     0.165 HD
HETATM    6  H   UNL     1      -3.427   3.240 -33.188  1.00  0.00     0.164 HD
ENDROOT
BRANCH   1   7
HETATM    7  C   UNL     1      -1.412   6.740 -31.350  1.00  0.00     0.118 C 
HETATM    8  C   UNL     1      -2.156   8.021 -31.734  1.00  0.00     0.037 C 
BRANCH   7   9
HETATM    9  C   UNL     1      -0.720   6.921 -30.000  1.00  0.00    -0.002 A 
HETATM   10  C   UNL     1      -0.811   8.133 -29.283  1.00  0.00     0.018 A 
HETATM   11  C   UNL     1      -0.152   8.309 -28.060  1.00  0.00    -0.061 A 
HETATM   12  C   UNL     1      -0.256   9.602 -27.306  1.00  0.00     0.048 C 
HETATM   13  C   UNL     1       0.619   7.263 -27.550  1.00  0.00     0.009 A 
HETATM   14  C   UNL     1       0.734   6.060 -28.250  1.00  0.00     0.038 A 
HETATM   15  C   UNL     1       0.073   5.881 -29.470  1.00  0.00     0.076 A 
BRANCH  15  16
HETATM   16  O   UNL     1       0.163   4.745 -30.234  1.00  0.00    -0.355 OA
HETATM   17  C   UNL     1       1.410   4.471 -30.859  1.00  0.00     0.210 C 
ENDBRANCH  15  16
ENDBRANCH   7   9
ENDBRANCH   1   7
BRANCH   3  18
HETATM   18  C   UNL     1      -4.224   3.450 -31.234  1.00  0.00     0.163 C 
BRANCH  18  19
HETATM   19  C   UNL     1      -4.792   2.059 -31.339  1.00  0.00    -0.035 A 
HETATM   20  C   UNL     1      -4.596   1.300 -32.496  1.00  0.00     0.066 A 
HETATM   21  C   UNL     1      -5.129   0.022 -32.551  1.00  0.00     0.164 A 
HETATM   22  N   UNL     1      -5.823  -0.551 -31.547  1.00  0.00    -0.237 NA
HETATM   23  C   UNL     1      -5.985   0.188 -30.431  1.00  0.00     0.120 A 
HETATM   24  C   UNL     1      -5.494   1.474 -30.279  1.00  0.00     0.028 A 
BRANCH  21  25
HETATM   25  O   UNL     1      -4.927  -0.683 -33.722  1.00  0.00    -0.329 OA
BRANCH  25  26
HETATM   26  C   UNL     1      -5.455  -2.026 -33.751  1.00  0.00     0.130 C 
HETATM   27  C   UNL     1      -6.730  -2.260 -34.605  1.00  0.00     0.032 C 
HETATM   28  C   UNL     1      -6.111  -3.595 -35.056  1.00  0.00     0.005 C 
HETATM   29  C   UNL     1      -4.734  -2.986 -34.735  1.00  0.00     0.032 C 
ENDBRANCH  25  26
ENDBRANCH  21  25
ENDBRANCH  18  19
ENDBRANCH   3  18
TORSDOF 7
ENDMDL
MODEL 10
REMARK VINA RESULT:      -7.3      2.047      3.164
REMARK  7 active torsions:
REMARK  status: ('A' for Active; 'I' for Inactive)
REMARK    1  A    between atoms: C_4  and  C_5 
REMARK    2  A    between atoms: C_5  and  N_6 
REMARK       I    between atoms: N_6  and  C_7 
REMARK       I    between atoms: C_7  and  N_8 
REMARK    3  A    between atoms: N_8  and  C_9 
REMARK    4  A    between atoms: C_9  and  C_10 
REMARK    5  A    between atoms: C_12  and  O_13 
REMARK    6  A    between atoms: O_13  and  C_14 
REMARK    7  A    between atoms: C_23  and  O_24 
ROOT
HETATM    1  N   UNL     1      -4.737   2.137 -31.736  1.00  0.00    -0.335 N 
HETATM    2  C   UNL     1      -3.383   2.235 -31.650  1.00  0.00     0.316 C 
HETATM    3  N   UNL     1      -2.822   3.299 -32.279  1.00  0.00    -0.339 N 
HETATM    4  O   UNL     1      -2.665   1.459 -31.032  1.00  0.00    -0.247 OA
HETATM    5  H   UNL     1      -5.174   2.602 -32.512  1.00  0.00     0.165 HD
HETATM    6  H   UNL     1      -1.819   3.336 -32.151  1.00  0.00     0.164 HD
ENDROOT
BRANCH   1   7
HETATM    7  C   UNL     1      -5.465   1.006 -31.169  1.00  0.00     0.118 C 
HETATM    8  C   UNL     1      -6.267   1.487 -29.957  1.00  0.00     0.037 C 
BRANCH   7   9
HETATM    9  C   UNL     1      -6.392   0.320 -32.171  1.00  0.00    -0.002 A 
HETATM   10  C   UNL     1      -7.793   0.471 -32.101  1.00  0.00     0.018 A 
HETATM   11  C   UNL     1      -8.644  -0.181 -33.000  1.00  0.00    -0.061 A 
HETATM   12  C   UNL     1     -10.133  -0.012 -32.917  1.00  0.00     0.048 C 
HETATM   13  C   UNL     1      -8.089  -1.008 -33.979  1.00  0.00     0.009 A 
HETATM   14  C   UNL     1      -6.706  -1.184 -34.057  1.00  0.00     0.038 A 
HETATM   15  C   UNL     1      -5.854  -0.529 -33.161  1.00  0.00     0.076 A 
BRANCH  15  16
HETATM   16  O   UNL     1      -4.490  -0.676 -33.151  1.00  0.00    -0.355 OA
HETATM   17  C   UNL     1      -3.971  -1.973 -32.883  1.00  0.00     0.210 C 
ENDBRANCH  15  16
ENDBRANCH   7   9
ENDBRANCH   1   7
BRANCH   3  18
HETATM   18  C   UNL     1      -3.467   4.418 -32.931  1.00  0.00     0.163 C 
BRANCH  18  19
HETATM   19  C   UNL     1      -2.742   5.718 -32.704  1.00  0.00    -0.035 A 
HETATM   20  C   UNL     1      -2.429   6.137 -31.407  1.00  0.00     0.066 A 
HETATM   21  C   UNL     1      -1.754   7.337 -31.240  1.00  0.00     0.164 A 
HETATM   22  N   UNL     1      -1.364   8.132 -32.256  1.00  0.00    -0.237 NA
HETATM   23  C   UNL     1      -1.656   7.702 -33.501  1.00  0.00     0.120 A 
HETATM   24  C   UNL     1      -2.328   6.522 -33.772  1.00  0.00     0.028 A 
BRANCH  21  25
HETATM   25  O   UNL     1      -1.485   7.718 -29.940  1.00  0.00    -0.329 OA
BRANCH  25  26
HETATM   26  C   UNL     1      -0.141   7.471 -29.474  1.00  0.00     0.130 C 
HETATM   27  C   UNL     1       0.332   8.279 -28.236  1.00  0.00     0.032 C 
HETATM   28  C   UNL     1       1.024   6.998 -27.739  1.00  0.00     0.005 C 
HETATM   29  C   UNL     1       0.017   6.205 -28.591  1.00  0.00     0.032 C 
ENDBRANCH  25  26
ENDBRANCH  21  25
ENDBRANCH  18  19
ENDBRANCH   3  18
TORSDOF 7
ENDMDL
