MODEL 1
REMARK VINA RESULT:      -9.6      0.000      0.000
REMARK  4 active torsions:
REMARK  status: ('A' for Active; 'I' for Inactive)
REMARK    1  A    between atoms: C_8  and  C_9 
REMARK    2  A    between atoms: C_9  and  C_10 
REMARK    3  A    between atoms: C_18  and  C_19 
REMARK    4  A    between atoms: C_28  and  N_29 
ROOT
HETATM    1  C   UNL     1      -6.378   0.391 -31.536  1.00  0.00     0.030 A 
HETATM    2  C   UNL     1      -5.719  -0.589 -32.317  1.00  0.00     0.007 A 
HETATM    3  C   UNL     1      -6.469  -1.148 -33.368  1.00  0.00     0.068 A 
HETATM    4  C   UNL     1      -5.888  -2.124 -34.168  1.00  0.00     0.032 A 
HETATM    5  C   UNL     1      -4.580  -2.564 -33.968  1.00  0.00     0.002 A 
HETATM    6  C   UNL     1      -3.823  -2.016 -32.945  1.00  0.00     0.001 A 
HETATM    7  C   UNL     1      -4.384  -1.035 -32.127  1.00  0.00     0.015 A 
HETATM    8  N   UNL     1      -7.730  -0.781 -33.646  1.00  0.00    -0.248 NA
HETATM    9  C   UNL     1      -8.336   0.171 -32.898  1.00  0.00     0.068 A 
HETATM   10  C   UNL     1      -7.700   0.753 -31.814  1.00  0.00     0.049 A 
ENDROOT
BRANCH   1  11
HETATM   11  C   UNL     1      -5.709   1.016 -30.364  1.00  0.00     0.202 C 
HETATM   12  O   UNL     1      -5.641   0.381 -29.311  1.00  0.00    -0.286 OA
BRANCH  11  13
HETATM   13  C   UNL     1      -5.179   2.418 -30.463  1.00  0.00     0.121 C 
HETATM   14  C   UNL     1      -3.853   2.702 -31.059  1.00  0.00     0.266 C 
HETATM   15  N   UNL     1      -3.529   4.009 -31.232  1.00  0.00    -0.274 N 
HETATM   16  O   UNL     1      -3.068   1.816 -31.378  1.00  0.00    -0.267 OA
HETATM   17  C   UNL     1      -4.193   5.058 -30.680  1.00  0.00     0.330 C 
HETATM   18  H   UNL     1      -2.622   4.214 -31.623  1.00  0.00     0.173 HD
HETATM   19  N   UNL     1      -5.387   4.753 -30.044  1.00  0.00    -0.293 N 
HETATM   20  O   UNL     1      -3.708   6.185 -30.762  1.00  0.00    -0.246 OA
HETATM   21  C   UNL     1      -6.149   5.870 -29.492  1.00  0.00     0.162 C 
HETATM   22  C   UNL     1      -5.890   3.452 -29.944  1.00  0.00     0.103 C 
BRANCH  22  23
HETATM   23  N   UNL     1      -7.121   3.263 -29.322  1.00  0.00    -0.287 NA
HETATM   24  H   UNL     1      -7.791   4.012 -29.552  1.00  0.00     0.125 HD
HETATM   25  H   UNL     1      -7.539   2.368 -29.557  1.00  0.00     0.125 HD
ENDBRANCH  22  23
ENDBRANCH  11  13
ENDBRANCH   1  11
BRANCH   9  26
HETATM   26  C   UNL     1      -9.700   0.542 -33.326  1.00  0.00    -0.007 A 
HETATM   27  C   UNL     1     -10.805  -0.258 -32.975  1.00  0.00     0.015 A 
HETATM   28  C   UNL     1     -12.101   0.065 -33.390  1.00  0.00     0.024 A 
HETATM   29  C   UNL     1     -12.315   1.195 -34.173  1.00  0.00     0.034 A 
HETATM   30 CL   UNL     1     -13.904   1.592 -34.693  1.00  0.00    -0.084 Cl
HETATM   31  C   UNL     1     -11.242   2.001 -34.543  1.00  0.00     0.024 A 
HETATM   32  C   UNL     1      -9.947   1.675 -34.124  1.00  0.00     0.015 A 
ENDBRANCH   9  26
TORSDOF 4
ENDMDL
MODEL 2
REMARK VINA RESULT:      -9.6      3.234      5.695
REMARK  4 active torsions:
REMARK  status: ('A' for Active; 'I' for Inactive)
REMARK    1  A    between atoms: C_8  and  C_9 
REMARK    2  A    between atoms: C_9  and  C_10 
REMARK    3  A    between atoms: C_18  and  C_19 
REMARK    4  A    between atoms: C_28  and  N_29 
ROOT
HETATM    1  C   UNL     1      -7.021   2.863 -33.799  1.00  0.00     0.030 A 
HETATM    2  C   UNL     1      -8.433   2.789 -33.873  1.00  0.00     0.007 A 
HETATM    3  C   UNL     1      -8.977   1.502 -34.042  1.00  0.00     0.068 A 
HETATM    4  C   UNL     1     -10.355   1.356 -34.134  1.00  0.00     0.032 A 
HETATM    5  C   UNL     1     -11.222   2.447 -34.055  1.00  0.00     0.002 A 
HETATM    6  C   UNL     1     -10.705   3.720 -33.876  1.00  0.00     0.001 A 
HETATM    7  C   UNL     1      -9.324   3.892 -33.783  1.00  0.00     0.015 A 
HETATM    8  N   UNL     1      -8.225   0.392 -34.117  1.00  0.00    -0.248 NA
HETATM    9  C   UNL     1      -6.877   0.482 -34.027  1.00  0.00     0.068 A 
HETATM   10  C   UNL     1      -6.241   1.707 -33.902  1.00  0.00     0.049 A 
ENDROOT
BRANCH   1  11
HETATM   11  C   UNL     1      -6.327   4.172 -33.675  1.00  0.00     0.202 C 
HETATM   12  O   UNL     1      -6.874   5.179 -34.126  1.00  0.00    -0.286 OA
BRANCH  11  13
HETATM   13  C   UNL     1      -4.960   4.239 -33.057  1.00  0.00     0.121 C 
HETATM   14  C   UNL     1      -4.733   3.862 -31.642  1.00  0.00     0.266 C 
HETATM   15  N   UNL     1      -3.443   3.821 -31.222  1.00  0.00    -0.274 N 
HETATM   16  O   UNL     1      -5.651   3.608 -30.870  1.00  0.00    -0.267 OA
HETATM   17  C   UNL     1      -2.383   4.334 -31.900  1.00  0.00     0.330 C 
HETATM   18  H   UNL     1      -3.277   3.580 -30.256  1.00  0.00     0.173 HD
HETATM   19  N   UNL     1      -2.642   4.768 -33.191  1.00  0.00    -0.293 N 
HETATM   20  O   UNL     1      -1.288   4.394 -31.344  1.00  0.00    -0.246 OA
HETATM   21  C   UNL     1      -1.508   5.271 -33.962  1.00  0.00     0.162 C 
HETATM   22  C   UNL     1      -3.910   4.712 -33.777  1.00  0.00     0.103 C 
BRANCH  22  23
HETATM   23  N   UNL     1      -4.051   5.134 -35.096  1.00  0.00    -0.287 NA
HETATM   24  H   UNL     1      -3.193   4.977 -35.646  1.00  0.00     0.125 HD
HETATM   25  H   UNL     1      -4.828   4.679 -35.567  1.00  0.00     0.125 HD
ENDBRANCH  22  23
ENDBRANCH  11  13
ENDBRANCH   1  11
BRANCH   9  26
HETATM   26  C   UNL     1      -6.151  -0.803 -34.061  1.00  0.00    -0.007 A 
HETATM   27  C   UNL     1      -4.903  -0.941 -33.422  1.00  0.00     0.015 A 
HETATM   28  C   UNL     1      -4.191  -2.144 -33.462  1.00  0.00     0.024 A 
HETATM   29  C   UNL     1      -4.713  -3.232 -34.151  1.00  0.00     0.034 A 
HETATM   30 CL   UNL     1      -3.837  -4.711 -34.212  1.00  0.00    -0.084 Cl
HETATM   31  C   UNL     1      -5.940  -3.126 -34.800  1.00  0.00     0.024 A 
HETATM   32  C   UNL     1      -6.650  -1.921 -34.756  1.00  0.00     0.015 A 
ENDBRANCH   9  26
TORSDOF 4
ENDMDL
MODEL 3
REMARK VINA RESULT:      -9.5      3.362      5.600
REMARK  4 active torsions:
REMARK  status: ('A' for Active; 'I' for Inactive)
REMARK    1  A    between atoms: C_8  and  C_9 
REMARK    2  A    between atoms: C_9  and  C_10 
REMARK    3  A    between atoms: C_18  and  C_19 
REMARK    4  A    between atoms: C_28  and  N_29 
ROOT
HETATM    1  C   UNL     1      -6.417   3.155 -33.077  1.00  0.00     0.030 A 
HETATM    2  C   UNL     1      -7.539   3.259 -32.219  1.00  0.00     0.007 A 
HETATM    3  C   UNL     1      -8.201   2.053 -31.919  1.00  0.00     0.068 A 
HETATM    4  C   UNL     1      -9.316   2.082 -31.092  1.00  0.00     0.032 A 
HETATM    5  C   UNL     1      -9.799   3.270 -30.540  1.00  0.00     0.002 A 
HETATM    6  C   UNL     1      -9.152   4.464 -30.815  1.00  0.00     0.001 A 
HETATM    7  C   UNL     1      -8.030   4.460 -31.644  1.00  0.00     0.015 A 
HETATM    8  N   UNL     1      -7.805   0.861 -32.392  1.00  0.00    -0.248 NA
HETATM    9  C   UNL     1      -6.719   0.781 -33.197  1.00  0.00     0.068 A 
HETATM   10  C   UNL     1      -6.023   1.914 -33.587  1.00  0.00     0.049 A 
ENDROOT
BRANCH   1  11
HETATM   11  C   UNL     1      -5.668   4.364 -33.510  1.00  0.00     0.202 C 
HETATM   12  O   UNL     1      -6.231   5.182 -34.238  1.00  0.00    -0.286 OA
BRANCH  11  13
HETATM   13  C   UNL     1      -4.234   4.543 -33.102  1.00  0.00     0.121 C 
HETATM   14  C   UNL     1      -3.784   4.262 -31.719  1.00  0.00     0.266 C 
HETATM   15  N   UNL     1      -2.447   4.316 -31.490  1.00  0.00    -0.274 N 
HETATM   16  O   UNL     1      -4.563   4.003 -30.810  1.00  0.00    -0.267 OA
HETATM   17  C   UNL     1      -1.528   4.846 -32.341  1.00  0.00     0.330 C 
HETATM   18  H   UNL     1      -2.129   4.142 -30.548  1.00  0.00     0.173 HD
HETATM   19  N   UNL     1      -1.997   5.189 -33.601  1.00  0.00    -0.293 N 
HETATM   20  O   UNL     1      -0.371   4.999 -31.955  1.00  0.00    -0.246 OA
HETATM   21  C   UNL     1      -1.018   5.708 -34.553  1.00  0.00     0.162 C 
HETATM   22  C   UNL     1      -3.330   5.030 -33.991  1.00  0.00     0.103 C 
BRANCH  22  23
HETATM   23  N   UNL     1      -3.683   5.365 -35.295  1.00  0.00    -0.287 NA
HETATM   24  H   UNL     1      -2.924   5.860 -35.787  1.00  0.00     0.125 HD
HETATM   25  H   UNL     1      -3.953   4.553 -35.843  1.00  0.00     0.125 HD
ENDBRANCH  22  23
ENDBRANCH  11  13
ENDBRANCH   1  11
BRANCH   9  26
HETATM   26  C   UNL     1      -6.335  -0.583 -33.612  1.00  0.00    -0.007 A 
HETATM   27  C   UNL     1      -5.002  -1.022 -33.492  1.00  0.00     0.015 A 
HETATM   28  C   UNL     1      -4.616  -2.303 -33.900  1.00  0.00     0.024 A 
HETATM   29  C   UNL     1      -5.559  -3.168 -34.445  1.00  0.00     0.034 A 
HETATM   30 CL   UNL     1      -5.088  -4.740 -34.957  1.00  0.00    -0.084 Cl
HETATM   31  C   UNL     1      -6.882  -2.761 -34.585  1.00  0.00     0.024 A 
HETATM   32  C   UNL     1      -7.265  -1.479 -34.173  1.00  0.00     0.015 A 
ENDBRANCH   9  26
TORSDOF 4
ENDMDL
MODEL 4
REMARK VINA RESULT:      -9.4      3.428      5.779
REMARK  4 active torsions:
REMARK  status: ('A' for Active; 'I' for Inactive)
REMARK    1  A    between atoms: C_8  and  C_9 
REMARK    2  A    between atoms: C_9  and  C_10 
REMARK    3  A    between atoms: C_18  and  C_19 
REMARK    4  A    between atoms: C_28  and  N_29 
ROOT
HETATM    1  C   UNL     1      -6.044   2.824 -32.813  1.00  0.00     0.030 A 
HETATM    2  C   UNL     1      -7.369   2.890 -33.309  1.00  0.00     0.007 A 
HETATM    3  C   UNL     1      -7.879   1.704 -33.870  1.00  0.00     0.068 A 
HETATM    4  C   UNL     1      -9.169   1.700 -34.385  1.00  0.00     0.032 A 
HETATM    5  C   UNL     1      -9.981   2.834 -34.358  1.00  0.00     0.002 A 
HETATM    6  C   UNL     1      -9.499   4.007 -33.798  1.00  0.00     0.001 A 
HETATM    7  C   UNL     1      -8.207   4.036 -33.275  1.00  0.00     0.015 A 
HETATM    8  N   UNL     1      -7.178   0.560 -33.930  1.00  0.00    -0.248 NA
HETATM    9  C   UNL     1      -5.919   0.513 -33.435  1.00  0.00     0.068 A 
HETATM   10  C   UNL     1      -5.309   1.637 -32.901  1.00  0.00     0.049 A 
ENDROOT
BRANCH   1  11
HETATM   11  C   UNL     1      -5.376   4.025 -32.246  1.00  0.00     0.202 C 
HETATM   12  O   UNL     1      -5.863   4.558 -31.248  1.00  0.00    -0.286 OA
BRANCH  11  13
HETATM   13  C   UNL     1      -4.163   4.596 -32.920  1.00  0.00     0.121 C 
HETATM   14  C   UNL     1      -4.196   5.021 -34.339  1.00  0.00     0.266 C 
HETATM   15  N   UNL     1      -3.093   5.656 -34.812  1.00  0.00    -0.274 N 
HETATM   16  O   UNL     1      -5.157   4.811 -35.070  1.00  0.00    -0.267 OA
HETATM   17  C   UNL     1      -1.889   5.704 -34.183  1.00  0.00     0.330 C 
HETATM   18  H   UNL     1      -3.098   5.936 -35.781  1.00  0.00     0.173 HD
HETATM   19  N   UNL     1      -1.862   5.211 -32.886  1.00  0.00    -0.293 N 
HETATM   20  O   UNL     1      -0.916   6.155 -34.784  1.00  0.00    -0.246 OA
HETATM   21  C   UNL     1      -0.594   5.304 -32.168  1.00  0.00     0.162 C 
HETATM   22  C   UNL     1      -2.985   4.675 -32.249  1.00  0.00     0.103 C 
BRANCH  22  23
HETATM   23  N   UNL     1      -2.857   4.250 -30.929  1.00  0.00    -0.287 NA
HETATM   24  H   UNL     1      -3.660   4.539 -30.350  1.00  0.00     0.125 HD
HETATM   25  H   UNL     1      -2.748   3.242 -30.857  1.00  0.00     0.125 HD
ENDBRANCH  22  23
ENDBRANCH  11  13
ENDBRANCH   1  11
BRANCH   9  26
HETATM   26  C   UNL     1      -5.261  -0.807 -33.499  1.00  0.00    -0.007 A 
HETATM   27  C   UNL     1      -5.670  -1.769 -34.443  1.00  0.00     0.015 A 
HETATM   28  C   UNL     1      -5.073  -3.033 -34.504  1.00  0.00     0.024 A 
HETATM   29  C   UNL     1      -4.058  -3.360 -33.612  1.00  0.00     0.034 A 
HETATM   30 CL   UNL     1      -3.327  -4.915 -33.676  1.00  0.00    -0.084 Cl
HETATM   31  C   UNL     1      -3.636  -2.435 -32.662  1.00  0.00     0.024 A 
HETATM   32  C   UNL     1      -4.235  -1.170 -32.606  1.00  0.00     0.015 A 
ENDBRANCH   9  26
TORSDOF 4
ENDMDL
MODEL 5
REMARK VINA RESULT:      -9.2      2.001      2.504
REMARK  4 active torsions:
REMARK  status: ('A' for Active; 'I' for Inactive)
REMARK    1  A    between atoms: C_8  and  C_9 
REMARK    2  A    between atoms: C_9  and  C_10 
REMARK    3  A    between atoms: C_18  and  C_19 
REMARK    4  A    between atoms: C_28  and  N_29 
ROOT
HETATM    1  C   UNL     1      -6.564   1.458 -32.467  1.00  0.00     0.030 A 
HETATM    2  C   UNL     1      -5.902   0.306 -32.958  1.00  0.00     0.007 A 
HETATM    3  C   UNL     1      -6.717  -0.653 -33.588  1.00  0.00     0.068 A 
HETATM    4  C   UNL     1      -6.135  -1.813 -34.083  1.00  0.00     0.032 A 
HETATM    5  C   UNL     1      -4.765  -2.056 -33.983  1.00  0.00     0.002 A 
HETATM    6  C   UNL     1      -3.946  -1.116 -33.377  1.00  0.00     0.001 A 
HETATM    7  C   UNL     1      -4.507   0.056 -32.871  1.00  0.00     0.015 A 
HETATM    8  N   UNL     1      -8.042  -0.504 -33.741  1.00  0.00    -0.248 NA
HETATM    9  C   UNL     1      -8.653   0.613 -33.281  1.00  0.00     0.068 A 
HETATM   10  C   UNL     1      -7.948   1.598 -32.608  1.00  0.00     0.049 A 
ENDROOT
BRANCH   1  11
HETATM   11  C   UNL     1      -5.820   2.517 -31.736  1.00  0.00     0.202 C 
HETATM   12  O   UNL     1      -5.907   2.563 -30.508  1.00  0.00    -0.286 OA
BRANCH  11  13
HETATM   13  C   UNL     1      -5.026   3.538 -32.498  1.00  0.00     0.121 C 
HETATM   14  C   UNL     1      -5.641   4.346 -33.577  1.00  0.00     0.266 C 
HETATM   15  N   UNL     1      -4.880   5.338 -34.105  1.00  0.00    -0.274 N 
HETATM   16  O   UNL     1      -6.775   4.137 -33.995  1.00  0.00    -0.267 OA
HETATM   17  C   UNL     1      -3.543   5.485 -33.913  1.00  0.00     0.330 C 
HETATM   18  H   UNL     1      -5.283   5.885 -34.852  1.00  0.00     0.173 HD
HETATM   19  N   UNL     1      -2.973   4.650 -32.963  1.00  0.00    -0.293 N 
HETATM   20  O   UNL     1      -2.929   6.316 -34.579  1.00  0.00    -0.246 OA
HETATM   21  C   UNL     1      -1.548   4.827 -32.696  1.00  0.00     0.162 C 
HETATM   22  C   UNL     1      -3.701   3.695 -32.248  1.00  0.00     0.103 C 
BRANCH  22  23
HETATM   23  N   UNL     1      -3.037   2.939 -31.285  1.00  0.00    -0.287 NA
HETATM   24  H   UNL     1      -3.322   1.949 -31.306  1.00  0.00     0.125 HD
HETATM   25  H   UNL     1      -2.027   2.991 -31.383  1.00  0.00     0.125 HD
ENDBRANCH  22  23
ENDBRANCH  11  13
ENDBRANCH   1  11
BRANCH   9  26
HETATM   26  C   UNL     1     -10.101   0.703 -33.554  1.00  0.00    -0.007 A 
HETATM   27  C   UNL     1     -10.987  -0.280 -33.069  1.00  0.00     0.015 A 
HETATM   28  C   UNL     1     -12.358  -0.223 -33.336  1.00  0.00     0.024 A 
HETATM   29  C   UNL     1     -12.870   0.817 -34.104  1.00  0.00     0.034 A 
HETATM   30 CL   UNL     1     -14.554   0.887 -34.443  1.00  0.00    -0.084 Cl
HETATM   31  C   UNL     1     -12.020   1.799 -34.605  1.00  0.00     0.024 A 
HETATM   32  C   UNL     1     -10.648   1.740 -34.333  1.00  0.00     0.015 A 
ENDBRANCH   9  26
TORSDOF 4
ENDMDL
MODEL 6
REMARK VINA RESULT:      -8.9      3.671      6.100
REMARK  4 active torsions:
REMARK  status: ('A' for Active; 'I' for Inactive)
REMARK    1  A    between atoms: C_8  and  C_9 
REMARK    2  A    between atoms: C_9  and  C_10 
REMARK    3  A    between atoms: C_18  and  C_19 
REMARK    4  A    between atoms: C_28  and  N_29 
ROOT
HETATM    1  C   UNL     1      -6.778   2.377 -32.116  1.00  0.00     0.030 A 
HETATM    2  C   UNL     1      -5.513   2.979 -31.912  1.00  0.00     0.007 A 
HETATM    3  C   UNL     1      -4.394   2.200 -32.259  1.00  0.00     0.068 A 
HETATM    4  C   UNL     1      -3.121   2.724 -32.075  1.00  0.00     0.032 A 
HETATM    5  C   UNL     1      -2.915   4.006 -31.563  1.00  0.00     0.002 A 
HETATM    6  C   UNL     1      -4.006   4.792 -31.228  1.00  0.00     0.001 A 
HETATM    7  C   UNL     1      -5.294   4.287 -31.402  1.00  0.00     0.015 A 
HETATM    8  N   UNL     1      -4.492   0.962 -32.769  1.00  0.00    -0.248 NA
HETATM    9  C   UNL     1      -5.712   0.410 -32.973  1.00  0.00     0.068 A 
HETATM   10  C   UNL     1      -6.875   1.078 -32.624  1.00  0.00     0.049 A 
ENDROOT
BRANCH   1  11
HETATM   11  C   UNL     1      -8.033   3.079 -31.737  1.00  0.00     0.202 C 
HETATM   12  O   UNL     1      -8.276   3.258 -30.543  1.00  0.00    -0.286 OA
BRANCH  11  13
HETATM   13  C   UNL     1      -9.001   3.509 -32.801  1.00  0.00     0.121 C 
HETATM   14  C   UNL     1      -8.763   4.721 -33.618  1.00  0.00     0.266 C 
HETATM   15  N   UNL     1      -9.622   4.942 -34.646  1.00  0.00    -0.274 N 
HETATM   16  O   UNL     1      -7.849   5.504 -33.388  1.00  0.00    -0.267 OA
HETATM   17  C   UNL     1     -10.807   4.301 -34.827  1.00  0.00     0.330 C 
HETATM   18  H   UNL     1      -9.478   5.773 -35.201  1.00  0.00     0.173 HD
HETATM   19  N   UNL     1     -11.048   3.226 -33.985  1.00  0.00    -0.293 N 
HETATM   20  O   UNL     1     -11.581   4.705 -35.692  1.00  0.00    -0.246 OA
HETATM   21  C   UNL     1     -12.289   2.485 -34.196  1.00  0.00     0.162 C 
HETATM   22  C   UNL     1     -10.156   2.818 -32.989  1.00  0.00     0.103 C 
BRANCH  22  23
HETATM   23  N   UNL     1     -10.478   1.697 -32.229  1.00  0.00    -0.287 NA
HETATM   24  H   UNL     1     -11.206   1.901 -31.528  1.00  0.00     0.125 HD
HETATM   25  H   UNL     1     -10.785   0.917 -32.802  1.00  0.00     0.125 HD
ENDBRANCH  22  23
ENDBRANCH  11  13
ENDBRANCH   1  11
BRANCH   9  26
HETATM   26  C   UNL     1      -5.707  -0.930 -33.593  1.00  0.00    -0.007 A 
HETATM   27  C   UNL     1      -6.904  -1.513 -34.053  1.00  0.00     0.015 A 
HETATM   28  C   UNL     1      -6.922  -2.790 -34.623  1.00  0.00     0.024 A 
HETATM   29  C   UNL     1      -5.739  -3.513 -34.736  1.00  0.00     0.034 A 
HETATM   30 CL   UNL     1      -5.757  -5.087 -35.428  1.00  0.00    -0.084 Cl
HETATM   31  C   UNL     1      -4.541  -2.968 -34.284  1.00  0.00     0.024 A 
HETATM   32  C   UNL     1      -4.527  -1.688 -33.716  1.00  0.00     0.015 A 
ENDBRANCH   9  26
TORSDOF 4
ENDMDL
MODEL 7
REMARK VINA RESULT:      -8.7      3.833      6.948
REMARK  4 active torsions:
REMARK  status: ('A' for Active; 'I' for Inactive)
REMARK    1  A    between atoms: C_8  and  C_9 
REMARK    2  A    between atoms: C_9  and  C_10 
REMARK    3  A    between atoms: C_18  and  C_19 
REMARK    4  A    between atoms: C_28  and  N_29 
ROOT
HETATM    1  C   UNL     1      -7.419   2.078 -32.146  1.00  0.00     0.030 A 
HETATM    2  C   UNL     1      -6.500   3.155 -32.181  1.00  0.00     0.007 A 
HETATM    3  C   UNL     1      -5.161   2.816 -32.447  1.00  0.00     0.068 A 
HETATM    4  C   UNL     1      -4.203   3.822 -32.485  1.00  0.00     0.032 A 
HETATM    5  C   UNL     1      -4.529   5.162 -32.275  1.00  0.00     0.002 A 
HETATM    6  C   UNL     1      -5.845   5.515 -32.023  1.00  0.00     0.001 A 
HETATM    7  C   UNL     1      -6.824   4.523 -31.979  1.00  0.00     0.015 A 
HETATM    8  N   UNL     1      -4.753   1.557 -32.674  1.00  0.00    -0.248 NA
HETATM    9  C   UNL     1      -5.651   0.543 -32.654  1.00  0.00     0.068 A 
HETATM   10  C   UNL     1      -6.987   0.765 -32.359  1.00  0.00     0.049 A 
ENDROOT
BRANCH   1  11
HETATM   11  C   UNL     1      -8.853   2.302 -31.822  1.00  0.00     0.202 C 
HETATM   12  O   UNL     1      -9.162   2.583 -30.663  1.00  0.00    -0.286 OA
BRANCH  11  13
HETATM   13  C   UNL     1      -9.897   2.133 -32.887  1.00  0.00     0.121 C 
HETATM   14  C   UNL     1     -10.517   0.815 -33.158  1.00  0.00     0.266 C 
HETATM   15  N   UNL     1     -11.550   0.795 -34.039  1.00  0.00    -0.274 N 
HETATM   16  O   UNL     1     -10.124  -0.221 -32.633  1.00  0.00    -0.267 OA
HETATM   17  C   UNL     1     -11.889   1.817 -34.869  1.00  0.00     0.330 C 
HETATM   18  H   UNL     1     -11.969  -0.099 -34.243  1.00  0.00     0.173 HD
HETATM   19  N   UNL     1     -11.225   3.016 -34.656  1.00  0.00    -0.293 N 
HETATM   20  O   UNL     1     -12.730   1.624 -35.744  1.00  0.00    -0.246 OA
HETATM   21  C   UNL     1     -11.612   4.146 -35.497  1.00  0.00     0.162 C 
HETATM   22  C   UNL     1     -10.249   3.186 -33.669  1.00  0.00     0.103 C 
BRANCH  22  23
HETATM   23  N   UNL     1      -9.678   4.446 -33.512  1.00  0.00    -0.287 NA
HETATM   24  H   UNL     1      -9.891   4.855 -32.590  1.00  0.00     0.125 HD
HETATM   25  H   UNL     1      -8.670   4.431 -33.638  1.00  0.00     0.125 HD
ENDBRANCH  22  23
ENDBRANCH  11  13
ENDBRANCH   1  11
BRANCH   9  26
HETATM   26  C   UNL     1      -5.108  -0.792 -32.974  1.00  0.00    -0.007 A 
HETATM   27  C   UNL     1      -4.075  -1.353 -32.198  1.00  0.00     0.015 A 
HETATM   28  C   UNL     1      -3.533  -2.607 -32.499  1.00  0.00     0.024 A 
HETATM   29  C   UNL     1      -4.011  -3.321 -33.592  1.00  0.00     0.034 A 
HETATM   30 CL   UNL     1      -3.342  -4.858 -33.973  1.00  0.00    -0.084 Cl
HETATM   31  C   UNL     1      -5.025  -2.791 -34.384  1.00  0.00     0.024 A 
HETATM   32  C   UNL     1      -5.567  -1.536 -34.078  1.00  0.00     0.015 A 
ENDBRANCH   9  26
TORSDOF 4
ENDMDL
MODEL 8
REMARK VINA RESULT:      -8.7      3.309      5.173
REMARK  4 active torsions:
REMARK  status: ('A' for Active; 'I' for Inactive)
REMARK    1  A    between atoms: C_8  and  C_9 
REMARK    2  A    between atoms: C_9  and  C_10 
REMARK    3  A    between atoms: C_18  and  C_19 
REMARK    4  A    between atoms: C_28  and  N_29 
ROOT
HETATM    1  C   UNL     1      -6.044   2.888 -33.066  1.00  0.00     0.030 A 
HETATM    2  C   UNL     1      -7.158   3.013 -32.201  1.00  0.00     0.007 A 
HETATM    3  C   UNL     1      -7.861   1.825 -31.922  1.00  0.00     0.068 A 
HETATM    4  C   UNL     1      -8.971   1.877 -31.090  1.00  0.00     0.032 A 
HETATM    5  C   UNL     1      -9.410   3.069 -30.513  1.00  0.00     0.002 A 
HETATM    6  C   UNL     1      -8.723   4.245 -30.767  1.00  0.00     0.001 A 
HETATM    7  C   UNL     1      -7.606   4.220 -31.601  1.00  0.00     0.015 A 
HETATM    8  N   UNL     1      -7.508   0.630 -32.421  1.00  0.00    -0.248 NA
HETATM    9  C   UNL     1      -6.428   0.528 -33.232  1.00  0.00     0.068 A 
HETATM   10  C   UNL     1      -5.694   1.644 -33.602  1.00  0.00     0.049 A 
ENDROOT
BRANCH   1  11
HETATM   11  C   UNL     1      -5.254   4.078 -33.478  1.00  0.00     0.202 C 
HETATM   12  O   UNL     1      -5.445   4.558 -34.596  1.00  0.00    -0.286 OA
BRANCH  11  13
HETATM   13  C   UNL     1      -4.209   4.640 -32.557  1.00  0.00     0.121 C 
HETATM   14  C   UNL     1      -3.072   3.816 -32.087  1.00  0.00     0.266 C 
HETATM   15  N   UNL     1      -2.108   4.455 -31.376  1.00  0.00    -0.274 N 
HETATM   16  O   UNL     1      -2.991   2.613 -32.307  1.00  0.00    -0.267 OA
HETATM   17  C   UNL     1      -2.222   5.704 -30.851  1.00  0.00     0.330 C 
HETATM   18  H   UNL     1      -1.336   3.901 -31.037  1.00  0.00     0.173 HD
HETATM   19  N   UNL     1      -3.346   6.421 -31.233  1.00  0.00    -0.293 N 
HETATM   20  O   UNL     1      -1.356   6.112 -30.080  1.00  0.00    -0.246 OA
HETATM   21  C   UNL     1      -3.464   7.786 -30.728  1.00  0.00     0.162 C 
HETATM   22  C   UNL     1      -4.327   5.908 -32.087  1.00  0.00     0.103 C 
BRANCH  22  23
HETATM   23  N   UNL     1      -5.393   6.731 -32.442  1.00  0.00    -0.287 NA
HETATM   24  H   UNL     1      -5.084   7.560 -32.970  1.00  0.00     0.125 HD
HETATM   25  H   UNL     1      -6.095   6.240 -32.987  1.00  0.00     0.125 HD
ENDBRANCH  22  23
ENDBRANCH  11  13
ENDBRANCH   1  11
BRANCH   9  26
HETATM   26  C   UNL     1      -6.094  -0.840 -33.675  1.00  0.00    -0.007 A 
HETATM   27  C   UNL     1      -7.090  -1.691 -34.191  1.00  0.00     0.015 A 
HETATM   28  C   UNL     1      -6.796  -2.998 -34.596  1.00  0.00     0.024 A 
HETATM   29  C   UNL     1      -5.497  -3.480 -34.484  1.00  0.00     0.034 A 
HETATM   30 CL   UNL     1      -5.132  -5.087 -34.971  1.00  0.00    -0.084 Cl
HETATM   31  C   UNL     1      -4.491  -2.666 -33.970  1.00  0.00     0.024 A 
HETATM   32  C   UNL     1      -4.789  -1.358 -33.568  1.00  0.00     0.015 A 
ENDBRANCH   9  26
TORSDOF 4
ENDMDL
MODEL 9
REMARK VINA RESULT:      -8.5      4.187      7.074
REMARK  4 active torsions:
REMARK  status: ('A' for Active; 'I' for Inactive)
REMARK    1  A    between atoms: C_8  and  C_9 
REMARK    2  A    between atoms: C_9  and  C_10 
REMARK    3  A    between atoms: C_18  and  C_19 
REMARK    4  A    between atoms: C_28  and  N_29 
ROOT
HETATM    1  C   UNL     1      -7.377   1.982 -32.425  1.00  0.00     0.030 A 
HETATM    2  C   UNL     1      -6.974   0.746 -32.986  1.00  0.00     0.007 A 
HETATM    3  C   UNL     1      -5.602   0.614 -33.272  1.00  0.00     0.068 A 
HETATM    4  C   UNL     1      -5.139  -0.568 -33.834  1.00  0.00     0.032 A 
HETATM    5  C   UNL     1      -5.990  -1.636 -34.119  1.00  0.00     0.002 A 
HETATM    6  C   UNL     1      -7.342  -1.529 -33.833  1.00  0.00     0.001 A 
HETATM    7  C   UNL     1      -7.831  -0.351 -33.269  1.00  0.00     0.015 A 
HETATM    8  N   UNL     1      -4.705   1.581 -33.023  1.00  0.00    -0.248 NA
HETATM    9  C   UNL     1      -5.108   2.750 -32.469  1.00  0.00     0.068 A 
HETATM   10  C   UNL     1      -6.443   2.996 -32.190  1.00  0.00     0.049 A 
ENDROOT
BRANCH   1  11
HETATM   11  C   UNL     1      -8.807   2.261 -32.129  1.00  0.00     0.202 C 
HETATM   12  O   UNL     1      -9.206   2.144 -30.969  1.00  0.00    -0.286 OA
BRANCH  11  13
HETATM   13  C   UNL     1      -9.746   2.624 -33.242  1.00  0.00     0.121 C 
HETATM   14  C   UNL     1      -9.609   3.900 -33.983  1.00  0.00     0.266 C 
HETATM   15  N   UNL     1     -10.415   4.069 -35.062  1.00  0.00    -0.274 N 
HETATM   16  O   UNL     1      -8.821   4.777 -33.647  1.00  0.00    -0.267 OA
HETATM   17  C   UNL     1     -11.492   3.297 -35.362  1.00  0.00     0.330 C 
HETATM   18  H   UNL     1     -10.341   4.941 -35.564  1.00  0.00     0.173 HD
HETATM   19  N   UNL     1     -11.652   2.155 -34.591  1.00  0.00    -0.293 N 
HETATM   20  O   UNL     1     -12.249   3.648 -36.264  1.00  0.00    -0.246 OA
HETATM   21  C   UNL     1     -12.769   1.277 -34.930  1.00  0.00     0.162 C 
HETATM   22  C   UNL     1     -10.786   1.807 -33.550  1.00  0.00     0.103 C 
BRANCH  22  23
HETATM   23  N   UNL     1     -11.014   0.614 -32.869  1.00  0.00    -0.287 NA
HETATM   24  H   UNL     1     -10.146   0.220 -32.477  1.00  0.00     0.125 HD
HETATM   25  H   UNL     1     -11.691   0.721 -32.119  1.00  0.00     0.125 HD
ENDBRANCH  22  23
ENDBRANCH  11  13
ENDBRANCH   1  11
BRANCH   9  26
HETATM   26  C   UNL     1      -4.033   3.720 -32.182  1.00  0.00    -0.007 A 
HETATM   27  C   UNL     1      -4.197   4.701 -31.185  1.00  0.00     0.015 A 
HETATM   28  C   UNL     1      -3.199   5.643 -30.914  1.00  0.00     0.024 A 
HETATM   29  C   UNL     1      -2.016   5.624 -31.645  1.00  0.00     0.034 A 
HETATM   30 CL   UNL     1      -0.789   6.784 -31.323  1.00  0.00    -0.084 Cl
HETATM   31  C   UNL     1      -1.825   4.672 -32.643  1.00  0.00     0.024 A 
HETATM   32  C   UNL     1      -2.827   3.730 -32.909  1.00  0.00     0.015 A 
ENDBRANCH   9  26
TORSDOF 4
ENDMDL
MODEL 10
REMARK VINA RESULT:      -8.5      3.949      7.382
REMARK  4 active torsions:
REMARK  status: ('A' for Active; 'I' for Inactive)
REMARK    1  A    between atoms: C_8  and  C_9 
REMARK    2  A    between atoms: C_9  and  C_10 
REMARK    3  A    between atoms: C_18  and  C_19 
REMARK    4  A    between atoms: C_28  and  N_29 
ROOT
HETATM    1  C   UNL     1      -7.519   2.230 -33.124  1.00  0.00     0.030 A 
HETATM    2  C   UNL     1      -8.664   2.821 -33.710  1.00  0.00     0.007 A 
HETATM    3  C   UNL     1      -8.520   4.153 -34.141  1.00  0.00     0.068 A 
HETATM    4  C   UNL     1      -9.607   4.799 -34.717  1.00  0.00     0.032 A 
HETATM    5  C   UNL     1     -10.838   4.166 -34.889  1.00  0.00     0.002 A 
HETATM    6  C   UNL     1     -10.994   2.851 -34.481  1.00  0.00     0.001 A 
HETATM    7  C   UNL     1      -9.918   2.181 -33.900  1.00  0.00     0.015 A 
HETATM    8  N   UNL     1      -7.372   4.840 -34.029  1.00  0.00    -0.248 NA
HETATM    9  C   UNL     1      -6.284   4.251 -33.481  1.00  0.00     0.068 A 
HETATM   10  C   UNL     1      -6.333   2.958 -32.986  1.00  0.00     0.049 A 
ENDROOT
BRANCH   1  11
HETATM   11  C   UNL     1      -7.562   0.846 -32.581  1.00  0.00     0.202 C 
HETATM   12  O   UNL     1      -8.325   0.599 -31.646  1.00  0.00    -0.286 OA
BRANCH  11  13
HETATM   13  C   UNL     1      -6.648  -0.206 -33.138  1.00  0.00     0.121 C 
HETATM   14  C   UNL     1      -6.905  -0.835 -34.454  1.00  0.00     0.266 C 
HETATM   15  N   UNL     1      -5.945  -1.668 -34.931  1.00  0.00    -0.274 N 
HETATM   16  O   UNL     1      -7.932  -0.636 -35.092  1.00  0.00    -0.267 OA
HETATM   17  C   UNL     1      -4.909  -2.164 -34.204  1.00  0.00     0.330 C 
HETATM   18  H   UNL     1      -6.116  -2.114 -35.820  1.00  0.00     0.173 HD
HETATM   19  N   UNL     1      -4.746  -1.625 -32.936  1.00  0.00    -0.293 N 
HETATM   20  O   UNL     1      -4.202  -3.044 -34.691  1.00  0.00    -0.246 OA
HETATM   21  C   UNL     1      -3.606  -2.099 -32.156  1.00  0.00     0.162 C 
HETATM   22  C   UNL     1      -5.592  -0.646 -32.406  1.00  0.00     0.103 C 
BRANCH  22  23
HETATM   23  N   UNL     1      -5.310  -0.143 -31.139  1.00  0.00    -0.287 NA
HETATM   24  H   UNL     1      -4.539   0.541 -31.157  1.00  0.00     0.125 HD
HETATM   25  H   UNL     1      -6.121   0.291 -30.707  1.00  0.00     0.125 HD
ENDBRANCH  22  23
ENDBRANCH  11  13
ENDBRANCH   1  11
BRANCH   9  26
HETATM   26  C   UNL     1      -5.059   5.076 -33.460  1.00  0.00    -0.007 A 
HETATM   27  C   UNL     1      -4.180   5.085 -34.561  1.00  0.00     0.015 A 
HETATM   28  C   UNL     1      -3.004   5.843 -34.551  1.00  0.00     0.024 A 
HETATM   29  C   UNL     1      -2.682   6.601 -33.431  1.00  0.00     0.034 A 
HETATM   30 CL   UNL     1      -1.233   7.527 -33.409  1.00  0.00    -0.084 Cl
HETATM   31  C   UNL     1      -3.525   6.607 -32.324  1.00  0.00     0.024 A 
HETATM   32  C   UNL     1      -4.702   5.849 -32.339  1.00  0.00     0.015 A 
ENDBRANCH   9  26
TORSDOF 4
ENDMDL
