MODEL 1
REMARK VINA RESULT:     -10.5      0.000      0.000
REMARK  8 active torsions:
REMARK  status: ('A' for Active; 'I' for Inactive)
REMARK    1  A    between atoms: C_8  and  N_9 
REMARK       I    between atoms: N_9  and  C_10 
REMARK    2  A    between atoms: C_10  and  C_11 
REMARK    3  A    between atoms: C_11  and  N_12 
REMARK    4  A    between atoms: N_16  and  C_17 
REMARK    5  A    between atoms: C_19  and  N_20 
REMARK    6  A    between atoms: N_20  and  C_21 
REMARK    7  A    between atoms: C_28  and  N_29 
REMARK    8  A    between atoms: N_29  and  C_30 
ROOT
HETATM    1  C   UNL     1      -7.323   1.659 -32.431  1.00  0.00     0.756 A 
HETATM    2  N   UNL     1      -6.511   0.882 -33.135  1.00  0.00     0.131 NA
HETATM    3  C   UNL     1      -7.073  -0.138 -33.778  1.00  0.00     0.758 A 
HETATM    4  N   UNL     1      -8.352  -0.458 -33.664  1.00  0.00     0.131 NA
HETATM    5  C   UNL     1      -9.098   0.359 -32.940  1.00  0.00     0.758 A 
HETATM    6  N   UNL     1      -8.622   1.435 -32.324  1.00  0.00     0.131 NA
ENDROOT
BRANCH   1   7
HETATM    7  N   UNL     1      -6.784   2.785 -31.796  1.00  0.00    -0.210 N 
HETATM    8  C   UNL     1      -6.769   4.002 -32.620  1.00  0.00     0.169 C 
HETATM    9  C   UNL     1      -5.955   5.116 -31.928  1.00  0.00     0.256 C 
HETATM   10  N   UNL     1      -6.478   5.343 -30.506  1.00  0.00    -0.060 N 
HETATM   11  H   UNL     1      -7.477   5.556 -30.601  1.00  0.00     0.280 HD
HETATM   12  C   UNL     1      -6.373   4.048 -29.703  1.00  0.00     0.256 C 
HETATM   13  C   UNL     1      -7.177   2.924 -30.389  1.00  0.00     0.169 C 
BRANCH  10  14
HETATM   14  C   UNL     1      -5.833   6.539 -29.801  1.00  0.00     0.337 C 
BRANCH  14  15
HETATM   15  C   UNL     1      -4.473   7.002 -30.349  1.00  0.00     0.248 C 
HETATM   16  N   UNL     1      -3.413   6.220 -29.918  1.00  0.00    -0.325 N 
HETATM   17  H   UNL     1      -3.623   5.401 -29.362  1.00  0.00     0.169 HD
HETATM   18  O   UNL     1      -4.405   7.969 -31.100  1.00  0.00    -0.271 OA
BRANCH  16  19
HETATM   19  C   UNL     1      -2.028   6.422 -30.185  1.00  0.00     0.042 A 
HETATM   20  C   UNL     1      -1.216   7.032 -29.192  1.00  0.00    -0.014 A 
HETATM   21  C   UNL     1      -1.785   7.409 -27.846  1.00  0.00     0.052 C 
HETATM   22  C   UNL     1       0.136   7.304 -29.500  1.00  0.00     0.042 A 
HETATM   23 CL   UNL     1       1.197   8.103 -28.392  1.00  0.00    -0.084 Cl
HETATM   24  C   UNL     1       0.682   6.943 -30.733  1.00  0.00     0.024 A 
HETATM   25  C   UNL     1      -0.112   6.320 -31.686  1.00  0.00     0.004 A 
HETATM   26  C   UNL     1      -1.455   6.066 -31.415  1.00  0.00     0.030 A 
ENDBRANCH  16  19
ENDBRANCH  14  15
ENDBRANCH  10  14
ENDBRANCH   1   7
BRANCH   3  27
HETATM   27  N   UNL     1      -6.206  -0.881 -34.581  1.00  0.00    -0.187 N 
HETATM   28  H   UNL     1      -6.235  -0.517 -35.523  1.00  0.00     0.184 HD
BRANCH  27  29
HETATM   29  C   UNL     1      -5.763  -2.211 -34.496  1.00  0.00     0.049 A 
HETATM   30  C   UNL     1      -4.478  -2.584 -34.088  1.00  0.00     0.030 A 
HETATM   31  C   UNL     1      -4.094  -3.929 -34.040  1.00  0.00     0.002 A 
HETATM   32  C   UNL     1      -4.986  -4.926 -34.425  1.00  0.00     0.000 A 
HETATM   33  C   UNL     1      -6.257  -4.576 -34.867  1.00  0.00     0.002 A 
HETATM   34  C   UNL     1      -6.636  -3.231 -34.910  1.00  0.00     0.030 A 
ENDBRANCH  27  29
ENDBRANCH   3  27
BRANCH   5  35
HETATM   35  N   UNL     1     -10.435  -0.001 -32.793  1.00  0.00    -0.187 N 
HETATM   36  H   UNL     1     -10.504  -0.942 -32.430  1.00  0.00     0.184 HD
BRANCH  35  37
HETATM   37  C   UNL     1     -11.590   0.471 -33.433  1.00  0.00     0.049 A 
HETATM   38  C   UNL     1     -11.679   1.739 -34.020  1.00  0.00     0.030 A 
HETATM   39  C   UNL     1     -12.861   2.168 -34.634  1.00  0.00     0.002 A 
HETATM   40  C   UNL     1     -13.982   1.343 -34.643  1.00  0.00     0.000 A 
HETATM   41  C   UNL     1     -13.922   0.091 -34.039  1.00  0.00     0.002 A 
HETATM   42  C   UNL     1     -12.735  -0.340 -33.440  1.00  0.00     0.030 A 
ENDBRANCH  35  37
ENDBRANCH   5  35
TORSDOF 8
ENDMDL
MODEL 2
REMARK VINA RESULT:     -10.4      0.201      5.230
REMARK  8 active torsions:
REMARK  status: ('A' for Active; 'I' for Inactive)
REMARK    1  A    between atoms: C_8  and  N_9 
REMARK       I    between atoms: N_9  and  C_10 
REMARK    2  A    between atoms: C_10  and  C_11 
REMARK    3  A    between atoms: C_11  and  N_12 
REMARK    4  A    between atoms: N_16  and  C_17 
REMARK    5  A    between atoms: C_19  and  N_20 
REMARK    6  A    between atoms: N_20  and  C_21 
REMARK    7  A    between atoms: C_28  and  N_29 
REMARK    8  A    between atoms: N_29  and  C_30 
ROOT
HETATM    1  C   UNL     1      -7.364   1.620 -32.597  1.00  0.00     0.756 A 
HETATM    2  N   UNL     1      -8.662   1.385 -32.462  1.00  0.00     0.131 NA
HETATM    3  C   UNL     1      -9.139   0.305 -33.077  1.00  0.00     0.758 A 
HETATM    4  N   UNL     1      -8.412  -0.460 -33.875  1.00  0.00     0.131 NA
HETATM    5  C   UNL     1      -7.128  -0.160 -33.966  1.00  0.00     0.758 A 
HETATM    6  N   UNL     1      -6.566   0.861 -33.328  1.00  0.00     0.131 NA
ENDROOT
BRANCH   1   7
HETATM    7  N   UNL     1      -6.808   2.707 -31.909  1.00  0.00    -0.210 N 
HETATM    8  C   UNL     1      -7.036   4.013 -32.545  1.00  0.00     0.169 C 
HETATM    9  C   UNL     1      -6.200   5.108 -31.851  1.00  0.00     0.256 C 
HETATM   10  N   UNL     1      -6.475   5.102 -30.344  1.00  0.00    -0.060 N 
HETATM   11  H   UNL     1      -7.488   5.223 -30.239  1.00  0.00     0.280 HD
HETATM   12  C   UNL     1      -6.127   3.735 -29.759  1.00  0.00     0.256 C 
HETATM   13  C   UNL     1      -6.952   2.630 -30.452  1.00  0.00     0.169 C 
BRANCH  10  14
HETATM   14  C   UNL     1      -5.808   6.260 -29.597  1.00  0.00     0.337 C 
BRANCH  14  15
HETATM   15  C   UNL     1      -4.495   6.793 -30.195  1.00  0.00     0.248 C 
HETATM   16  N   UNL     1      -3.384   6.049 -29.828  1.00  0.00    -0.325 N 
HETATM   17  H   UNL     1      -3.534   5.211 -29.280  1.00  0.00     0.169 HD
HETATM   18  O   UNL     1      -4.502   7.776 -30.928  1.00  0.00    -0.271 OA
BRANCH  16  19
HETATM   19  C   UNL     1      -2.023   6.316 -30.152  1.00  0.00     0.042 A 
HETATM   20  C   UNL     1      -1.193   6.944 -29.184  1.00  0.00    -0.014 A 
HETATM   21  C   UNL     1      -1.718   7.273 -27.807  1.00  0.00     0.052 C 
HETATM   22  C   UNL     1       0.130   7.280 -29.546  1.00  0.00     0.042 A 
HETATM   23 CL   UNL     1       1.204   8.106 -28.471  1.00  0.00    -0.084 Cl
HETATM   24  C   UNL     1       0.635   6.964 -30.808  1.00  0.00     0.024 A 
HETATM   25  C   UNL     1      -0.172   6.322 -31.736  1.00  0.00     0.004 A 
HETATM   26  C   UNL     1      -1.490   6.005 -31.412  1.00  0.00     0.030 A 
ENDBRANCH  16  19
ENDBRANCH  14  15
ENDBRANCH  10  14
ENDBRANCH   1   7
BRANCH   3  27
HETATM   27  N   UNL     1     -10.487   0.037 -32.840  1.00  0.00    -0.187 N 
HETATM   28  H   UNL     1     -10.574  -0.881 -32.427  1.00  0.00     0.184 HD
BRANCH  27  29
HETATM   29  C   UNL     1     -11.656   0.491 -33.475  1.00  0.00     0.049 A 
HETATM   30  C   UNL     1     -11.765   1.728 -34.120  1.00  0.00     0.030 A 
HETATM   31  C   UNL     1     -12.965   2.127 -34.720  1.00  0.00     0.002 A 
HETATM   32  C   UNL     1     -14.085   1.304 -34.663  1.00  0.00     0.000 A 
HETATM   33  C   UNL     1     -14.008   0.086 -33.996  1.00  0.00     0.002 A 
HETATM   34  C   UNL     1     -12.807  -0.310 -33.401  1.00  0.00     0.030 A 
ENDBRANCH  27  29
ENDBRANCH   3  27
BRANCH   5  35
HETATM   35  N   UNL     1      -6.375  -0.947 -34.834  1.00  0.00    -0.187 N 
HETATM   36  H   UNL     1      -6.496  -0.626 -35.786  1.00  0.00     0.184 HD
BRANCH  35  37
HETATM   37  C   UNL     1      -5.900  -2.260 -34.708  1.00  0.00     0.049 A 
HETATM   38  C   UNL     1      -6.665  -3.387 -35.029  1.00  0.00     0.030 A 
HETATM   39  C   UNL     1      -6.149  -4.678 -34.872  1.00  0.00     0.002 A 
HETATM   40  C   UNL     1      -4.867  -4.859 -34.361  1.00  0.00     0.000 A 
HETATM   41  C   UNL     1      -4.102  -3.752 -34.009  1.00  0.00     0.002 A 
HETATM   42  C   UNL     1      -4.615  -2.464 -34.182  1.00  0.00     0.030 A 
ENDBRANCH  35  37
ENDBRANCH   5  35
TORSDOF 8
ENDMDL
MODEL 3
REMARK VINA RESULT:     -10.1      1.238      5.355
REMARK  8 active torsions:
REMARK  status: ('A' for Active; 'I' for Inactive)
REMARK    1  A    between atoms: C_8  and  N_9 
REMARK       I    between atoms: N_9  and  C_10 
REMARK    2  A    between atoms: C_10  and  C_11 
REMARK    3  A    between atoms: C_11  and  N_12 
REMARK    4  A    between atoms: N_16  and  C_17 
REMARK    5  A    between atoms: C_19  and  N_20 
REMARK    6  A    between atoms: N_20  and  C_21 
REMARK    7  A    between atoms: C_28  and  N_29 
REMARK    8  A    between atoms: N_29  and  C_30 
ROOT
HETATM    1  C   UNL     1      -7.624   1.704 -31.901  1.00  0.00     0.756 A 
HETATM    2  N   UNL     1      -8.897   1.354 -32.016  1.00  0.00     0.131 NA
HETATM    3  C   UNL     1      -9.154   0.279 -32.758  1.00  0.00     0.758 A 
HETATM    4  N   UNL     1      -8.229  -0.371 -33.446  1.00  0.00     0.131 NA
HETATM    5  C   UNL     1      -6.983   0.041 -33.287  1.00  0.00     0.758 A 
HETATM    6  N   UNL     1      -6.641   1.062 -32.510  1.00  0.00     0.131 NA
ENDROOT
BRANCH   1   7
HETATM    7  N   UNL     1      -7.303   2.788 -31.073  1.00  0.00    -0.210 N 
HETATM    8  C   UNL     1      -5.861   3.002 -30.880  1.00  0.00     0.169 C 
HETATM    9  C   UNL     1      -5.612   4.057 -29.782  1.00  0.00     0.256 C 
HETATM   10  N   UNL     1      -6.386   5.340 -30.101  1.00  0.00    -0.060 N 
HETATM   11  H   UNL     1      -6.081   5.632 -31.035  1.00  0.00     0.280 HD
HETATM   12  C   UNL     1      -7.879   5.033 -30.196  1.00  0.00     0.256 C 
HETATM   13  C   UNL     1      -8.141   3.973 -31.286  1.00  0.00     0.169 C 
BRANCH  10  14
HETATM   14  C   UNL     1      -6.072   6.496 -29.148  1.00  0.00     0.337 C 
BRANCH  14  15
HETATM   15  C   UNL     1      -4.611   6.621 -28.684  1.00  0.00     0.248 C 
HETATM   16  N   UNL     1      -3.741   6.981 -29.701  1.00  0.00    -0.325 N 
HETATM   17  H   UNL     1      -4.135   7.194 -30.609  1.00  0.00     0.169 HD
HETATM   18  O   UNL     1      -4.315   6.421 -27.511  1.00  0.00    -0.271 OA
BRANCH  16  19
HETATM   19  C   UNL     1      -2.325   7.111 -29.618  1.00  0.00     0.042 A 
HETATM   20  C   UNL     1      -1.505   6.190 -30.326  1.00  0.00    -0.014 A 
HETATM   21  C   UNL     1      -2.113   5.125 -31.205  1.00  0.00     0.052 C 
HETATM   22  C   UNL     1      -0.104   6.276 -30.169  1.00  0.00     0.042 A 
HETATM   23 CL   UNL     1       0.984   5.167 -30.929  1.00  0.00    -0.084 Cl
HETATM   24  C   UNL     1       0.474   7.268 -29.376  1.00  0.00     0.024 A 
HETATM   25  C   UNL     1      -0.333   8.182 -28.713  1.00  0.00     0.004 A 
HETATM   26  C   UNL     1      -1.720   8.101 -28.831  1.00  0.00     0.030 A 
ENDBRANCH  16  19
ENDBRANCH  14  15
ENDBRANCH  10  14
ENDBRANCH   1   7
BRANCH   3  27
HETATM   27  N   UNL     1     -10.492  -0.116 -32.785  1.00  0.00    -0.187 N 
HETATM   28  H   UNL     1     -10.547  -1.109 -32.609  1.00  0.00     0.184 HD
BRANCH  27  29
HETATM   29  C   UNL     1     -11.607   0.408 -33.460  1.00  0.00     0.049 A 
HETATM   30  C   UNL     1     -11.609   1.633 -34.136  1.00  0.00     0.030 A 
HETATM   31  C   UNL     1     -12.761   2.105 -34.775  1.00  0.00     0.002 A 
HETATM   32  C   UNL     1     -13.941   1.370 -34.728  1.00  0.00     0.000 A 
HETATM   33  C   UNL     1     -13.971   0.166 -34.032  1.00  0.00     0.002 A 
HETATM   34  C   UNL     1     -12.817  -0.303 -33.398  1.00  0.00     0.030 A 
ENDBRANCH  27  29
ENDBRANCH   3  27
BRANCH   5  35
HETATM   35  N   UNL     1      -6.017  -0.623 -34.039  1.00  0.00    -0.187 N 
HETATM   36  H   UNL     1      -5.717  -0.041 -34.810  1.00  0.00     0.184 HD
BRANCH  35  37
HETATM   37  C   UNL     1      -5.751  -1.991 -34.194  1.00  0.00     0.049 A 
HETATM   38  C   UNL     1      -4.502  -2.565 -33.931  1.00  0.00     0.030 A 
HETATM   39  C   UNL     1      -4.284  -3.934 -34.115  1.00  0.00     0.002 A 
HETATM   40  C   UNL     1      -5.308  -4.745 -34.595  1.00  0.00     0.000 A 
HETATM   41  C   UNL     1      -6.548  -4.188 -34.891  1.00  0.00     0.002 A 
HETATM   42  C   UNL     1      -6.767  -2.822 -34.690  1.00  0.00     0.030 A 
ENDBRANCH  35  37
ENDBRANCH   5  35
TORSDOF 8
ENDMDL
MODEL 4
REMARK VINA RESULT:     -10.1      0.841      1.708
REMARK  8 active torsions:
REMARK  status: ('A' for Active; 'I' for Inactive)
REMARK    1  A    between atoms: C_8  and  N_9 
REMARK       I    between atoms: N_9  and  C_10 
REMARK    2  A    between atoms: C_10  and  C_11 
REMARK    3  A    between atoms: C_11  and  N_12 
REMARK    4  A    between atoms: N_16  and  C_17 
REMARK    5  A    between atoms: C_19  and  N_20 
REMARK    6  A    between atoms: N_20  and  C_21 
REMARK    7  A    between atoms: C_28  and  N_29 
REMARK    8  A    between atoms: N_29  and  C_30 
ROOT
HETATM    1  C   UNL     1      -7.202   1.769 -32.336  1.00  0.00     0.756 A 
HETATM    2  N   UNL     1      -6.339   0.999 -32.983  1.00  0.00     0.131 NA
HETATM    3  C   UNL     1      -6.841  -0.063 -33.609  1.00  0.00     0.758 A 
HETATM    4  N   UNL     1      -8.111  -0.425 -33.528  1.00  0.00     0.131 NA
HETATM    5  C   UNL     1      -8.910   0.388 -32.860  1.00  0.00     0.758 A 
HETATM    6  N   UNL     1      -8.495   1.502 -32.266  1.00  0.00     0.131 NA
ENDROOT
BRANCH   1   7
HETATM    7  N   UNL     1      -6.726   2.934 -31.722  1.00  0.00    -0.210 N 
HETATM    8  C   UNL     1      -6.568   4.081 -32.629  1.00  0.00     0.169 C 
HETATM    9  C   UNL     1      -5.828   5.235 -31.920  1.00  0.00     0.256 C 
HETATM   10  N   UNL     1      -6.534   5.584 -30.606  1.00  0.00    -0.060 N 
HETATM   11  H   UNL     1      -7.505   5.802 -30.854  1.00  0.00     0.280 HD
HETATM   12  C   UNL     1      -6.572   4.357 -29.698  1.00  0.00     0.256 C 
HETATM   13  C   UNL     1      -7.304   3.193 -30.399  1.00  0.00     0.169 C 
BRANCH  10  14
HETATM   14  C   UNL     1      -5.961   6.823 -29.915  1.00  0.00     0.337 C 
BRANCH  14  15
HETATM   15  C   UNL     1      -4.526   7.218 -30.300  1.00  0.00     0.248 C 
HETATM   16  N   UNL     1      -3.558   6.585 -29.535  1.00  0.00    -0.325 N 
HETATM   17  H   UNL     1      -3.864   5.891 -28.864  1.00  0.00     0.169 HD
HETATM   18  O   UNL     1      -4.325   8.010 -31.215  1.00  0.00    -0.271 OA
BRANCH  16  19
HETATM   19  C   UNL     1      -2.149   6.783 -29.591  1.00  0.00     0.042 A 
HETATM   20  C   UNL     1      -1.362   5.918 -30.398  1.00  0.00    -0.014 A 
HETATM   21  C   UNL     1      -2.004   4.840 -31.237  1.00  0.00     0.052 C 
HETATM   22  C   UNL     1       0.042   6.070 -30.380  1.00  0.00     0.042 A 
HETATM   23 CL   UNL     1       1.100   5.030 -31.270  1.00  0.00    -0.084 Cl
HETATM   24  C   UNL     1       0.649   7.074 -29.625  1.00  0.00     0.024 A 
HETATM   25  C   UNL     1      -0.129   7.934 -28.863  1.00  0.00     0.004 A 
HETATM   26  C   UNL     1      -1.515   7.787 -28.844  1.00  0.00     0.030 A 
ENDBRANCH  16  19
ENDBRANCH  14  15
ENDBRANCH  10  14
ENDBRANCH   1   7
BRANCH   3  27
HETATM   27  N   UNL     1      -5.920  -0.800 -34.355  1.00  0.00    -0.187 N 
HETATM   28  H   UNL     1      -5.728  -0.313 -35.219  1.00  0.00     0.184 HD
BRANCH  27  29
HETATM   29  C   UNL     1      -5.645  -2.177 -34.403  1.00  0.00     0.049 A 
HETATM   30  C   UNL     1      -6.567  -3.146 -34.816  1.00  0.00     0.030 A 
HETATM   31  C   UNL     1      -6.234  -4.505 -34.825  1.00  0.00     0.002 A 
HETATM   32  C   UNL     1      -4.978  -4.922 -34.396  1.00  0.00     0.000 A 
HETATM   33  C   UNL     1      -4.059  -3.979 -33.949  1.00  0.00     0.002 A 
HETATM   34  C   UNL     1      -4.394  -2.623 -33.944  1.00  0.00     0.030 A 
ENDBRANCH  27  29
ENDBRANCH   3  27
BRANCH   5  35
HETATM   35  N   UNL     1     -10.239  -0.015 -32.747  1.00  0.00    -0.187 N 
HETATM   36  H   UNL     1     -10.286  -0.961 -32.393  1.00  0.00     0.184 HD
BRANCH  35  37
HETATM   37  C   UNL     1     -11.393   0.426 -33.410  1.00  0.00     0.049 A 
HETATM   38  C   UNL     1     -12.607  -0.272 -33.384  1.00  0.00     0.030 A 
HETATM   39  C   UNL     1     -13.727   0.203 -34.075  1.00  0.00     0.002 A 
HETATM   40  C   UNL     1     -13.638   1.370 -34.827  1.00  0.00     0.000 A 
HETATM   41  C   UNL     1     -12.433   2.062 -34.889  1.00  0.00     0.002 A 
HETATM   42  C   UNL     1     -11.321   1.593 -34.185  1.00  0.00     0.030 A 
ENDBRANCH  35  37
ENDBRANCH   5  35
TORSDOF 8
ENDMDL
MODEL 5
REMARK VINA RESULT:     -10.1      1.499      2.183
REMARK  8 active torsions:
REMARK  status: ('A' for Active; 'I' for Inactive)
REMARK    1  A    between atoms: C_8  and  N_9 
REMARK       I    between atoms: N_9  and  C_10 
REMARK    2  A    between atoms: C_10  and  C_11 
REMARK    3  A    between atoms: C_11  and  N_12 
REMARK    4  A    between atoms: N_16  and  C_17 
REMARK    5  A    between atoms: C_19  and  N_20 
REMARK    6  A    between atoms: N_20  and  C_21 
REMARK    7  A    between atoms: C_28  and  N_29 
REMARK    8  A    between atoms: N_29  and  C_30 
ROOT
HETATM    1  C   UNL     1      -6.601   1.594 -33.583  1.00  0.00     0.756 A 
HETATM    2  N   UNL     1      -6.141   0.486 -34.147  1.00  0.00     0.131 NA
HETATM    3  C   UNL     1      -7.010  -0.511 -34.299  1.00  0.00     0.758 A 
HETATM    4  N   UNL     1      -8.248  -0.477 -33.832  1.00  0.00     0.131 NA
HETATM    5  C   UNL     1      -8.633   0.659 -33.276  1.00  0.00     0.758 A 
HETATM    6  N   UNL     1      -7.844   1.720 -33.150  1.00  0.00     0.131 NA
ENDROOT
BRANCH   1   7
HETATM    7  N   UNL     1      -5.738   2.691 -33.468  1.00  0.00    -0.210 N 
HETATM    8  C   UNL     1      -6.319   3.972 -33.896  1.00  0.00     0.169 C 
HETATM    9  C   UNL     1      -5.234   5.068 -33.952  1.00  0.00     0.256 C 
HETATM   10  N   UNL     1      -4.496   5.146 -32.612  1.00  0.00    -0.060 N 
HETATM   11  H   UNL     1      -5.217   5.310 -31.900  1.00  0.00     0.280 HD
HETATM   12  C   UNL     1      -3.855   3.797 -32.294  1.00  0.00     0.256 C 
HETATM   13  C   UNL     1      -4.930   2.691 -32.244  1.00  0.00     0.169 C 
BRANCH  10  14
HETATM   14  C   UNL     1      -3.510   6.313 -32.524  1.00  0.00     0.337 C 
BRANCH  14  15
HETATM   15  C   UNL     1      -3.251   6.885 -31.120  1.00  0.00     0.248 C 
HETATM   16  N   UNL     1      -2.141   7.712 -31.060  1.00  0.00    -0.325 N 
HETATM   17  H   UNL     1      -1.658   7.920 -31.925  1.00  0.00     0.169 HD
HETATM   18  O   UNL     1      -4.001   6.606 -30.190  1.00  0.00    -0.271 OA
BRANCH  16  19
HETATM   19  C   UNL     1      -1.594   8.338 -29.904  1.00  0.00     0.042 A 
HETATM   20  C   UNL     1      -0.431   7.784 -29.304  1.00  0.00    -0.014 A 
HETATM   21  C   UNL     1       0.260   6.585 -29.909  1.00  0.00     0.052 C 
HETATM   22  C   UNL     1       0.054   8.362 -28.110  1.00  0.00     0.042 A 
HETATM   23 CL   UNL     1       1.420   7.728 -27.259  1.00  0.00    -0.084 Cl
HETATM   24  C   UNL     1      -0.562   9.482 -27.549  1.00  0.00     0.024 A 
HETATM   25  C   UNL     1      -1.679  10.036 -28.159  1.00  0.00     0.004 A 
HETATM   26  C   UNL     1      -2.191   9.466 -29.323  1.00  0.00     0.030 A 
ENDBRANCH  16  19
ENDBRANCH  14  15
ENDBRANCH  10  14
ENDBRANCH   1   7
BRANCH   3  27
HETATM   27  N   UNL     1      -6.518  -1.627 -34.976  1.00  0.00    -0.187 N 
HETATM   28  H   UNL     1      -7.163  -1.877 -35.713  1.00  0.00     0.184 HD
BRANCH  27  29
HETATM   29  C   UNL     1      -5.688  -2.682 -34.560  1.00  0.00     0.049 A 
HETATM   30  C   UNL     1      -4.526  -2.510 -33.800  1.00  0.00     0.030 A 
HETATM   31  C   UNL     1      -3.734  -3.603 -33.431  1.00  0.00     0.002 A 
HETATM   32  C   UNL     1      -4.079  -4.888 -33.839  1.00  0.00     0.000 A 
HETATM   33  C   UNL     1      -5.211  -5.078 -34.624  1.00  0.00     0.002 A 
HETATM   34  C   UNL     1      -6.001  -3.983 -34.987  1.00  0.00     0.030 A 
ENDBRANCH  27  29
ENDBRANCH   3  27
BRANCH   5  35
HETATM   35  N   UNL     1      -9.925   0.679 -32.755  1.00  0.00    -0.187 N 
HETATM   36  H   UNL     1      -9.948   0.194 -31.868  1.00  0.00     0.184 HD
BRANCH  35  37
HETATM   37  C   UNL     1     -11.169   0.818 -33.386  1.00  0.00     0.049 A 
HETATM   38  C   UNL     1     -12.188  -0.139 -33.294  1.00  0.00     0.030 A 
HETATM   39  C   UNL     1     -13.408   0.041 -33.954  1.00  0.00     0.002 A 
HETATM   40  C   UNL     1     -13.614   1.169 -34.743  1.00  0.00     0.000 A 
HETATM   41  C   UNL     1     -12.603   2.116 -34.872  1.00  0.00     0.002 A 
HETATM   42  C   UNL     1     -11.392   1.941 -34.197  1.00  0.00     0.030 A 
ENDBRANCH  35  37
ENDBRANCH   5  35
TORSDOF 8
ENDMDL
MODEL 6
REMARK VINA RESULT:     -10.1      1.662      5.647
REMARK  8 active torsions:
REMARK  status: ('A' for Active; 'I' for Inactive)
REMARK    1  A    between atoms: C_8  and  N_9 
REMARK       I    between atoms: N_9  and  C_10 
REMARK    2  A    between atoms: C_10  and  C_11 
REMARK    3  A    between atoms: C_11  and  N_12 
REMARK    4  A    between atoms: N_16  and  C_17 
REMARK    5  A    between atoms: C_19  and  N_20 
REMARK    6  A    between atoms: N_20  and  C_21 
REMARK    7  A    between atoms: C_28  and  N_29 
REMARK    8  A    between atoms: N_29  and  C_30 
ROOT
HETATM    1  C   UNL     1      -6.857   1.690 -33.383  1.00  0.00     0.756 A 
HETATM    2  N   UNL     1      -8.126   1.624 -33.007  1.00  0.00     0.131 NA
HETATM    3  C   UNL     1      -8.763   0.483 -33.257  1.00  0.00     0.758 A 
HETATM    4  N   UNL     1      -8.227  -0.518 -33.937  1.00  0.00     0.131 NA
HETATM    5  C   UNL     1      -6.959  -0.377 -34.285  1.00  0.00     0.758 A 
HETATM    6  N   UNL     1      -6.238   0.704 -34.011  1.00  0.00     0.131 NA
ENDROOT
BRANCH   1   7
HETATM    7  N   UNL     1      -6.130   2.847 -33.076  1.00  0.00    -0.210 N 
HETATM    8  C   UNL     1      -5.046   2.647 -32.103  1.00  0.00     0.169 C 
HETATM    9  C   UNL     1      -4.460   4.003 -31.657  1.00  0.00     0.256 C 
HETATM   10  N   UNL     1      -4.042   4.824 -32.881  1.00  0.00    -0.060 N 
HETATM   11  H   UNL     1      -3.383   4.237 -33.405  1.00  0.00     0.280 HD
HETATM   12  C   UNL     1      -5.251   5.053 -33.786  1.00  0.00     0.256 C 
HETATM   13  C   UNL     1      -5.851   3.704 -34.233  1.00  0.00     0.169 C 
BRANCH  10  14
HETATM   14  C   UNL     1      -3.304   6.117 -32.527  1.00  0.00     0.337 C 
BRANCH  14  15
HETATM   15  C   UNL     1      -2.229   6.012 -31.432  1.00  0.00     0.248 C 
HETATM   16  N   UNL     1      -2.241   7.079 -30.547  1.00  0.00    -0.325 N 
HETATM   17  H   UNL     1      -2.972   7.771 -30.650  1.00  0.00     0.169 HD
HETATM   18  O   UNL     1      -1.476   5.044 -31.395  1.00  0.00    -0.271 OA
BRANCH  16  19
HETATM   19  C   UNL     1      -1.338   7.317 -29.472  1.00  0.00     0.042 A 
HETATM   20  C   UNL     1      -1.855   7.478 -28.159  1.00  0.00    -0.014 A 
HETATM   21  C   UNL     1      -3.333   7.338 -27.883  1.00  0.00     0.052 C 
HETATM   22  C   UNL     1      -0.959   7.797 -27.115  1.00  0.00     0.042 A 
HETATM   23 CL   UNL     1      -1.488   8.080 -25.492  1.00  0.00    -0.084 Cl
HETATM   24  C   UNL     1       0.412   7.910 -27.350  1.00  0.00     0.024 A 
HETATM   25  C   UNL     1       0.913   7.721 -28.631  1.00  0.00     0.004 A 
HETATM   26  C   UNL     1       0.044   7.432 -29.682  1.00  0.00     0.030 A 
ENDBRANCH  16  19
ENDBRANCH  14  15
ENDBRANCH  10  14
ENDBRANCH   1   7
BRANCH   3  27
HETATM   27  N   UNL     1     -10.068   0.413 -32.768  1.00  0.00    -0.187 N 
HETATM   28  H   UNL     1     -10.100  -0.250 -32.006  1.00  0.00     0.184 HD
BRANCH  27  29
HETATM   29  C   UNL     1     -11.310   0.636 -33.385  1.00  0.00     0.049 A 
HETATM   30  C   UNL     1     -12.393  -0.247 -33.306  1.00  0.00     0.030 A 
HETATM   31  C   UNL     1     -13.600   0.027 -33.959  1.00  0.00     0.002 A 
HETATM   32  C   UNL     1     -13.736   1.181 -34.724  1.00  0.00     0.000 A 
HETATM   33  C   UNL     1     -12.662   2.056 -34.844  1.00  0.00     0.002 A 
HETATM   34  C   UNL     1     -11.459   1.779 -34.188  1.00  0.00     0.030 A 
ENDBRANCH  27  29
ENDBRANCH   3  27
BRANCH   5  35
HETATM   35  N   UNL     1      -6.409  -1.417 -35.030  1.00  0.00    -0.187 N 
HETATM   36  H   UNL     1      -6.903  -1.514 -35.908  1.00  0.00     0.184 HD
BRANCH  35  37
HETATM   37  C   UNL     1      -5.681  -2.548 -34.635  1.00  0.00     0.049 A 
HETATM   38  C   UNL     1      -4.487  -2.476 -33.907  1.00  0.00     0.030 A 
HETATM   39  C   UNL     1      -3.791  -3.635 -33.548  1.00  0.00     0.002 A 
HETATM   40  C   UNL     1      -4.265  -4.884 -33.940  1.00  0.00     0.000 A 
HETATM   41  C   UNL     1      -5.434  -4.974 -34.689  1.00  0.00     0.002 A 
HETATM   42  C   UNL     1      -6.136  -3.815 -35.032  1.00  0.00     0.030 A 
ENDBRANCH  35  37
ENDBRANCH   5  35
TORSDOF 8
ENDMDL
MODEL 7
REMARK VINA RESULT:     -10.0      2.193      3.343
REMARK  8 active torsions:
REMARK  status: ('A' for Active; 'I' for Inactive)
REMARK    1  A    between atoms: C_8  and  N_9 
REMARK       I    between atoms: N_9  and  C_10 
REMARK    2  A    between atoms: C_10  and  C_11 
REMARK    3  A    between atoms: C_11  and  N_12 
REMARK    4  A    between atoms: N_16  and  C_17 
REMARK    5  A    between atoms: C_19  and  N_20 
REMARK    6  A    between atoms: N_20  and  C_21 
REMARK    7  A    between atoms: C_28  and  N_29 
REMARK    8  A    between atoms: N_29  and  C_30 
ROOT
HETATM    1  C   UNL     1      -4.866   2.149 -32.288  1.00  0.00     0.756 A 
HETATM    2  N   UNL     1      -4.176   1.076 -32.652  1.00  0.00     0.131 NA
HETATM    3  C   UNL     1      -4.847  -0.071 -32.713  1.00  0.00     0.758 A 
HETATM    4  N   UNL     1      -6.110  -0.199 -32.339  1.00  0.00     0.131 NA
HETATM    5  C   UNL     1      -6.730   0.913 -31.982  1.00  0.00     0.758 A 
HETATM    6  N   UNL     1      -6.146   2.105 -31.962  1.00  0.00     0.131 NA
ENDROOT
BRANCH   1   7
HETATM    7  N   UNL     1      -4.214   3.389 -32.278  1.00  0.00    -0.210 N 
HETATM    8  C   UNL     1      -4.493   4.214 -31.094  1.00  0.00     0.169 C 
HETATM    9  C   UNL     1      -3.926   5.637 -31.279  1.00  0.00     0.256 C 
HETATM   10  N   UNL     1      -2.439   5.568 -31.643  1.00  0.00    -0.060 N 
HETATM   11  H   UNL     1      -1.987   5.034 -30.893  1.00  0.00     0.280 HD
HETATM   12  C   UNL     1      -2.259   4.766 -32.930  1.00  0.00     0.256 C 
HETATM   13  C   UNL     1      -2.830   3.342 -32.760  1.00  0.00     0.169 C 
BRANCH  10  14
HETATM   14  C   UNL     1      -1.756   6.936 -31.690  1.00  0.00     0.337 C 
BRANCH  14  15
HETATM   15  C   UNL     1      -0.603   7.158 -30.697  1.00  0.00     0.248 C 
HETATM   16  N   UNL     1      -1.028   7.567 -29.443  1.00  0.00    -0.325 N 
HETATM   17  H   UNL     1      -2.025   7.612 -29.272  1.00  0.00     0.169 HD
HETATM   18  O   UNL     1       0.558   6.962 -31.043  1.00  0.00    -0.271 OA
BRANCH  16  19
HETATM   19  C   UNL     1      -0.214   7.921 -28.330  1.00  0.00     0.042 A 
HETATM   20  C   UNL     1      -0.371   9.205 -27.741  1.00  0.00    -0.014 A 
HETATM   21  C   UNL     1      -1.424  10.165 -28.239  1.00  0.00     0.052 C 
HETATM   22  C   UNL     1       0.499   9.577 -26.692  1.00  0.00     0.042 A 
HETATM   23 CL   UNL     1       0.442  11.139 -25.949  1.00  0.00    -0.084 Cl
HETATM   24  C   UNL     1       1.465   8.694 -26.207  1.00  0.00     0.024 A 
HETATM   25  C   UNL     1       1.590   7.430 -26.768  1.00  0.00     0.004 A 
HETATM   26  C   UNL     1       0.761   7.050 -27.822  1.00  0.00     0.030 A 
ENDBRANCH  16  19
ENDBRANCH  14  15
ENDBRANCH  10  14
ENDBRANCH   1   7
BRANCH   3  27
HETATM   27  N   UNL     1      -4.114  -1.161 -33.185  1.00  0.00    -0.187 N 
HETATM   28  H   UNL     1      -3.217  -0.836 -33.518  1.00  0.00     0.184 HD
BRANCH  27  29
HETATM   29  C   UNL     1      -4.517  -2.390 -33.733  1.00  0.00     0.049 A 
HETATM   30  C   UNL     1      -5.644  -2.554 -34.546  1.00  0.00     0.030 A 
HETATM   31  C   UNL     1      -5.999  -3.811 -35.047  1.00  0.00     0.002 A 
HETATM   32  C   UNL     1      -5.244  -4.934 -34.722  1.00  0.00     0.000 A 
HETATM   33  C   UNL     1      -4.139  -4.800 -33.889  1.00  0.00     0.002 A 
HETATM   34  C   UNL     1      -3.786  -3.541 -33.393  1.00  0.00     0.030 A 
ENDBRANCH  27  29
ENDBRANCH   3  27
BRANCH   5  35
HETATM   35  N   UNL     1      -8.049   0.768 -31.556  1.00  0.00    -0.187 N 
HETATM   36  H   UNL     1      -8.110   0.036 -30.860  1.00  0.00     0.184 HD
BRANCH  35  37
HETATM   37  C   UNL     1      -9.259   1.088 -32.186  1.00  0.00     0.049 A 
HETATM   38  C   UNL     1     -10.032   0.153 -32.885  1.00  0.00     0.030 A 
HETATM   39  C   UNL     1     -11.227   0.526 -33.509  1.00  0.00     0.002 A 
HETATM   40  C   UNL     1     -11.651   1.851 -33.468  1.00  0.00     0.000 A 
HETATM   41  C   UNL     1     -10.882   2.801 -32.803  1.00  0.00     0.002 A 
HETATM   42  C   UNL     1      -9.697   2.421 -32.168  1.00  0.00     0.030 A 
ENDBRANCH  35  37
ENDBRANCH   5  35
TORSDOF 8
ENDMDL
MODEL 8
REMARK VINA RESULT:     -10.0      2.053      3.027
REMARK  8 active torsions:
REMARK  status: ('A' for Active; 'I' for Inactive)
REMARK    1  A    between atoms: C_8  and  N_9 
REMARK       I    between atoms: N_9  and  C_10 
REMARK    2  A    between atoms: C_10  and  C_11 
REMARK    3  A    between atoms: C_11  and  N_12 
REMARK    4  A    between atoms: N_16  and  C_17 
REMARK    5  A    between atoms: C_19  and  N_20 
REMARK    6  A    between atoms: N_20  and  C_21 
REMARK    7  A    between atoms: C_28  and  N_29 
REMARK    8  A    between atoms: N_29  and  C_30 
ROOT
HETATM    1  C   UNL     1      -6.025   2.700 -32.934  1.00  0.00     0.756 A 
HETATM    2  N   UNL     1      -5.758   1.423 -32.698  1.00  0.00     0.131 NA
HETATM    3  C   UNL     1      -6.803   0.606 -32.592  1.00  0.00     0.758 A 
HETATM    4  N   UNL     1      -8.059   1.021 -32.611  1.00  0.00     0.131 NA
HETATM    5  C   UNL     1      -8.247   2.309 -32.843  1.00  0.00     0.758 A 
HETATM    6  N   UNL     1      -7.256   3.174 -33.027  1.00  0.00     0.131 NA
ENDROOT
BRANCH   1   7
HETATM    7  N   UNL     1      -4.953   3.582 -33.122  1.00  0.00    -0.210 N 
HETATM    8  C   UNL     1      -3.631   3.005 -32.838  1.00  0.00     0.169 C 
HETATM    9  C   UNL     1      -2.547   4.102 -32.847  1.00  0.00     0.256 C 
HETATM   10  N   UNL     1      -2.604   4.888 -34.161  1.00  0.00    -0.060 N 
HETATM   11  H   UNL     1      -2.502   4.196 -34.911  1.00  0.00     0.280 HD
HETATM   12  C   UNL     1      -3.985   5.521 -34.325  1.00  0.00     0.256 C 
HETATM   13  C   UNL     1      -5.079   4.433 -34.310  1.00  0.00     0.169 C 
BRANCH  10  14
HETATM   14  C   UNL     1      -1.461   5.893 -34.323  1.00  0.00     0.337 C 
BRANCH  14  15
HETATM   15  C   UNL     1      -1.424   7.053 -33.314  1.00  0.00     0.248 C 
HETATM   16  N   UNL     1      -1.098   6.652 -32.028  1.00  0.00    -0.325 N 
HETATM   17  H   UNL     1      -0.851   5.681 -31.883  1.00  0.00     0.169 HD
HETATM   18  O   UNL     1      -1.656   8.200 -33.681  1.00  0.00    -0.271 OA
BRANCH  16  19
HETATM   19  C   UNL     1      -1.047   7.463 -30.859  1.00  0.00     0.042 A 
HETATM   20  C   UNL     1      -0.082   7.172 -29.857  1.00  0.00    -0.014 A 
HETATM   21  C   UNL     1       0.922   6.060 -30.046  1.00  0.00     0.052 C 
HETATM   22  C   UNL     1      -0.096   7.929 -28.665  1.00  0.00     0.042 A 
HETATM   23 CL   UNL     1       0.988   7.617 -27.354  1.00  0.00    -0.084 Cl
HETATM   24  C   UNL     1      -1.006   8.973 -28.485  1.00  0.00     0.024 A 
HETATM   25  C   UNL     1      -1.925   9.270 -29.481  1.00  0.00     0.004 A 
HETATM   26  C   UNL     1      -1.947   8.519 -30.655  1.00  0.00     0.030 A 
ENDBRANCH  16  19
ENDBRANCH  14  15
ENDBRANCH  10  14
ENDBRANCH   1   7
BRANCH   3  27
HETATM   27  N   UNL     1      -6.485  -0.743 -32.435  1.00  0.00    -0.187 N 
HETATM   28  H   UNL     1      -6.126  -0.892 -31.502  1.00  0.00     0.184 HD
BRANCH  27  29
HETATM   29  C   UNL     1      -6.093  -1.725 -33.361  1.00  0.00     0.049 A 
HETATM   30  C   UNL     1      -4.761  -2.060 -33.630  1.00  0.00     0.030 A 
HETATM   31  C   UNL     1      -4.439  -3.038 -34.577  1.00  0.00     0.002 A 
HETATM   32  C   UNL     1      -5.444  -3.682 -35.291  1.00  0.00     0.000 A 
HETATM   33  C   UNL     1      -6.773  -3.339 -35.064  1.00  0.00     0.002 A 
HETATM   34  C   UNL     1      -7.091  -2.364 -34.115  1.00  0.00     0.030 A 
ENDBRANCH  27  29
ENDBRANCH   3  27
BRANCH   5  35
HETATM   35  N   UNL     1      -9.569   2.748 -32.827  1.00  0.00    -0.187 N 
HETATM   36  H   UNL     1      -9.915   2.770 -31.876  1.00  0.00     0.184 HD
BRANCH  35  37
HETATM   37  C   UNL     1     -10.561   2.717 -33.817  1.00  0.00     0.049 A 
HETATM   38  C   UNL     1     -11.413   1.624 -34.016  1.00  0.00     0.030 A 
HETATM   39  C   UNL     1     -12.379   1.638 -35.028  1.00  0.00     0.002 A 
HETATM   40  C   UNL     1     -12.484   2.736 -35.877  1.00  0.00     0.000 A 
HETATM   41  C   UNL     1     -11.627   3.819 -35.714  1.00  0.00     0.002 A 
HETATM   42  C   UNL     1     -10.674   3.809 -34.691  1.00  0.00     0.030 A 
ENDBRANCH  35  37
ENDBRANCH   5  35
TORSDOF 8
ENDMDL
MODEL 9
REMARK VINA RESULT:      -9.6      4.127      9.413
REMARK  8 active torsions:
REMARK  status: ('A' for Active; 'I' for Inactive)
REMARK    1  A    between atoms: C_8  and  N_9 
REMARK       I    between atoms: N_9  and  C_10 
REMARK    2  A    between atoms: C_10  and  C_11 
REMARK    3  A    between atoms: C_11  and  N_12 
REMARK    4  A    between atoms: N_16  and  C_17 
REMARK    5  A    between atoms: C_19  and  N_20 
REMARK    6  A    between atoms: N_20  and  C_21 
REMARK    7  A    between atoms: C_28  and  N_29 
REMARK    8  A    between atoms: N_29  and  C_30 
ROOT
HETATM    1  C   UNL     1      -5.815   2.829 -32.066  1.00  0.00     0.756 A 
HETATM    2  N   UNL     1      -4.773   3.557 -31.692  1.00  0.00     0.131 NA
HETATM    3  C   UNL     1      -3.611   2.917 -31.575  1.00  0.00     0.758 A 
HETATM    4  N   UNL     1      -3.482   1.608 -31.714  1.00  0.00     0.131 NA
HETATM    5  C   UNL     1      -4.567   0.947 -32.081  1.00  0.00     0.758 A 
HETATM    6  N   UNL     1      -5.745   1.526 -32.283  1.00  0.00     0.131 NA
ENDROOT
BRANCH   1   7
HETATM    7  N   UNL     1      -7.041   3.475 -32.268  1.00  0.00    -0.210 N 
HETATM    8  C   UNL     1      -7.508   4.272 -31.124  1.00  0.00     0.169 C 
HETATM    9  C   UNL     1      -8.957   4.750 -31.350  1.00  0.00     0.256 C 
HETATM   10  N   UNL     1      -9.066   5.481 -32.692  1.00  0.00    -0.060 N 
HETATM   11  H   UNL     1      -8.378   6.241 -32.658  1.00  0.00     0.280 HD
HETATM   12  C   UNL     1      -8.645   4.548 -33.825  1.00  0.00     0.256 C 
HETATM   13  C   UNL     1      -7.199   4.056 -33.606  1.00  0.00     0.169 C 
BRANCH  10  14
HETATM   14  C   UNL     1     -10.433   6.129 -32.925  1.00  0.00     0.337 C 
BRANCH  14  15
HETATM   15  C   UNL     1     -11.526   5.223 -33.517  1.00  0.00     0.248 C 
HETATM   16  N   UNL     1     -11.974   4.253 -32.633  1.00  0.00    -0.325 N 
HETATM   17  H   UNL     1     -11.610   4.270 -31.688  1.00  0.00     0.169 HD
HETATM   18  O   UNL     1     -11.927   5.403 -34.662  1.00  0.00    -0.271 OA
BRANCH  16  19
HETATM   19  C   UNL     1     -12.921   3.222 -32.892  1.00  0.00     0.042 A 
HETATM   20  C   UNL     1     -14.251   3.371 -32.415  1.00  0.00    -0.014 A 
HETATM   21  C   UNL     1     -14.684   4.627 -31.698  1.00  0.00     0.052 C 
HETATM   22  C   UNL     1     -15.159   2.305 -32.604  1.00  0.00     0.042 A 
HETATM   23 CL   UNL     1     -16.782   2.352 -32.006  1.00  0.00    -0.084 Cl
HETATM   24  C   UNL     1     -14.780   1.146 -33.283  1.00  0.00     0.024 A 
HETATM   25  C   UNL     1     -13.487   1.022 -33.772  1.00  0.00     0.004 A 
HETATM   26  C   UNL     1     -12.566   2.049 -33.574  1.00  0.00     0.030 A 
ENDBRANCH  16  19
ENDBRANCH  14  15
ENDBRANCH  10  14
ENDBRANCH   1   7
BRANCH   3  27
HETATM   27  N   UNL     1      -2.518   3.728 -31.269  1.00  0.00    -0.187 N 
HETATM   28  H   UNL     1      -2.410   3.772 -30.265  1.00  0.00     0.184 HD
BRANCH  27  29
HETATM   29  C   UNL     1      -1.932   4.806 -31.954  1.00  0.00     0.049 A 
HETATM   30  C   UNL     1      -1.364   5.919 -31.325  1.00  0.00     0.030 A 
HETATM   31  C   UNL     1      -0.811   6.967 -32.068  1.00  0.00     0.002 A 
HETATM   32  C   UNL     1      -0.839   6.932 -33.459  1.00  0.00     0.000 A 
HETATM   33  C   UNL     1      -1.430   5.851 -34.105  1.00  0.00     0.002 A 
HETATM   34  C   UNL     1      -1.978   4.805 -33.359  1.00  0.00     0.030 A 
ENDBRANCH  27  29
ENDBRANCH   3  27
BRANCH   5  35
HETATM   35  N   UNL     1      -4.435  -0.435 -32.192  1.00  0.00    -0.187 N 
HETATM   36  H   UNL     1      -3.576  -0.738 -31.750  1.00  0.00     0.184 HD
BRANCH  35  37
HETATM   37  C   UNL     1      -4.975  -1.339 -33.117  1.00  0.00     0.049 A 
HETATM   38  C   UNL     1      -6.312  -1.307 -33.532  1.00  0.00     0.030 A 
HETATM   39  C   UNL     1      -6.805  -2.243 -34.447  1.00  0.00     0.002 A 
HETATM   40  C   UNL     1      -5.973  -3.244 -34.939  1.00  0.00     0.000 A 
HETATM   41  C   UNL     1      -4.649  -3.310 -34.516  1.00  0.00     0.002 A 
HETATM   42  C   UNL     1      -4.155  -2.364 -33.613  1.00  0.00     0.030 A 
ENDBRANCH  35  37
ENDBRANCH   5  35
TORSDOF 8
ENDMDL
MODEL 10
REMARK VINA RESULT:      -9.6      1.673      2.240
REMARK  8 active torsions:
REMARK  status: ('A' for Active; 'I' for Inactive)
REMARK    1  A    between atoms: C_8  and  N_9 
REMARK       I    between atoms: N_9  and  C_10 
REMARK    2  A    between atoms: C_10  and  C_11 
REMARK    3  A    between atoms: C_11  and  N_12 
REMARK    4  A    between atoms: N_16  and  C_17 
REMARK    5  A    between atoms: C_19  and  N_20 
REMARK    6  A    between atoms: N_20  and  C_21 
REMARK    7  A    between atoms: C_28  and  N_29 
REMARK    8  A    between atoms: N_29  and  C_30 
ROOT
HETATM    1  C   UNL     1      -7.854   3.270 -33.407  1.00  0.00     0.756 A 
HETATM    2  N   UNL     1      -7.381   2.125 -32.935  1.00  0.00     0.131 NA
HETATM    3  C   UNL     1      -8.103   1.035 -33.183  1.00  0.00     0.758 A 
HETATM    4  N   UNL     1      -9.287   1.063 -33.774  1.00  0.00     0.131 NA
HETATM    5  C   UNL     1      -9.696   2.242 -34.211  1.00  0.00     0.758 A 
HETATM    6  N   UNL     1      -8.999   3.362 -34.061  1.00  0.00     0.131 NA
ENDROOT
BRANCH   1   7
HETATM    7  N   UNL     1      -7.091   4.431 -33.228  1.00  0.00    -0.210 N 
HETATM    8  C   UNL     1      -7.495   5.257 -32.081  1.00  0.00     0.169 C 
HETATM    9  C   UNL     1      -6.759   6.613 -32.103  1.00  0.00     0.256 C 
HETATM   10  N   UNL     1      -5.246   6.388 -32.194  1.00  0.00    -0.060 N 
HETATM   11  H   UNL     1      -4.999   5.793 -31.396  1.00  0.00     0.280 HD
HETATM   12  C   UNL     1      -4.916   5.599 -33.459  1.00  0.00     0.256 C 
HETATM   13  C   UNL     1      -5.653   4.243 -33.453  1.00  0.00     0.169 C 
BRANCH  10  14
HETATM   14  C   UNL     1      -4.428   7.675 -32.060  1.00  0.00     0.337 C 
BRANCH  14  15
HETATM   15  C   UNL     1      -2.955   7.508 -31.652  1.00  0.00     0.248 C 
HETATM   16  N   UNL     1      -2.751   6.488 -30.736  1.00  0.00    -0.325 N 
HETATM   17  H   UNL     1      -3.546   5.916 -30.480  1.00  0.00     0.169 HD
HETATM   18  O   UNL     1      -2.092   8.232 -32.139  1.00  0.00    -0.271 OA
BRANCH  16  19
HETATM   19  C   UNL     1      -1.525   6.125 -30.110  1.00  0.00     0.042 A 
HETATM   20  C   UNL     1      -1.201   6.689 -28.846  1.00  0.00    -0.014 A 
HETATM   21  C   UNL     1      -2.162   7.614 -28.139  1.00  0.00     0.052 C 
HETATM   22  C   UNL     1       0.054   6.387 -28.274  1.00  0.00     0.042 A 
HETATM   23 CL   UNL     1       0.579   7.071 -26.774  1.00  0.00    -0.084 Cl
HETATM   24  C   UNL     1       0.945   5.518 -28.906  1.00  0.00     0.024 A 
HETATM   25  C   UNL     1       0.608   4.948 -30.125  1.00  0.00     0.004 A 
HETATM   26  C   UNL     1      -0.614   5.252 -30.723  1.00  0.00     0.030 A 
ENDBRANCH  16  19
ENDBRANCH  14  15
ENDBRANCH  10  14
ENDBRANCH   1   7
BRANCH   3  27
HETATM   27  N   UNL     1      -7.533  -0.163 -32.753  1.00  0.00    -0.187 N 
HETATM   28  H   UNL     1      -7.499  -0.169 -31.743  1.00  0.00     0.184 HD
BRANCH  27  29
HETATM   29  C   UNL     1      -6.609  -1.030 -33.361  1.00  0.00     0.049 A 
HETATM   30  C   UNL     1      -6.961  -2.048 -34.253  1.00  0.00     0.030 A 
HETATM   31  C   UNL     1      -5.992  -2.888 -34.812  1.00  0.00     0.002 A 
HETATM   32  C   UNL     1      -4.652  -2.739 -34.468  1.00  0.00     0.000 A 
HETATM   33  C   UNL     1      -4.284  -1.755 -33.556  1.00  0.00     0.002 A 
HETATM   34  C   UNL     1      -5.255  -0.917 -33.002  1.00  0.00     0.030 A 
ENDBRANCH  27  29
ENDBRANCH   3  27
BRANCH   5  35
HETATM   35  N   UNL     1     -10.958   2.272 -34.801  1.00  0.00    -0.187 N 
HETATM   36  H   UNL     1     -10.935   2.841 -35.638  1.00  0.00     0.184 HD
BRANCH  35  37
HETATM   37  C   UNL     1     -12.233   2.072 -34.256  1.00  0.00     0.049 A 
HETATM   38  C   UNL     1     -12.745   2.836 -33.200  1.00  0.00     0.030 A 
HETATM   39  C   UNL     1     -14.021   2.586 -32.682  1.00  0.00     0.002 A 
HETATM   40  C   UNL     1     -14.791   1.547 -33.195  1.00  0.00     0.000 A 
HETATM   41  C   UNL     1     -14.288   0.758 -34.224  1.00  0.00     0.002 A 
HETATM   42  C   UNL     1     -13.019   1.020 -34.750  1.00  0.00     0.030 A 
ENDBRANCH  35  37
ENDBRANCH   5  35
TORSDOF 8
ENDMDL
