MODEL 1
REMARK VINA RESULT:      -8.7      0.000      0.000
REMARK  6 active torsions:
REMARK  status: ('A' for Active; 'I' for Inactive)
REMARK    1  A    between atoms: C_4  and  O_5 
REMARK    2  A    between atoms: O_5  and  C_6 
REMARK    3  A    between atoms: C_7  and  N_8 
REMARK       I    between atoms: N_8  and  C_9 
REMARK       I    between atoms: C_9  and  N_10 
REMARK    4  A    between atoms: N_10  and  C_11 
REMARK    5  A    between atoms: C_11  and  C_12 
REMARK    6  A    between atoms: C_12  and  C_13 
ROOT
HETATM    1  C   UNL     1      -6.190  -0.569 -33.374  1.00  0.00     0.106 C 
HETATM    2  C   UNL     1      -5.801  -0.291 -32.059  1.00  0.00     0.109 C 
HETATM    3  C   UNL     1      -6.791   0.081 -31.144  1.00  0.00     0.145 C 
HETATM    4  F   UNL     1      -6.467   0.286 -29.858  1.00  0.00    -0.204 F 
HETATM    5  C   UNL     1      -8.109   0.292 -31.543  1.00  0.00     0.045 C 
HETATM    6  C   UNL     1      -8.464   0.111 -32.878  1.00  0.00     0.006 C 
HETATM    7  C   UNL     1      -7.505  -0.323 -33.795  1.00  0.00     0.040 C 
ENDROOT
BRANCH   2   8
HETATM    8  N   UNL     1      -4.479  -0.412 -31.580  1.00  0.00    -0.304 N 
HETATM    9  C   UNL     1      -3.530   0.565 -31.455  1.00  0.00     0.320 C 
HETATM   10  N   UNL     1      -3.871   1.827 -31.836  1.00  0.00    -0.342 N 
HETATM   11  O   UNL     1      -2.482   0.309 -30.863  1.00  0.00    -0.247 OA
HETATM   12  H   UNL     1      -4.464   1.918 -32.652  1.00  0.00     0.164 HD
HETATM   13  H   UNL     1      -4.322  -1.127 -30.877  1.00  0.00     0.171 HD
BRANCH  10  14
HETATM   14  C   UNL     1      -3.033   2.976 -31.535  1.00  0.00     0.132 C 
BRANCH  14  15
HETATM   15  C   UNL     1      -3.664   4.307 -31.937  1.00  0.00     0.102 C 
BRANCH  15  16
HETATM   16  C   UNL     1      -3.216   4.761 -33.281  1.00  0.00     0.148 A 
HETATM   17  N   UNL     1      -4.052   5.296 -34.181  1.00  0.00    -0.158 NA
HETATM   18  N   UNL     1      -3.228   5.532 -35.213  1.00  0.00    -0.270 N 
HETATM   19  H   UNL     1      -3.597   5.950 -36.059  1.00  0.00     0.190 HD
HETATM   20  C   UNL     1      -1.959   5.143 -34.927  1.00  0.00     0.227 A 
HETATM   21  N   UNL     1      -1.915   4.651 -33.712  1.00  0.00    -0.226 NA
ENDBRANCH  15  16
ENDBRANCH  14  15
ENDBRANCH  10  14
ENDBRANCH   2   8
BRANCH   1  22
HETATM   22  O   UNL     1      -5.272  -1.098 -34.254  1.00  0.00    -0.309 OA
BRANCH  22  23
HETATM   23  C   UNL     1      -5.153  -2.474 -34.317  1.00  0.00     0.076 A 
HETATM   24  C   UNL     1      -6.207  -3.145 -34.939  1.00  0.00     0.037 A 
HETATM   25  C   UNL     1      -6.193  -4.537 -35.049  1.00  0.00     0.003 A 
HETATM   26  C   UNL     1      -5.117  -5.264 -34.544  1.00  0.00     0.000 A 
HETATM   27  C   UNL     1      -4.047  -4.599 -33.949  1.00  0.00     0.003 A 
HETATM   28  C   UNL     1      -4.058  -3.205 -33.845  1.00  0.00     0.037 A 
ENDBRANCH  22  23
ENDBRANCH   1  22
TORSDOF 6
ENDMDL
MODEL 2
REMARK VINA RESULT:      -8.6      1.169      1.826
REMARK  6 active torsions:
REMARK  status: ('A' for Active; 'I' for Inactive)
REMARK    1  A    between atoms: C_4  and  O_5 
REMARK    2  A    between atoms: O_5  and  C_6 
REMARK    3  A    between atoms: C_7  and  N_8 
REMARK       I    between atoms: N_8  and  C_9 
REMARK       I    between atoms: C_9  and  N_10 
REMARK    4  A    between atoms: N_10  and  C_11 
REMARK    5  A    between atoms: C_11  and  C_12 
REMARK    6  A    between atoms: C_12  and  C_13 
ROOT
HETATM    1  C   UNL     1      -6.329  -0.455 -33.361  1.00  0.00     0.106 C 
HETATM    2  C   UNL     1      -5.898  -0.194 -32.055  1.00  0.00     0.109 C 
HETATM    3  C   UNL     1      -6.856   0.189 -31.111  1.00  0.00     0.145 C 
HETATM    4  F   UNL     1      -6.492   0.379 -29.832  1.00  0.00    -0.204 F 
HETATM    5  C   UNL     1      -8.181   0.426 -31.471  1.00  0.00     0.045 C 
HETATM    6  C   UNL     1      -8.575   0.261 -32.797  1.00  0.00     0.006 C 
HETATM    7  C   UNL     1      -7.650  -0.183 -33.743  1.00  0.00     0.040 C 
ENDROOT
BRANCH   2   8
HETATM    8  N   UNL     1      -4.566  -0.341 -31.613  1.00  0.00    -0.304 N 
HETATM    9  C   UNL     1      -3.602   0.621 -31.490  1.00  0.00     0.320 C 
HETATM   10  N   UNL     1      -3.938   1.897 -31.831  1.00  0.00    -0.342 N 
HETATM   11  O   UNL     1      -2.543   0.339 -30.932  1.00  0.00    -0.247 OA
HETATM   12  H   UNL     1      -4.551   2.014 -32.629  1.00  0.00     0.164 HD
HETATM   13  H   UNL     1      -4.400  -1.075 -30.933  1.00  0.00     0.171 HD
BRANCH  10  14
HETATM   14  C   UNL     1      -3.080   3.028 -31.524  1.00  0.00     0.132 C 
BRANCH  14  15
HETATM   15  C   UNL     1      -2.658   3.820 -32.760  1.00  0.00     0.102 C 
BRANCH  15  16
HETATM   16  C   UNL     1      -1.724   4.930 -32.427  1.00  0.00     0.148 A 
HETATM   17  N   UNL     1      -0.667   4.768 -31.619  1.00  0.00    -0.158 NA
HETATM   18  N   UNL     1      -0.145   6.005 -31.602  1.00  0.00    -0.270 N 
HETATM   19  H   UNL     1       0.690   6.185 -31.057  1.00  0.00     0.190 HD
HETATM   20  C   UNL     1      -0.875   6.856 -32.368  1.00  0.00     0.227 A 
HETATM   21  N   UNL     1      -1.881   6.208 -32.906  1.00  0.00    -0.226 NA
ENDBRANCH  15  16
ENDBRANCH  14  15
ENDBRANCH  10  14
ENDBRANCH   2   8
BRANCH   1  22
HETATM   22  O   UNL     1      -5.445  -0.994 -34.269  1.00  0.00    -0.309 OA
BRANCH  22  23
HETATM   23  C   UNL     1      -5.383  -2.371 -34.374  1.00  0.00     0.076 A 
HETATM   24  C   UNL     1      -4.186  -2.957 -33.957  1.00  0.00     0.037 A 
HETATM   25  C   UNL     1      -4.012  -4.340 -34.029  1.00  0.00     0.003 A 
HETATM   26  C   UNL     1      -5.042  -5.147 -34.509  1.00  0.00     0.000 A 
HETATM   27  C   UNL     1      -6.250  -4.573 -34.897  1.00  0.00     0.003 A 
HETATM   28  C   UNL     1      -6.427  -3.189 -34.819  1.00  0.00     0.037 A 
ENDBRANCH  22  23
ENDBRANCH   1  22
TORSDOF 6
ENDMDL
MODEL 3
REMARK VINA RESULT:      -8.5      1.721      2.674
REMARK  6 active torsions:
REMARK  status: ('A' for Active; 'I' for Inactive)
REMARK    1  A    between atoms: C_4  and  O_5 
REMARK    2  A    between atoms: O_5  and  C_6 
REMARK    3  A    between atoms: C_7  and  N_8 
REMARK       I    between atoms: N_8  and  C_9 
REMARK       I    between atoms: C_9  and  N_10 
REMARK    4  A    between atoms: N_10  and  C_11 
REMARK    5  A    between atoms: C_11  and  C_12 
REMARK    6  A    between atoms: C_12  and  C_13 
ROOT
HETATM    1  C   UNL     1      -6.521  -0.416 -33.376  1.00  0.00     0.106 C 
HETATM    2  C   UNL     1      -6.081  -0.187 -32.067  1.00  0.00     0.109 C 
HETATM    3  C   UNL     1      -7.030   0.179 -31.108  1.00  0.00     0.145 C 
HETATM    4  F   UNL     1      -6.658   0.336 -29.828  1.00  0.00    -0.204 F 
HETATM    5  C   UNL     1      -8.356   0.431 -31.455  1.00  0.00     0.045 C 
HETATM    6  C   UNL     1      -8.760   0.299 -32.782  1.00  0.00     0.006 C 
HETATM    7  C   UNL     1      -7.843  -0.128 -33.743  1.00  0.00     0.040 C 
ENDROOT
BRANCH   2   8
HETATM    8  N   UNL     1      -4.747  -0.352 -31.638  1.00  0.00    -0.304 N 
HETATM    9  C   UNL     1      -3.744   0.578 -31.612  1.00  0.00     0.320 C 
HETATM   10  N   UNL     1      -4.036   1.833 -32.052  1.00  0.00    -0.342 N 
HETATM   11  O   UNL     1      -2.685   0.300 -31.050  1.00  0.00    -0.247 OA
HETATM   12  H   UNL     1      -4.661   1.909 -32.846  1.00  0.00     0.164 HD
HETATM   13  H   UNL     1      -4.595  -1.033 -30.902  1.00  0.00     0.171 HD
BRANCH  10  14
HETATM   14  C   UNL     1      -3.128   2.950 -31.855  1.00  0.00     0.132 C 
BRANCH  14  15
HETATM   15  C   UNL     1      -3.838   4.247 -31.474  1.00  0.00     0.102 C 
BRANCH  15  16
HETATM   16  C   UNL     1      -5.203   4.005 -30.933  1.00  0.00     0.148 A 
HETATM   17  N   UNL     1      -5.419   3.538 -29.695  1.00  0.00    -0.158 NA
HETATM   18  N   UNL     1      -6.759   3.470 -29.660  1.00  0.00    -0.270 N 
HETATM   19  H   UNL     1      -7.218   3.143 -28.818  1.00  0.00     0.190 HD
HETATM   20  C   UNL     1      -7.303   3.878 -30.835  1.00  0.00     0.227 A 
HETATM   21  N   UNL     1      -6.346   4.225 -31.663  1.00  0.00    -0.226 NA
ENDBRANCH  15  16
ENDBRANCH  14  15
ENDBRANCH  10  14
ENDBRANCH   2   8
BRANCH   1  22
HETATM   22  O   UNL     1      -5.646  -0.938 -34.303  1.00  0.00    -0.309 OA
BRANCH  22  23
HETATM   23  C   UNL     1      -5.570  -2.313 -34.419  1.00  0.00     0.076 A 
HETATM   24  C   UNL     1      -4.335  -2.881 -34.098  1.00  0.00     0.037 A 
HETATM   25  C   UNL     1      -4.146  -4.261 -34.189  1.00  0.00     0.003 A 
HETATM   26  C   UNL     1      -5.196  -5.083 -34.593  1.00  0.00     0.000 A 
HETATM   27  C   UNL     1      -6.440  -4.527 -34.885  1.00  0.00     0.003 A 
HETATM   28  C   UNL     1      -6.632  -3.146 -34.787  1.00  0.00     0.037 A 
ENDBRANCH  22  23
ENDBRANCH   1  22
TORSDOF 6
ENDMDL
MODEL 4
REMARK VINA RESULT:      -8.5      1.130      1.652
REMARK  6 active torsions:
REMARK  status: ('A' for Active; 'I' for Inactive)
REMARK    1  A    between atoms: C_4  and  O_5 
REMARK    2  A    between atoms: O_5  and  C_6 
REMARK    3  A    between atoms: C_7  and  N_8 
REMARK       I    between atoms: N_8  and  C_9 
REMARK       I    between atoms: C_9  and  N_10 
REMARK    4  A    between atoms: N_10  and  C_11 
REMARK    5  A    between atoms: C_11  and  C_12 
REMARK    6  A    between atoms: C_12  and  C_13 
ROOT
HETATM    1  C   UNL     1      -6.472  -0.389 -34.032  1.00  0.00     0.106 C 
HETATM    2  C   UNL     1      -6.879  -0.088 -32.727  1.00  0.00     0.109 C 
HETATM    3  C   UNL     1      -8.186   0.369 -32.534  1.00  0.00     0.145 C 
HETATM    4  F   UNL     1      -8.634   0.598 -31.289  1.00  0.00    -0.204 F 
HETATM    5  C   UNL     1      -9.030   0.639 -33.609  1.00  0.00     0.045 C 
HETATM    6  C   UNL     1      -8.577   0.433 -34.910  1.00  0.00     0.006 C 
HETATM    7  C   UNL     1      -7.299  -0.084 -35.123  1.00  0.00     0.040 C 
ENDROOT
BRANCH   2   8
HETATM    8  N   UNL     1      -6.071  -0.266 -31.583  1.00  0.00    -0.304 N 
HETATM    9  C   UNL     1      -5.168   0.605 -31.040  1.00  0.00     0.320 C 
HETATM   10  N   UNL     1      -5.000   1.807 -31.659  1.00  0.00    -0.342 N 
HETATM   11  O   UNL     1      -4.672   0.346 -29.944  1.00  0.00    -0.247 OA
HETATM   12  H   UNL     1      -5.034   1.812 -32.671  1.00  0.00     0.164 HD
HETATM   13  H   UNL     1      -6.456  -0.854 -30.852  1.00  0.00     0.171 HD
BRANCH  10  14
HETATM   14  C   UNL     1      -4.249   2.890 -31.047  1.00  0.00     0.132 C 
BRANCH  14  15
HETATM   15  C   UNL     1      -2.967   3.237 -31.799  1.00  0.00     0.102 C 
BRANCH  15  16
HETATM   16  C   UNL     1      -3.226   4.080 -32.999  1.00  0.00     0.148 A 
HETATM   17  N   UNL     1      -4.462   4.366 -33.429  1.00  0.00    -0.158 NA
HETATM   18  N   UNL     1      -4.207   5.116 -34.512  1.00  0.00    -0.270 N 
HETATM   19  H   UNL     1      -4.979   5.486 -35.054  1.00  0.00     0.190 HD
HETATM   20  C   UNL     1      -2.871   5.257 -34.708  1.00  0.00     0.227 A 
HETATM   21  N   UNL     1      -2.220   4.615 -33.767  1.00  0.00    -0.226 NA
ENDBRANCH  15  16
ENDBRANCH  14  15
ENDBRANCH  10  14
ENDBRANCH   2   8
BRANCH   1  22
HETATM   22  O   UNL     1      -5.254  -0.998 -34.239  1.00  0.00    -0.309 OA
BRANCH  22  23
HETATM   23  C   UNL     1      -5.226  -2.376 -34.329  1.00  0.00     0.076 A 
HETATM   24  C   UNL     1      -4.060  -2.990 -33.868  1.00  0.00     0.037 A 
HETATM   25  C   UNL     1      -3.922  -4.378 -33.921  1.00  0.00     0.003 A 
HETATM   26  C   UNL     1      -4.958  -5.162 -34.429  1.00  0.00     0.000 A 
HETATM   27  C   UNL     1      -6.137  -4.559 -34.862  1.00  0.00     0.003 A 
HETATM   28  C   UNL     1      -6.277  -3.170 -34.802  1.00  0.00     0.037 A 
ENDBRANCH  22  23
ENDBRANCH   1  22
TORSDOF 6
ENDMDL
MODEL 5
REMARK VINA RESULT:      -8.3      3.371      4.826
REMARK  6 active torsions:
REMARK  status: ('A' for Active; 'I' for Inactive)
REMARK    1  A    between atoms: C_4  and  O_5 
REMARK    2  A    between atoms: O_5  and  C_6 
REMARK    3  A    between atoms: C_7  and  N_8 
REMARK       I    between atoms: N_8  and  C_9 
REMARK       I    between atoms: C_9  and  N_10 
REMARK    4  A    between atoms: N_10  and  C_11 
REMARK    5  A    between atoms: C_11  and  C_12 
REMARK    6  A    between atoms: C_12  and  C_13 
ROOT
HETATM    1  C   UNL     1      -6.023   0.735 -32.492  1.00  0.00     0.106 C 
HETATM    2  C   UNL     1      -5.557   2.022 -32.199  1.00  0.00     0.109 C 
HETATM    3  C   UNL     1      -5.347   2.357 -30.858  1.00  0.00     0.145 C 
HETATM    4  F   UNL     1      -4.833   3.556 -30.543  1.00  0.00    -0.204 F 
HETATM    5  C   UNL     1      -5.702   1.490 -29.826  1.00  0.00     0.045 C 
HETATM    6  C   UNL     1      -6.261   0.250 -30.128  1.00  0.00     0.006 C 
HETATM    7  C   UNL     1      -6.419  -0.129 -31.462  1.00  0.00     0.040 C 
ENDROOT
BRANCH   2   8
HETATM    8  N   UNL     1      -5.234   2.990 -33.174  1.00  0.00    -0.304 N 
HETATM    9  C   UNL     1      -6.075   3.850 -33.825  1.00  0.00     0.320 C 
HETATM   10  N   UNL     1      -7.401   3.788 -33.519  1.00  0.00    -0.342 N 
HETATM   11  O   UNL     1      -5.595   4.741 -34.526  1.00  0.00    -0.247 OA
HETATM   12  H   UNL     1      -7.791   2.870 -33.343  1.00  0.00     0.164 HD
HETATM   13  H   UNL     1      -4.313   3.410 -33.099  1.00  0.00     0.171 HD
BRANCH  10  14
HETATM   14  C   UNL     1      -8.344   4.797 -33.970  1.00  0.00     0.132 C 
BRANCH  14  15
HETATM   15  C   UNL     1      -9.722   4.232 -34.304  1.00  0.00     0.102 C 
BRANCH  15  16
HETATM   16  C   UNL     1      -9.909   2.853 -33.775  1.00  0.00     0.148 A 
HETATM   17  N   UNL     1     -10.515   2.602 -32.606  1.00  0.00    -0.158 NA
HETATM   18  N   UNL     1     -10.441   1.264 -32.543  1.00  0.00    -0.270 N 
HETATM   19  H   UNL     1     -10.834   0.781 -31.743  1.00  0.00     0.190 HD
HETATM   20  C   UNL     1      -9.811   0.755 -33.633  1.00  0.00     0.227 A 
HETATM   21  N   UNL     1      -9.462   1.733 -34.434  1.00  0.00    -0.226 NA
ENDBRANCH  15  16
ENDBRANCH  14  15
ENDBRANCH  10  14
ENDBRANCH   2   8
BRANCH   1  22
HETATM   22  O   UNL     1      -6.079   0.318 -33.803  1.00  0.00    -0.309 OA
BRANCH  22  23
HETATM   23  C   UNL     1      -5.814  -1.012 -34.072  1.00  0.00     0.076 A 
HETATM   24  C   UNL     1      -6.906  -1.773 -34.495  1.00  0.00     0.037 A 
HETATM   25  C   UNL     1      -6.752  -3.130 -34.785  1.00  0.00     0.003 A 
HETATM   26  C   UNL     1      -5.500  -3.730 -34.663  1.00  0.00     0.000 A 
HETATM   27  C   UNL     1      -4.400  -2.970 -34.272  1.00  0.00     0.003 A 
HETATM   28  C   UNL     1      -4.552  -1.610 -33.988  1.00  0.00     0.037 A 
ENDBRANCH  22  23
ENDBRANCH   1  22
TORSDOF 6
ENDMDL
MODEL 6
REMARK VINA RESULT:      -8.0      2.563      3.489
REMARK  6 active torsions:
REMARK  status: ('A' for Active; 'I' for Inactive)
REMARK    1  A    between atoms: C_4  and  O_5 
REMARK    2  A    between atoms: O_5  and  C_6 
REMARK    3  A    between atoms: C_7  and  N_8 
REMARK       I    between atoms: N_8  and  C_9 
REMARK       I    between atoms: C_9  and  N_10 
REMARK    4  A    between atoms: N_10  and  C_11 
REMARK    5  A    between atoms: C_11  and  C_12 
REMARK    6  A    between atoms: C_12  and  C_13 
ROOT
HETATM    1  C   UNL     1      -5.632   0.868 -32.357  1.00  0.00     0.106 C 
HETATM    2  C   UNL     1      -5.844   2.227 -32.098  1.00  0.00     0.109 C 
HETATM    3  C   UNL     1      -6.031   2.622 -30.770  1.00  0.00     0.145 C 
HETATM    4  F   UNL     1      -6.165   3.925 -30.476  1.00  0.00    -0.204 F 
HETATM    5  C   UNL     1      -6.128   1.691 -29.739  1.00  0.00     0.045 C 
HETATM    6  C   UNL     1      -6.017   0.331 -30.024  1.00  0.00     0.006 C 
HETATM    7  C   UNL     1      -5.766  -0.081 -31.333  1.00  0.00     0.040 C 
ENDROOT
BRANCH   2   8
HETATM    8  N   UNL     1      -5.829   3.234 -33.086  1.00  0.00    -0.304 N 
HETATM    9  C   UNL     1      -4.770   3.988 -33.512  1.00  0.00     0.320 C 
HETATM   10  N   UNL     1      -3.561   3.764 -32.926  1.00  0.00    -0.342 N 
HETATM   11  O   UNL     1      -4.907   4.707 -34.501  1.00  0.00    -0.247 OA
HETATM   12  H   UNL     1      -3.560   3.560 -31.934  1.00  0.00     0.164 HD
HETATM   13  H   UNL     1      -6.493   3.125 -33.845  1.00  0.00     0.171 HD
BRANCH  10  14
HETATM   14  C   UNL     1      -2.332   4.333 -33.453  1.00  0.00     0.132 C 
BRANCH  14  15
HETATM   15  C   UNL     1      -1.989   5.694 -32.852  1.00  0.00     0.102 C 
BRANCH  15  16
HETATM   16  C   UNL     1      -1.146   5.576 -31.631  1.00  0.00     0.148 A 
HETATM   17  N   UNL     1      -1.028   4.433 -30.941  1.00  0.00    -0.158 NA
HETATM   18  N   UNL     1      -0.206   4.800 -29.946  1.00  0.00    -0.270 N 
HETATM   19  H   UNL     1       0.069   4.116 -29.250  1.00  0.00     0.190 HD
HETATM   20  C   UNL     1       0.139   6.109 -30.050  1.00  0.00     0.227 A 
HETATM   21  N   UNL     1      -0.439   6.630 -31.107  1.00  0.00    -0.226 NA
ENDBRANCH  15  16
ENDBRANCH  14  15
ENDBRANCH  10  14
ENDBRANCH   2   8
BRANCH   1  22
HETATM   22  O   UNL     1      -5.278   0.467 -33.626  1.00  0.00    -0.309 OA
BRANCH  22  23
HETATM   23  C   UNL     1      -5.502  -0.851 -33.976  1.00  0.00     0.076 A 
HETATM   24  C   UNL     1      -4.385  -1.687 -33.935  1.00  0.00     0.037 A 
HETATM   25  C   UNL     1      -4.497  -3.036 -34.277  1.00  0.00     0.003 A 
HETATM   26  C   UNL     1      -5.733  -3.558 -34.655  1.00  0.00     0.000 A 
HETATM   27  C   UNL     1      -6.859  -2.737 -34.668  1.00  0.00     0.003 A 
HETATM   28  C   UNL     1      -6.748  -1.388 -34.318  1.00  0.00     0.037 A 
ENDBRANCH  22  23
ENDBRANCH   1  22
TORSDOF 6
ENDMDL
MODEL 7
REMARK VINA RESULT:      -7.8      3.191      4.475
REMARK  6 active torsions:
REMARK  status: ('A' for Active; 'I' for Inactive)
REMARK    1  A    between atoms: C_4  and  O_5 
REMARK    2  A    between atoms: O_5  and  C_6 
REMARK    3  A    between atoms: C_7  and  N_8 
REMARK       I    between atoms: N_8  and  C_9 
REMARK       I    between atoms: C_9  and  N_10 
REMARK    4  A    between atoms: N_10  and  C_11 
REMARK    5  A    between atoms: C_11  and  C_12 
REMARK    6  A    between atoms: C_12  and  C_13 
ROOT
HETATM    1  C   UNL     1      -8.344   0.658 -32.955  1.00  0.00     0.106 C 
HETATM    2  C   UNL     1      -8.390   1.764 -33.812  1.00  0.00     0.109 C 
HETATM    3  C   UNL     1      -9.644   2.238 -34.208  1.00  0.00     0.145 C 
HETATM    4  F   UNL     1      -9.730   3.339 -34.971  1.00  0.00    -0.204 F 
HETATM    5  C   UNL     1     -10.818   1.568 -33.866  1.00  0.00     0.045 C 
HETATM    6  C   UNL     1     -10.752   0.409 -33.096  1.00  0.00     0.006 C 
HETATM    7  C   UNL     1      -9.515  -0.045 -32.637  1.00  0.00     0.040 C 
ENDROOT
BRANCH   2   8
HETATM    8  N   UNL     1      -7.252   2.465 -34.264  1.00  0.00    -0.304 N 
HETATM    9  C   UNL     1      -6.762   3.662 -33.818  1.00  0.00     0.320 C 
HETATM   10  N   UNL     1      -7.437   4.283 -32.811  1.00  0.00    -0.342 N 
HETATM   11  O   UNL     1      -5.663   4.044 -34.217  1.00  0.00    -0.247 OA
HETATM   12  H   UNL     1      -8.448   4.222 -32.827  1.00  0.00     0.164 HD
HETATM   13  H   UNL     1      -6.489   1.898 -34.618  1.00  0.00     0.171 HD
BRANCH  10  14
HETATM   14  C   UNL     1      -6.886   5.428 -32.106  1.00  0.00     0.132 C 
BRANCH  14  15
HETATM   15  C   UNL     1      -6.669   5.174 -30.616  1.00  0.00     0.102 C 
BRANCH  15  16
HETATM   16  C   UNL     1      -6.436   3.735 -30.317  1.00  0.00     0.148 A 
HETATM   17  N   UNL     1      -7.399   2.928 -29.849  1.00  0.00    -0.158 NA
HETATM   18  N   UNL     1      -6.741   1.765 -29.721  1.00  0.00    -0.270 N 
HETATM   19  H   UNL     1      -7.235   0.949 -29.378  1.00  0.00     0.190 HD
HETATM   20  C   UNL     1      -5.442   1.891 -30.096  1.00  0.00     0.227 A 
HETATM   21  N   UNL     1      -5.216   3.125 -30.480  1.00  0.00    -0.226 NA
ENDBRANCH  15  16
ENDBRANCH  14  15
ENDBRANCH  10  14
ENDBRANCH   2   8
BRANCH   1  22
HETATM   22  O   UNL     1      -7.139   0.271 -32.413  1.00  0.00    -0.309 OA
BRANCH  22  23
HETATM   23  C   UNL     1      -6.421  -0.713 -33.067  1.00  0.00     0.076 A 
HETATM   24  C   UNL     1      -5.101  -0.882 -32.643  1.00  0.00     0.037 A 
HETATM   25  C   UNL     1      -4.283  -1.842 -33.242  1.00  0.00     0.003 A 
HETATM   26  C   UNL     1      -4.787  -2.647 -34.263  1.00  0.00     0.000 A 
HETATM   27  C   UNL     1      -6.112  -2.505 -34.669  1.00  0.00     0.003 A 
HETATM   28  C   UNL     1      -6.933  -1.548 -34.065  1.00  0.00     0.037 A 
ENDBRANCH  22  23
ENDBRANCH   1  22
TORSDOF 6
ENDMDL
MODEL 8
REMARK VINA RESULT:      -7.8      3.185      8.260
REMARK  6 active torsions:
REMARK  status: ('A' for Active; 'I' for Inactive)
REMARK    1  A    between atoms: C_4  and  O_5 
REMARK    2  A    between atoms: O_5  and  C_6 
REMARK    3  A    between atoms: C_7  and  N_8 
REMARK       I    between atoms: N_8  and  C_9 
REMARK       I    between atoms: C_9  and  N_10 
REMARK    4  A    between atoms: N_10  and  C_11 
REMARK    5  A    between atoms: C_11  and  C_12 
REMARK    6  A    between atoms: C_12  and  C_13 
ROOT
HETATM    1  C   UNL     1      -1.862   4.829 -32.491  1.00  0.00     0.106 C 
HETATM    2  C   UNL     1      -3.229   4.576 -32.647  1.00  0.00     0.109 C 
HETATM    3  C   UNL     1      -3.793   4.764 -33.913  1.00  0.00     0.145 C 
HETATM    4  F   UNL     1      -5.084   4.463 -34.119  1.00  0.00    -0.204 F 
HETATM    5  C   UNL     1      -3.057   5.305 -34.965  1.00  0.00     0.045 C 
HETATM    6  C   UNL     1      -1.721   5.650 -34.768  1.00  0.00     0.006 C 
HETATM    7  C   UNL     1      -1.122   5.410 -33.531  1.00  0.00     0.040 C 
ENDROOT
BRANCH   2   8
HETATM    8  N   UNL     1      -4.069   4.090 -31.622  1.00  0.00    -0.304 N 
HETATM    9  C   UNL     1      -4.262   2.795 -31.229  1.00  0.00     0.320 C 
HETATM   10  N   UNL     1      -3.574   1.824 -31.892  1.00  0.00    -0.342 N 
HETATM   11  O   UNL     1      -4.908   2.571 -30.206  1.00  0.00    -0.247 OA
HETATM   12  H   UNL     1      -3.451   1.947 -32.890  1.00  0.00     0.164 HD
HETATM   13  H   UNL     1      -4.211   4.709 -30.831  1.00  0.00     0.171 HD
BRANCH  10  14
HETATM   14  C   UNL     1      -3.523   0.453 -31.415  1.00  0.00     0.132 C 
BRANCH  14  15
HETATM   15  C   UNL     1      -3.132  -0.550 -32.497  1.00  0.00     0.102 C 
BRANCH  15  16
HETATM   16  C   UNL     1      -4.300  -0.985 -33.311  1.00  0.00     0.148 A 
HETATM   17  N   UNL     1      -4.424  -2.230 -33.792  1.00  0.00    -0.158 NA
HETATM   18  N   UNL     1      -5.589  -2.152 -34.453  1.00  0.00    -0.270 N 
HETATM   19  H   UNL     1      -5.947  -2.972 -34.929  1.00  0.00     0.190 HD
HETATM   20  C   UNL     1      -6.122  -0.907 -34.365  1.00  0.00     0.227 A 
HETATM   21  N   UNL     1      -5.332  -0.143 -33.648  1.00  0.00    -0.226 NA
ENDBRANCH  15  16
ENDBRANCH  14  15
ENDBRANCH  10  14
ENDBRANCH   2   8
BRANCH   1  22
HETATM   22  O   UNL     1      -1.242   4.494 -31.307  1.00  0.00    -0.309 OA
BRANCH  22  23
HETATM   23  C   UNL     1      -0.823   5.520 -30.482  1.00  0.00     0.076 A 
HETATM   24  C   UNL     1       0.256   5.223 -29.647  1.00  0.00     0.037 A 
HETATM   25  C   UNL     1       0.755   6.185 -28.766  1.00  0.00     0.003 A 
HETATM   26  C   UNL     1       0.181   7.454 -28.724  1.00  0.00     0.000 A 
HETATM   27  C   UNL     1      -0.875   7.768 -29.576  1.00  0.00     0.003 A 
HETATM   28  C   UNL     1      -1.370   6.807 -30.463  1.00  0.00     0.037 A 
ENDBRANCH  22  23
ENDBRANCH   1  22
TORSDOF 6
ENDMDL
MODEL 9
REMARK VINA RESULT:      -7.8      3.059      4.587
REMARK  6 active torsions:
REMARK  status: ('A' for Active; 'I' for Inactive)
REMARK    1  A    between atoms: C_4  and  O_5 
REMARK    2  A    between atoms: O_5  and  C_6 
REMARK    3  A    between atoms: C_7  and  N_8 
REMARK       I    between atoms: N_8  and  C_9 
REMARK       I    between atoms: C_9  and  N_10 
REMARK    4  A    between atoms: N_10  and  C_11 
REMARK    5  A    between atoms: C_11  and  C_12 
REMARK    6  A    between atoms: C_12  and  C_13 
ROOT
HETATM    1  C   UNL     1      -5.861   2.823 -32.141  1.00  0.00     0.106 C 
HETATM    2  C   UNL     1      -6.079   4.152 -32.522  1.00  0.00     0.109 C 
HETATM    3  C   UNL     1      -6.662   5.016 -31.590  1.00  0.00     0.145 C 
HETATM    4  F   UNL     1      -6.821   6.314 -31.892  1.00  0.00    -0.204 F 
HETATM    5  C   UNL     1      -7.131   4.554 -30.361  1.00  0.00     0.045 C 
HETATM    6  C   UNL     1      -7.001   3.205 -30.036  1.00  0.00     0.006 C 
HETATM    7  C   UNL     1      -6.363   2.339 -30.925  1.00  0.00     0.040 C 
ENDROOT
BRANCH   2   8
HETATM    8  N   UNL     1      -5.699   4.694 -33.768  1.00  0.00    -0.304 N 
HETATM    9  C   UNL     1      -4.437   4.938 -34.236  1.00  0.00     0.320 C 
HETATM   10  N   UNL     1      -3.391   4.633 -33.419  1.00  0.00    -0.342 N 
HETATM   11  O   UNL     1      -4.289   5.261 -35.415  1.00  0.00    -0.247 OA
HETATM   12  H   UNL     1      -3.514   4.808 -32.429  1.00  0.00     0.164 HD
HETATM   13  H   UNL     1      -6.316   4.496 -34.548  1.00  0.00     0.171 HD
BRANCH  10  14
HETATM   14  C   UNL     1      -2.018   4.631 -33.893  1.00  0.00     0.132 C 
BRANCH  14  15
HETATM   15  C   UNL     1      -1.260   5.914 -33.559  1.00  0.00     0.102 C 
BRANCH  15  16
HETATM   16  C   UNL     1      -0.696   5.893 -32.181  1.00  0.00     0.148 A 
HETATM   17  N   UNL     1      -0.080   6.951 -31.635  1.00  0.00    -0.158 NA
HETATM   18  N   UNL     1       0.263   6.474 -30.429  1.00  0.00    -0.270 N 
HETATM   19  H   UNL     1       0.754   7.075 -29.778  1.00  0.00     0.190 HD
HETATM   20  C   UNL     1      -0.134   5.184 -30.280  1.00  0.00     0.227 A 
HETATM   21  N   UNL     1      -0.745   4.785 -31.371  1.00  0.00    -0.226 NA
ENDBRANCH  15  16
ENDBRANCH  14  15
ENDBRANCH  10  14
ENDBRANCH   2   8
BRANCH   1  22
HETATM   22  O   UNL     1      -5.138   1.992 -32.969  1.00  0.00    -0.309 OA
BRANCH  22  23
HETATM   23  C   UNL     1      -5.817   0.987 -33.631  1.00  0.00     0.076 A 
HETATM   24  C   UNL     1      -5.478  -0.317 -33.264  1.00  0.00     0.037 A 
HETATM   25  C   UNL     1      -6.096  -1.408 -33.877  1.00  0.00     0.003 A 
HETATM   26  C   UNL     1      -7.067  -1.200 -34.855  1.00  0.00     0.000 A 
HETATM   27  C   UNL     1      -7.434   0.098 -35.204  1.00  0.00     0.003 A 
HETATM   28  C   UNL     1      -6.819   1.191 -34.586  1.00  0.00     0.037 A 
ENDBRANCH  22  23
ENDBRANCH   1  22
TORSDOF 6
ENDMDL
MODEL 10
REMARK VINA RESULT:      -7.7      1.911      2.687
REMARK  6 active torsions:
REMARK  status: ('A' for Active; 'I' for Inactive)
REMARK    1  A    between atoms: C_4  and  O_5 
REMARK    2  A    between atoms: O_5  and  C_6 
REMARK    3  A    between atoms: C_7  and  N_8 
REMARK       I    between atoms: N_8  and  C_9 
REMARK       I    between atoms: C_9  and  N_10 
REMARK    4  A    between atoms: N_10  and  C_11 
REMARK    5  A    between atoms: C_11  and  C_12 
REMARK    6  A    between atoms: C_12  and  C_13 
ROOT
HETATM    1  C   UNL     1      -6.808   1.288 -33.112  1.00  0.00     0.106 C 
HETATM    2  C   UNL     1      -6.360   1.586 -31.820  1.00  0.00     0.109 C 
HETATM    3  C   UNL     1      -7.313   1.940 -30.859  1.00  0.00     0.145 C 
HETATM    4  F   UNL     1      -6.930   2.163 -29.592  1.00  0.00    -0.204 F 
HETATM    5  C   UNL     1      -8.654   2.116 -31.193  1.00  0.00     0.045 C 
HETATM    6  C   UNL     1      -9.070   1.916 -32.508  1.00  0.00     0.006 C 
HETATM    7  C   UNL     1      -8.148   1.499 -33.468  1.00  0.00     0.040 C 
ENDROOT
BRANCH   2   8
HETATM    8  N   UNL     1      -5.014   1.501 -31.407  1.00  0.00    -0.304 N 
HETATM    9  C   UNL     1      -3.952   2.260 -31.817  1.00  0.00     0.320 C 
HETATM   10  N   UNL     1      -4.191   3.229 -32.743  1.00  0.00    -0.342 N 
HETATM   11  O   UNL     1      -2.878   2.154 -31.226  1.00  0.00    -0.247 OA
HETATM   12  H   UNL     1      -4.862   3.016 -33.472  1.00  0.00     0.164 HD
HETATM   13  H   UNL     1      -4.857   1.187 -30.455  1.00  0.00     0.171 HD
BRANCH  10  14
HETATM   14  C   UNL     1      -3.199   4.238 -33.076  1.00  0.00     0.132 C 
BRANCH  14  15
HETATM   15  C   UNL     1      -3.789   5.457 -33.781  1.00  0.00     0.102 C 
BRANCH  15  16
HETATM   16  C   UNL     1      -5.260   5.567 -33.581  1.00  0.00     0.148 A 
HETATM   17  N   UNL     1      -5.812   6.461 -32.749  1.00  0.00    -0.158 NA
HETATM   18  N   UNL     1      -7.119   6.187 -32.883  1.00  0.00    -0.270 N 
HETATM   19  H   UNL     1      -7.797   6.726 -32.357  1.00  0.00     0.190 HD
HETATM   20  C   UNL     1      -7.320   5.167 -33.757  1.00  0.00     0.227 A 
HETATM   21  N   UNL     1      -6.164   4.752 -34.219  1.00  0.00    -0.226 NA
ENDBRANCH  15  16
ENDBRANCH  14  15
ENDBRANCH  10  14
ENDBRANCH   2   8
BRANCH   1  22
HETATM   22  O   UNL     1      -5.922   0.775 -34.034  1.00  0.00    -0.309 OA
BRANCH  22  23
HETATM   23  C   UNL     1      -5.853  -0.599 -34.171  1.00  0.00     0.076 A 
HETATM   24  C   UNL     1      -4.642  -1.185 -33.798  1.00  0.00     0.037 A 
HETATM   25  C   UNL     1      -4.461  -2.565 -33.904  1.00  0.00     0.003 A 
HETATM   26  C   UNL     1      -5.497  -3.368 -34.376  1.00  0.00     0.000 A 
HETATM   27  C   UNL     1      -6.720  -2.795 -34.720  1.00  0.00     0.003 A 
HETATM   28  C   UNL     1      -6.903  -1.414 -34.607  1.00  0.00     0.037 A 
ENDBRANCH  22  23
ENDBRANCH   1  22
TORSDOF 6
ENDMDL
