MODEL 1
REMARK VINA RESULT:      -9.5      0.000      0.000
REMARK  5 active torsions:
REMARK  status: ('A' for Active; 'I' for Inactive)
REMARK    1  A    between atoms: C_4  and  C_5 
REMARK    2  A    between atoms: C_5  and  C_6 
REMARK    3  A    between atoms: C_12  and  S_13 
REMARK    4  A    between atoms: S_13  and  C_14 
REMARK    5  A    between atoms: C_14  and  C_15 
ROOT
HETATM    1  C   UNL     1      -8.904   0.128 -33.491  1.00  0.00     0.283 C 
HETATM    2  O   UNL     1      -8.788   1.089 -34.527  1.00  0.00    -0.303 OA
HETATM    3  C   UNL     1      -8.958   2.352 -34.024  1.00  0.00     0.201 A 
HETATM    4  C   UNL     1     -10.223   2.811 -33.706  1.00  0.00     0.144 A 
HETATM    5  N   UNL     1     -10.351   4.089 -33.300  1.00  0.00    -0.142 NA
HETATM    6  N   UNL     1      -9.230   4.868 -33.210  1.00  0.00    -0.122 NA
HETATM    7  C   UNL     1      -8.022   4.353 -33.531  1.00  0.00     0.212 A 
HETATM    8  N   UNL     1      -7.836   3.094 -33.960  1.00  0.00    -0.195 NA
HETATM    9  C   UNL     1     -11.422   1.978 -33.793  1.00  0.00     0.020 A 
HETATM   10  C   UNL     1     -11.384   0.600 -33.487  1.00  0.00     0.023 A 
HETATM   11  N   UNL     1     -10.271  -0.062 -32.953  1.00  0.00    -0.259 NA
HETATM   12  C   UNL     1     -12.650   2.552 -34.186  1.00  0.00     0.016 A 
HETATM   13  C   UNL     1     -13.818   1.794 -34.258  1.00  0.00     0.001 A 
HETATM   14  C   UNL     1     -13.785   0.449 -33.917  1.00  0.00     0.002 A 
HETATM   15  C   UNL     1     -12.583  -0.132 -33.517  1.00  0.00     0.024 A 
HETATM   16  H   UNL     1     -10.242   0.095 -31.938  1.00  0.00     0.130 HD
ENDROOT
BRANCH   7  17
HETATM   17  S   UNL     1      -6.582   5.379 -33.410  1.00  0.00    -0.084 SA
BRANCH  17  18
HETATM   18  C   UNL     1      -5.344   4.235 -34.095  1.00  0.00     0.121 C 
BRANCH  18  19
HETATM   19  C   UNL     1      -3.985   4.463 -33.477  1.00  0.00    -0.048 A 
HETATM   20  C   UNL     1      -3.749   4.124 -32.135  1.00  0.00     0.009 A 
HETATM   21  C   UNL     1      -2.495   4.345 -31.560  1.00  0.00     0.024 A 
HETATM   22  C   UNL     1      -1.474   4.911 -32.319  1.00  0.00     0.034 A 
HETATM   23 CL   UNL     1       0.069   5.184 -31.608  1.00  0.00    -0.084 Cl
HETATM   24  C   UNL     1      -1.695   5.260 -33.649  1.00  0.00     0.024 A 
HETATM   25  C   UNL     1      -2.948   5.039 -34.226  1.00  0.00     0.009 A 
ENDBRANCH  18  19
ENDBRANCH  17  18
ENDBRANCH   7  17
BRANCH   1  26
HETATM   26  C   UNL     1      -7.896   0.272 -32.316  1.00  0.00     0.203 C 
HETATM   27  O   UNL     1      -8.279   0.599 -31.188  1.00  0.00    -0.288 OA
BRANCH  26  28
HETATM   28  C   UNL     1      -6.449  -0.026 -32.552  1.00  0.00     0.014 A 
HETATM   29  C   UNL     1      -5.416   0.772 -32.043  1.00  0.00     0.015 A 
HETATM   30  C   UNL     1      -4.083   0.455 -32.318  1.00  0.00     0.001 A 
HETATM   31  C   UNL     1      -3.770  -0.656 -33.098  1.00  0.00     0.000 A 
HETATM   32  C   UNL     1      -4.790  -1.458 -33.604  1.00  0.00     0.001 A 
HETATM   33  C   UNL     1      -6.124  -1.146 -33.331  1.00  0.00     0.015 A 
ENDBRANCH  26  28
ENDBRANCH   1  26
TORSDOF 5
ENDMDL
MODEL 2
REMARK VINA RESULT:      -9.3      2.465      5.842
REMARK  5 active torsions:
REMARK  status: ('A' for Active; 'I' for Inactive)
REMARK    1  A    between atoms: C_4  and  C_5 
REMARK    2  A    between atoms: C_5  and  C_6 
REMARK    3  A    between atoms: C_12  and  S_13 
REMARK    4  A    between atoms: S_13  and  C_14 
REMARK    5  A    between atoms: C_14  and  C_15 
ROOT
HETATM    1  C   UNL     1      -7.539  -0.810 -33.911  1.00  0.00     0.283 C 
HETATM    2  O   UNL     1      -7.018  -0.678 -32.600  1.00  0.00    -0.303 OA
HETATM    3  C   UNL     1      -5.790  -0.072 -32.636  1.00  0.00     0.201 A 
HETATM    4  C   UNL     1      -4.673  -0.784 -33.034  1.00  0.00     0.144 A 
HETATM    5  N   UNL     1      -3.474  -0.173 -32.968  1.00  0.00    -0.142 NA
HETATM    6  N   UNL     1      -3.415   1.119 -32.523  1.00  0.00    -0.122 NA
HETATM    7  C   UNL     1      -4.549   1.759 -32.155  1.00  0.00     0.212 A 
HETATM    8  N   UNL     1      -5.767   1.195 -32.181  1.00  0.00    -0.195 NA
HETATM    9  C   UNL     1      -4.733  -2.162 -33.518  1.00  0.00     0.020 A 
HETATM   10  C   UNL     1      -5.825  -2.625 -34.286  1.00  0.00     0.023 A 
HETATM   11  N   UNL     1      -6.858  -1.809 -34.766  1.00  0.00    -0.259 NA
HETATM   12  C   UNL     1      -3.684  -3.058 -33.223  1.00  0.00     0.016 A 
HETATM   13  C   UNL     1      -3.696  -4.373 -33.687  1.00  0.00     0.001 A 
HETATM   14  C   UNL     1      -4.750  -4.812 -34.476  1.00  0.00     0.002 A 
HETATM   15  C   UNL     1      -5.791  -3.938 -34.786  1.00  0.00     0.024 A 
HETATM   16  H   UNL     1      -6.542  -1.338 -35.623  1.00  0.00     0.130 HD
ENDROOT
BRANCH   7  17
HETATM   17  S   UNL     1      -4.452   3.432 -31.579  1.00  0.00    -0.084 SA
BRANCH  17  18
HETATM   18  C   UNL     1      -3.040   4.006 -32.570  1.00  0.00     0.121 C 
BRANCH  18  19
HETATM   19  C   UNL     1      -2.150   4.931 -31.774  1.00  0.00    -0.048 A 
HETATM   20  C   UNL     1      -0.761   4.926 -31.972  1.00  0.00     0.009 A 
HETATM   21  C   UNL     1       0.063   5.774 -31.228  1.00  0.00     0.024 A 
HETATM   22  C   UNL     1      -0.495   6.625 -30.277  1.00  0.00     0.034 A 
HETATM   23 CL   UNL     1       0.522   7.667 -29.360  1.00  0.00    -0.084 Cl
HETATM   24  C   UNL     1      -1.872   6.636 -30.063  1.00  0.00     0.024 A 
HETATM   25  C   UNL     1      -2.697   5.790 -30.807  1.00  0.00     0.009 A 
ENDBRANCH  18  19
ENDBRANCH  17  18
ENDBRANCH   7  17
BRANCH   1  26
HETATM   26  C   UNL     1      -7.726   0.514 -34.704  1.00  0.00     0.203 C 
HETATM   27  O   UNL     1      -7.048   0.754 -35.708  1.00  0.00    -0.288 OA
BRANCH  26  28
HETATM   28  C   UNL     1      -8.769   1.491 -34.262  1.00  0.00     0.014 A 
HETATM   29  C   UNL     1      -8.483   2.833 -33.981  1.00  0.00     0.015 A 
HETATM   30  C   UNL     1      -9.496   3.693 -33.548  1.00  0.00     0.001 A 
HETATM   31  C   UNL     1     -10.799   3.222 -33.393  1.00  0.00     0.000 A 
HETATM   32  C   UNL     1     -11.094   1.891 -33.675  1.00  0.00     0.001 A 
HETATM   33  C   UNL     1     -10.085   1.028 -34.109  1.00  0.00     0.015 A 
ENDBRANCH  26  28
ENDBRANCH   1  26
TORSDOF 5
ENDMDL
MODEL 3
REMARK VINA RESULT:      -9.3      3.278      7.210
REMARK  5 active torsions:
REMARK  status: ('A' for Active; 'I' for Inactive)
REMARK    1  A    between atoms: C_4  and  C_5 
REMARK    2  A    between atoms: C_5  and  C_6 
REMARK    3  A    between atoms: C_12  and  S_13 
REMARK    4  A    between atoms: S_13  and  C_14 
REMARK    5  A    between atoms: C_14  and  C_15 
ROOT
HETATM    1  C   UNL     1      -6.811   2.360 -30.952  1.00  0.00     0.283 C 
HETATM    2  O   UNL     1      -7.219   3.710 -30.821  1.00  0.00    -0.303 OA
HETATM    3  C   UNL     1      -7.502   4.243 -32.051  1.00  0.00     0.201 A 
HETATM    4  C   UNL     1      -6.476   4.611 -32.903  1.00  0.00     0.144 A 
HETATM    5  N   UNL     1      -6.801   5.212 -34.064  1.00  0.00    -0.142 NA
HETATM    6  N   UNL     1      -8.121   5.422 -34.352  1.00  0.00    -0.122 NA
HETATM    7  C   UNL     1      -9.074   5.032 -33.475  1.00  0.00     0.212 A 
HETATM    8  N   UNL     1      -8.810   4.446 -32.296  1.00  0.00    -0.195 NA
HETATM    9  C   UNL     1      -5.064   4.380 -32.602  1.00  0.00     0.020 A 
HETATM   10  C   UNL     1      -4.640   3.228 -31.903  1.00  0.00     0.023 A 
HETATM   11  N   UNL     1      -5.476   2.158 -31.560  1.00  0.00    -0.259 NA
HETATM   12  C   UNL     1      -4.095   5.317 -33.016  1.00  0.00     0.016 A 
HETATM   13  C   UNL     1      -2.736   5.120 -32.767  1.00  0.00     0.001 A 
HETATM   14  C   UNL     1      -2.320   3.967 -32.116  1.00  0.00     0.002 A 
HETATM   15  C   UNL     1      -3.263   3.025 -31.708  1.00  0.00     0.024 A 
HETATM   16  H   UNL     1      -5.582   1.541 -32.374  1.00  0.00     0.130 HD
ENDROOT
BRANCH   7  17
HETATM   17  S   UNL     1     -10.780   5.315 -33.865  1.00  0.00    -0.084 SA
BRANCH  17  18
HETATM   18  C   UNL     1     -10.966   4.148 -35.247  1.00  0.00     0.121 C 
BRANCH  18  19
HETATM   19  C   UNL     1     -11.641   2.873 -34.802  1.00  0.00    -0.048 A 
HETATM   20  C   UNL     1     -12.991   2.639 -35.108  1.00  0.00     0.009 A 
HETATM   21  C   UNL     1     -13.620   1.465 -34.687  1.00  0.00     0.024 A 
HETATM   22  C   UNL     1     -12.906   0.522 -33.952  1.00  0.00     0.034 A 
HETATM   23 CL   UNL     1     -13.682  -0.923 -33.432  1.00  0.00    -0.084 Cl
HETATM   24  C   UNL     1     -11.568   0.742 -33.633  1.00  0.00     0.024 A 
HETATM   25  C   UNL     1     -10.938   1.915 -34.055  1.00  0.00     0.009 A 
ENDBRANCH  18  19
ENDBRANCH  17  18
ENDBRANCH   7  17
BRANCH   1  26
HETATM   26  C   UNL     1      -7.838   1.403 -31.621  1.00  0.00     0.203 C 
HETATM   27  O   UNL     1      -8.979   1.276 -31.165  1.00  0.00    -0.288 OA
BRANCH  26  28
HETATM   28  C   UNL     1      -7.445   0.655 -32.856  1.00  0.00     0.014 A 
HETATM   29  C   UNL     1      -7.519   1.215 -34.138  1.00  0.00     0.015 A 
HETATM   30  C   UNL     1      -7.161   0.459 -35.258  1.00  0.00     0.001 A 
HETATM   31  C   UNL     1      -6.729  -0.857 -35.107  1.00  0.00     0.000 A 
HETATM   32  C   UNL     1      -6.647  -1.421 -33.837  1.00  0.00     0.001 A 
HETATM   33  C   UNL     1      -7.003  -0.668 -32.715  1.00  0.00     0.015 A 
ENDBRANCH  26  28
ENDBRANCH   1  26
TORSDOF 5
ENDMDL
MODEL 4
REMARK VINA RESULT:      -9.3      3.437      6.623
REMARK  5 active torsions:
REMARK  status: ('A' for Active; 'I' for Inactive)
REMARK    1  A    between atoms: C_4  and  C_5 
REMARK    2  A    between atoms: C_5  and  C_6 
REMARK    3  A    between atoms: C_12  and  S_13 
REMARK    4  A    between atoms: S_13  and  C_14 
REMARK    5  A    between atoms: C_14  and  C_15 
ROOT
HETATM    1  C   UNL     1      -7.575  -0.901 -33.935  1.00  0.00     0.283 C 
HETATM    2  O   UNL     1      -7.043  -0.785 -32.627  1.00  0.00    -0.303 OA
HETATM    3  C   UNL     1      -5.809  -0.191 -32.666  1.00  0.00     0.201 A 
HETATM    4  C   UNL     1      -4.702  -0.911 -33.078  1.00  0.00     0.144 A 
HETATM    5  N   UNL     1      -3.497  -0.313 -33.015  1.00  0.00    -0.142 NA
HETATM    6  N   UNL     1      -3.422   0.975 -32.560  1.00  0.00    -0.122 NA
HETATM    7  C   UNL     1      -4.546   1.623 -32.178  1.00  0.00     0.212 A 
HETATM    8  N   UNL     1      -5.770   1.072 -32.201  1.00  0.00    -0.195 NA
HETATM    9  C   UNL     1      -4.780  -2.285 -33.573  1.00  0.00     0.020 A 
HETATM   10  C   UNL     1      -5.882  -2.730 -34.337  1.00  0.00     0.023 A 
HETATM   11  N   UNL     1      -6.909  -1.900 -34.803  1.00  0.00    -0.259 NA
HETATM   12  C   UNL     1      -3.738  -3.193 -33.292  1.00  0.00     0.016 A 
HETATM   13  C   UNL     1      -3.766  -4.505 -33.767  1.00  0.00     0.001 A 
HETATM   14  C   UNL     1      -4.830  -4.926 -34.552  1.00  0.00     0.002 A 
HETATM   15  C   UNL     1      -5.865  -4.039 -34.847  1.00  0.00     0.024 A 
HETATM   16  H   UNL     1      -6.595  -1.425 -35.658  1.00  0.00     0.130 HD
ENDROOT
BRANCH   7  17
HETATM   17  S   UNL     1      -4.429   3.290 -31.589  1.00  0.00    -0.084 SA
BRANCH  17  18
HETATM   18  C   UNL     1      -5.397   3.133 -30.058  1.00  0.00     0.121 C 
BRANCH  18  19
HETATM   19  C   UNL     1      -6.749   3.792 -30.194  1.00  0.00    -0.048 A 
HETATM   20  C   UNL     1      -6.848   5.179 -30.384  1.00  0.00     0.009 A 
HETATM   21  C   UNL     1      -8.099   5.790 -30.500  1.00  0.00     0.024 A 
HETATM   22  C   UNL     1      -9.257   5.021 -30.419  1.00  0.00     0.034 A 
HETATM   23 CL   UNL     1     -10.797   5.776 -30.559  1.00  0.00    -0.084 Cl
HETATM   24  C   UNL     1      -9.176   3.644 -30.223  1.00  0.00     0.024 A 
HETATM   25  C   UNL     1      -7.926   3.031 -30.108  1.00  0.00     0.009 A 
ENDBRANCH  18  19
ENDBRANCH  17  18
ENDBRANCH   7  17
BRANCH   1  26
HETATM   26  C   UNL     1      -7.753   0.432 -34.716  1.00  0.00     0.203 C 
HETATM   27  O   UNL     1      -7.062   0.684 -35.709  1.00  0.00    -0.288 OA
BRANCH  26  28
HETATM   28  C   UNL     1      -8.804   1.402 -34.277  1.00  0.00     0.014 A 
HETATM   29  C   UNL     1      -8.587   2.786 -34.229  1.00  0.00     0.015 A 
HETATM   30  C   UNL     1      -9.601   3.641 -33.786  1.00  0.00     0.001 A 
HETATM   31  C   UNL     1     -10.833   3.125 -33.390  1.00  0.00     0.000 A 
HETATM   32  C   UNL     1     -11.059   1.752 -33.440  1.00  0.00     0.001 A 
HETATM   33  C   UNL     1     -10.050   0.893 -33.882  1.00  0.00     0.015 A 
ENDBRANCH  26  28
ENDBRANCH   1  26
TORSDOF 5
ENDMDL
MODEL 5
REMARK VINA RESULT:      -9.3      3.923      7.988
REMARK  5 active torsions:
REMARK  status: ('A' for Active; 'I' for Inactive)
REMARK    1  A    between atoms: C_4  and  C_5 
REMARK    2  A    between atoms: C_5  and  C_6 
REMARK    3  A    between atoms: C_12  and  S_13 
REMARK    4  A    between atoms: S_13  and  C_14 
REMARK    5  A    between atoms: C_14  and  C_15 
ROOT
HETATM    1  C   UNL     1      -5.405  -0.177 -32.693  1.00  0.00     0.283 C 
HETATM    2  O   UNL     1      -6.407   0.101 -31.731  1.00  0.00    -0.303 OA
HETATM    3  C   UNL     1      -7.320   0.987 -32.238  1.00  0.00     0.201 A 
HETATM    4  C   UNL     1      -7.007   2.330 -32.336  1.00  0.00     0.144 A 
HETATM    5  N   UNL     1      -7.967   3.176 -32.757  1.00  0.00    -0.142 NA
HETATM    6  N   UNL     1      -9.198   2.671 -33.077  1.00  0.00    -0.122 NA
HETATM    7  C   UNL     1      -9.434   1.344 -32.964  1.00  0.00     0.212 A 
HETATM    8  N   UNL     1      -8.523   0.458 -32.532  1.00  0.00    -0.195 NA
HETATM    9  C   UNL     1      -5.691   2.872 -32.003  1.00  0.00     0.020 A 
HETATM   10  C   UNL     1      -4.509   2.143 -32.262  1.00  0.00     0.023 A 
HETATM   11  N   UNL     1      -4.463   0.933 -32.966  1.00  0.00    -0.259 NA
HETATM   12  C   UNL     1      -5.585   4.149 -31.413  1.00  0.00     0.016 A 
HETATM   13  C   UNL     1      -4.345   4.708 -31.102  1.00  0.00     0.001 A 
HETATM   14  C   UNL     1      -3.184   4.006 -31.397  1.00  0.00     0.002 A 
HETATM   15  C   UNL     1      -3.269   2.747 -31.988  1.00  0.00     0.024 A 
HETATM   16  H   UNL     1      -4.482   1.130 -33.974  1.00  0.00     0.130 HD
ENDROOT
BRANCH   7  17
HETATM   17  S   UNL     1     -11.035   0.710 -33.381  1.00  0.00    -0.084 SA
BRANCH  17  18
HETATM   18  C   UNL     1     -11.854   2.262 -33.860  1.00  0.00     0.121 C 
BRANCH  18  19
HETATM   19  C   UNL     1     -13.259   2.333 -33.311  1.00  0.00    -0.048 A 
HETATM   20  C   UNL     1     -14.238   1.424 -33.743  1.00  0.00     0.009 A 
HETATM   21  C   UNL     1     -15.540   1.496 -33.244  1.00  0.00     0.024 A 
HETATM   22  C   UNL     1     -15.873   2.479 -32.315  1.00  0.00     0.034 A 
HETATM   23 CL   UNL     1     -17.479   2.567 -31.702  1.00  0.00    -0.084 Cl
HETATM   24  C   UNL     1     -14.916   3.393 -31.881  1.00  0.00     0.024 A 
HETATM   25  C   UNL     1     -13.612   3.321 -32.380  1.00  0.00     0.009 A 
ENDBRANCH  18  19
ENDBRANCH  17  18
ENDBRANCH   7  17
BRANCH   1  26
HETATM   26  C   UNL     1      -5.902  -0.781 -34.036  1.00  0.00     0.203 C 
HETATM   27  O   UNL     1      -6.395  -0.062 -34.912  1.00  0.00    -0.288 OA
BRANCH  26  28
HETATM   28  C   UNL     1      -5.745  -2.248 -34.282  1.00  0.00     0.014 A 
HETATM   29  C   UNL     1      -6.789  -3.056 -34.753  1.00  0.00     0.015 A 
HETATM   30  C   UNL     1      -6.588  -4.426 -34.940  1.00  0.00     0.001 A 
HETATM   31  C   UNL     1      -5.350  -5.000 -34.661  1.00  0.00     0.000 A 
HETATM   32  C   UNL     1      -4.304  -4.205 -34.199  1.00  0.00     0.001 A 
HETATM   33  C   UNL     1      -4.500  -2.834 -34.011  1.00  0.00     0.015 A 
ENDBRANCH  26  28
ENDBRANCH   1  26
TORSDOF 5
ENDMDL
MODEL 6
REMARK VINA RESULT:      -9.2      3.135      6.877
REMARK  5 active torsions:
REMARK  status: ('A' for Active; 'I' for Inactive)
REMARK    1  A    between atoms: C_4  and  C_5 
REMARK    2  A    between atoms: C_5  and  C_6 
REMARK    3  A    between atoms: C_12  and  S_13 
REMARK    4  A    between atoms: S_13  and  C_14 
REMARK    5  A    between atoms: C_14  and  C_15 
ROOT
HETATM    1  C   UNL     1      -4.774   3.679 -30.270  1.00  0.00     0.283 C 
HETATM    2  O   UNL     1      -5.569   4.804 -30.600  1.00  0.00    -0.303 OA
HETATM    3  C   UNL     1      -6.001   4.716 -31.897  1.00  0.00     0.201 A 
HETATM    4  C   UNL     1      -5.135   4.992 -32.940  1.00  0.00     0.144 A 
HETATM    5  N   UNL     1      -5.628   4.980 -34.194  1.00  0.00    -0.142 NA
HETATM    6  N   UNL     1      -6.951   4.688 -34.381  1.00  0.00    -0.122 NA
HETATM    7  C   UNL     1      -7.741   4.422 -33.315  1.00  0.00     0.212 A 
HETATM    8  N   UNL     1      -7.310   4.438 -32.044  1.00  0.00    -0.195 NA
HETATM    9  C   UNL     1      -3.719   5.297 -32.745  1.00  0.00     0.020 A 
HETATM   10  C   UNL     1      -2.966   4.673 -31.725  1.00  0.00     0.023 A 
HETATM   11  N   UNL     1      -3.440   3.634 -30.914  1.00  0.00    -0.259 NA
HETATM   12  C   UNL     1      -3.077   6.228 -33.589  1.00  0.00     0.016 A 
HETATM   13  C   UNL     1      -1.722   6.527 -33.447  1.00  0.00     0.001 A 
HETATM   14  C   UNL     1      -0.976   5.881 -32.470  1.00  0.00     0.002 A 
HETATM   15  C   UNL     1      -1.591   4.951 -31.634  1.00  0.00     0.024 A 
HETATM   16  H   UNL     1      -3.358   2.746 -31.423  1.00  0.00     0.130 HD
ENDROOT
BRANCH   7  17
HETATM   17  S   UNL     1      -9.453   4.047 -33.577  1.00  0.00    -0.084 SA
BRANCH  17  18
HETATM   18  C   UNL     1      -9.607   2.591 -32.498  1.00  0.00     0.121 C 
BRANCH  18  19
HETATM   19  C   UNL     1      -8.886   1.398 -33.081  1.00  0.00    -0.048 A 
HETATM   20  C   UNL     1      -8.406   0.379 -32.244  1.00  0.00     0.009 A 
HETATM   21  C   UNL     1      -7.730  -0.719 -32.782  1.00  0.00     0.024 A 
HETATM   22  C   UNL     1      -7.524  -0.801 -34.157  1.00  0.00     0.034 A 
HETATM   23 CL   UNL     1      -6.689  -2.153 -34.817  1.00  0.00    -0.084 Cl
HETATM   24  C   UNL     1      -7.987   0.207 -35.000  1.00  0.00     0.024 A 
HETATM   25  C   UNL     1      -8.664   1.304 -34.464  1.00  0.00     0.009 A 
ENDBRANCH  18  19
ENDBRANCH  17  18
ENDBRANCH   7  17
BRANCH   1  26
HETATM   26  C   UNL     1      -5.466   2.294 -30.410  1.00  0.00     0.203 C 
HETATM   27  O   UNL     1      -6.527   2.051 -29.825  1.00  0.00    -0.288 OA
BRANCH  26  28
HETATM   28  C   UNL     1      -4.855   1.256 -31.298  1.00  0.00     0.014 A 
HETATM   29  C   UNL     1      -4.843   1.364 -32.695  1.00  0.00     0.015 A 
HETATM   30  C   UNL     1      -4.278   0.349 -33.473  1.00  0.00     0.001 A 
HETATM   31  C   UNL     1      -3.723  -0.776 -32.867  1.00  0.00     0.000 A 
HETATM   32  C   UNL     1      -3.725  -0.888 -31.479  1.00  0.00     0.001 A 
HETATM   33  C   UNL     1      -4.288   0.123 -30.697  1.00  0.00     0.015 A 
ENDBRANCH  26  28
ENDBRANCH   1  26
TORSDOF 5
ENDMDL
MODEL 7
REMARK VINA RESULT:      -9.2      3.534      6.558
REMARK  5 active torsions:
REMARK  status: ('A' for Active; 'I' for Inactive)
REMARK    1  A    between atoms: C_4  and  C_5 
REMARK    2  A    between atoms: C_5  and  C_6 
REMARK    3  A    between atoms: C_12  and  S_13 
REMARK    4  A    between atoms: S_13  and  C_14 
REMARK    5  A    between atoms: C_14  and  C_15 
ROOT
HETATM    1  C   UNL     1      -4.893   2.591 -30.154  1.00  0.00     0.283 C 
HETATM    2  O   UNL     1      -6.077   1.895 -29.807  1.00  0.00    -0.303 OA
HETATM    3  C   UNL     1      -7.048   2.111 -30.749  1.00  0.00     0.201 A 
HETATM    4  C   UNL     1      -7.735   3.312 -30.778  1.00  0.00     0.144 A 
HETATM    5  N   UNL     1      -8.741   3.445 -31.664  1.00  0.00    -0.142 NA
HETATM    6  N   UNL     1      -9.032   2.399 -32.496  1.00  0.00    -0.122 NA
HETATM    7  C   UNL     1      -8.316   1.254 -32.417  1.00  0.00     0.212 A 
HETATM    8  N   UNL     1      -7.316   1.057 -31.543  1.00  0.00    -0.195 NA
HETATM    9  C   UNL     1      -7.421   4.435 -29.896  1.00  0.00     0.020 A 
HETATM   10  C   UNL     1      -6.092   4.718 -29.510  1.00  0.00     0.023 A 
HETATM   11  N   UNL     1      -4.963   4.065 -30.021  1.00  0.00    -0.259 NA
HETATM   12  C   UNL     1      -8.458   5.264 -29.418  1.00  0.00     0.016 A 
HETATM   13  C   UNL     1      -8.194   6.357 -28.593  1.00  0.00     0.001 A 
HETATM   14  C   UNL     1      -6.883   6.657 -28.249  1.00  0.00     0.002 A 
HETATM   15  C   UNL     1      -5.845   5.854 -28.721  1.00  0.00     0.024 A 
HETATM   16  H   UNL     1      -4.716   4.482 -30.927  1.00  0.00     0.130 HD
ENDROOT
BRANCH   7  17
HETATM   17  S   UNL     1      -8.709  -0.091 -33.502  1.00  0.00    -0.084 SA
BRANCH  17  18
HETATM   18  C   UNL     1      -7.288   0.015 -34.633  1.00  0.00     0.121 C 
BRANCH  18  19
HETATM   19  C   UNL     1      -6.365  -1.168 -34.465  1.00  0.00    -0.048 A 
HETATM   20  C   UNL     1      -5.095  -1.004 -33.890  1.00  0.00     0.009 A 
HETATM   21  C   UNL     1      -4.236  -2.096 -33.744  1.00  0.00     0.024 A 
HETATM   22  C   UNL     1      -4.639  -3.356 -34.179  1.00  0.00     0.034 A 
HETATM   23 CL   UNL     1      -3.579  -4.701 -34.001  1.00  0.00    -0.084 Cl
HETATM   24  C   UNL     1      -5.892  -3.535 -34.760  1.00  0.00     0.024 A 
HETATM   25  C   UNL     1      -6.752  -2.444 -34.904  1.00  0.00     0.009 A 
ENDBRANCH  18  19
ENDBRANCH  17  18
ENDBRANCH   7  17
BRANCH   1  26
HETATM   26  C   UNL     1      -4.264   2.221 -31.526  1.00  0.00     0.203 C 
HETATM   27  O   UNL     1      -3.882   1.070 -31.760  1.00  0.00    -0.288 OA
BRANCH  26  28
HETATM   28  C   UNL     1      -4.158   3.268 -32.589  1.00  0.00     0.014 A 
HETATM   29  C   UNL     1      -5.251   3.677 -33.365  1.00  0.00     0.015 A 
HETATM   30  C   UNL     1      -5.084   4.644 -34.361  1.00  0.00     0.001 A 
HETATM   31  C   UNL     1      -3.831   5.208 -34.590  1.00  0.00     0.000 A 
HETATM   32  C   UNL     1      -2.740   4.812 -33.820  1.00  0.00     0.001 A 
HETATM   33  C   UNL     1      -2.902   3.847 -32.823  1.00  0.00     0.015 A 
ENDBRANCH  26  28
ENDBRANCH   1  26
TORSDOF 5
ENDMDL
MODEL 8
REMARK VINA RESULT:      -9.1      3.550      7.324
REMARK  5 active torsions:
REMARK  status: ('A' for Active; 'I' for Inactive)
REMARK    1  A    between atoms: C_4  and  C_5 
REMARK    2  A    between atoms: C_5  and  C_6 
REMARK    3  A    between atoms: C_12  and  S_13 
REMARK    4  A    between atoms: S_13  and  C_14 
REMARK    5  A    between atoms: C_14  and  C_15 
ROOT
HETATM    1  C   UNL     1      -4.523   0.823 -32.827  1.00  0.00     0.283 C 
HETATM    2  O   UNL     1      -5.540   1.275 -33.705  1.00  0.00    -0.303 OA
HETATM    3  C   UNL     1      -6.776   1.002 -33.180  1.00  0.00     0.201 A 
HETATM    4  C   UNL     1      -7.281  -0.284 -33.219  1.00  0.00     0.144 A 
HETATM    5  N   UNL     1      -8.535  -0.487 -32.772  1.00  0.00    -0.142 NA
HETATM    6  N   UNL     1      -9.247   0.579 -32.294  1.00  0.00    -0.122 NA
HETATM    7  C   UNL     1      -8.688   1.812 -32.280  1.00  0.00     0.212 A 
HETATM    8  N   UNL     1      -7.452   2.076 -32.729  1.00  0.00    -0.195 NA
HETATM    9  C   UNL     1      -6.521  -1.428 -33.721  1.00  0.00     0.020 A 
HETATM   10  C   UNL     1      -5.126  -1.527 -33.524  1.00  0.00     0.023 A 
HETATM   11  N   UNL     1      -4.373  -0.648 -32.735  1.00  0.00    -0.259 NA
HETATM   12  C   UNL     1      -7.183  -2.462 -34.416  1.00  0.00     0.016 A 
HETATM   13  C   UNL     1      -6.495  -3.579 -34.890  1.00  0.00     0.001 A 
HETATM   14  C   UNL     1      -5.131  -3.693 -34.658  1.00  0.00     0.002 A 
HETATM   15  C   UNL     1      -4.462  -2.685 -33.965  1.00  0.00     0.024 A 
HETATM   16  H   UNL     1      -4.463  -0.920 -31.749  1.00  0.00     0.130 HD
ENDROOT
BRANCH   7  17
HETATM   17  S   UNL     1      -9.626   3.181 -31.659  1.00  0.00    -0.084 SA
BRANCH  17  18
HETATM   18  C   UNL     1     -10.379   3.754 -33.212  1.00  0.00     0.121 C 
BRANCH  18  19
HETATM   19  C   UNL     1     -11.623   2.964 -33.543  1.00  0.00    -0.048 A 
HETATM   20  C   UNL     1     -12.776   3.091 -32.753  1.00  0.00     0.009 A 
HETATM   21  C   UNL     1     -13.924   2.352 -33.053  1.00  0.00     0.024 A 
HETATM   22  C   UNL     1     -13.922   1.479 -34.138  1.00  0.00     0.034 A 
HETATM   23 CL   UNL     1     -15.336   0.569 -34.504  1.00  0.00    -0.084 Cl
HETATM   24  C   UNL     1     -12.783   1.336 -34.926  1.00  0.00     0.024 A 
HETATM   25  C   UNL     1     -11.636   2.075 -34.628  1.00  0.00     0.009 A 
ENDBRANCH  18  19
ENDBRANCH  17  18
ENDBRANCH   7  17
BRANCH   1  26
HETATM   26  C   UNL     1      -4.538   1.435 -31.398  1.00  0.00     0.203 C 
HETATM   27  O   UNL     1      -4.794   0.738 -30.411  1.00  0.00    -0.288 OA
BRANCH  26  28
HETATM   28  C   UNL     1      -4.201   2.882 -31.218  1.00  0.00     0.014 A 
HETATM   29  C   UNL     1      -5.092   3.806 -30.657  1.00  0.00     0.015 A 
HETATM   30  C   UNL     1      -4.729   5.150 -30.537  1.00  0.00     0.001 A 
HETATM   31  C   UNL     1      -3.477   5.581 -30.973  1.00  0.00     0.000 A 
HETATM   32  C   UNL     1      -2.583   4.669 -31.527  1.00  0.00     0.001 A 
HETATM   33  C   UNL     1      -2.941   3.325 -31.648  1.00  0.00     0.015 A 
ENDBRANCH  26  28
ENDBRANCH   1  26
TORSDOF 5
ENDMDL
MODEL 9
REMARK VINA RESULT:      -9.0      3.651      7.798
REMARK  5 active torsions:
REMARK  status: ('A' for Active; 'I' for Inactive)
REMARK    1  A    between atoms: C_4  and  C_5 
REMARK    2  A    between atoms: C_5  and  C_6 
REMARK    3  A    between atoms: C_12  and  S_13 
REMARK    4  A    between atoms: S_13  and  C_14 
REMARK    5  A    between atoms: C_14  and  C_15 
ROOT
HETATM    1  C   UNL     1      -5.122   2.523 -30.515  1.00  0.00     0.283 C 
HETATM    2  O   UNL     1      -6.297   3.215 -30.901  1.00  0.00    -0.303 OA
HETATM    3  C   UNL     1      -6.806   2.679 -32.054  1.00  0.00     0.201 A 
HETATM    4  C   UNL     1      -6.214   2.957 -33.273  1.00  0.00     0.144 A 
HETATM    5  N   UNL     1      -6.802   2.481 -34.387  1.00  0.00    -0.142 NA
HETATM    6  N   UNL     1      -7.946   1.741 -34.266  1.00  0.00    -0.122 NA
HETATM    7  C   UNL     1      -8.470   1.503 -33.041  1.00  0.00     0.212 A 
HETATM    8  N   UNL     1      -7.939   1.967 -31.899  1.00  0.00    -0.195 NA
HETATM    9  C   UNL     1      -4.986   3.740 -33.406  1.00  0.00     0.020 A 
HETATM   10  C   UNL     1      -3.956   3.660 -32.443  1.00  0.00     0.023 A 
HETATM   11  N   UNL     1      -3.938   2.755 -31.374  1.00  0.00    -0.259 NA
HETATM   12  C   UNL     1      -4.813   4.592 -34.517  1.00  0.00     0.016 A 
HETATM   13  C   UNL     1      -3.647   5.337 -34.689  1.00  0.00     0.001 A 
HETATM   14  C   UNL     1      -2.619   5.226 -33.762  1.00  0.00     0.002 A 
HETATM   15  C   UNL     1      -2.769   4.380 -32.663  1.00  0.00     0.024 A 
HETATM   16  H   UNL     1      -3.601   1.845 -31.711  1.00  0.00     0.130 HD
ENDROOT
BRANCH   7  17
HETATM   17  S   UNL     1      -9.954   0.544 -32.904  1.00  0.00    -0.084 SA
BRANCH  17  18
HETATM   18  C   UNL     1     -10.956   1.364 -34.182  1.00  0.00     0.121 C 
BRANCH  18  19
HETATM   19  C   UNL     1     -12.368   1.600 -33.703  1.00  0.00    -0.048 A 
HETATM   20  C   UNL     1     -12.701   2.784 -33.026  1.00  0.00     0.009 A 
HETATM   21  C   UNL     1     -14.006   2.998 -32.574  1.00  0.00     0.024 A 
HETATM   22  C   UNL     1     -14.982   2.028 -32.789  1.00  0.00     0.034 A 
HETATM   23 CL   UNL     1     -16.587   2.293 -32.230  1.00  0.00    -0.084 Cl
HETATM   24  C   UNL     1     -14.666   0.845 -33.453  1.00  0.00     0.024 A 
HETATM   25  C   UNL     1     -13.362   0.630 -33.906  1.00  0.00     0.009 A 
ENDBRANCH  18  19
ENDBRANCH  17  18
ENDBRANCH   7  17
BRANCH   1  26
HETATM   26  C   UNL     1      -5.287   0.999 -30.256  1.00  0.00     0.203 C 
HETATM   27  O   UNL     1      -5.896   0.585 -29.265  1.00  0.00    -0.288 OA
BRANCH  26  28
HETATM   28  C   UNL     1      -4.730   0.024 -31.246  1.00  0.00     0.014 A 
HETATM   29  C   UNL     1      -5.502  -0.548 -32.266  1.00  0.00     0.015 A 
HETATM   30  C   UNL     1      -4.932  -1.472 -33.146  1.00  0.00     0.001 A 
HETATM   31  C   UNL     1      -3.592  -1.832 -33.016  1.00  0.00     0.000 A 
HETATM   32  C   UNL     1      -2.815  -1.265 -32.008  1.00  0.00     0.001 A 
HETATM   33  C   UNL     1      -3.381  -0.340 -31.127  1.00  0.00     0.015 A 
ENDBRANCH  26  28
ENDBRANCH   1  26
TORSDOF 5
ENDMDL
MODEL 10
REMARK VINA RESULT:      -8.8      4.628      9.024
REMARK  5 active torsions:
REMARK  status: ('A' for Active; 'I' for Inactive)
REMARK    1  A    between atoms: C_4  and  C_5 
REMARK    2  A    between atoms: C_5  and  C_6 
REMARK    3  A    between atoms: C_12  and  S_13 
REMARK    4  A    between atoms: S_13  and  C_14 
REMARK    5  A    between atoms: C_14  and  C_15 
ROOT
HETATM    1  C   UNL     1      -4.581   6.602 -30.255  1.00  0.00     0.283 C 
HETATM    2  O   UNL     1      -4.416   6.242 -31.616  1.00  0.00    -0.303 OA
HETATM    3  C   UNL     1      -3.990   4.944 -31.715  1.00  0.00     0.201 A 
HETATM    4  C   UNL     1      -2.672   4.620 -31.445  1.00  0.00     0.144 A 
HETATM    5  N   UNL     1      -2.279   3.348 -31.642  1.00  0.00    -0.142 NA
HETATM    6  N   UNL     1      -3.194   2.434 -32.088  1.00  0.00    -0.122 NA
HETATM    7  C   UNL     1      -4.469   2.818 -32.328  1.00  0.00     0.212 A 
HETATM    8  N   UNL     1      -4.914   4.075 -32.168  1.00  0.00    -0.195 NA
HETATM    9  C   UNL     1      -1.693   5.592 -30.959  1.00  0.00     0.020 A 
HETATM   10  C   UNL     1      -2.063   6.630 -30.076  1.00  0.00     0.023 A 
HETATM   11  N   UNL     1      -3.326   6.753 -29.483  1.00  0.00    -0.259 NA
HETATM   12  C   UNL     1      -0.347   5.498 -31.371  1.00  0.00     0.016 A 
HETATM   13  C   UNL     1       0.619   6.393 -30.911  1.00  0.00     0.001 A 
HETATM   14  C   UNL     1       0.260   7.387 -30.011  1.00  0.00     0.002 A 
HETATM   15  C   UNL     1      -1.063   7.488 -29.586  1.00  0.00     0.024 A 
HETATM   16  H   UNL     1      -3.374   6.132 -28.665  1.00  0.00     0.130 HD
ENDROOT
BRANCH   7  17
HETATM   17  S   UNL     1      -5.641   1.622 -32.908  1.00  0.00    -0.084 SA
BRANCH  17  18
HETATM   18  C   UNL     1      -4.789   0.099 -32.392  1.00  0.00     0.121 C 
BRANCH  18  19
HETATM   19  C   UNL     1      -5.245  -1.087 -33.208  1.00  0.00    -0.048 A 
HETATM   20  C   UNL     1      -4.323  -2.060 -33.625  1.00  0.00     0.009 A 
HETATM   21  C   UNL     1      -4.743  -3.152 -34.389  1.00  0.00     0.024 A 
HETATM   22  C   UNL     1      -6.083  -3.274 -34.746  1.00  0.00     0.034 A 
HETATM   23 CL   UNL     1      -6.598  -4.618 -35.689  1.00  0.00    -0.084 Cl
HETATM   24  C   UNL     1      -7.010  -2.313 -34.348  1.00  0.00     0.024 A 
HETATM   25  C   UNL     1      -6.591  -1.221 -33.583  1.00  0.00     0.009 A 
ENDBRANCH  18  19
ENDBRANCH  17  18
ENDBRANCH   7  17
BRANCH   1  26
HETATM   26  C   UNL     1      -5.592   5.745 -29.444  1.00  0.00     0.203 C 
HETATM   27  O   UNL     1      -5.221   5.067 -28.479  1.00  0.00    -0.288 OA
BRANCH  26  28
HETATM   28  C   UNL     1      -7.041   5.773 -29.817  1.00  0.00     0.014 A 
HETATM   29  C   UNL     1      -7.731   6.961 -30.093  1.00  0.00     0.015 A 
HETATM   30  C   UNL     1      -9.091   6.926 -30.412  1.00  0.00     0.001 A 
HETATM   31  C   UNL     1      -9.771   5.711 -30.459  1.00  0.00     0.000 A 
HETATM   32  C   UNL     1      -9.093   4.525 -30.191  1.00  0.00     0.001 A 
HETATM   33  C   UNL     1      -7.733   4.554 -29.872  1.00  0.00     0.015 A 
ENDBRANCH  26  28
ENDBRANCH   1  26
TORSDOF 5
ENDMDL
