MODEL 1
REMARK VINA RESULT:      -9.6      0.000      0.000
REMARK  8 active torsions:
REMARK  status: ('A' for Active; 'I' for Inactive)
REMARK    1  A    between atoms: C_6  and  N_7 
REMARK       I    between atoms: N_7  and  C_8 
REMARK    2  A    between atoms: C_8  and  C_9 
REMARK    3  A    between atoms: C_10  and  N_11 
REMARK       I    between atoms: N_11  and  C_12 
REMARK    4  A    between atoms: C_12  and  C_13 
REMARK    5  A    between atoms: C_13  and  N_14 
REMARK    6  A    between atoms: N_14  and  C_17 
REMARK    7  A    between atoms: C_17  and  C_18 
REMARK    8  A    between atoms: C_30  and  C_31 
ROOT
HETATM    1  C   UNL     1      -5.849   2.749 -31.914  1.00  0.00     0.073 A 
HETATM    2  C   UNL     1      -7.023   3.476 -31.849  1.00  0.00     0.093 A 
HETATM    3  S   UNL     1      -6.759   5.146 -31.630  1.00  0.00    -0.075 SA
HETATM    4  C   UNL     1      -5.077   4.943 -31.630  1.00  0.00    -0.008 A 
HETATM    5  C   UNL     1      -4.702   3.622 -31.751  1.00  0.00    -0.026 A 
HETATM    6  C   UNL     1      -3.260   3.205 -31.689  1.00  0.00     0.041 C 
HETATM    7  C   UNL     1      -2.321   4.354 -31.271  1.00  0.00     0.010 C 
HETATM    8  C   UNL     1      -2.690   5.770 -31.802  1.00  0.00    -0.002 C 
HETATM    9  C   UNL     1      -4.155   6.101 -31.416  1.00  0.00     0.052 C 
ENDROOT
BRANCH   2  10
HETATM   10  N   UNL     1      -8.372   3.206 -31.890  1.00  0.00    -0.319 N 
HETATM   11  C   UNL     1      -9.016   2.542 -32.903  1.00  0.00     0.248 C 
HETATM   12  O   UNL     1      -8.583   2.271 -34.019  1.00  0.00    -0.271 OA
HETATM   13  H   UNL     1      -8.897   3.644 -31.138  1.00  0.00     0.169 HD
BRANCH  11  14
HETATM   14  C   UNL     1     -10.455   2.158 -32.577  1.00  0.00     0.335 C 
BRANCH  14  15
HETATM   15  N   UNL     1     -11.230   3.340 -32.058  1.00  0.00    -0.063 N 
HETATM   16  H   UNL     1     -11.641   3.132 -31.140  1.00  0.00     0.278 HD
HETATM   17  H   UNL     1     -10.544   4.101 -31.907  1.00  0.00     0.278 HD
BRANCH  15  18
HETATM   18  C   UNL     1     -12.278   3.877 -32.976  1.00  0.00     0.272 C 
BRANCH  18  19
HETATM   19  C   UNL     1     -13.285   2.820 -33.301  1.00  0.00    -0.015 A 
HETATM   20  C   UNL     1     -13.236   2.128 -34.506  1.00  0.00     0.125 A 
HETATM   21  N   UNL     1     -14.158   1.221 -34.886  1.00  0.00    -0.273 NA
HETATM   22  C   UNL     1     -15.169   0.961 -34.029  1.00  0.00     0.116 A 
HETATM   23  C   UNL     1     -15.306   1.587 -32.804  1.00  0.00     0.020 A 
HETATM   24  C   UNL     1     -14.353   2.533 -32.437  1.00  0.00     0.012 A 
ENDBRANCH  18  19
ENDBRANCH  15  18
ENDBRANCH  14  15
ENDBRANCH  11  14
ENDBRANCH   2  10
BRANCH   1  25
HETATM   25  C   UNL     1      -5.762   1.295 -32.038  1.00  0.00     0.259 C 
HETATM   26  N   UNL     1      -5.662   0.897 -33.359  1.00  0.00    -0.322 N 
HETATM   27  H   UNL     1      -6.023   1.576 -34.017  1.00  0.00     0.169 HD
HETATM   28  O   UNL     1      -5.852   0.575 -31.050  1.00  0.00    -0.267 OA
BRANCH  26  29
HETATM   29  C   UNL     1      -5.679  -0.447 -33.788  1.00  0.00     0.041 A 
HETATM   30  C   UNL     1      -4.583  -1.319 -33.695  1.00  0.00    -0.035 A 
HETATM   31  C   UNL     1      -4.743  -2.656 -34.115  1.00  0.00     0.015 A 
HETATM   32  C   UNL     1      -3.219  -0.897 -33.225  1.00  0.00     0.050 C 
HETATM   33  C   UNL     1      -5.946  -3.111 -34.670  1.00  0.00    -0.061 A 
HETATM   34  C   UNL     1      -6.103  -4.538 -35.108  1.00  0.00     0.048 C 
HETATM   35  C   UNL     1      -7.007  -2.216 -34.807  1.00  0.00     0.009 A 
HETATM   36  C   UNL     1      -6.868  -0.893 -34.385  1.00  0.00     0.030 A 
ENDBRANCH  26  29
ENDBRANCH   1  25
BRANCH   8  37
HETATM   37  C   UNL     1      -2.268   6.083 -33.292  1.00  0.00    -0.047 C 
HETATM   38  C   UNL     1      -3.374   5.839 -34.330  1.00  0.00     0.015 C 
HETATM   39  C   UNL     1      -1.805   7.551 -33.442  1.00  0.00     0.015 C 
HETATM   40  C   UNL     1      -1.059   5.195 -33.672  1.00  0.00     0.015 C 
ENDBRANCH   8  37
TORSDOF 8
ENDMDL
MODEL 2
REMARK VINA RESULT:      -9.4      1.424      2.047
REMARK  8 active torsions:
REMARK  status: ('A' for Active; 'I' for Inactive)
REMARK    1  A    between atoms: C_6  and  N_7 
REMARK       I    between atoms: N_7  and  C_8 
REMARK    2  A    between atoms: C_8  and  C_9 
REMARK    3  A    between atoms: C_10  and  N_11 
REMARK       I    between atoms: N_11  and  C_12 
REMARK    4  A    between atoms: C_12  and  C_13 
REMARK    5  A    between atoms: C_13  and  N_14 
REMARK    6  A    between atoms: N_14  and  C_17 
REMARK    7  A    between atoms: C_17  and  C_18 
REMARK    8  A    between atoms: C_30  and  C_31 
ROOT
HETATM    1  C   UNL     1      -5.891   3.794 -32.301  1.00  0.00     0.073 A 
HETATM    2  C   UNL     1      -6.905   4.492 -31.672  1.00  0.00     0.093 A 
HETATM    3  S   UNL     1      -6.325   5.719 -30.639  1.00  0.00    -0.075 SA
HETATM    4  C   UNL     1      -4.713   5.359 -31.014  1.00  0.00    -0.008 A 
HETATM    5  C   UNL     1      -4.595   4.293 -31.880  1.00  0.00    -0.026 A 
HETATM    6  C   UNL     1      -3.253   3.750 -32.281  1.00  0.00     0.041 C 
HETATM    7  C   UNL     1      -2.093   4.359 -31.469  1.00  0.00     0.010 C 
HETATM    8  C   UNL     1      -2.233   5.864 -31.094  1.00  0.00    -0.002 C 
HETATM    9  C   UNL     1      -3.583   6.090 -30.364  1.00  0.00     0.052 C 
ENDROOT
BRANCH   2  10
HETATM   10  N   UNL     1      -8.280   4.446 -31.636  1.00  0.00    -0.319 N 
HETATM   11  C   UNL     1      -9.024   3.461 -31.039  1.00  0.00     0.248 C 
HETATM   12  O   UNL     1      -8.638   2.367 -30.635  1.00  0.00    -0.271 OA
HETATM   13  H   UNL     1      -8.725   5.166 -32.199  1.00  0.00     0.169 HD
BRANCH  11  14
HETATM   14  C   UNL     1     -10.509   3.786 -30.927  1.00  0.00     0.335 C 
BRANCH  14  15
HETATM   15  N   UNL     1     -11.127   3.988 -32.284  1.00  0.00    -0.063 N 
HETATM   16  H   UNL     1     -12.112   4.264 -32.201  1.00  0.00     0.278 HD
HETATM   17  H   UNL     1     -10.633   4.788 -32.718  1.00  0.00     0.278 HD
BRANCH  15  18
HETATM   18  C   UNL     1     -10.998   2.837 -33.228  1.00  0.00     0.272 C 
BRANCH  18  19
HETATM   19  C   UNL     1     -12.313   2.142 -33.391  1.00  0.00    -0.015 A 
HETATM   20  C   UNL     1     -13.493   2.723 -32.939  1.00  0.00     0.125 A 
HETATM   21  N   UNL     1     -14.694   2.113 -32.989  1.00  0.00    -0.273 NA
HETATM   22  C   UNL     1     -14.745   0.877 -33.532  1.00  0.00     0.116 A 
HETATM   23  C   UNL     1     -13.633   0.214 -34.017  1.00  0.00     0.020 A 
HETATM   24  C   UNL     1     -12.399   0.854 -33.941  1.00  0.00     0.012 A 
ENDBRANCH  18  19
ENDBRANCH  15  18
ENDBRANCH  14  15
ENDBRANCH  11  14
ENDBRANCH   2  10
BRANCH   1  25
HETATM   25  C   UNL     1      -6.079   2.652 -33.194  1.00  0.00     0.259 C 
HETATM   26  N   UNL     1      -6.025   1.450 -32.510  1.00  0.00    -0.322 N 
HETATM   27  H   UNL     1      -5.522   1.503 -31.634  1.00  0.00     0.169 HD
HETATM   28  O   UNL     1      -6.187   2.814 -34.404  1.00  0.00    -0.267 OA
BRANCH  26  29
HETATM   29  C   UNL     1      -6.059   0.182 -33.127  1.00  0.00     0.041 A 
HETATM   30  C   UNL     1      -7.237  -0.478 -33.510  1.00  0.00    -0.035 A 
HETATM   31  C   UNL     1      -7.134  -1.723 -34.164  1.00  0.00     0.015 A 
HETATM   32  C   UNL     1      -8.617   0.038 -33.211  1.00  0.00     0.050 C 
HETATM   33  C   UNL     1      -5.894  -2.334 -34.386  1.00  0.00    -0.061 A 
HETATM   34  C   UNL     1      -5.799  -3.657 -35.087  1.00  0.00     0.048 C 
HETATM   35  C   UNL     1      -4.737  -1.690 -33.948  1.00  0.00     0.009 A 
HETATM   36  C   UNL     1      -4.821  -0.452 -33.310  1.00  0.00     0.030 A 
ENDBRANCH  26  29
ENDBRANCH   1  25
BRANCH   8  37
HETATM   37  C   UNL     1      -1.866   6.898 -32.230  1.00  0.00    -0.047 C 
HETATM   38  C   UNL     1      -2.372   6.512 -33.628  1.00  0.00     0.015 C 
HETATM   39  C   UNL     1      -2.425   8.303 -31.905  1.00  0.00     0.015 C 
HETATM   40  C   UNL     1      -0.327   7.040 -32.307  1.00  0.00     0.015 C 
ENDBRANCH   8  37
TORSDOF 8
ENDMDL
MODEL 3
REMARK VINA RESULT:      -9.3      2.345      8.486
REMARK  8 active torsions:
REMARK  status: ('A' for Active; 'I' for Inactive)
REMARK    1  A    between atoms: C_6  and  N_7 
REMARK       I    between atoms: N_7  and  C_8 
REMARK    2  A    between atoms: C_8  and  C_9 
REMARK    3  A    between atoms: C_10  and  N_11 
REMARK       I    between atoms: N_11  and  C_12 
REMARK    4  A    between atoms: C_12  and  C_13 
REMARK    5  A    between atoms: C_13  and  N_14 
REMARK    6  A    between atoms: N_14  and  C_17 
REMARK    7  A    between atoms: C_17  and  C_18 
REMARK    8  A    between atoms: C_30  and  C_31 
ROOT
HETATM    1  C   UNL     1      -7.952   2.585 -33.286  1.00  0.00     0.073 A 
HETATM    2  C   UNL     1      -7.308   3.807 -33.232  1.00  0.00     0.093 A 
HETATM    3  S   UNL     1      -8.294   5.101 -33.743  1.00  0.00    -0.075 SA
HETATM    4  C   UNL     1      -9.604   4.069 -34.036  1.00  0.00    -0.008 A 
HETATM    5  C   UNL     1      -9.301   2.746 -33.795  1.00  0.00    -0.026 A 
HETATM    6  C   UNL     1     -10.292   1.650 -34.069  1.00  0.00     0.041 C 
HETATM    7  C   UNL     1     -11.540   2.145 -34.826  1.00  0.00     0.010 C 
HETATM    8  C   UNL     1     -12.051   3.567 -34.450  1.00  0.00    -0.002 C 
HETATM    9  C   UNL     1     -10.892   4.587 -34.593  1.00  0.00     0.052 C 
ENDROOT
BRANCH   2  10
HETATM   10  N   UNL     1      -6.055   4.265 -32.893  1.00  0.00    -0.319 N 
HETATM   11  C   UNL     1      -5.130   4.765 -33.774  1.00  0.00     0.248 C 
HETATM   12  O   UNL     1      -5.146   4.700 -34.999  1.00  0.00    -0.271 OA
HETATM   13  H   UNL     1      -5.812   4.100 -31.921  1.00  0.00     0.169 HD
BRANCH  11  14
HETATM   14  C   UNL     1      -3.933   5.432 -33.104  1.00  0.00     0.335 C 
BRANCH  14  15
HETATM   15  N   UNL     1      -2.649   4.736 -33.468  1.00  0.00    -0.063 N 
HETATM   16  H   UNL     1      -2.453   3.967 -32.818  1.00  0.00     0.278 HD
HETATM   17  H   UNL     1      -2.798   4.305 -34.397  1.00  0.00     0.278 HD
BRANCH  15  18
HETATM   18  C   UNL     1      -1.450   5.619 -33.589  1.00  0.00     0.272 C 
BRANCH  18  19
HETATM   19  C   UNL     1      -0.757   5.748 -32.269  1.00  0.00    -0.015 A 
HETATM   20  C   UNL     1      -0.708   4.682 -31.377  1.00  0.00     0.125 A 
HETATM   21  N   UNL     1      -0.167   4.762 -30.144  1.00  0.00    -0.273 NA
HETATM   22  C   UNL     1       0.378   5.942 -29.777  1.00  0.00     0.116 A 
HETATM   23  C   UNL     1       0.388   7.060 -30.591  1.00  0.00     0.020 A 
HETATM   24  C   UNL     1      -0.191   6.962 -31.853  1.00  0.00     0.012 A 
ENDBRANCH  18  19
ENDBRANCH  15  18
ENDBRANCH  14  15
ENDBRANCH  11  14
ENDBRANCH   2  10
BRANCH   1  25
HETATM   25  C   UNL     1      -7.344   1.295 -32.968  1.00  0.00     0.259 C 
HETATM   26  N   UNL     1      -6.460   0.887 -33.952  1.00  0.00    -0.322 N 
HETATM   27  H   UNL     1      -6.634   1.309 -34.855  1.00  0.00     0.169 HD
HETATM   28  O   UNL     1      -7.684   0.671 -31.970  1.00  0.00    -0.267 OA
BRANCH  26  29
HETATM   29  C   UNL     1      -5.815  -0.368 -33.971  1.00  0.00     0.041 A 
HETATM   30  C   UNL     1      -4.618  -0.650 -33.294  1.00  0.00    -0.035 A 
HETATM   31  C   UNL     1      -4.100  -1.960 -33.352  1.00  0.00     0.015 A 
HETATM   32  C   UNL     1      -3.817   0.383 -32.552  1.00  0.00     0.050 C 
HETATM   33  C   UNL     1      -4.719  -2.961 -34.111  1.00  0.00    -0.061 A 
HETATM   34  C   UNL     1      -4.158  -4.352 -34.160  1.00  0.00     0.048 C 
HETATM   35  C   UNL     1      -5.877  -2.648 -34.823  1.00  0.00     0.009 A 
HETATM   36  C   UNL     1      -6.409  -1.359 -34.766  1.00  0.00     0.030 A 
ENDBRANCH  26  29
ENDBRANCH   1  25
BRANCH   8  37
HETATM   37  C   UNL     1     -12.917   3.666 -33.132  1.00  0.00    -0.047 C 
HETATM   38  C   UNL     1     -12.095   3.801 -31.841  1.00  0.00     0.015 C 
HETATM   39  C   UNL     1     -13.887   4.868 -33.193  1.00  0.00     0.015 C 
HETATM   40  C   UNL     1     -13.791   2.395 -33.004  1.00  0.00     0.015 C 
ENDBRANCH   8  37
TORSDOF 8
ENDMDL
MODEL 4
REMARK VINA RESULT:      -9.2      2.298      7.931
REMARK  8 active torsions:
REMARK  status: ('A' for Active; 'I' for Inactive)
REMARK    1  A    between atoms: C_6  and  N_7 
REMARK       I    between atoms: N_7  and  C_8 
REMARK    2  A    between atoms: C_8  and  C_9 
REMARK    3  A    between atoms: C_10  and  N_11 
REMARK       I    between atoms: N_11  and  C_12 
REMARK    4  A    between atoms: C_12  and  C_13 
REMARK    5  A    between atoms: C_13  and  N_14 
REMARK    6  A    between atoms: N_14  and  C_17 
REMARK    7  A    between atoms: C_17  and  C_18 
REMARK    8  A    between atoms: C_30  and  C_31 
ROOT
HETATM    1  C   UNL     1      -7.390   2.260 -33.237  1.00  0.00     0.073 A 
HETATM    2  C   UNL     1      -6.550   3.353 -33.142  1.00  0.00     0.093 A 
HETATM    3  S   UNL     1      -7.313   4.817 -33.570  1.00  0.00    -0.075 SA
HETATM    4  C   UNL     1      -8.782   4.032 -33.879  1.00  0.00    -0.008 A 
HETATM    5  C   UNL     1      -8.701   2.667 -33.705  1.00  0.00    -0.026 A 
HETATM    6  C   UNL     1      -9.865   1.766 -34.006  1.00  0.00     0.041 C 
HETATM    7  C   UNL     1     -11.025   2.498 -34.709  1.00  0.00     0.010 C 
HETATM    8  C   UNL     1     -11.285   3.965 -34.257  1.00  0.00    -0.002 C 
HETATM    9  C   UNL     1      -9.974   4.784 -34.380  1.00  0.00     0.052 C 
ENDROOT
BRANCH   2  10
HETATM   10  N   UNL     1      -5.233   3.579 -32.812  1.00  0.00    -0.319 N 
HETATM   11  C   UNL     1      -4.634   3.198 -31.639  1.00  0.00     0.248 C 
HETATM   12  O   UNL     1      -5.177   2.802 -30.612  1.00  0.00    -0.271 OA
HETATM   13  H   UNL     1      -4.742   4.166 -33.481  1.00  0.00     0.169 HD
BRANCH  11  14
HETATM   14  C   UNL     1      -3.116   3.344 -31.641  1.00  0.00     0.335 C 
BRANCH  14  15
HETATM   15  N   UNL     1      -2.652   4.194 -32.794  1.00  0.00    -0.063 N 
HETATM   16  H   UNL     1      -2.597   3.640 -33.656  1.00  0.00     0.278 HD
HETATM   17  H   UNL     1      -3.386   4.907 -32.950  1.00  0.00     0.278 HD
BRANCH  15  18
HETATM   18  C   UNL     1      -1.371   4.931 -32.577  1.00  0.00     0.272 C 
BRANCH  18  19
HETATM   19  C   UNL     1      -1.639   6.315 -32.076  1.00  0.00    -0.015 A 
HETATM   20  C   UNL     1      -1.737   7.389 -32.953  1.00  0.00     0.125 A 
HETATM   21  N   UNL     1      -1.901   8.667 -32.555  1.00  0.00    -0.273 NA
HETATM   22  C   UNL     1      -1.997   8.901 -31.228  1.00  0.00     0.116 A 
HETATM   23  C   UNL     1      -1.921   7.903 -30.274  1.00  0.00     0.020 A 
HETATM   24  C   UNL     1      -1.735   6.592 -30.703  1.00  0.00     0.012 A 
ENDBRANCH  18  19
ENDBRANCH  15  18
ENDBRANCH  14  15
ENDBRANCH  11  14
ENDBRANCH   2  10
BRANCH   1  25
HETATM   25  C   UNL     1      -7.001   0.872 -32.992  1.00  0.00     0.259 C 
HETATM   26  N   UNL     1      -6.218   0.370 -34.016  1.00  0.00    -0.322 N 
HETATM   27  H   UNL     1      -6.335   0.857 -34.895  1.00  0.00     0.169 HD
HETATM   28  O   UNL     1      -7.422   0.266 -32.013  1.00  0.00    -0.267 OA
BRANCH  26  29
HETATM   29  C   UNL     1      -5.794  -0.973 -34.107  1.00  0.00     0.041 A 
HETATM   30  C   UNL     1      -4.548  -1.439 -33.658  1.00  0.00    -0.035 A 
HETATM   31  C   UNL     1      -4.262  -2.815 -33.762  1.00  0.00     0.015 A 
HETATM   32  C   UNL     1      -3.467  -0.543 -33.121  1.00  0.00     0.050 C 
HETATM   33  C   UNL     1      -5.165  -3.709 -34.350  1.00  0.00    -0.061 A 
HETATM   34  C   UNL     1      -4.850  -5.173 -34.450  1.00  0.00     0.048 C 
HETATM   35  C   UNL     1      -6.375  -3.220 -34.843  1.00  0.00     0.009 A 
HETATM   36  C   UNL     1      -6.678  -1.861 -34.737  1.00  0.00     0.030 A 
ENDBRANCH  26  29
ENDBRANCH   1  25
BRANCH   8  37
HETATM   37  C   UNL     1     -12.101   4.142 -32.916  1.00  0.00    -0.047 C 
HETATM   38  C   UNL     1     -11.248   4.074 -31.640  1.00  0.00     0.015 C 
HETATM   39  C   UNL     1     -12.856   5.491 -32.899  1.00  0.00     0.015 C 
HETATM   40  C   UNL     1     -13.175   3.031 -32.826  1.00  0.00     0.015 C 
ENDBRANCH   8  37
TORSDOF 8
ENDMDL
MODEL 5
REMARK VINA RESULT:      -8.9      1.460      2.020
REMARK  8 active torsions:
REMARK  status: ('A' for Active; 'I' for Inactive)
REMARK    1  A    between atoms: C_6  and  N_7 
REMARK       I    between atoms: N_7  and  C_8 
REMARK    2  A    between atoms: C_8  and  C_9 
REMARK    3  A    between atoms: C_10  and  N_11 
REMARK       I    between atoms: N_11  and  C_12 
REMARK    4  A    between atoms: C_12  and  C_13 
REMARK    5  A    between atoms: C_13  and  N_14 
REMARK    6  A    between atoms: N_14  and  C_17 
REMARK    7  A    between atoms: C_17  and  C_18 
REMARK    8  A    between atoms: C_30  and  C_31 
ROOT
HETATM    1  C   UNL     1      -6.248   2.728 -32.953  1.00  0.00     0.073 A 
HETATM    2  C   UNL     1      -7.337   3.358 -33.525  1.00  0.00     0.093 A 
HETATM    3  S   UNL     1      -7.182   5.056 -33.558  1.00  0.00    -0.075 SA
HETATM    4  C   UNL     1      -5.657   4.992 -32.824  1.00  0.00    -0.008 A 
HETATM    5  C   UNL     1      -5.272   3.706 -32.511  1.00  0.00    -0.026 A 
HETATM    6  C   UNL     1      -3.991   3.425 -31.778  1.00  0.00     0.041 C 
HETATM    7  C   UNL     1      -3.309   4.703 -31.251  1.00  0.00     0.010 C 
HETATM    8  C   UNL     1      -3.415   5.962 -32.160  1.00  0.00    -0.002 C 
HETATM    9  C   UNL     1      -4.905   6.240 -32.487  1.00  0.00     0.052 C 
ENDROOT
BRANCH   2  10
HETATM   10  N   UNL     1      -8.546   2.977 -34.063  1.00  0.00    -0.319 N 
HETATM   11  C   UNL     1      -9.632   2.546 -33.345  1.00  0.00     0.248 C 
HETATM   12  O   UNL     1      -9.669   2.216 -32.163  1.00  0.00    -0.271 OA
HETATM   13  H   UNL     1      -8.543   2.934 -35.079  1.00  0.00     0.169 HD
BRANCH  11  14
HETATM   14  C   UNL     1     -10.913   2.433 -34.164  1.00  0.00     0.335 C 
BRANCH  14  15
HETATM   15  N   UNL     1     -12.096   2.965 -33.401  1.00  0.00    -0.063 N 
HETATM   16  H   UNL     1     -11.793   3.447 -32.547  1.00  0.00     0.278 HD
HETATM   17  H   UNL     1     -12.538   3.684 -34.002  1.00  0.00     0.278 HD
BRANCH  15  18
HETATM   18  C   UNL     1     -13.155   1.965 -33.074  1.00  0.00     0.272 C 
BRANCH  18  19
HETATM   19  C   UNL     1     -14.431   2.652 -32.701  1.00  0.00    -0.015 A 
HETATM   20  C   UNL     1     -14.445   3.999 -32.354  1.00  0.00     0.125 A 
HETATM   21  N   UNL     1     -15.548   4.652 -31.935  1.00  0.00    -0.273 NA
HETATM   22  C   UNL     1     -16.703   3.954 -31.877  1.00  0.00     0.116 A 
HETATM   23  C   UNL     1     -16.798   2.614 -32.207  1.00  0.00     0.020 A 
HETATM   24  C   UNL     1     -15.645   1.953 -32.621  1.00  0.00     0.012 A 
ENDBRANCH  18  19
ENDBRANCH  15  18
ENDBRANCH  14  15
ENDBRANCH  11  14
ENDBRANCH   2  10
BRANCH   1  25
HETATM   25  C   UNL     1      -6.124   1.288 -32.734  1.00  0.00     0.259 C 
HETATM   26  N   UNL     1      -5.468   0.664 -33.781  1.00  0.00    -0.322 N 
HETATM   27  H   UNL     1      -5.507   1.179 -34.651  1.00  0.00     0.169 HD
HETATM   28  O   UNL     1      -6.634   0.757 -31.755  1.00  0.00    -0.267 OA
BRANCH  26  29
HETATM   29  C   UNL     1      -5.306  -0.732 -33.898  1.00  0.00     0.041 A 
HETATM   30  C   UNL     1      -6.217  -1.581 -34.545  1.00  0.00    -0.035 A 
HETATM   31  C   UNL     1      -5.915  -2.955 -34.637  1.00  0.00     0.015 A 
HETATM   32  C   UNL     1      -7.535  -1.120 -35.101  1.00  0.00     0.050 C 
HETATM   33  C   UNL     1      -4.763  -3.494 -34.051  1.00  0.00    -0.061 A 
HETATM   34  C   UNL     1      -4.452  -4.958 -34.160  1.00  0.00     0.048 C 
HETATM   35  C   UNL     1      -3.897  -2.645 -33.363  1.00  0.00     0.009 A 
HETATM   36  C   UNL     1      -4.175  -1.280 -33.273  1.00  0.00     0.030 A 
ENDBRANCH  26  29
ENDBRANCH   1  25
BRANCH   8  37
HETATM   37  C   UNL     1      -2.405   6.028 -33.373  1.00  0.00    -0.047 C 
HETATM   38  C   UNL     1      -2.988   5.551 -34.712  1.00  0.00     0.015 C 
HETATM   39  C   UNL     1      -1.878   7.467 -33.581  1.00  0.00     0.015 C 
HETATM   40  C   UNL     1      -1.173   5.146 -33.054  1.00  0.00     0.015 C 
ENDBRANCH   8  37
TORSDOF 8
ENDMDL
MODEL 6
REMARK VINA RESULT:      -8.9      2.143      2.966
REMARK  8 active torsions:
REMARK  status: ('A' for Active; 'I' for Inactive)
REMARK    1  A    between atoms: C_6  and  N_7 
REMARK       I    between atoms: N_7  and  C_8 
REMARK    2  A    between atoms: C_8  and  C_9 
REMARK    3  A    between atoms: C_10  and  N_11 
REMARK       I    between atoms: N_11  and  C_12 
REMARK    4  A    between atoms: C_12  and  C_13 
REMARK    5  A    between atoms: C_13  and  N_14 
REMARK    6  A    between atoms: N_14  and  C_17 
REMARK    7  A    between atoms: C_17  and  C_18 
REMARK    8  A    between atoms: C_30  and  C_31 
ROOT
HETATM    1  C   UNL     1      -6.282   2.473 -32.972  1.00  0.00     0.073 A 
HETATM    2  C   UNL     1      -7.379   3.022 -33.608  1.00  0.00     0.093 A 
HETATM    3  S   UNL     1      -7.298   4.721 -33.726  1.00  0.00    -0.075 SA
HETATM    4  C   UNL     1      -5.796   4.765 -32.945  1.00  0.00    -0.008 A 
HETATM    5  C   UNL     1      -5.365   3.516 -32.554  1.00  0.00    -0.026 A 
HETATM    6  C   UNL     1      -4.096   3.332 -31.770  1.00  0.00     0.041 C 
HETATM    7  C   UNL     1      -3.488   4.665 -31.291  1.00  0.00     0.010 C 
HETATM    8  C   UNL     1      -3.620   5.870 -32.268  1.00  0.00    -0.002 C 
HETATM    9  C   UNL     1      -5.110   6.061 -32.653  1.00  0.00     0.052 C 
ENDROOT
BRANCH   2  10
HETATM   10  N   UNL     1      -8.552   2.559 -34.161  1.00  0.00    -0.319 N 
HETATM   11  C   UNL     1      -9.651   2.143 -33.453  1.00  0.00     0.248 C 
HETATM   12  O   UNL     1      -9.724   1.901 -32.252  1.00  0.00    -0.271 OA
HETATM   13  H   UNL     1      -8.507   2.440 -35.169  1.00  0.00     0.169 HD
BRANCH  11  14
HETATM   14  C   UNL     1     -10.894   1.924 -34.308  1.00  0.00     0.335 C 
BRANCH  14  15
HETATM   15  N   UNL     1     -11.017   2.983 -35.371  1.00  0.00    -0.063 N 
HETATM   16  H   UNL     1     -10.312   3.717 -35.239  1.00  0.00     0.278 HD
HETATM   17  H   UNL     1     -10.796   2.523 -36.273  1.00  0.00     0.278 HD
BRANCH  15  18
HETATM   18  C   UNL     1     -12.371   3.596 -35.517  1.00  0.00     0.272 C 
BRANCH  18  19
HETATM   19  C   UNL     1     -12.293   5.083 -35.369  1.00  0.00    -0.015 A 
HETATM   20  C   UNL     1     -13.244   5.912 -35.954  1.00  0.00     0.125 A 
HETATM   21  N   UNL     1     -13.184   7.259 -35.920  1.00  0.00    -0.273 NA
HETATM   22  C   UNL     1     -12.150   7.821 -35.257  1.00  0.00     0.116 A 
HETATM   23  C   UNL     1     -11.157   7.087 -34.635  1.00  0.00     0.020 A 
HETATM   24  C   UNL     1     -11.227   5.698 -34.696  1.00  0.00     0.012 A 
ENDBRANCH  18  19
ENDBRANCH  15  18
ENDBRANCH  14  15
ENDBRANCH  11  14
ENDBRANCH   2  10
BRANCH   1  25
HETATM   25  C   UNL     1      -6.101   1.053 -32.674  1.00  0.00     0.259 C 
HETATM   26  N   UNL     1      -5.175   0.465 -33.518  1.00  0.00    -0.322 N 
HETATM   27  H   UNL     1      -5.052   0.957 -34.393  1.00  0.00     0.169 HD
HETATM   28  O   UNL     1      -6.781   0.501 -31.816  1.00  0.00    -0.267 OA
BRANCH  26  29
HETATM   29  C   UNL     1      -4.883  -0.915 -33.539  1.00  0.00     0.041 A 
HETATM   30  C   UNL     1      -5.586  -1.859 -34.305  1.00  0.00    -0.035 A 
HETATM   31  C   UNL     1      -5.164  -3.204 -34.277  1.00  0.00     0.015 A 
HETATM   32  C   UNL     1      -6.808  -1.530 -35.116  1.00  0.00     0.050 C 
HETATM   33  C   UNL     1      -4.103  -3.623 -33.464  1.00  0.00    -0.061 A 
HETATM   34  C   UNL     1      -3.662  -5.057 -33.448  1.00  0.00     0.048 C 
HETATM   35  C   UNL     1      -3.453  -2.682 -32.667  1.00  0.00     0.009 A 
HETATM   36  C   UNL     1      -3.851  -1.344 -32.693  1.00  0.00     0.030 A 
ENDBRANCH  26  29
ENDBRANCH   1  25
BRANCH   8  37
HETATM   37  C   UNL     1      -2.577   5.919 -33.453  1.00  0.00    -0.047 C 
HETATM   38  C   UNL     1      -3.123   5.427 -34.802  1.00  0.00     0.015 C 
HETATM   39  C   UNL     1      -2.042   7.354 -33.663  1.00  0.00     0.015 C 
HETATM   40  C   UNL     1      -1.356   5.039 -33.089  1.00  0.00     0.015 C 
ENDBRANCH   8  37
TORSDOF 8
ENDMDL
MODEL 7
REMARK VINA RESULT:      -8.7      2.028      8.289
REMARK  8 active torsions:
REMARK  status: ('A' for Active; 'I' for Inactive)
REMARK    1  A    between atoms: C_6  and  N_7 
REMARK       I    between atoms: N_7  and  C_8 
REMARK    2  A    between atoms: C_8  and  C_9 
REMARK    3  A    between atoms: C_10  and  N_11 
REMARK       I    between atoms: N_11  and  C_12 
REMARK    4  A    between atoms: C_12  and  C_13 
REMARK    5  A    between atoms: C_13  and  N_14 
REMARK    6  A    between atoms: N_14  and  C_17 
REMARK    7  A    between atoms: C_17  and  C_18 
REMARK    8  A    between atoms: C_30  and  C_31 
ROOT
HETATM    1  C   UNL     1      -9.200   2.849 -32.598  1.00  0.00     0.073 A 
HETATM    2  C   UNL     1      -8.556   4.058 -32.409  1.00  0.00     0.093 A 
HETATM    3  S   UNL     1      -9.573   5.401 -32.672  1.00  0.00    -0.075 SA
HETATM    4  C   UNL     1     -10.897   4.407 -33.031  1.00  0.00    -0.008 A 
HETATM    5  C   UNL     1     -10.578   3.067 -32.998  1.00  0.00    -0.026 A 
HETATM    6  C   UNL     1     -11.580   2.010 -33.367  1.00  0.00     0.041 C 
HETATM    7  C   UNL     1     -12.873   2.595 -33.970  1.00  0.00     0.010 C 
HETATM    8  C   UNL     1     -13.363   3.944 -33.367  1.00  0.00    -0.002 C 
HETATM    9  C   UNL     1     -12.216   4.985 -33.431  1.00  0.00     0.052 C 
ENDROOT
BRANCH   2  10
HETATM   10  N   UNL     1      -7.286   4.476 -32.083  1.00  0.00    -0.319 N 
HETATM   11  C   UNL     1      -6.599   4.113 -30.952  1.00  0.00     0.248 C 
HETATM   12  O   UNL     1      -7.040   3.557 -29.951  1.00  0.00    -0.271 OA
HETATM   13  H   UNL     1      -6.918   5.185 -32.711  1.00  0.00     0.169 HD
BRANCH  11  14
HETATM   14  C   UNL     1      -5.127   4.512 -30.966  1.00  0.00     0.335 C 
BRANCH  14  15
HETATM   15  N   UNL     1      -4.315   3.566 -31.809  1.00  0.00    -0.063 N 
HETATM   16  H   UNL     1      -4.672   2.607 -31.729  1.00  0.00     0.278 HD
HETATM   17  H   UNL     1      -4.457   3.851 -32.794  1.00  0.00     0.278 HD
BRANCH  15  18
HETATM   18  C   UNL     1      -2.842   3.584 -31.561  1.00  0.00     0.272 C 
BRANCH  18  19
HETATM   19  C   UNL     1      -2.184   4.648 -32.382  1.00  0.00    -0.015 A 
HETATM   20  C   UNL     1      -1.592   5.754 -31.782  1.00  0.00     0.125 A 
HETATM   21  N   UNL     1      -1.052   6.780 -32.471  1.00  0.00    -0.273 NA
HETATM   22  C   UNL     1      -1.073   6.705 -33.820  1.00  0.00     0.116 A 
HETATM   23  C   UNL     1      -1.630   5.646 -34.514  1.00  0.00     0.020 A 
HETATM   24  C   UNL     1      -2.197   4.605 -33.785  1.00  0.00     0.012 A 
ENDBRANCH  18  19
ENDBRANCH  15  18
ENDBRANCH  14  15
ENDBRANCH  11  14
ENDBRANCH   2  10
BRANCH   1  25
HETATM   25  C   UNL     1      -8.571   1.533 -32.502  1.00  0.00     0.259 C 
HETATM   26  N   UNL     1      -7.551   1.383 -33.425  1.00  0.00    -0.322 N 
HETATM   27  H   UNL     1      -7.631   1.999 -34.224  1.00  0.00     0.169 HD
HETATM   28  O   UNL     1      -9.002   0.688 -31.727  1.00  0.00    -0.267 OA
BRANCH  26  29
HETATM   29  C   UNL     1      -6.846   0.181 -33.642  1.00  0.00     0.041 A 
HETATM   30  C   UNL     1      -5.849  -0.315 -32.786  1.00  0.00    -0.035 A 
HETATM   31  C   UNL     1      -5.252  -1.555 -33.088  1.00  0.00     0.015 A 
HETATM   32  C   UNL     1      -5.334   0.431 -31.587  1.00  0.00     0.050 C 
HETATM   33  C   UNL     1      -5.589  -2.269 -34.245  1.00  0.00    -0.061 A 
HETATM   34  C   UNL     1      -4.949  -3.591 -34.552  1.00  0.00     0.048 C 
HETATM   35  C   UNL     1      -6.541  -1.735 -35.114  1.00  0.00     0.009 A 
HETATM   36  C   UNL     1      -7.150  -0.513 -34.822  1.00  0.00     0.030 A 
ENDBRANCH  26  29
ENDBRANCH   1  25
BRANCH   8  37
HETATM   37  C   UNL     1     -14.148   3.846 -32.000  1.00  0.00    -0.047 C 
HETATM   38  C   UNL     1     -13.272   4.020 -30.750  1.00  0.00     0.015 C 
HETATM   39  C   UNL     1     -15.275   4.903 -31.929  1.00  0.00     0.015 C 
HETATM   40  C   UNL     1     -14.833   2.461 -31.907  1.00  0.00     0.015 C 
ENDBRANCH   8  37
TORSDOF 8
ENDMDL
MODEL 8
REMARK VINA RESULT:      -8.6      2.854      8.268
REMARK  8 active torsions:
REMARK  status: ('A' for Active; 'I' for Inactive)
REMARK    1  A    between atoms: C_6  and  N_7 
REMARK       I    between atoms: N_7  and  C_8 
REMARK    2  A    between atoms: C_8  and  C_9 
REMARK    3  A    between atoms: C_10  and  N_11 
REMARK       I    between atoms: N_11  and  C_12 
REMARK    4  A    between atoms: C_12  and  C_13 
REMARK    5  A    between atoms: C_13  and  N_14 
REMARK    6  A    between atoms: N_14  and  C_17 
REMARK    7  A    between atoms: C_17  and  C_18 
REMARK    8  A    between atoms: C_30  and  C_31 
ROOT
HETATM    1  C   UNL     1      -6.040   2.851 -32.599  1.00  0.00     0.073 A 
HETATM    2  C   UNL     1      -5.893   1.477 -32.645  1.00  0.00     0.093 A 
HETATM    3  S   UNL     1      -7.350   0.642 -32.350  1.00  0.00    -0.075 SA
HETATM    4  C   UNL     1      -8.213   2.087 -32.166  1.00  0.00    -0.008 A 
HETATM    5  C   UNL     1      -7.411   3.203 -32.282  1.00  0.00    -0.026 A 
HETATM    6  C   UNL     1      -7.955   4.587 -32.071  1.00  0.00     0.041 C 
HETATM    7  C   UNL     1      -9.393   4.589 -31.518  1.00  0.00     0.010 C 
HETATM    8  C   UNL     1     -10.334   3.466 -32.046  1.00  0.00    -0.002 C 
HETATM    9  C   UNL     1      -9.667   2.085 -31.817  1.00  0.00     0.052 C 
ENDROOT
BRANCH   2  10
HETATM   10  N   UNL     1      -4.862   0.587 -32.845  1.00  0.00    -0.319 N 
HETATM   11  C   UNL     1      -3.806   0.393 -31.991  1.00  0.00     0.248 C 
HETATM   12  O   UNL     1      -3.467   1.096 -31.044  1.00  0.00    -0.271 OA
HETATM   13  H   UNL     1      -4.883   0.140 -33.758  1.00  0.00     0.169 HD
BRANCH  11  14
HETATM   14  C   UNL     1      -2.951  -0.824 -32.328  1.00  0.00     0.335 C 
BRANCH  14  15
HETATM   15  N   UNL     1      -3.709  -2.103 -32.092  1.00  0.00    -0.063 N 
HETATM   16  H   UNL     1      -3.633  -2.397 -31.112  1.00  0.00     0.278 HD
HETATM   17  H   UNL     1      -4.709  -1.890 -32.257  1.00  0.00     0.278 HD
BRANCH  15  18
HETATM   18  C   UNL     1      -3.354  -3.238 -32.995  1.00  0.00     0.272 C 
BRANCH  18  19
HETATM   19  C   UNL     1      -4.538  -3.651 -33.811  1.00  0.00    -0.015 A 
HETATM   20  C   UNL     1      -4.668  -4.955 -34.278  1.00  0.00     0.125 A 
HETATM   21  N   UNL     1      -5.671  -5.366 -35.080  1.00  0.00    -0.273 NA
HETATM   22  C   UNL     1      -6.609  -4.456 -35.422  1.00  0.00     0.116 A 
HETATM   23  C   UNL     1      -6.577  -3.138 -35.005  1.00  0.00     0.020 A 
HETATM   24  C   UNL     1      -5.524  -2.729 -34.192  1.00  0.00     0.012 A 
ENDBRANCH  18  19
ENDBRANCH  15  18
ENDBRANCH  14  15
ENDBRANCH  11  14
ENDBRANCH   2  10
BRANCH   1  25
HETATM   25  C   UNL     1      -4.958   3.822 -32.753  1.00  0.00     0.259 C 
HETATM   26  N   UNL     1      -4.109   3.823 -31.660  1.00  0.00    -0.322 N 
HETATM   27  H   UNL     1      -4.533   3.465 -30.815  1.00  0.00     0.169 HD
HETATM   28  O   UNL     1      -4.919   4.567 -33.725  1.00  0.00    -0.267 OA
BRANCH  26  29
HETATM   29  C   UNL     1      -3.047   4.734 -31.480  1.00  0.00     0.041 A 
HETATM   30  C   UNL     1      -3.156   5.943 -30.773  1.00  0.00    -0.035 A 
HETATM   31  C   UNL     1      -2.006   6.744 -30.622  1.00  0.00     0.015 A 
HETATM   32  C   UNL     1      -4.448   6.468 -30.214  1.00  0.00     0.050 C 
HETATM   33  C   UNL     1      -0.783   6.389 -31.205  1.00  0.00    -0.061 A 
HETATM   34  C   UNL     1       0.434   7.250 -31.031  1.00  0.00     0.048 C 
HETATM   35  C   UNL     1      -0.707   5.213 -31.950  1.00  0.00     0.009 A 
HETATM   36  C   UNL     1      -1.834   4.403 -32.100  1.00  0.00     0.030 A 
ENDBRANCH  26  29
ENDBRANCH   1  25
BRANCH   8  37
HETATM   37  C   UNL     1     -10.974   3.711 -33.469  1.00  0.00    -0.047 C 
HETATM   38  C   UNL     1     -10.172   3.116 -34.637  1.00  0.00     0.015 C 
HETATM   39  C   UNL     1     -12.404   3.129 -33.543  1.00  0.00     0.015 C 
HETATM   40  C   UNL     1     -11.101   5.234 -33.712  1.00  0.00     0.015 C 
ENDBRANCH   8  37
TORSDOF 8
ENDMDL
MODEL 9
REMARK VINA RESULT:      -8.4      2.571      7.923
REMARK  8 active torsions:
REMARK  status: ('A' for Active; 'I' for Inactive)
REMARK    1  A    between atoms: C_6  and  N_7 
REMARK       I    between atoms: N_7  and  C_8 
REMARK    2  A    between atoms: C_8  and  C_9 
REMARK    3  A    between atoms: C_10  and  N_11 
REMARK       I    between atoms: N_11  and  C_12 
REMARK    4  A    between atoms: C_12  and  C_13 
REMARK    5  A    between atoms: C_13  and  N_14 
REMARK    6  A    between atoms: N_14  and  C_17 
REMARK    7  A    between atoms: C_17  and  C_18 
REMARK    8  A    between atoms: C_30  and  C_31 
ROOT
HETATM    1  C   UNL     1      -7.652   3.830 -32.995  1.00  0.00     0.073 A 
HETATM    2  C   UNL     1      -7.976   2.524 -32.676  1.00  0.00     0.093 A 
HETATM    3  S   UNL     1      -9.629   2.319 -32.313  1.00  0.00    -0.075 SA
HETATM    4  C   UNL     1      -9.956   3.959 -32.583  1.00  0.00    -0.008 A 
HETATM    5  C   UNL     1      -8.825   4.679 -32.905  1.00  0.00    -0.026 A 
HETATM    6  C   UNL     1      -8.870   6.167 -33.104  1.00  0.00     0.041 C 
HETATM    7  C   UNL     1     -10.224   6.785 -32.703  1.00  0.00     0.010 C 
HETATM    8  C   UNL     1     -11.488   5.929 -33.011  1.00  0.00    -0.002 C 
HETATM    9  C   UNL     1     -11.325   4.522 -32.379  1.00  0.00     0.052 C 
ENDROOT
BRANCH   2  10
HETATM   10  N   UNL     1      -7.306   1.328 -32.548  1.00  0.00    -0.319 N 
HETATM   11  C   UNL     1      -6.448   1.007 -31.527  1.00  0.00     0.248 C 
HETATM   12  O   UNL     1      -5.958   1.761 -30.692  1.00  0.00    -0.271 OA
HETATM   13  H   UNL     1      -7.412   0.715 -33.352  1.00  0.00     0.169 HD
BRANCH  11  14
HETATM   14  C   UNL     1      -6.045  -0.463 -31.495  1.00  0.00     0.335 C 
BRANCH  14  15
HETATM   15  N   UNL     1      -4.701  -0.674 -32.138  1.00  0.00    -0.063 N 
HETATM   16  H   UNL     1      -4.047   0.070 -31.869  1.00  0.00     0.278 HD
HETATM   17  H   UNL     1      -4.320  -1.554 -31.747  1.00  0.00     0.278 HD
BRANCH  15  18
HETATM   18  C   UNL     1      -4.713  -0.829 -33.623  1.00  0.00     0.272 C 
BRANCH  18  19
HETATM   19  C   UNL     1      -5.133  -2.214 -34.003  1.00  0.00    -0.015 A 
HETATM   20  C   UNL     1      -4.245  -3.281 -33.923  1.00  0.00     0.125 A 
HETATM   21  N   UNL     1      -4.542  -4.534 -34.323  1.00  0.00    -0.273 NA
HETATM   22  C   UNL     1      -5.784  -4.758 -34.804  1.00  0.00     0.116 A 
HETATM   23  C   UNL     1      -6.744  -3.769 -34.919  1.00  0.00     0.020 A 
HETATM   24  C   UNL     1      -6.412  -2.479 -34.516  1.00  0.00     0.012 A 
ENDBRANCH  18  19
ENDBRANCH  15  18
ENDBRANCH  14  15
ENDBRANCH  11  14
ENDBRANCH   2  10
BRANCH   1  25
HETATM   25  C   UNL     1      -6.306   4.318 -33.292  1.00  0.00     0.259 C 
HETATM   26  N   UNL     1      -5.540   4.440 -32.146  1.00  0.00    -0.322 N 
HETATM   27  H   UNL     1      -6.086   4.539 -31.300  1.00  0.00     0.169 HD
HETATM   28  O   UNL     1      -5.993   4.635 -34.433  1.00  0.00    -0.267 OA
BRANCH  26  29
HETATM   29  C   UNL     1      -4.244   4.996 -32.113  1.00  0.00     0.041 A 
HETATM   30  C   UNL     1      -3.062   4.249 -32.237  1.00  0.00    -0.035 A 
HETATM   31  C   UNL     1      -1.827   4.930 -32.237  1.00  0.00     0.015 A 
HETATM   32  C   UNL     1      -3.028   2.748 -32.313  1.00  0.00     0.050 C 
HETATM   33  C   UNL     1      -1.755   6.317 -32.059  1.00  0.00    -0.061 A 
HETATM   34  C   UNL     1      -0.434   7.029 -32.065  1.00  0.00     0.048 C 
HETATM   35  C   UNL     1      -2.936   7.036 -31.880  1.00  0.00     0.009 A 
HETATM   36  C   UNL     1      -4.167   6.378 -31.891  1.00  0.00     0.030 A 
ENDBRANCH  26  29
ENDBRANCH   1  25
BRANCH   8  37
HETATM   37  C   UNL     1     -12.007   5.973 -34.502  1.00  0.00    -0.047 C 
HETATM   38  C   UNL     1     -11.606   4.758 -35.352  1.00  0.00     0.015 C 
HETATM   39  C   UNL     1     -13.549   6.087 -34.551  1.00  0.00     0.015 C 
HETATM   40  C   UNL     1     -11.447   7.239 -35.196  1.00  0.00     0.015 C 
ENDBRANCH   8  37
TORSDOF 8
ENDMDL
MODEL 10
REMARK VINA RESULT:      -8.3      3.647      7.571
REMARK  8 active torsions:
REMARK  status: ('A' for Active; 'I' for Inactive)
REMARK    1  A    between atoms: C_6  and  N_7 
REMARK       I    between atoms: N_7  and  C_8 
REMARK    2  A    between atoms: C_8  and  C_9 
REMARK    3  A    between atoms: C_10  and  N_11 
REMARK       I    between atoms: N_11  and  C_12 
REMARK    4  A    between atoms: C_12  and  C_13 
REMARK    5  A    between atoms: C_13  and  N_14 
REMARK    6  A    between atoms: N_14  and  C_17 
REMARK    7  A    between atoms: C_17  and  C_18 
REMARK    8  A    between atoms: C_30  and  C_31 
ROOT
HETATM    1  C   UNL     1      -2.929   6.015 -30.741  1.00  0.00     0.073 A 
HETATM    2  C   UNL     1      -2.202   4.996 -31.327  1.00  0.00     0.093 A 
HETATM    3  S   UNL     1      -0.529   5.106 -31.012  1.00  0.00    -0.075 SA
HETATM    4  C   UNL     1      -0.735   6.504 -30.078  1.00  0.00    -0.008 A 
HETATM    5  C   UNL     1      -2.047   6.922 -30.030  1.00  0.00    -0.026 A 
HETATM    6  C   UNL     1      -2.444   8.188 -29.325  1.00  0.00     0.041 C 
HETATM    7  C   UNL     1      -1.234   9.032 -28.881  1.00  0.00     0.010 C 
HETATM    8  C   UNL     1       0.014   8.239 -28.392  1.00  0.00    -0.002 C 
HETATM    9  C   UNL     1       0.436   7.218 -29.481  1.00  0.00     0.052 C 
ENDROOT
BRANCH   2  10
HETATM   10  N   UNL     1      -2.467   3.911 -32.131  1.00  0.00    -0.319 N 
HETATM   11  C   UNL     1      -3.326   2.887 -31.822  1.00  0.00     0.248 C 
HETATM   12  O   UNL     1      -3.830   2.632 -30.732  1.00  0.00    -0.271 OA
HETATM   13  H   UNL     1      -1.877   3.864 -32.958  1.00  0.00     0.169 HD
BRANCH  11  14
HETATM   14  C   UNL     1      -3.625   1.954 -32.990  1.00  0.00     0.335 C 
BRANCH  14  15
HETATM   15  N   UNL     1      -4.214   0.654 -32.511  1.00  0.00    -0.063 N 
HETATM   16  H   UNL     1      -3.572  -0.126 -32.689  1.00  0.00     0.278 HD
HETATM   17  H   UNL     1      -4.305   0.731 -31.482  1.00  0.00     0.278 HD
BRANCH  15  18
HETATM   18  C   UNL     1      -5.572   0.328 -33.041  1.00  0.00     0.272 C 
BRANCH  18  19
HETATM   19  C   UNL     1      -5.592  -1.052 -33.620  1.00  0.00    -0.015 A 
HETATM   20  C   UNL     1      -4.420  -1.785 -33.768  1.00  0.00     0.125 A 
HETATM   21  N   UNL     1      -4.366  -3.000 -34.352  1.00  0.00    -0.273 NA
HETATM   22  C   UNL     1      -5.526  -3.533 -34.792  1.00  0.00     0.116 A 
HETATM   23  C   UNL     1      -6.746  -2.890 -34.687  1.00  0.00     0.020 A 
HETATM   24  C   UNL     1      -6.779  -1.630 -34.097  1.00  0.00     0.012 A 
ENDBRANCH  18  19
ENDBRANCH  15  18
ENDBRANCH  14  15
ENDBRANCH  11  14
ENDBRANCH   2  10
BRANCH   1  25
HETATM   25  C   UNL     1      -4.370   6.215 -30.884  1.00  0.00     0.259 C 
HETATM   26  N   UNL     1      -5.092   5.314 -30.121  1.00  0.00    -0.322 N 
HETATM   27  H   UNL     1      -4.581   4.470 -29.896  1.00  0.00     0.169 HD
HETATM   28  O   UNL     1      -4.812   7.049 -31.665  1.00  0.00    -0.267 OA
BRANCH  26  29
HETATM   29  C   UNL     1      -6.497   5.195 -30.150  1.00  0.00     0.041 A 
HETATM   30  C   UNL     1      -7.369   5.934 -29.334  1.00  0.00    -0.035 A 
HETATM   31  C   UNL     1      -8.758   5.758 -29.493  1.00  0.00     0.015 A 
HETATM   32  C   UNL     1      -6.905   6.866 -28.249  1.00  0.00     0.050 C 
HETATM   33  C   UNL     1      -9.281   4.829 -30.401  1.00  0.00    -0.061 A 
HETATM   34  C   UNL     1     -10.762   4.656 -30.564  1.00  0.00     0.048 C 
HETATM   35  C   UNL     1      -8.399   4.063 -31.164  1.00  0.00     0.009 A 
HETATM   36  C   UNL     1      -7.021   4.234 -31.027  1.00  0.00     0.030 A 
ENDBRANCH  26  29
ENDBRANCH   1  25
BRANCH   8  37
HETATM   37  C   UNL     1      -0.046   7.700 -26.908  1.00  0.00    -0.047 C 
HETATM   38  C   UNL     1      -1.040   8.442 -26.002  1.00  0.00     0.015 C 
HETATM   39  C   UNL     1      -0.418   6.200 -26.876  1.00  0.00     0.015 C 
HETATM   40  C   UNL     1       1.358   7.823 -26.268  1.00  0.00     0.015 C 
ENDBRANCH   8  37
TORSDOF 8
ENDMDL
