MODEL 1
REMARK VINA RESULT:      -8.7      0.000      0.000
REMARK  6 active torsions:
REMARK  status: ('A' for Active; 'I' for Inactive)
REMARK    1  A    between atoms: C_2  and  C_3 
REMARK    2  A    between atoms: C_3  and  C_4 
REMARK    3  A    between atoms: C_3  and  C_10 
REMARK    4  A    between atoms: C_10  and  C_11 
REMARK       I    between atoms: C_11  and  N_12 
REMARK    5  A    between atoms: N_12  and  C_13 
REMARK    6  A    between atoms: C_20  and  C_21 
REMARK       I    between atoms: C_21  and  N_22 
ROOT
HETATM    1  C   UNL     1      -4.107   3.019 -32.570  1.00  0.00     0.035 A 
HETATM    2  C   UNL     1      -2.923   3.446 -31.955  1.00  0.00     0.046 A 
HETATM    3  C   UNL     1      -2.631   4.826 -31.885  1.00  0.00     0.030 A 
HETATM    4  C   UNL     1      -3.529   5.729 -32.439  1.00  0.00     0.063 A 
HETATM    5  N   UNL     1      -2.976   6.961 -32.234  1.00  0.00    -0.277 N 
HETATM    6  H   UNL     1      -3.354   7.859 -32.517  1.00  0.00     0.189 HD
HETATM    7  N   UNL     1      -1.804   6.946 -31.578  1.00  0.00    -0.168 NA
HETATM    8  C   UNL     1      -1.579   5.630 -31.351  1.00  0.00     0.156 A 
HETATM    9  C   UNL     1      -4.720   5.339 -33.054  1.00  0.00     0.034 A 
HETATM   10  C   UNL     1      -4.993   3.966 -33.098  1.00  0.00     0.032 A 
ENDROOT
BRANCH   1  11
HETATM   11  N   UNL     1      -4.487   1.662 -32.675  1.00  0.00    -0.327 N 
HETATM   12  C   UNL     1      -5.168   0.915 -31.736  1.00  0.00     0.222 C 
HETATM   13  O   UNL     1      -5.529   1.315 -30.630  1.00  0.00    -0.273 OA
HETATM   14  H   UNL     1      -4.075   1.160 -33.449  1.00  0.00     0.169 HD
BRANCH  12  15
HETATM   15  C   UNL     1      -5.559  -0.497 -32.162  1.00  0.00     0.112 C 
BRANCH  15  16
HETATM   16  C   UNL     1      -5.815  -0.790 -33.653  1.00  0.00     0.027 C 
BRANCH  16  17
HETATM   17  C   UNL     1      -7.217  -0.308 -34.096  1.00  0.00     0.005 C 
HETATM   18  C   UNL     1      -7.203   0.582 -35.331  1.00  0.00     0.006 C 
ENDBRANCH  16  17
BRANCH  16  19
HETATM   19  C   UNL     1      -5.658  -2.250 -34.055  1.00  0.00    -0.054 A 
HETATM   20  C   UNL     1      -6.708  -2.988 -34.620  1.00  0.00     0.007 A 
HETATM   21  C   UNL     1      -6.530  -4.331 -34.960  1.00  0.00     0.001 A 
HETATM   22  C   UNL     1      -5.299  -4.948 -34.753  1.00  0.00     0.000 A 
HETATM   23  C   UNL     1      -4.240  -4.223 -34.212  1.00  0.00     0.001 A 
HETATM   24  C   UNL     1      -4.417  -2.883 -33.868  1.00  0.00     0.007 A 
ENDBRANCH  16  19
ENDBRANCH  15  16
ENDBRANCH  12  15
ENDBRANCH   1  11
BRANCH   8  25
HETATM   25  C   UNL     1      -0.382   5.176 -30.628  1.00  0.00     0.270 C 
HETATM   26  N   UNL     1      -0.417   5.420 -29.282  1.00  0.00    -0.365 N 
HETATM   27  H   UNL     1      -1.238   5.867 -28.891  1.00  0.00     0.159 HD
HETATM   28  H   UNL     1       0.355   5.130 -28.704  1.00  0.00     0.159 HD
HETATM   29  O   UNL     1       0.580   4.619 -31.146  1.00  0.00    -0.266 OA
ENDBRANCH   8  25
TORSDOF 6
ENDMDL
MODEL 2
REMARK VINA RESULT:      -8.7      4.853      7.866
REMARK  6 active torsions:
REMARK  status: ('A' for Active; 'I' for Inactive)
REMARK    1  A    between atoms: C_2  and  C_3 
REMARK    2  A    between atoms: C_3  and  C_4 
REMARK    3  A    between atoms: C_3  and  C_10 
REMARK    4  A    between atoms: C_10  and  C_11 
REMARK       I    between atoms: C_11  and  N_12 
REMARK    5  A    between atoms: N_12  and  C_13 
REMARK    6  A    between atoms: C_20  and  C_21 
REMARK       I    between atoms: C_21  and  N_22 
ROOT
HETATM    1  C   UNL     1      -9.372   1.977 -34.126  1.00  0.00     0.035 A 
HETATM    2  C   UNL     1     -10.549   1.221 -34.044  1.00  0.00     0.046 A 
HETATM    3  C   UNL     1     -11.772   1.864 -33.754  1.00  0.00     0.030 A 
HETATM    4  C   UNL     1     -11.775   3.237 -33.547  1.00  0.00     0.063 A 
HETATM    5  N   UNL     1     -13.075   3.560 -33.276  1.00  0.00    -0.277 N 
HETATM    6  H   UNL     1     -13.448   4.479 -33.065  1.00  0.00     0.189 HD
HETATM    7  N   UNL     1     -13.926   2.522 -33.305  1.00  0.00    -0.168 NA
HETATM    8  C   UNL     1     -13.135   1.465 -33.604  1.00  0.00     0.156 A 
HETATM    9  C   UNL     1     -10.623   4.022 -33.627  1.00  0.00     0.034 A 
HETATM   10  C   UNL     1      -9.425   3.363 -33.929  1.00  0.00     0.032 A 
ENDROOT
BRANCH   1  11
HETATM   11  N   UNL     1      -8.106   1.423 -34.423  1.00  0.00    -0.327 N 
HETATM   12  C   UNL     1      -7.229   0.836 -33.534  1.00  0.00     0.222 C 
HETATM   13  O   UNL     1      -7.404   0.732 -32.321  1.00  0.00    -0.273 OA
HETATM   14  H   UNL     1      -7.756   1.625 -35.348  1.00  0.00     0.169 HD
BRANCH  12  15
HETATM   15  C   UNL     1      -5.981   0.206 -34.146  1.00  0.00     0.112 C 
BRANCH  15  16
HETATM   16  C   UNL     1      -5.244  -0.907 -33.377  1.00  0.00     0.027 C 
BRANCH  16  17
HETATM   17  C   UNL     1      -3.729  -0.616 -33.265  1.00  0.00     0.005 C 
HETATM   18  C   UNL     1      -3.239  -0.430 -31.835  1.00  0.00     0.006 C 
ENDBRANCH  16  17
BRANCH  16  19
HETATM   19  C   UNL     1      -5.425  -2.307 -33.947  1.00  0.00    -0.054 A 
HETATM   20  C   UNL     1      -6.631  -2.730 -34.525  1.00  0.00     0.007 A 
HETATM   21  C   UNL     1      -6.764  -4.028 -35.022  1.00  0.00     0.001 A 
HETATM   22  C   UNL     1      -5.690  -4.914 -34.962  1.00  0.00     0.000 A 
HETATM   23  C   UNL     1      -4.480  -4.503 -34.411  1.00  0.00     0.001 A 
HETATM   24  C   UNL     1      -4.347  -3.207 -33.910  1.00  0.00     0.007 A 
ENDBRANCH  16  19
ENDBRANCH  15  16
ENDBRANCH  12  15
ENDBRANCH   1  11
BRANCH   8  25
HETATM   25  C   UNL     1     -13.694   0.112 -33.747  1.00  0.00     0.270 C 
HETATM   26  N   UNL     1     -14.903   0.074 -34.386  1.00  0.00    -0.365 N 
HETATM   27  H   UNL     1     -15.307   0.943 -34.714  1.00  0.00     0.159 HD
HETATM   28  H   UNL     1     -15.356  -0.812 -34.543  1.00  0.00     0.159 HD
HETATM   29  O   UNL     1     -13.154  -0.915 -33.352  1.00  0.00    -0.266 OA
ENDBRANCH   8  25
TORSDOF 6
ENDMDL
MODEL 3
REMARK VINA RESULT:      -8.3      1.217      1.567
REMARK  6 active torsions:
REMARK  status: ('A' for Active; 'I' for Inactive)
REMARK    1  A    between atoms: C_2  and  C_3 
REMARK    2  A    between atoms: C_3  and  C_4 
REMARK    3  A    between atoms: C_3  and  C_10 
REMARK    4  A    between atoms: C_10  and  C_11 
REMARK       I    between atoms: C_11  and  N_12 
REMARK    5  A    between atoms: N_12  and  C_13 
REMARK    6  A    between atoms: C_20  and  C_21 
REMARK       I    between atoms: C_21  and  N_22 
ROOT
HETATM    1  C   UNL     1      -3.638   3.756 -32.509  1.00  0.00     0.035 A 
HETATM    2  C   UNL     1      -2.420   3.921 -31.836  1.00  0.00     0.046 A 
HETATM    3  C   UNL     1      -1.713   5.137 -31.960  1.00  0.00     0.030 A 
HETATM    4  C   UNL     1      -2.244   6.142 -32.759  1.00  0.00     0.063 A 
HETATM    5  N   UNL     1      -1.344   7.168 -32.695  1.00  0.00    -0.277 N 
HETATM    6  H   UNL     1      -1.401   8.065 -33.164  1.00  0.00     0.189 HD
HETATM    7  N   UNL     1      -0.280   6.930 -31.910  1.00  0.00    -0.168 NA
HETATM    8  C   UNL     1      -0.496   5.678 -31.444  1.00  0.00     0.156 A 
HETATM    9  C   UNL     1      -3.457   6.014 -33.439  1.00  0.00     0.034 A 
HETATM   10  C   UNL     1      -4.145   4.804 -33.288  1.00  0.00     0.032 A 
ENDROOT
BRANCH   1  11
HETATM   11  N   UNL     1      -4.419   2.581 -32.435  1.00  0.00    -0.327 N 
HETATM   12  C   UNL     1      -5.116   2.115 -31.338  1.00  0.00     0.222 C 
HETATM   13  O   UNL     1      -5.139   2.647 -30.229  1.00  0.00    -0.273 OA
HETATM   14  H   UNL     1      -4.319   1.950 -33.216  1.00  0.00     0.169 HD
BRANCH  12  15
HETATM   15  C   UNL     1      -5.980   0.880 -31.572  1.00  0.00     0.112 C 
BRANCH  15  16
HETATM   16  C   UNL     1      -6.514   0.592 -32.988  1.00  0.00     0.027 C 
BRANCH  16  17
HETATM   17  C   UNL     1      -8.056   0.703 -33.049  1.00  0.00     0.005 C 
HETATM   18  C   UNL     1      -8.728   0.731 -31.683  1.00  0.00     0.006 C 
ENDBRANCH  16  17
BRANCH  16  19
HETATM   19  C   UNL     1      -6.105  -0.755 -33.566  1.00  0.00    -0.054 A 
HETATM   20  C   UNL     1      -7.022  -1.613 -34.190  1.00  0.00     0.007 A 
HETATM   21  C   UNL     1      -6.611  -2.850 -34.692  1.00  0.00     0.001 A 
HETATM   22  C   UNL     1      -5.277  -3.238 -34.591  1.00  0.00     0.000 A 
HETATM   23  C   UNL     1      -4.350  -2.389 -33.993  1.00  0.00     0.001 A 
HETATM   24  C   UNL     1      -4.759  -1.155 -33.487  1.00  0.00     0.007 A 
ENDBRANCH  16  19
ENDBRANCH  15  16
ENDBRANCH  12  15
ENDBRANCH   1  11
BRANCH   8  25
HETATM   25  C   UNL     1       0.449   5.036 -30.520  1.00  0.00     0.270 C 
HETATM   26  N   UNL     1       0.152   5.227 -29.198  1.00  0.00    -0.365 N 
HETATM   27  H   UNL     1      -0.671   5.765 -28.958  1.00  0.00     0.159 HD
HETATM   28  H   UNL     1       0.738   4.811 -28.491  1.00  0.00     0.159 HD
HETATM   29  O   UNL     1       1.423   4.374 -30.861  1.00  0.00    -0.266 OA
ENDBRANCH   8  25
TORSDOF 6
ENDMDL
MODEL 4
REMARK VINA RESULT:      -8.2      3.475      3.866
REMARK  6 active torsions:
REMARK  status: ('A' for Active; 'I' for Inactive)
REMARK    1  A    between atoms: C_2  and  C_3 
REMARK    2  A    between atoms: C_3  and  C_4 
REMARK    3  A    between atoms: C_3  and  C_10 
REMARK    4  A    between atoms: C_10  and  C_11 
REMARK       I    between atoms: C_11  and  N_12 
REMARK    5  A    between atoms: N_12  and  C_13 
REMARK    6  A    between atoms: C_20  and  C_21 
REMARK       I    between atoms: C_21  and  N_22 
ROOT
HETATM    1  C   UNL     1      -6.552   2.921 -30.984  1.00  0.00     0.035 A 
HETATM    2  C   UNL     1      -5.961   3.792 -30.058  1.00  0.00     0.046 A 
HETATM    3  C   UNL     1      -6.767   4.711 -29.352  1.00  0.00     0.030 A 
HETATM    4  C   UNL     1      -8.133   4.733 -29.600  1.00  0.00     0.063 A 
HETATM    5  N   UNL     1      -8.632   5.717 -28.794  1.00  0.00    -0.277 N 
HETATM    6  H   UNL     1      -9.597   6.019 -28.719  1.00  0.00     0.189 HD
HETATM    7  N   UNL     1      -7.715   6.328 -28.026  1.00  0.00    -0.168 NA
HETATM    8  C   UNL     1      -6.556   5.713 -28.356  1.00  0.00     0.156 A 
HETATM    9  C   UNL     1      -8.756   3.877 -30.511  1.00  0.00     0.034 A 
HETATM   10  C   UNL     1      -7.937   2.966 -31.189  1.00  0.00     0.032 A 
ENDROOT
BRANCH   1  11
HETATM   11  N   UNL     1      -5.827   1.962 -31.727  1.00  0.00    -0.327 N 
HETATM   12  C   UNL     1      -5.868   0.591 -31.576  1.00  0.00     0.222 C 
HETATM   13  O   UNL     1      -6.530  -0.015 -30.735  1.00  0.00    -0.273 OA
HETATM   14  H   UNL     1      -5.096   2.337 -32.313  1.00  0.00     0.169 HD
BRANCH  12  15
HETATM   15  C   UNL     1      -5.075  -0.217 -32.599  1.00  0.00     0.112 C 
BRANCH  15  16
HETATM   16  C   UNL     1      -5.773  -0.693 -33.888  1.00  0.00     0.027 C 
BRANCH  16  17
HETATM   17  C   UNL     1      -7.276  -0.323 -33.892  1.00  0.00     0.005 C 
HETATM   18  C   UNL     1      -7.670   0.648 -34.997  1.00  0.00     0.006 C 
ENDBRANCH  16  17
BRANCH  16  19
HETATM   19  C   UNL     1      -5.642  -2.182 -34.174  1.00  0.00    -0.054 A 
HETATM   20  C   UNL     1      -4.440  -2.878 -33.984  1.00  0.00     0.007 A 
HETATM   21  C   UNL     1      -4.354  -4.241 -34.275  1.00  0.00     0.001 A 
HETATM   22  C   UNL     1      -5.471  -4.929 -34.744  1.00  0.00     0.000 A 
HETATM   23  C   UNL     1      -6.678  -4.256 -34.917  1.00  0.00     0.001 A 
HETATM   24  C   UNL     1      -6.764  -2.893 -34.632  1.00  0.00     0.007 A 
ENDBRANCH  16  19
ENDBRANCH  15  16
ENDBRANCH  12  15
ENDBRANCH   1  11
BRANCH   8  25
HETATM   25  C   UNL     1      -5.286   6.086 -27.715  1.00  0.00     0.270 C 
HETATM   26  N   UNL     1      -4.899   5.239 -26.712  1.00  0.00    -0.365 N 
HETATM   27  H   UNL     1      -5.484   4.440 -26.498  1.00  0.00     0.159 HD
HETATM   28  H   UNL     1      -4.034   5.408 -26.224  1.00  0.00     0.159 HD
HETATM   29  O   UNL     1      -4.602   7.054 -28.025  1.00  0.00    -0.266 OA
ENDBRANCH   8  25
TORSDOF 6
ENDMDL
MODEL 5
REMARK VINA RESULT:      -8.1      1.527      3.063
REMARK  6 active torsions:
REMARK  status: ('A' for Active; 'I' for Inactive)
REMARK    1  A    between atoms: C_2  and  C_3 
REMARK    2  A    between atoms: C_3  and  C_4 
REMARK    3  A    between atoms: C_3  and  C_10 
REMARK    4  A    between atoms: C_10  and  C_11 
REMARK       I    between atoms: C_11  and  N_12 
REMARK    5  A    between atoms: N_12  and  C_13 
REMARK    6  A    between atoms: C_20  and  C_21 
REMARK       I    between atoms: C_21  and  N_22 
ROOT
HETATM    1  C   UNL     1      -4.215   2.074 -32.341  1.00  0.00     0.035 A 
HETATM    2  C   UNL     1      -3.157   2.994 -32.341  1.00  0.00     0.046 A 
HETATM    3  C   UNL     1      -3.253   4.167 -31.562  1.00  0.00     0.030 A 
HETATM    4  C   UNL     1      -4.406   4.385 -30.818  1.00  0.00     0.063 A 
HETATM    5  N   UNL     1      -4.213   5.586 -30.196  1.00  0.00    -0.277 N 
HETATM    6  H   UNL     1      -4.856   6.066 -29.576  1.00  0.00     0.189 HD
HETATM    7  N   UNL     1      -3.029   6.165 -30.452  1.00  0.00    -0.168 NA
HETATM    8  C   UNL     1      -2.420   5.296 -31.293  1.00  0.00     0.156 A 
HETATM    9  C   UNL     1      -5.476   3.489 -30.791  1.00  0.00     0.034 A 
HETATM   10  C   UNL     1      -5.351   2.326 -31.561  1.00  0.00     0.032 A 
ENDROOT
BRANCH   1  11
HETATM   11  N   UNL     1      -4.203   0.870 -33.080  1.00  0.00    -0.327 N 
HETATM   12  C   UNL     1      -3.948  -0.398 -32.596  1.00  0.00     0.222 C 
HETATM   13  O   UNL     1      -3.658  -0.673 -31.433  1.00  0.00    -0.273 OA
HETATM   14  H   UNL     1      -4.227   0.981 -34.083  1.00  0.00     0.169 HD
BRANCH  12  15
HETATM   15  C   UNL     1      -4.123  -1.540 -33.593  1.00  0.00     0.112 C 
BRANCH  15  16
HETATM   16  C   UNL     1      -5.520  -2.157 -33.793  1.00  0.00     0.027 C 
BRANCH  16  17
HETATM   17  C   UNL     1      -5.557  -3.100 -35.019  1.00  0.00     0.005 C 
HETATM   18  C   UNL     1      -6.628  -4.180 -34.938  1.00  0.00     0.006 C 
ENDBRANCH  16  17
BRANCH  16  19
HETATM   19  C   UNL     1      -6.653  -1.149 -33.925  1.00  0.00    -0.054 A 
HETATM   20  C   UNL     1      -7.512  -0.843 -32.860  1.00  0.00     0.007 A 
HETATM   21  C   UNL     1      -8.551   0.075 -33.026  1.00  0.00     0.001 A 
HETATM   22  C   UNL     1      -8.736   0.709 -34.251  1.00  0.00     0.000 A 
HETATM   23  C   UNL     1      -7.879   0.432 -35.313  1.00  0.00     0.001 A 
HETATM   24  C   UNL     1      -6.843  -0.488 -35.151  1.00  0.00     0.007 A 
ENDBRANCH  16  19
ENDBRANCH  15  16
ENDBRANCH  12  15
ENDBRANCH   1  11
BRANCH   8  25
HETATM   25  C   UNL     1      -1.068   5.555 -31.809  1.00  0.00     0.270 C 
HETATM   26  N   UNL     1      -0.952   6.732 -32.499  1.00  0.00    -0.365 N 
HETATM   27  H   UNL     1      -1.769   7.323 -32.591  1.00  0.00     0.159 HD
HETATM   28  H   UNL     1      -0.058   7.000 -32.877  1.00  0.00     0.159 HD
HETATM   29  O   UNL     1      -0.103   4.816 -31.652  1.00  0.00    -0.266 OA
ENDBRANCH   8  25
TORSDOF 6
ENDMDL
MODEL 6
REMARK VINA RESULT:      -8.1      1.722      1.778
REMARK  6 active torsions:
REMARK  status: ('A' for Active; 'I' for Inactive)
REMARK    1  A    between atoms: C_2  and  C_3 
REMARK    2  A    between atoms: C_3  and  C_4 
REMARK    3  A    between atoms: C_3  and  C_10 
REMARK    4  A    between atoms: C_10  and  C_11 
REMARK       I    between atoms: C_11  and  N_12 
REMARK    5  A    between atoms: N_12  and  C_13 
REMARK    6  A    between atoms: C_20  and  C_21 
REMARK       I    between atoms: C_21  and  N_22 
ROOT
HETATM    1  C   UNL     1      -5.499   3.120 -31.503  1.00  0.00     0.035 A 
HETATM    2  C   UNL     1      -4.302   3.757 -31.855  1.00  0.00     0.046 A 
HETATM    3  C   UNL     1      -3.859   4.872 -31.111  1.00  0.00     0.030 A 
HETATM    4  C   UNL     1      -4.632   5.316 -30.046  1.00  0.00     0.063 A 
HETATM    5  N   UNL     1      -3.967   6.397 -29.542  1.00  0.00    -0.277 N 
HETATM    6  H   UNL     1      -4.246   6.980 -28.760  1.00  0.00     0.189 HD
HETATM    7  N   UNL     1      -2.817   6.688 -30.170  1.00  0.00    -0.168 NA
HETATM    8  C   UNL     1      -2.733   5.750 -31.142  1.00  0.00     0.156 A 
HETATM    9  C   UNL     1      -5.827   4.703 -29.663  1.00  0.00     0.034 A 
HETATM   10  C   UNL     1      -6.237   3.590 -30.409  1.00  0.00     0.032 A 
ENDROOT
BRANCH   1  11
HETATM   11  N   UNL     1      -6.014   1.992 -32.182  1.00  0.00    -0.327 N 
HETATM   12  C   UNL     1      -5.759   0.666 -31.899  1.00  0.00     0.222 C 
HETATM   13  O   UNL     1      -5.008   0.255 -31.016  1.00  0.00    -0.273 OA
HETATM   14  H   UNL     1      -6.483   2.194 -33.052  1.00  0.00     0.169 HD
BRANCH  12  15
HETATM   15  C   UNL     1      -6.547  -0.354 -32.716  1.00  0.00     0.112 C 
BRANCH  15  16
HETATM   16  C   UNL     1      -6.040  -0.751 -34.116  1.00  0.00     0.027 C 
BRANCH  16  17
HETATM   17  C   UNL     1      -7.019  -0.300 -35.226  1.00  0.00     0.005 C 
HETATM   18  C   UNL     1      -8.253   0.424 -34.706  1.00  0.00     0.006 C 
ENDBRANCH  16  17
BRANCH  16  19
HETATM   19  C   UNL     1      -5.758  -2.236 -34.296  1.00  0.00    -0.054 A 
HETATM   20  C   UNL     1      -6.729  -3.132 -34.766  1.00  0.00     0.007 A 
HETATM   21  C   UNL     1      -6.437  -4.491 -34.901  1.00  0.00     0.001 A 
HETATM   22  C   UNL     1      -5.168  -4.969 -34.584  1.00  0.00     0.000 A 
HETATM   23  C   UNL     1      -4.186  -4.089 -34.136  1.00  0.00     0.001 A 
HETATM   24  C   UNL     1      -4.477  -2.732 -33.996  1.00  0.00     0.007 A 
ENDBRANCH  16  19
ENDBRANCH  15  16
ENDBRANCH  12  15
ENDBRANCH   1  11
BRANCH   8  25
HETATM   25  C   UNL     1      -1.589   5.707 -32.064  1.00  0.00     0.270 C 
HETATM   26  N   UNL     1      -0.472   5.117 -31.538  1.00  0.00    -0.365 N 
HETATM   27  H   UNL     1      -0.513   4.755 -30.593  1.00  0.00     0.159 HD
HETATM   28  H   UNL     1       0.358   5.031 -32.103  1.00  0.00     0.159 HD
HETATM   29  O   UNL     1      -1.595   6.142 -33.210  1.00  0.00    -0.266 OA
ENDBRANCH   8  25
TORSDOF 6
ENDMDL
MODEL 7
REMARK VINA RESULT:      -8.0      5.066      7.712
REMARK  6 active torsions:
REMARK  status: ('A' for Active; 'I' for Inactive)
REMARK    1  A    between atoms: C_2  and  C_3 
REMARK    2  A    between atoms: C_3  and  C_4 
REMARK    3  A    between atoms: C_3  and  C_10 
REMARK    4  A    between atoms: C_10  and  C_11 
REMARK       I    between atoms: C_11  and  N_12 
REMARK    5  A    between atoms: N_12  and  C_13 
REMARK    6  A    between atoms: C_20  and  C_21 
REMARK       I    between atoms: C_21  and  N_22 
ROOT
HETATM    1  C   UNL     1      -9.227   0.784 -32.922  1.00  0.00     0.035 A 
HETATM    2  C   UNL     1     -10.530   1.024 -33.380  1.00  0.00     0.046 A 
HETATM    3  C   UNL     1     -11.144   2.268 -33.117  1.00  0.00     0.030 A 
HETATM    4  C   UNL     1     -10.439   3.224 -32.397  1.00  0.00     0.063 A 
HETATM    5  N   UNL     1     -11.284   4.293 -32.291  1.00  0.00    -0.277 N 
HETATM    6  H   UNL     1     -11.105   5.172 -31.819  1.00  0.00     0.189 HD
HETATM    7  N   UNL     1     -12.473   4.127 -32.893  1.00  0.00    -0.168 NA
HETATM    8  C   UNL     1     -12.400   2.880 -33.413  1.00  0.00     0.156 A 
HETATM    9  C   UNL     1      -9.139   3.022 -31.930  1.00  0.00     0.034 A 
HETATM   10  C   UNL     1      -8.547   1.785 -32.217  1.00  0.00     0.032 A 
ENDROOT
BRANCH   1  11
HETATM   11  N   UNL     1      -8.530  -0.424 -33.148  1.00  0.00    -0.327 N 
HETATM   12  C   UNL     1      -7.847  -0.786 -34.291  1.00  0.00     0.222 C 
HETATM   13  O   UNL     1      -7.764  -0.113 -35.317  1.00  0.00    -0.273 OA
HETATM   14  H   UNL     1      -8.689  -1.146 -32.461  1.00  0.00     0.169 HD
BRANCH  12  15
HETATM   15  C   UNL     1      -7.076  -2.101 -34.219  1.00  0.00     0.112 C 
BRANCH  15  16
HETATM   16  C   UNL     1      -5.572  -2.112 -34.554  1.00  0.00     0.027 C 
BRANCH  16  17
HETATM   17  C   UNL     1      -5.072  -3.539 -34.882  1.00  0.00     0.005 C 
HETATM   18  C   UNL     1      -6.180  -4.508 -35.273  1.00  0.00     0.006 C 
ENDBRANCH  16  17
BRANCH  16  19
HETATM   19  C   UNL     1      -4.672  -1.521 -33.478  1.00  0.00    -0.054 A 
HETATM   20  C   UNL     1      -3.746  -2.298 -32.767  1.00  0.00     0.007 A 
HETATM   21  C   UNL     1      -2.950  -1.723 -31.774  1.00  0.00     0.001 A 
HETATM   22  C   UNL     1      -3.057  -0.363 -31.491  1.00  0.00     0.000 A 
HETATM   23  C   UNL     1      -3.957   0.426 -32.202  1.00  0.00     0.001 A 
HETATM   24  C   UNL     1      -4.757  -0.148 -33.191  1.00  0.00     0.007 A 
ENDBRANCH  16  19
ENDBRANCH  15  16
ENDBRANCH  12  15
ENDBRANCH   1  11
BRANCH   8  25
HETATM   25  C   UNL     1     -13.516   2.308 -34.181  1.00  0.00     0.270 C 
HETATM   26  N   UNL     1     -14.705   2.289 -33.504  1.00  0.00    -0.365 N 
HETATM   27  H   UNL     1     -14.735   2.665 -32.564  1.00  0.00     0.159 HD
HETATM   28  H   UNL     1     -15.530   1.928 -33.957  1.00  0.00     0.159 HD
HETATM   29  O   UNL     1     -13.434   1.885 -35.328  1.00  0.00    -0.266 OA
ENDBRANCH   8  25
TORSDOF 6
ENDMDL
MODEL 8
REMARK VINA RESULT:      -8.0      3.009      7.946
REMARK  6 active torsions:
REMARK  status: ('A' for Active; 'I' for Inactive)
REMARK    1  A    between atoms: C_2  and  C_3 
REMARK    2  A    between atoms: C_3  and  C_4 
REMARK    3  A    between atoms: C_3  and  C_10 
REMARK    4  A    between atoms: C_10  and  C_11 
REMARK       I    between atoms: C_11  and  N_12 
REMARK    5  A    between atoms: N_12  and  C_13 
REMARK    6  A    between atoms: C_20  and  C_21 
REMARK       I    between atoms: C_21  and  N_22 
ROOT
HETATM    1  C   UNL     1      -5.304   0.113 -33.335  1.00  0.00     0.035 A 
HETATM    2  C   UNL     1      -4.647  -1.118 -33.195  1.00  0.00     0.046 A 
HETATM    3  C   UNL     1      -5.117  -2.244 -33.904  1.00  0.00     0.030 A 
HETATM    4  C   UNL     1      -6.231  -2.104 -34.721  1.00  0.00     0.063 A 
HETATM    5  N   UNL     1      -6.450  -3.345 -35.250  1.00  0.00    -0.277 N 
HETATM    6  H   UNL     1      -7.190  -3.618 -35.888  1.00  0.00     0.189 HD
HETATM    7  N   UNL     1      -5.567  -4.280 -34.866  1.00  0.00    -0.168 NA
HETATM    8  C   UNL     1      -4.731  -3.613 -34.036  1.00  0.00     0.156 A 
HETATM    9  C   UNL     1      -6.907  -0.894 -34.888  1.00  0.00     0.034 A 
HETATM   10  C   UNL     1      -6.412   0.212 -34.185  1.00  0.00     0.032 A 
ENDROOT
BRANCH   1  11
HETATM   11  N   UNL     1      -4.898   1.294 -32.674  1.00  0.00    -0.327 N 
HETATM   12  C   UNL     1      -5.409   1.804 -31.498  1.00  0.00     0.222 C 
HETATM   13  O   UNL     1      -6.332   1.315 -30.849  1.00  0.00    -0.273 OA
HETATM   14  H   UNL     1      -4.286   1.895 -33.207  1.00  0.00     0.169 HD
BRANCH  12  15
HETATM   15  C   UNL     1      -4.698   3.035 -30.941  1.00  0.00     0.112 C 
BRANCH  15  16
HETATM   16  C   UNL     1      -4.894   4.396 -31.635  1.00  0.00     0.027 C 
BRANCH  16  17
HETATM   17  C   UNL     1      -6.345   4.574 -32.141  1.00  0.00     0.005 C 
HETATM   18  C   UNL     1      -7.327   5.016 -31.064  1.00  0.00     0.006 C 
ENDBRANCH  16  17
BRANCH  16  19
HETATM   19  C   UNL     1      -3.943   4.668 -32.791  1.00  0.00    -0.054 A 
HETATM   20  C   UNL     1      -2.550   4.593 -32.649  1.00  0.00     0.007 A 
HETATM   21  C   UNL     1      -1.709   4.867 -33.729  1.00  0.00     0.001 A 
HETATM   22  C   UNL     1      -2.248   5.204 -34.968  1.00  0.00     0.000 A 
HETATM   23  C   UNL     1      -3.630   5.264 -35.131  1.00  0.00     0.001 A 
HETATM   24  C   UNL     1      -4.471   4.995 -34.052  1.00  0.00     0.007 A 
ENDBRANCH  16  19
ENDBRANCH  15  16
ENDBRANCH  12  15
ENDBRANCH   1  11
BRANCH   8  25
HETATM   25  C   UNL     1      -3.590  -4.288 -33.400  1.00  0.00     0.270 C 
HETATM   26  N   UNL     1      -3.111  -5.357 -34.107  1.00  0.00    -0.365 N 
HETATM   27  H   UNL     1      -3.550  -5.592 -34.989  1.00  0.00     0.159 HD
HETATM   28  H   UNL     1      -2.321  -5.873 -33.754  1.00  0.00     0.159 HD
HETATM   29  O   UNL     1      -3.080  -3.951 -32.338  1.00  0.00    -0.266 OA
ENDBRANCH   8  25
TORSDOF 6
ENDMDL
MODEL 9
REMARK VINA RESULT:      -7.9      5.344      7.629
REMARK  6 active torsions:
REMARK  status: ('A' for Active; 'I' for Inactive)
REMARK    1  A    between atoms: C_2  and  C_3 
REMARK    2  A    between atoms: C_3  and  C_4 
REMARK    3  A    between atoms: C_3  and  C_10 
REMARK    4  A    between atoms: C_10  and  C_11 
REMARK       I    between atoms: C_11  and  N_12 
REMARK    5  A    between atoms: N_12  and  C_13 
REMARK    6  A    between atoms: C_20  and  C_21 
REMARK       I    between atoms: C_21  and  N_22 
ROOT
HETATM    1  C   UNL     1     -10.918   1.919 -34.271  1.00  0.00     0.035 A 
HETATM    2  C   UNL     1     -11.046   3.013 -33.404  1.00  0.00     0.046 A 
HETATM    3  C   UNL     1     -12.329   3.521 -33.105  1.00  0.00     0.030 A 
HETATM    4  C   UNL     1     -13.438   2.925 -33.690  1.00  0.00     0.063 A 
HETATM    5  N   UNL     1     -14.513   3.632 -33.232  1.00  0.00    -0.277 N 
HETATM    6  H   UNL     1     -15.490   3.481 -33.460  1.00  0.00     0.189 HD
HETATM    7  N   UNL     1     -14.207   4.627 -32.385  1.00  0.00    -0.168 NA
HETATM    8  C   UNL     1     -12.858   4.569 -32.292  1.00  0.00     0.156 A 
HETATM    9  C   UNL     1     -13.349   1.831 -34.554  1.00  0.00     0.034 A 
HETATM   10  C   UNL     1     -12.066   1.337 -34.823  1.00  0.00     0.032 A 
ENDROOT
BRANCH   1  11
HETATM   11  N   UNL     1      -9.678   1.337 -34.617  1.00  0.00    -0.327 N 
HETATM   12  C   UNL     1      -9.000   0.355 -33.925  1.00  0.00     0.222 C 
HETATM   13  O   UNL     1      -9.364  -0.152 -32.865  1.00  0.00    -0.273 OA
HETATM   14  H   UNL     1      -9.176   1.806 -35.357  1.00  0.00     0.169 HD
BRANCH  12  15
HETATM   15  C   UNL     1      -7.737  -0.181 -34.592  1.00  0.00     0.112 C 
BRANCH  15  16
HETATM   16  C   UNL     1      -6.590  -0.716 -33.714  1.00  0.00     0.027 C 
BRANCH  16  17
HETATM   17  C   UNL     1      -5.382   0.250 -33.704  1.00  0.00     0.005 C 
HETATM   18  C   UNL     1      -5.459   1.324 -32.627  1.00  0.00     0.006 C 
ENDBRANCH  16  17
BRANCH  16  19
HETATM   19  C   UNL     1      -6.093  -2.106 -34.087  1.00  0.00    -0.054 A 
HETATM   20  C   UNL     1      -4.744  -2.474 -33.975  1.00  0.00     0.007 A 
HETATM   21  C   UNL     1      -4.324  -3.753 -34.343  1.00  0.00     0.001 A 
HETATM   22  C   UNL     1      -5.246  -4.685 -34.815  1.00  0.00     0.000 A 
HETATM   23  C   UNL     1      -6.591  -4.342 -34.913  1.00  0.00     0.001 A 
HETATM   24  C   UNL     1      -7.013  -3.062 -34.549  1.00  0.00     0.007 A 
ENDBRANCH  16  19
ENDBRANCH  15  16
ENDBRANCH  12  15
ENDBRANCH   1  11
BRANCH   8  25
HETATM   25  C   UNL     1     -12.112   5.499 -31.431  1.00  0.00     0.270 C 
HETATM   26  N   UNL     1     -11.873   5.022 -30.171  1.00  0.00    -0.365 N 
HETATM   27  H   UNL     1     -12.202   4.094 -29.933  1.00  0.00     0.159 HD
HETATM   28  H   UNL     1     -11.356   5.585 -29.516  1.00  0.00     0.159 HD
HETATM   29  O   UNL     1     -11.716   6.607 -31.775  1.00  0.00    -0.266 OA
ENDBRANCH   8  25
TORSDOF 6
ENDMDL
MODEL 10
REMARK VINA RESULT:      -7.9      2.118      2.997
REMARK  6 active torsions:
REMARK  status: ('A' for Active; 'I' for Inactive)
REMARK    1  A    between atoms: C_2  and  C_3 
REMARK    2  A    between atoms: C_3  and  C_4 
REMARK    3  A    between atoms: C_3  and  C_10 
REMARK    4  A    between atoms: C_10  and  C_11 
REMARK       I    between atoms: C_11  and  N_12 
REMARK    5  A    between atoms: N_12  and  C_13 
REMARK    6  A    between atoms: C_20  and  C_21 
REMARK       I    between atoms: C_21  and  N_22 
ROOT
HETATM    1  C   UNL     1      -3.290   3.539 -32.557  1.00  0.00     0.035 A 
HETATM    2  C   UNL     1      -2.355   4.435 -32.021  1.00  0.00     0.046 A 
HETATM    3  C   UNL     1      -2.082   5.646 -32.694  1.00  0.00     0.030 A 
HETATM    4  C   UNL     1      -2.747   5.915 -33.884  1.00  0.00     0.063 A 
HETATM    5  N   UNL     1      -2.271   7.127 -34.298  1.00  0.00    -0.277 N 
HETATM    6  H   UNL     1      -2.529   7.633 -35.139  1.00  0.00     0.189 HD
HETATM    7  N   UNL     1      -1.368   7.683 -33.476  1.00  0.00    -0.168 NA
HETATM    8  C   UNL     1      -1.244   6.781 -32.475  1.00  0.00     0.156 A 
HETATM    9  C   UNL     1      -3.688   5.049 -34.444  1.00  0.00     0.034 A 
HETATM   10  C   UNL     1      -3.950   3.861 -33.750  1.00  0.00     0.032 A 
ENDROOT
BRANCH   1  11
HETATM   11  N   UNL     1      -3.634   2.312 -31.948  1.00  0.00    -0.327 N 
HETATM   12  C   UNL     1      -4.839   1.987 -31.359  1.00  0.00     0.222 C 
HETATM   13  O   UNL     1      -5.804   2.740 -31.246  1.00  0.00    -0.273 OA
HETATM   14  H   UNL     1      -2.863   1.678 -31.795  1.00  0.00     0.169 HD
BRANCH  12  15
HETATM   15  C   UNL     1      -4.982   0.543 -30.887  1.00  0.00     0.112 C 
BRANCH  15  16
HETATM   16  C   UNL     1      -5.315  -0.556 -31.914  1.00  0.00     0.027 C 
BRANCH  16  17
HETATM   17  C   UNL     1      -4.060  -0.997 -32.705  1.00  0.00     0.005 C 
HETATM   18  C   UNL     1      -2.825  -1.201 -31.839  1.00  0.00     0.006 C 
ENDBRANCH  16  17
BRANCH  16  19
HETATM   19  C   UNL     1      -6.408  -0.192 -32.909  1.00  0.00    -0.054 A 
HETATM   20  C   UNL     1      -7.735   0.034 -32.515  1.00  0.00     0.007 A 
HETATM   21  C   UNL     1      -8.714   0.349 -33.460  1.00  0.00     0.001 A 
HETATM   22  C   UNL     1      -8.378   0.456 -34.807  1.00  0.00     0.000 A 
HETATM   23  C   UNL     1      -7.061   0.255 -35.212  1.00  0.00     0.001 A 
HETATM   24  C   UNL     1      -6.082  -0.064 -34.270  1.00  0.00     0.007 A 
ENDBRANCH  16  19
ENDBRANCH  15  16
ENDBRANCH  12  15
ENDBRANCH   1  11
BRANCH   8  25
HETATM   25  C   UNL     1      -0.342   7.022 -31.339  1.00  0.00     0.270 C 
HETATM   26  N   UNL     1      -0.963   7.541 -30.236  1.00  0.00    -0.365 N 
HETATM   27  H   UNL     1      -1.962   7.705 -30.273  1.00  0.00     0.159 HD
HETATM   28  H   UNL     1      -0.426   7.726 -29.403  1.00  0.00     0.159 HD
HETATM   29  O   UNL     1       0.861   6.786 -31.336  1.00  0.00    -0.266 OA
ENDBRANCH   8  25
TORSDOF 6
ENDMDL
