MODEL 1
REMARK VINA RESULT:      -9.6      0.000      0.000
REMARK  3 active torsions:
REMARK  status: ('A' for Active; 'I' for Inactive)
REMARK    1  A    between atoms: C_8  and  C_9 
REMARK    2  A    between atoms: C_12  and  C_13 
REMARK    3  A    between atoms: C_24  and  N_25 
ROOT
HETATM    1  C   UNL     1      -3.350   2.603 -31.631  1.00  0.00     0.073 C 
HETATM    2  C   UNL     1      -3.988   3.644 -32.473  1.00  0.00     0.062 A 
HETATM    3  N   UNL     1      -3.238   4.589 -33.066  1.00  0.00    -0.177 NA
HETATM    4  N   UNL     1      -4.127   5.344 -33.743  1.00  0.00    -0.256 N 
HETATM    5  H   UNL     1      -3.791   6.140 -34.273  1.00  0.00     0.191 HD
HETATM    6  C   UNL     1      -5.404   4.908 -33.598  1.00  0.00     0.175 A 
HETATM    7  C   UNL     1      -5.359   3.804 -32.788  1.00  0.00     0.034 A 
HETATM    8  C   UNL     1      -6.618   3.098 -32.422  1.00  0.00     0.105 A 
HETATM    9  C   UNL     1      -7.827   3.802 -33.044  1.00  0.00     0.080 A 
HETATM   10  C   UNL     1      -9.109   3.274 -32.713  1.00  0.00     0.100 C 
HETATM   11  N   UNL     1     -10.154   2.846 -32.448  1.00  0.00    -0.191 NA
HETATM   12  C   UNL     1      -7.715   4.905 -33.835  1.00  0.00     0.140 A 
HETATM   13  O   UNL     1      -6.468   5.476 -34.150  1.00  0.00    -0.279 OA
ENDROOT
BRANCH   8  14
HETATM   14  C   UNL     1      -6.440   1.659 -32.888  1.00  0.00    -0.044 A 
HETATM   15  C   UNL     1      -6.214   0.649 -31.940  1.00  0.00     0.009 A 
HETATM   16  C   UNL     1      -6.016  -0.677 -32.338  1.00  0.00     0.013 A 
HETATM   17  C   UNL     1      -6.045  -1.041 -33.694  1.00  0.00    -0.026 A 
HETATM   18  C   UNL     1      -6.295  -0.032 -34.636  1.00  0.00     0.013 A 
HETATM   19  C   UNL     1      -6.492   1.296 -34.243  1.00  0.00     0.009 A 
BRANCH  17  20
HETATM   20  C   UNL     1      -5.803  -2.434 -34.112  1.00  0.00    -0.026 A 
HETATM   21  C   UNL     1      -6.815  -3.197 -34.721  1.00  0.00     0.012 A 
HETATM   22  C   UNL     1      -6.587  -4.522 -35.103  1.00  0.00     0.001 A 
HETATM   23  C   UNL     1      -5.343  -5.108 -34.885  1.00  0.00     0.000 A 
HETATM   24  C   UNL     1      -4.326  -4.369 -34.286  1.00  0.00     0.001 A 
HETATM   25  C   UNL     1      -4.555  -3.045 -33.903  1.00  0.00     0.012 A 
ENDBRANCH  17  20
ENDBRANCH   8  14
BRANCH  12  26
HETATM   26  N   UNL     1      -8.766   5.586 -34.408  1.00  0.00    -0.282 NA
HETATM   27  H   UNL     1      -8.535   6.485 -34.824  1.00  0.00     0.126 HD
HETATM   28  H   UNL     1      -9.577   5.625 -33.794  1.00  0.00     0.126 HD
ENDBRANCH  12  26
TORSDOF 3
ENDMDL
MODEL 2
REMARK VINA RESULT:      -9.3      1.921      3.450
REMARK  3 active torsions:
REMARK  status: ('A' for Active; 'I' for Inactive)
REMARK    1  A    between atoms: C_8  and  C_9 
REMARK    2  A    between atoms: C_12  and  C_13 
REMARK    3  A    between atoms: C_24  and  N_25 
ROOT
HETATM    1  C   UNL     1      -8.828   2.448 -31.097  1.00  0.00     0.073 C 
HETATM    2  C   UNL     1      -7.706   3.302 -30.637  1.00  0.00     0.062 A 
HETATM    3  N   UNL     1      -7.601   3.642 -29.341  1.00  0.00    -0.177 NA
HETATM    4  N   UNL     1      -6.485   4.397 -29.283  1.00  0.00    -0.256 N 
HETATM    5  H   UNL     1      -6.200   4.783 -28.390  1.00  0.00     0.191 HD
HETATM    6  C   UNL     1      -5.887   4.543 -30.492  1.00  0.00     0.175 A 
HETATM    7  C   UNL     1      -6.641   3.843 -31.398  1.00  0.00     0.034 A 
HETATM    8  C   UNL     1      -6.250   3.822 -32.834  1.00  0.00     0.105 A 
HETATM    9  C   UNL     1      -4.996   4.671 -33.060  1.00  0.00     0.080 A 
HETATM   10  C   UNL     1      -4.552   4.802 -34.408  1.00  0.00     0.100 C 
HETATM   11  N   UNL     1      -4.185   4.909 -35.503  1.00  0.00    -0.191 NA
HETATM   12  C   UNL     1      -4.349   5.318 -32.051  1.00  0.00     0.140 A 
HETATM   13  O   UNL     1      -4.783   5.244 -30.715  1.00  0.00    -0.279 OA
ENDROOT
BRANCH   8  14
HETATM   14  C   UNL     1      -6.070   2.354 -33.197  1.00  0.00    -0.044 A 
HETATM   15  C   UNL     1      -6.885   1.783 -34.186  1.00  0.00     0.009 A 
HETATM   16  C   UNL     1      -6.764   0.430 -34.520  1.00  0.00     0.013 A 
HETATM   17  C   UNL     1      -5.824  -0.395 -33.883  1.00  0.00    -0.026 A 
HETATM   18  C   UNL     1      -4.996   0.186 -32.911  1.00  0.00     0.013 A 
HETATM   19  C   UNL     1      -5.113   1.539 -32.573  1.00  0.00     0.009 A 
BRANCH  17  20
HETATM   20  C   UNL     1      -5.723  -1.829 -34.214  1.00  0.00    -0.026 A 
HETATM   21  C   UNL     1      -6.851  -2.565 -34.612  1.00  0.00     0.012 A 
HETATM   22  C   UNL     1      -6.754  -3.928 -34.912  1.00  0.00     0.001 A 
HETATM   23  C   UNL     1      -5.526  -4.577 -34.819  1.00  0.00     0.000 A 
HETATM   24  C   UNL     1      -4.395  -3.866 -34.429  1.00  0.00     0.001 A 
HETATM   25  C   UNL     1      -4.493  -2.504 -34.129  1.00  0.00     0.012 A 
ENDBRANCH  17  20
ENDBRANCH   8  14
BRANCH  12  26
HETATM   26  N   UNL     1      -3.228   6.105 -32.198  1.00  0.00    -0.282 NA
HETATM   27  H   UNL     1      -3.211   6.699 -33.024  1.00  0.00     0.126 HD
HETATM   28  H   UNL     1      -2.369   5.575 -32.068  1.00  0.00     0.126 HD
ENDBRANCH  12  26
TORSDOF 3
ENDMDL
MODEL 3
REMARK VINA RESULT:      -9.3      1.678      3.682
REMARK  3 active torsions:
REMARK  status: ('A' for Active; 'I' for Inactive)
REMARK    1  A    between atoms: C_8  and  C_9 
REMARK    2  A    between atoms: C_12  and  C_13 
REMARK    3  A    between atoms: C_24  and  N_25 
ROOT
HETATM    1  C   UNL     1     -10.148   1.766 -32.600  1.00  0.00     0.073 C 
HETATM    2  C   UNL     1      -9.349   2.743 -31.821  1.00  0.00     0.062 A 
HETATM    3  N   UNL     1      -9.738   3.105 -30.587  1.00  0.00    -0.177 NA
HETATM    4  N   UNL     1      -8.794   3.979 -30.182  1.00  0.00    -0.256 N 
HETATM    5  H   UNL     1      -8.879   4.403 -29.265  1.00  0.00     0.191 HD
HETATM    6  C   UNL     1      -7.829   4.177 -31.115  1.00  0.00     0.175 A 
HETATM    7  C   UNL     1      -8.145   3.390 -32.191  1.00  0.00     0.034 A 
HETATM    8  C   UNL     1      -7.276   3.398 -33.400  1.00  0.00     0.105 A 
HETATM    9  C   UNL     1      -6.114   4.377 -33.218  1.00  0.00     0.080 A 
HETATM   10  C   UNL     1      -5.241   4.543 -34.332  1.00  0.00     0.100 C 
HETATM   11  N   UNL     1      -4.527   4.678 -35.237  1.00  0.00    -0.191 NA
HETATM   12  C   UNL     1      -5.928   5.102 -32.079  1.00  0.00     0.140 A 
HETATM   13  O   UNL     1      -6.792   4.993 -30.974  1.00  0.00    -0.279 OA
ENDROOT
BRANCH   8  14
HETATM   14  C   UNL     1      -6.836   1.955 -33.607  1.00  0.00    -0.044 A 
HETATM   15  C   UNL     1      -7.252   1.265 -34.756  1.00  0.00     0.009 A 
HETATM   16  C   UNL     1      -6.889  -0.071 -34.959  1.00  0.00     0.013 A 
HETATM   17  C   UNL     1      -6.094  -0.759 -34.029  1.00  0.00    -0.026 A 
HETATM   18  C   UNL     1      -5.661  -0.057 -32.894  1.00  0.00     0.013 A 
HETATM   19  C   UNL     1      -6.022   1.279 -32.685  1.00  0.00     0.009 A 
BRANCH  17  20
HETATM   20  C   UNL     1      -5.741  -2.176 -34.231  1.00  0.00    -0.026 A 
HETATM   21  C   UNL     1      -4.456  -2.657 -33.927  1.00  0.00     0.012 A 
HETATM   22  C   UNL     1      -4.120  -3.998 -34.133  1.00  0.00     0.001 A 
HETATM   23  C   UNL     1      -5.065  -4.883 -34.647  1.00  0.00     0.000 A 
HETATM   24  C   UNL     1      -6.344  -4.428 -34.952  1.00  0.00     0.001 A 
HETATM   25  C   UNL     1      -6.679  -3.087 -34.747  1.00  0.00     0.012 A 
ENDBRANCH  17  20
ENDBRANCH   8  14
BRANCH  12  26
HETATM   26  N   UNL     1      -4.911   6.006 -31.866  1.00  0.00    -0.282 NA
HETATM   27  H   UNL     1      -4.867   6.408 -30.932  1.00  0.00     0.126 HD
HETATM   28  H   UNL     1      -4.856   6.702 -32.605  1.00  0.00     0.126 HD
ENDBRANCH  12  26
TORSDOF 3
ENDMDL
MODEL 4
REMARK VINA RESULT:      -9.3      1.776      3.884
REMARK  3 active torsions:
REMARK  status: ('A' for Active; 'I' for Inactive)
REMARK    1  A    between atoms: C_8  and  C_9 
REMARK    2  A    between atoms: C_12  and  C_13 
REMARK    3  A    between atoms: C_24  and  N_25 
ROOT
HETATM    1  C   UNL     1      -9.705   2.637 -33.784  1.00  0.00     0.073 C 
HETATM    2  C   UNL     1      -9.407   3.037 -32.387  1.00  0.00     0.062 A 
HETATM    3  N   UNL     1     -10.408   3.255 -31.517  1.00  0.00    -0.177 NA
HETATM    4  N   UNL     1      -9.784   3.584 -30.368  1.00  0.00    -0.256 N 
HETATM    5  H   UNL     1     -10.344   3.805 -29.552  1.00  0.00     0.191 HD
HETATM    6  C   UNL     1      -8.432   3.578 -30.484  1.00  0.00     0.175 A 
HETATM    7  C   UNL     1      -8.144   3.222 -31.775  1.00  0.00     0.034 A 
HETATM    8  C   UNL     1      -6.727   3.142 -32.226  1.00  0.00     0.105 A 
HETATM    9  C   UNL     1      -5.780   3.526 -31.087  1.00  0.00     0.080 A 
HETATM   10  C   UNL     1      -4.390   3.566 -31.402  1.00  0.00     0.100 C 
HETATM   11  N   UNL     1      -3.258   3.597 -31.654  1.00  0.00    -0.191 NA
HETATM   12  C   UNL     1      -6.218   3.864 -29.842  1.00  0.00     0.140 A 
HETATM   13  O   UNL     1      -7.584   3.874 -29.508  1.00  0.00    -0.279 OA
ENDROOT
BRANCH   8  14
HETATM   14  C   UNL     1      -6.531   1.721 -32.735  1.00  0.00    -0.044 A 
HETATM   15  C   UNL     1      -6.384   0.672 -31.814  1.00  0.00     0.009 A 
HETATM   16  C   UNL     1      -6.171  -0.640 -32.251  1.00  0.00     0.013 A 
HETATM   17  C   UNL     1      -6.105  -0.950 -33.618  1.00  0.00    -0.026 A 
HETATM   18  C   UNL     1      -6.276   0.097 -34.535  1.00  0.00     0.013 A 
HETATM   19  C   UNL     1      -6.488   1.412 -34.104  1.00  0.00     0.009 A 
BRANCH  17  20
HETATM   20  C   UNL     1      -5.848  -2.329 -34.074  1.00  0.00    -0.026 A 
HETATM   21  C   UNL     1      -6.868  -3.108 -34.645  1.00  0.00     0.012 A 
HETATM   22  C   UNL     1      -6.625  -4.420 -35.063  1.00  0.00     0.001 A 
HETATM   23  C   UNL     1      -5.357  -4.976 -34.917  1.00  0.00     0.000 A 
HETATM   24  C   UNL     1      -4.331  -4.220 -34.355  1.00  0.00     0.001 A 
HETATM   25  C   UNL     1      -4.576  -2.909 -33.937  1.00  0.00     0.012 A 
ENDBRANCH  17  20
ENDBRANCH   8  14
BRANCH  12  26
HETATM   26  N   UNL     1      -5.414   4.230 -28.786  1.00  0.00    -0.282 NA
HETATM   27  H   UNL     1      -4.466   3.861 -28.805  1.00  0.00     0.126 HD
HETATM   28  H   UNL     1      -5.876   4.100 -27.889  1.00  0.00     0.126 HD
ENDBRANCH  12  26
TORSDOF 3
ENDMDL
MODEL 5
REMARK VINA RESULT:      -9.1      1.259      2.035
REMARK  3 active torsions:
REMARK  status: ('A' for Active; 'I' for Inactive)
REMARK    1  A    between atoms: C_8  and  C_9 
REMARK    2  A    between atoms: C_12  and  C_13 
REMARK    3  A    between atoms: C_24  and  N_25 
ROOT
HETATM    1  C   UNL     1      -5.258   3.301 -31.285  1.00  0.00     0.073 C 
HETATM    2  C   UNL     1      -5.946   4.145 -32.292  1.00  0.00     0.062 A 
HETATM    3  N   UNL     1      -5.343   5.242 -32.782  1.00  0.00    -0.177 NA
HETATM    4  N   UNL     1      -6.234   5.747 -33.659  1.00  0.00    -0.256 N 
HETATM    5  H   UNL     1      -6.000   6.598 -34.159  1.00  0.00     0.191 HD
HETATM    6  C   UNL     1      -7.369   5.009 -33.739  1.00  0.00     0.175 A 
HETATM    7  C   UNL     1      -7.223   3.956 -32.874  1.00  0.00     0.034 A 
HETATM    8  C   UNL     1      -8.320   2.962 -32.719  1.00  0.00     0.105 A 
HETATM    9  C   UNL     1      -9.513   3.339 -33.601  1.00  0.00     0.080 A 
HETATM   10  C   UNL     1     -10.669   2.512 -33.495  1.00  0.00     0.100 C 
HETATM   11  N   UNL     1     -11.611   1.839 -33.413  1.00  0.00    -0.191 NA
HETATM   12  C   UNL     1      -9.515   4.430 -34.417  1.00  0.00     0.140 A 
HETATM   13  O   UNL     1      -8.406   5.290 -34.517  1.00  0.00    -0.279 OA
ENDROOT
BRANCH   8  14
HETATM   14  C   UNL     1      -7.709   1.609 -33.059  1.00  0.00    -0.044 A 
HETATM   15  C   UNL     1      -7.351   1.327 -34.386  1.00  0.00     0.009 A 
HETATM   16  C   UNL     1      -6.816   0.082 -34.734  1.00  0.00     0.013 A 
HETATM   17  C   UNL     1      -6.615  -0.919 -33.770  1.00  0.00    -0.026 A 
HETATM   18  C   UNL     1      -6.952  -0.623 -32.441  1.00  0.00     0.013 A 
HETATM   19  C   UNL     1      -7.488   0.620 -32.087  1.00  0.00     0.009 A 
BRANCH  17  20
HETATM   20  C   UNL     1      -6.082  -2.241 -34.146  1.00  0.00    -0.026 A 
HETATM   21  C   UNL     1      -4.720  -2.549 -33.986  1.00  0.00     0.012 A 
HETATM   22  C   UNL     1      -4.215  -3.799 -34.357  1.00  0.00     0.001 A 
HETATM   23  C   UNL     1      -5.063  -4.763 -34.896  1.00  0.00     0.000 A 
HETATM   24  C   UNL     1      -6.416  -4.479 -35.061  1.00  0.00     0.001 A 
HETATM   25  C   UNL     1      -6.920  -3.229 -34.690  1.00  0.00     0.012 A 
ENDBRANCH  17  20
ENDBRANCH   8  14
BRANCH  12  26
HETATM   26  N   UNL     1     -10.562   4.824 -35.220  1.00  0.00    -0.282 NA
HETATM   27  H   UNL     1     -10.581   5.810 -35.467  1.00  0.00     0.126 HD
HETATM   28  H   UNL     1     -11.456   4.478 -34.880  1.00  0.00     0.126 HD
ENDBRANCH  12  26
TORSDOF 3
ENDMDL
MODEL 6
REMARK VINA RESULT:      -8.6      2.347      3.756
REMARK  3 active torsions:
REMARK  status: ('A' for Active; 'I' for Inactive)
REMARK    1  A    between atoms: C_8  and  C_9 
REMARK    2  A    between atoms: C_12  and  C_13 
REMARK    3  A    between atoms: C_24  and  N_25 
ROOT
HETATM    1  C   UNL     1      -8.172   3.679 -30.365  1.00  0.00     0.073 C 
HETATM    2  C   UNL     1      -6.902   4.361 -30.015  1.00  0.00     0.062 A 
HETATM    3  N   UNL     1      -6.626   4.661 -28.734  1.00  0.00    -0.177 NA
HETATM    4  N   UNL     1      -5.416   5.253 -28.784  1.00  0.00    -0.256 N 
HETATM    5  H   UNL     1      -4.994   5.580 -27.922  1.00  0.00     0.191 HD
HETATM    6  C   UNL     1      -4.923   5.335 -30.046  1.00  0.00     0.175 A 
HETATM    7  C   UNL     1      -5.852   4.763 -30.875  1.00  0.00     0.034 A 
HETATM    8  C   UNL     1      -5.609   4.713 -32.343  1.00  0.00     0.105 A 
HETATM    9  C   UNL     1      -4.277   5.384 -32.688  1.00  0.00     0.080 A 
HETATM   10  C   UNL     1      -3.952   5.475 -34.073  1.00  0.00     0.100 C 
HETATM   11  N   UNL     1      -3.682   5.550 -35.199  1.00  0.00    -0.191 NA
HETATM   12  C   UNL     1      -3.451   5.918 -31.746  1.00  0.00     0.140 A 
HETATM   13  O   UNL     1      -3.759   5.881 -30.374  1.00  0.00    -0.279 OA
ENDROOT
BRANCH   8  14
HETATM   14  C   UNL     1      -5.672   3.241 -32.727  1.00  0.00    -0.044 A 
HETATM   15  C   UNL     1      -4.802   2.329 -32.111  1.00  0.00     0.009 A 
HETATM   16  C   UNL     1      -4.815   0.976 -32.465  1.00  0.00     0.013 A 
HETATM   17  C   UNL     1      -5.701   0.487 -33.439  1.00  0.00    -0.026 A 
HETATM   18  C   UNL     1      -6.585   1.398 -34.034  1.00  0.00     0.013 A 
HETATM   19  C   UNL     1      -6.576   2.753 -33.685  1.00  0.00     0.009 A 
BRANCH  17  20
HETATM   20  C   UNL     1      -5.689  -0.934 -33.832  1.00  0.00    -0.026 A 
HETATM   21  C   UNL     1      -6.881  -1.619 -34.124  1.00  0.00     0.012 A 
HETATM   22  C   UNL     1      -6.867  -2.970 -34.484  1.00  0.00     0.001 A 
HETATM   23  C   UNL     1      -5.661  -3.660 -34.558  1.00  0.00     0.000 A 
HETATM   24  C   UNL     1      -4.468  -3.001 -34.275  1.00  0.00     0.001 A 
HETATM   25  C   UNL     1      -4.482  -1.651 -33.915  1.00  0.00     0.012 A 
ENDBRANCH  17  20
ENDBRANCH   8  14
BRANCH  12  26
HETATM   26  N   UNL     1      -2.251   6.544 -32.000  1.00  0.00    -0.282 NA
HETATM   27  H   UNL     1      -2.219   7.538 -31.787  1.00  0.00     0.126 HD
HETATM   28  H   UNL     1      -1.890   6.320 -32.925  1.00  0.00     0.126 HD
ENDBRANCH  12  26
TORSDOF 3
ENDMDL
MODEL 7
REMARK VINA RESULT:      -7.7     15.826     18.419
REMARK  3 active torsions:
REMARK  status: ('A' for Active; 'I' for Inactive)
REMARK    1  A    between atoms: C_8  and  C_9 
REMARK    2  A    between atoms: C_12  and  C_13 
REMARK    3  A    between atoms: C_24  and  N_25 
ROOT
HETATM    1  C   UNL     1      -2.655 -12.129 -38.439  1.00  0.00     0.073 C 
HETATM    2  C   UNL     1      -2.009 -13.465 -38.435  1.00  0.00     0.062 A 
HETATM    3  N   UNL     1      -1.358 -13.898 -37.342  1.00  0.00    -0.177 NA
HETATM    4  N   UNL     1      -0.916 -15.125 -37.683  1.00  0.00    -0.256 N 
HETATM    5  H   UNL     1      -0.379 -15.658 -37.008  1.00  0.00     0.191 HD
HETATM    6  C   UNL     1      -1.265 -15.477 -38.946  1.00  0.00     0.175 A 
HETATM    7  C   UNL     1      -1.981 -14.432 -39.468  1.00  0.00     0.034 A 
HETATM    8  C   UNL     1      -2.497 -14.506 -40.862  1.00  0.00     0.105 A 
HETATM    9  C   UNL     1      -2.081 -15.825 -41.518  1.00  0.00     0.080 A 
HETATM   10  C   UNL     1      -2.445 -15.998 -42.885  1.00  0.00     0.100 C 
HETATM   11  N   UNL     1      -2.742 -16.144 -43.997  1.00  0.00    -0.191 NA
HETATM   12  C   UNL     1      -1.358 -16.779 -40.867  1.00  0.00     0.140 A 
HETATM   13  O   UNL     1      -0.948 -16.625 -39.530  1.00  0.00    -0.279 OA
ENDROOT
BRANCH   8  14
HETATM   14  C   UNL     1      -4.005 -14.321 -40.760  1.00  0.00    -0.044 A 
HETATM   15  C   UNL     1      -4.620 -13.267 -41.452  1.00  0.00     0.009 A 
HETATM   16  C   UNL     1      -5.999 -13.053 -41.353  1.00  0.00     0.013 A 
HETATM   17  C   UNL     1      -6.810 -13.887 -40.568  1.00  0.00    -0.026 A 
HETATM   18  C   UNL     1      -6.195 -14.954 -39.897  1.00  0.00     0.013 A 
HETATM   19  C   UNL     1      -4.816 -15.172 -39.991  1.00  0.00     0.009 A 
BRANCH  17  20
HETATM   20  C   UNL     1      -8.258 -13.639 -40.440  1.00  0.00    -0.026 A 
HETATM   21  C   UNL     1      -9.187 -14.690 -40.523  1.00  0.00     0.012 A 
HETATM   22  C   UNL     1     -10.560 -14.449 -40.416  1.00  0.00     0.001 A 
HETATM   23  C   UNL     1     -11.028 -13.152 -40.223  1.00  0.00     0.000 A 
HETATM   24  C   UNL     1     -10.125 -12.096 -40.136  1.00  0.00     0.001 A 
HETATM   25  C   UNL     1      -8.753 -12.338 -40.244  1.00  0.00     0.012 A 
ENDBRANCH  17  20
ENDBRANCH   8  14
BRANCH  12  26
HETATM   26  N   UNL     1      -0.945 -17.976 -41.411  1.00  0.00    -0.282 NA
HETATM   27  H   UNL     1      -1.250 -18.812 -40.918  1.00  0.00     0.126 HD
HETATM   28  H   UNL     1       0.050 -17.977 -41.623  1.00  0.00     0.126 HD
ENDBRANCH  12  26
TORSDOF 3
ENDMDL
MODEL 8
REMARK VINA RESULT:      -7.5      2.418      4.588
REMARK  3 active torsions:
REMARK  status: ('A' for Active; 'I' for Inactive)
REMARK    1  A    between atoms: C_8  and  C_9 
REMARK    2  A    between atoms: C_12  and  C_13 
REMARK    3  A    between atoms: C_24  and  N_25 
ROOT
HETATM    1  C   UNL     1     -10.896   3.219 -34.859  1.00  0.00     0.073 C 
HETATM    2  C   UNL     1     -11.104   3.644 -33.453  1.00  0.00     0.062 A 
HETATM    3  N   UNL     1     -12.333   3.614 -32.912  1.00  0.00    -0.177 NA
HETATM    4  N   UNL     1     -12.151   4.048 -31.648  1.00  0.00    -0.256 N 
HETATM    5  H   UNL     1     -12.955   4.120 -31.034  1.00  0.00     0.191 HD
HETATM    6  C   UNL     1     -10.856   4.347 -31.377  1.00  0.00     0.175 A 
HETATM    7  C   UNL     1     -10.141   4.093 -32.518  1.00  0.00     0.034 A 
HETATM    8  C   UNL     1      -8.673   4.342 -32.547  1.00  0.00     0.105 A 
HETATM    9  C   UNL     1      -8.198   4.902 -31.204  1.00  0.00     0.080 A 
HETATM   10  C   UNL     1      -6.821   5.259 -31.115  1.00  0.00     0.100 C 
HETATM   11  N   UNL     1      -5.700   5.548 -31.037  1.00  0.00    -0.191 NA
HETATM   12  C   UNL     1      -9.036   5.106 -30.149  1.00  0.00     0.140 A 
HETATM   13  O   UNL     1     -10.408   4.803 -30.215  1.00  0.00    -0.279 OA
ENDROOT
BRANCH   8  14
HETATM   14  C   UNL     1      -8.031   3.012 -32.918  1.00  0.00    -0.044 A 
HETATM   15  C   UNL     1      -8.283   1.880 -32.128  1.00  0.00     0.009 A 
HETATM   16  C   UNL     1      -7.683   0.651 -32.425  1.00  0.00     0.013 A 
HETATM   17  C   UNL     1      -6.821   0.510 -33.523  1.00  0.00    -0.026 A 
HETATM   18  C   UNL     1      -6.591   1.638 -34.324  1.00  0.00     0.013 A 
HETATM   19  C   UNL     1      -7.187   2.870 -34.031  1.00  0.00     0.009 A 
BRANCH  17  20
HETATM   20  C   UNL     1      -6.165  -0.778 -33.814  1.00  0.00    -0.026 A 
HETATM   21  C   UNL     1      -4.851  -1.039 -33.389  1.00  0.00     0.012 A 
HETATM   22  C   UNL     1      -4.228  -2.257 -33.679  1.00  0.00     0.001 A 
HETATM   23  C   UNL     1      -4.908  -3.235 -34.399  1.00  0.00     0.000 A 
HETATM   24  C   UNL     1      -6.211  -2.999 -34.827  1.00  0.00     0.001 A 
HETATM   25  C   UNL     1      -6.833  -1.781 -34.538  1.00  0.00     0.012 A 
ENDBRANCH  17  20
ENDBRANCH   8  14
BRANCH  12  26
HETATM   26  N   UNL     1      -8.667   5.619 -28.925  1.00  0.00    -0.282 NA
HETATM   27  H   UNL     1      -7.686   5.869 -28.829  1.00  0.00     0.126 HD
HETATM   28  H   UNL     1      -9.014   5.054 -28.153  1.00  0.00     0.126 HD
ENDBRANCH  12  26
TORSDOF 3
ENDMDL
MODEL 9
REMARK VINA RESULT:      -7.5      3.697      5.520
REMARK  3 active torsions:
REMARK  status: ('A' for Active; 'I' for Inactive)
REMARK    1  A    between atoms: C_8  and  C_9 
REMARK    2  A    between atoms: C_12  and  C_13 
REMARK    3  A    between atoms: C_24  and  N_25 
ROOT
HETATM    1  C   UNL     1      -6.181   0.327 -29.845  1.00  0.00     0.073 C 
HETATM    2  C   UNL     1      -4.986   0.723 -30.630  1.00  0.00     0.062 A 
HETATM    3  N   UNL     1      -3.976  -0.145 -30.807  1.00  0.00    -0.177 NA
HETATM    4  N   UNL     1      -3.084   0.532 -31.558  1.00  0.00    -0.256 N 
HETATM    5  H   UNL     1      -2.217   0.075 -31.819  1.00  0.00     0.191 HD
HETATM    6  C   UNL     1      -3.497   1.788 -31.859  1.00  0.00     0.175 A 
HETATM    7  C   UNL     1      -4.729   1.953 -31.282  1.00  0.00     0.034 A 
HETATM    8  C   UNL     1      -5.448   3.249 -31.418  1.00  0.00     0.105 A 
HETATM    9  C   UNL     1      -4.605   4.247 -32.216  1.00  0.00     0.080 A 
HETATM   10  C   UNL     1      -5.141   5.560 -32.359  1.00  0.00     0.100 C 
HETATM   11  N   UNL     1      -5.575   6.630 -32.480  1.00  0.00    -0.191 NA
HETATM   12  C   UNL     1      -3.382   3.939 -32.730  1.00  0.00     0.140 A 
HETATM   13  O   UNL     1      -2.805   2.665 -32.574  1.00  0.00    -0.279 OA
ENDROOT
BRANCH   8  14
HETATM   14  C   UNL     1      -6.785   2.919 -32.067  1.00  0.00    -0.044 A 
HETATM   15  C   UNL     1      -7.974   3.186 -31.371  1.00  0.00     0.009 A 
HETATM   16  C   UNL     1      -9.217   2.865 -31.928  1.00  0.00     0.013 A 
HETATM   17  C   UNL     1      -9.315   2.277 -33.199  1.00  0.00    -0.026 A 
HETATM   18  C   UNL     1      -8.124   2.034 -33.900  1.00  0.00     0.013 A 
HETATM   19  C   UNL     1      -6.879   2.351 -33.348  1.00  0.00     0.009 A 
BRANCH  17  20
HETATM   20  C   UNL     1     -10.624   1.911 -33.769  1.00  0.00    -0.026 A 
HETATM   21  C   UNL     1     -11.234   2.701 -34.758  1.00  0.00     0.012 A 
HETATM   22  C   UNL     1     -12.483   2.359 -35.286  1.00  0.00     0.001 A 
HETATM   23  C   UNL     1     -13.144   1.220 -34.834  1.00  0.00     0.000 A 
HETATM   24  C   UNL     1     -12.556   0.422 -33.857  1.00  0.00     0.001 A 
HETATM   25  C   UNL     1     -11.309   0.765 -33.329  1.00  0.00     0.012 A 
ENDBRANCH  17  20
ENDBRANCH   8  14
BRANCH  12  26
HETATM   26  N   UNL     1      -2.576   4.799 -33.442  1.00  0.00    -0.282 NA
HETATM   27  H   UNL     1      -2.586   5.769 -33.135  1.00  0.00     0.126 HD
HETATM   28  H   UNL     1      -2.699   4.696 -34.447  1.00  0.00     0.126 HD
ENDBRANCH  12  26
TORSDOF 3
ENDMDL
MODEL 10
REMARK VINA RESULT:      -7.5      3.304      7.185
REMARK  3 active torsions:
REMARK  status: ('A' for Active; 'I' for Inactive)
REMARK    1  A    between atoms: C_8  and  C_9 
REMARK    2  A    between atoms: C_12  and  C_13 
REMARK    3  A    between atoms: C_24  and  N_25 
ROOT
HETATM    1  C   UNL     1      -3.450   0.253 -32.894  1.00  0.00     0.073 C 
HETATM    2  C   UNL     1      -4.832   0.212 -32.357  1.00  0.00     0.062 A 
HETATM    3  N   UNL     1      -5.241  -0.836 -31.621  1.00  0.00    -0.177 NA
HETATM    4  N   UNL     1      -6.517  -0.540 -31.301  1.00  0.00    -0.256 N 
HETATM    5  H   UNL     1      -7.048  -1.199 -30.744  1.00  0.00     0.191 HD
HETATM    6  C   UNL     1      -6.922   0.652 -31.808  1.00  0.00     0.175 A 
HETATM    7  C   UNL     1      -5.859   1.177 -32.494  1.00  0.00     0.034 A 
HETATM    8  C   UNL     1      -5.994   2.487 -33.187  1.00  0.00     0.105 A 
HETATM    9  C   UNL     1      -7.411   3.040 -33.016  1.00  0.00     0.080 A 
HETATM   10  C   UNL     1      -7.704   4.258 -33.695  1.00  0.00     0.100 C 
HETATM   11  N   UNL     1      -7.946   5.252 -34.244  1.00  0.00    -0.191 NA
HETATM   12  C   UNL     1      -8.375   2.397 -32.300  1.00  0.00     0.140 A 
HETATM   13  O   UNL     1      -8.132   1.173 -31.650  1.00  0.00    -0.279 OA
ENDROOT
BRANCH   8  14
HETATM   14  C   UNL     1      -4.911   3.383 -32.601  1.00  0.00    -0.044 A 
HETATM   15  C   UNL     1      -3.858   3.820 -33.420  1.00  0.00     0.009 A 
HETATM   16  C   UNL     1      -2.833   4.619 -32.903  1.00  0.00     0.013 A 
HETATM   17  C   UNL     1      -2.828   5.014 -31.556  1.00  0.00    -0.026 A 
HETATM   18  C   UNL     1      -3.895   4.595 -30.747  1.00  0.00     0.013 A 
HETATM   19  C   UNL     1      -4.922   3.795 -31.259  1.00  0.00     0.009 A 
BRANCH  17  20
HETATM   20  C   UNL     1      -1.728   5.828 -31.007  1.00  0.00    -0.026 A 
HETATM   21  C   UNL     1      -1.951   6.746 -29.966  1.00  0.00     0.012 A 
HETATM   22  C   UNL     1      -0.909   7.527 -29.457  1.00  0.00     0.001 A 
HETATM   23  C   UNL     1       0.375   7.404 -29.981  1.00  0.00     0.000 A 
HETATM   24  C   UNL     1       0.619   6.500 -31.011  1.00  0.00     0.001 A 
HETATM   25  C   UNL     1      -0.424   5.720 -31.519  1.00  0.00     0.012 A 
ENDBRANCH  17  20
ENDBRANCH   8  14
BRANCH  12  26
HETATM   26  N   UNL     1      -9.667   2.840 -32.125  1.00  0.00    -0.282 NA
HETATM   27  H   UNL     1     -10.115   2.561 -31.255  1.00  0.00     0.126 HD
HETATM   28  H   UNL     1     -10.245   2.669 -32.945  1.00  0.00     0.126 HD
ENDBRANCH  12  26
TORSDOF 3
ENDMDL
