MODEL 1
REMARK VINA RESULT:      -8.6      0.000      0.000
REMARK  9 active torsions:
REMARK  status: ('A' for Active; 'I' for Inactive)
REMARK    1  A    between atoms: O_2  and  C_3 
REMARK    2  A    between atoms: C_4  and  O_5 
REMARK    3  A    between atoms: C_8  and  C_9 
REMARK    4  A    between atoms: C_9  and  C_10 
REMARK    5  A    between atoms: C_10  and  N_11 
REMARK       I    between atoms: N_11  and  C_12 
REMARK    6  A    between atoms: C_12  and  C_13 
REMARK    7  A    between atoms: C_13  and  C_14 
REMARK    8  A    between atoms: N_21  and  C_22 
REMARK    9  A    between atoms: C_22  and  C_23 
REMARK       I    between atoms: C_23  and  N_24 
ROOT
HETATM    1  C   UNL     1      -8.692   3.491 -32.638  1.00  0.00     0.048 C 
HETATM    2  C   UNL     1      -7.686   3.003 -31.739  1.00  0.00     0.006 A 
HETATM    3  C   UNL     1      -6.608   3.899 -31.793  1.00  0.00     0.045 A 
HETATM    4  C   UNL     1      -5.451   3.728 -31.014  1.00  0.00     0.030 A 
HETATM    5  C   UNL     1      -5.374   2.615 -30.175  1.00  0.00     0.002 A 
HETATM    6  C   UNL     1      -6.421   1.705 -30.106  1.00  0.00     0.001 A 
HETATM    7  C   UNL     1      -7.577   1.890 -30.873  1.00  0.00     0.015 A 
HETATM    8  N   UNL     1      -6.946   4.890 -32.690  1.00  0.00    -0.346 N 
HETATM    9  C   UNL     1      -8.151   4.600 -33.266  1.00  0.00     0.108 C 
ENDROOT
BRANCH   1  10
HETATM   10  C   UNL     1     -10.037   3.003 -32.933  1.00  0.00     0.251 C 
HETATM   11  O   UNL     1     -10.872   2.830 -32.044  1.00  0.00    -0.281 OA
BRANCH  10  12
HETATM   12  C   UNL     1     -10.472   2.657 -34.360  1.00  0.00     0.292 C 
HETATM   13  N   UNL     1     -10.014   1.482 -34.920  1.00  0.00    -0.354 N 
HETATM   14  H   UNL     1     -10.207   1.419 -35.913  1.00  0.00     0.162 HD
HETATM   15  O   UNL     1     -11.189   3.422 -34.993  1.00  0.00    -0.264 OA
BRANCH  13  16
HETATM   16  C   UNL     1      -8.985   0.633 -34.344  1.00  0.00     0.127 C 
BRANCH  16  17
HETATM   17  C   UNL     1      -7.612   0.904 -34.957  1.00  0.00     0.058 C 
BRANCH  17  18
HETATM   18  C   UNL     1      -6.553   0.001 -34.377  1.00  0.00    -0.054 A 
HETATM   19  C   UNL     1      -6.555  -1.373 -34.666  1.00  0.00     0.046 A 
HETATM   20  C   UNL     1      -5.598  -2.244 -34.117  1.00  0.00     0.102 A 
HETATM   21  C   UNL     1      -4.617  -1.716 -33.258  1.00  0.00     0.101 A 
HETATM   22  C   UNL     1      -4.627  -0.345 -32.964  1.00  0.00     0.040 A 
HETATM   23  C   UNL     1      -5.580   0.509 -33.517  1.00  0.00     0.010 A 
BRANCH  20  24
HETATM   24  O   UNL     1      -5.589  -3.591 -34.364  1.00  0.00    -0.353 OA
HETATM   25  C   UNL     1      -6.547  -4.119 -35.271  1.00  0.00     0.210 C 
ENDBRANCH  20  24
BRANCH  21  26
HETATM   26  O   UNL     1      -3.602  -2.371 -32.610  1.00  0.00    -0.353 OA
HETATM   27  C   UNL     1      -2.705  -1.619 -31.808  1.00  0.00     0.210 C 
ENDBRANCH  21  26
ENDBRANCH  17  18
ENDBRANCH  16  17
ENDBRANCH  13  16
ENDBRANCH  10  12
ENDBRANCH   1  10
BRANCH   8  28
HETATM   28  C   UNL     1      -6.134   6.050 -33.027  1.00  0.00     0.231 C 
BRANCH  28  29
HETATM   29  C   UNL     1      -4.843   5.664 -33.731  1.00  0.00     0.238 C 
HETATM   30  N   UNL     1      -3.615   6.140 -33.261  1.00  0.00    -0.351 N 
HETATM   31  C   UNL     1      -2.398   5.715 -33.957  1.00  0.00     0.126 C 
HETATM   32  C   UNL     1      -3.431   7.038 -32.116  1.00  0.00     0.126 C 
HETATM   33  C   UNL     1      -1.402   4.959 -33.073  1.00  0.00     0.020 C 
HETATM   34  C   UNL     1      -0.663   5.871 -32.095  1.00  0.00     0.002 C 
HETATM   35  C   UNL     1      -1.408   6.171 -30.795  1.00  0.00     0.002 C 
HETATM   36  C   UNL     1      -2.927   6.295 -30.883  1.00  0.00     0.020 C 
HETATM   37  O   UNL     1      -4.913   4.941 -34.733  1.00  0.00    -0.272 OA
ENDBRANCH  28  29
ENDBRANCH   8  28
TORSDOF 9
ENDMDL
MODEL 2
REMARK VINA RESULT:      -8.5      3.198      8.629
REMARK  9 active torsions:
REMARK  status: ('A' for Active; 'I' for Inactive)
REMARK    1  A    between atoms: O_2  and  C_3 
REMARK    2  A    between atoms: C_4  and  O_5 
REMARK    3  A    between atoms: C_8  and  C_9 
REMARK    4  A    between atoms: C_9  and  C_10 
REMARK    5  A    between atoms: C_10  and  N_11 
REMARK       I    between atoms: N_11  and  C_12 
REMARK    6  A    between atoms: C_12  and  C_13 
REMARK    7  A    between atoms: C_13  and  C_14 
REMARK    8  A    between atoms: N_21  and  C_22 
REMARK    9  A    between atoms: C_22  and  C_23 
REMARK       I    between atoms: C_23  and  N_24 
ROOT
HETATM    1  C   UNL     1      -3.446   4.076 -32.393  1.00  0.00     0.048 C 
HETATM    2  C   UNL     1      -4.308   4.546 -31.348  1.00  0.00     0.006 A 
HETATM    3  C   UNL     1      -4.989   3.433 -30.835  1.00  0.00     0.045 A 
HETATM    4  C   UNL     1      -5.908   3.539 -29.776  1.00  0.00     0.030 A 
HETATM    5  C   UNL     1      -6.159   4.802 -29.238  1.00  0.00     0.002 A 
HETATM    6  C   UNL     1      -5.506   5.925 -29.730  1.00  0.00     0.001 A 
HETATM    7  C   UNL     1      -4.580   5.810 -30.774  1.00  0.00     0.015 A 
HETATM    8  N   UNL     1      -4.558   2.330 -31.540  1.00  0.00    -0.346 N 
HETATM    9  C   UNL     1      -3.706   2.723 -32.534  1.00  0.00     0.108 C 
ENDROOT
BRANCH   1  10
HETATM   10  C   UNL     1      -2.466   4.774 -33.222  1.00  0.00     0.251 C 
HETATM   11  O   UNL     1      -1.256   4.577 -33.096  1.00  0.00    -0.281 OA
BRANCH  10  12
HETATM   12  C   UNL     1      -2.889   5.806 -34.270  1.00  0.00     0.292 C 
HETATM   13  N   UNL     1      -2.223   7.014 -34.310  1.00  0.00    -0.354 N 
HETATM   14  H   UNL     1      -2.677   7.692 -34.911  1.00  0.00     0.162 HD
HETATM   15  O   UNL     1      -3.814   5.569 -35.037  1.00  0.00    -0.264 OA
BRANCH  13  16
HETATM   16  C   UNL     1      -1.280   7.476 -33.306  1.00  0.00     0.127 C 
BRANCH  16  17
HETATM   17  C   UNL     1      -1.984   8.150 -32.129  1.00  0.00     0.058 C 
BRANCH  17  18
HETATM   18  C   UNL     1      -1.398   7.721 -30.808  1.00  0.00    -0.054 A 
HETATM   19  C   UNL     1      -2.056   8.028 -29.606  1.00  0.00     0.046 A 
HETATM   20  C   UNL     1      -1.518   7.666 -28.358  1.00  0.00     0.102 A 
HETATM   21  C   UNL     1      -0.291   6.979 -28.324  1.00  0.00     0.101 A 
HETATM   22  C   UNL     1       0.366   6.686 -29.527  1.00  0.00     0.040 A 
HETATM   23  C   UNL     1      -0.178   7.048 -30.758  1.00  0.00     0.010 A 
BRANCH  20  24
HETATM   24  O   UNL     1      -2.127   7.971 -27.169  1.00  0.00    -0.353 OA
HETATM   25  C   UNL     1      -3.213   7.162 -26.738  1.00  0.00     0.210 C 
ENDBRANCH  20  24
BRANCH  21  26
HETATM   26  O   UNL     1       0.416   6.540 -27.234  1.00  0.00    -0.353 OA
HETATM   27  C   UNL     1       1.364   7.411 -26.638  1.00  0.00     0.210 C 
ENDBRANCH  21  26
ENDBRANCH  17  18
ENDBRANCH  16  17
ENDBRANCH  13  16
ENDBRANCH  10  12
ENDBRANCH   1  10
BRANCH   8  28
HETATM   28  C   UNL     1      -4.976   0.955 -31.314  1.00  0.00     0.231 C 
BRANCH  28  29
HETATM   29  C   UNL     1      -5.965   0.473 -32.363  1.00  0.00     0.238 C 
HETATM   30  N   UNL     1      -5.546  -0.386 -33.383  1.00  0.00    -0.351 N 
HETATM   31  C   UNL     1      -6.544  -0.846 -34.352  1.00  0.00     0.126 C 
HETATM   32  C   UNL     1      -4.178  -0.878 -33.575  1.00  0.00     0.126 C 
HETATM   33  C   UNL     1      -6.720  -2.367 -34.398  1.00  0.00     0.020 C 
HETATM   34  C   UNL     1      -5.556  -3.079 -35.085  1.00  0.00     0.002 C 
HETATM   35  C   UNL     1      -4.349  -3.364 -34.192  1.00  0.00     0.002 C 
HETATM   36  C   UNL     1      -4.023  -2.326 -33.121  1.00  0.00     0.020 C 
HETATM   37  O   UNL     1      -7.134   0.874 -32.298  1.00  0.00    -0.272 OA
ENDBRANCH  28  29
ENDBRANCH   8  28
TORSDOF 9
ENDMDL
MODEL 3
REMARK VINA RESULT:      -8.4      2.846      4.756
REMARK  9 active torsions:
REMARK  status: ('A' for Active; 'I' for Inactive)
REMARK    1  A    between atoms: O_2  and  C_3 
REMARK    2  A    between atoms: C_4  and  O_5 
REMARK    3  A    between atoms: C_8  and  C_9 
REMARK    4  A    between atoms: C_9  and  C_10 
REMARK    5  A    between atoms: C_10  and  N_11 
REMARK       I    between atoms: N_11  and  C_12 
REMARK    6  A    between atoms: C_12  and  C_13 
REMARK    7  A    between atoms: C_13  and  C_14 
REMARK    8  A    between atoms: N_21  and  C_22 
REMARK    9  A    between atoms: C_22  and  C_23 
REMARK       I    between atoms: C_23  and  N_24 
ROOT
HETATM    1  C   UNL     1      -4.048   4.523 -31.298  1.00  0.00     0.048 C 
HETATM    2  C   UNL     1      -3.145   4.922 -32.338  1.00  0.00     0.006 A 
HETATM    3  C   UNL     1      -2.718   6.226 -32.044  1.00  0.00     0.045 A 
HETATM    4  C   UNL     1      -1.804   6.917 -32.857  1.00  0.00     0.030 A 
HETATM    5  C   UNL     1      -1.326   6.284 -34.006  1.00  0.00     0.002 A 
HETATM    6  C   UNL     1      -1.735   4.997 -34.329  1.00  0.00     0.001 A 
HETATM    7  C   UNL     1      -2.634   4.308 -33.505  1.00  0.00     0.015 A 
HETATM    8  N   UNL     1      -3.339   6.603 -30.872  1.00  0.00    -0.346 N 
HETATM    9  C   UNL     1      -4.206   5.625 -30.474  1.00  0.00     0.108 C 
ENDROOT
BRANCH   1  10
HETATM   10  C   UNL     1      -4.737   3.258 -31.054  1.00  0.00     0.251 C 
HETATM   11  O   UNL     1      -4.120   2.228 -30.781  1.00  0.00    -0.281 OA
BRANCH  10  12
HETATM   12  C   UNL     1      -6.261   3.141 -31.151  1.00  0.00     0.292 C 
HETATM   13  N   UNL     1      -6.809   2.634 -32.311  1.00  0.00    -0.354 N 
HETATM   14  H   UNL     1      -7.815   2.753 -32.354  1.00  0.00     0.162 HD
HETATM   15  O   UNL     1      -6.972   3.513 -30.226  1.00  0.00    -0.264 OA
BRANCH  13  16
HETATM   16  C   UNL     1      -6.072   2.385 -33.538  1.00  0.00     0.127 C 
BRANCH  16  17
HETATM   17  C   UNL     1      -6.651   1.209 -34.324  1.00  0.00     0.058 C 
BRANCH  17  18
HETATM   18  C   UNL     1      -5.874  -0.060 -34.084  1.00  0.00    -0.054 A 
HETATM   19  C   UNL     1      -6.143  -1.212 -34.840  1.00  0.00     0.046 A 
HETATM   20  C   UNL     1      -5.454  -2.417 -34.618  1.00  0.00     0.102 A 
HETATM   21  C   UNL     1      -4.473  -2.460 -33.610  1.00  0.00     0.101 A 
HETATM   22  C   UNL     1      -4.218  -1.310 -32.850  1.00  0.00     0.040 A 
HETATM   23  C   UNL     1      -4.906  -0.120 -33.082  1.00  0.00     0.010 A 
BRANCH  20  24
HETATM   24  O   UNL     1      -5.709  -3.561 -35.326  1.00  0.00    -0.353 OA
HETATM   25  C   UNL     1      -6.713  -4.445 -34.845  1.00  0.00     0.210 C 
ENDBRANCH  20  24
BRANCH  21  26
HETATM   26  O   UNL     1      -3.693  -3.517 -33.218  1.00  0.00    -0.353 OA
HETATM   27  C   UNL     1      -3.063  -3.467 -31.947  1.00  0.00     0.210 C 
ENDBRANCH  21  26
ENDBRANCH  17  18
ENDBRANCH  16  17
ENDBRANCH  13  16
ENDBRANCH  10  12
ENDBRANCH   1  10
BRANCH   8  28
HETATM   28  C   UNL     1      -3.155   7.869 -30.178  1.00  0.00     0.231 C 
BRANCH  28  29
HETATM   29  C   UNL     1      -3.024   7.687 -28.674  1.00  0.00     0.238 C 
HETATM   30  N   UNL     1      -1.818   7.247 -28.121  1.00  0.00    -0.351 N 
HETATM   31  C   UNL     1      -1.733   7.117 -26.664  1.00  0.00     0.126 C 
HETATM   32  C   UNL     1      -0.610   6.899 -28.877  1.00  0.00     0.126 C 
HETATM   33  C   UNL     1      -0.650   7.986 -26.019  1.00  0.00     0.020 C 
HETATM   34  C   UNL     1       0.762   7.458 -26.264  1.00  0.00     0.002 C 
HETATM   35  C   UNL     1       1.389   7.871 -27.594  1.00  0.00     0.002 C 
HETATM   36  C   UNL     1       0.451   7.991 -28.793  1.00  0.00     0.020 C 
HETATM   37  O   UNL     1      -4.011   7.920 -27.965  1.00  0.00    -0.272 OA
ENDBRANCH  28  29
ENDBRANCH   8  28
TORSDOF 9
ENDMDL
MODEL 4
REMARK VINA RESULT:      -8.2      2.198      3.276
REMARK  9 active torsions:
REMARK  status: ('A' for Active; 'I' for Inactive)
REMARK    1  A    between atoms: O_2  and  C_3 
REMARK    2  A    between atoms: C_4  and  O_5 
REMARK    3  A    between atoms: C_8  and  C_9 
REMARK    4  A    between atoms: C_9  and  C_10 
REMARK    5  A    between atoms: C_10  and  N_11 
REMARK       I    between atoms: N_11  and  C_12 
REMARK    6  A    between atoms: C_12  and  C_13 
REMARK    7  A    between atoms: C_13  and  C_14 
REMARK    8  A    between atoms: N_21  and  C_22 
REMARK    9  A    between atoms: C_22  and  C_23 
REMARK       I    between atoms: C_23  and  N_24 
ROOT
HETATM    1  C   UNL     1      -6.249   3.281 -31.156  1.00  0.00     0.048 C 
HETATM    2  C   UNL     1      -6.314   4.307 -30.157  1.00  0.00     0.006 A 
HETATM    3  C   UNL     1      -5.269   5.207 -30.413  1.00  0.00     0.045 A 
HETATM    4  C   UNL     1      -5.055   6.351 -29.626  1.00  0.00     0.030 A 
HETATM    5  C   UNL     1      -5.905   6.581 -28.543  1.00  0.00     0.002 A 
HETATM    6  C   UNL     1      -6.943   5.704 -28.258  1.00  0.00     0.001 A 
HETATM    7  C   UNL     1      -7.161   4.575 -29.056  1.00  0.00     0.015 A 
HETATM    8  N   UNL     1      -4.596   4.744 -31.524  1.00  0.00    -0.346 N 
HETATM    9  C   UNL     1      -5.120   3.544 -31.914  1.00  0.00     0.108 C 
ENDROOT
BRANCH   1  10
HETATM   10  C   UNL     1      -7.116   2.135 -31.419  1.00  0.00     0.251 C 
HETATM   11  O   UNL     1      -6.819   1.000 -31.043  1.00  0.00    -0.281 OA
BRANCH  10  12
HETATM   12  C   UNL     1      -8.427   2.280 -32.196  1.00  0.00     0.292 C 
HETATM   13  N   UNL     1      -8.435   1.957 -33.538  1.00  0.00    -0.354 N 
HETATM   14  H   UNL     1      -9.287   2.244 -34.005  1.00  0.00     0.162 HD
HETATM   15  O   UNL     1      -9.436   2.697 -31.641  1.00  0.00    -0.264 OA
BRANCH  13  16
HETATM   16  C   UNL     1      -7.250   1.679 -34.332  1.00  0.00     0.127 C 
BRANCH  16  17
HETATM   17  C   UNL     1      -7.343   0.330 -35.045  1.00  0.00     0.058 C 
BRANCH  17  18
HETATM   18  C   UNL     1      -6.350  -0.662 -34.497  1.00  0.00    -0.054 A 
HETATM   19  C   UNL     1      -5.242  -0.223 -33.754  1.00  0.00     0.046 A 
HETATM   20  C   UNL     1      -4.285  -1.123 -33.255  1.00  0.00     0.102 A 
HETATM   21  C   UNL     1      -4.450  -2.497 -33.512  1.00  0.00     0.101 A 
HETATM   22  C   UNL     1      -5.551  -2.928 -34.265  1.00  0.00     0.040 A 
HETATM   23  C   UNL     1      -6.495  -2.025 -34.752  1.00  0.00     0.010 A 
BRANCH  20  24
HETATM   24  O   UNL     1      -3.185  -0.721 -32.546  1.00  0.00    -0.353 OA
HETATM   25  C   UNL     1      -3.384  -0.032 -31.319  1.00  0.00     0.210 C 
ENDBRANCH  20  24
BRANCH  21  26
HETATM   26  O   UNL     1      -3.645  -3.542 -33.136  1.00  0.00    -0.353 OA
HETATM   27  C   UNL     1      -3.739  -4.766 -33.846  1.00  0.00     0.210 C 
ENDBRANCH  21  26
ENDBRANCH  17  18
ENDBRANCH  16  17
ENDBRANCH  13  16
ENDBRANCH  10  12
ENDBRANCH   1  10
BRANCH   8  28
HETATM   28  C   UNL     1      -3.461   5.392 -32.165  1.00  0.00     0.231 C 
BRANCH  28  29
HETATM   29  C   UNL     1      -2.131   4.920 -31.597  1.00  0.00     0.238 C 
HETATM   30  N   UNL     1      -1.194   5.849 -31.136  1.00  0.00    -0.351 N 
HETATM   31  C   UNL     1       0.059   5.344 -30.570  1.00  0.00     0.126 C 
HETATM   32  C   UNL     1      -1.353   7.308 -31.166  1.00  0.00     0.126 C 
HETATM   33  C   UNL     1       0.301   5.754 -29.115  1.00  0.00     0.020 C 
HETATM   34  C   UNL     1       0.693   7.223 -28.969  1.00  0.00     0.002 C 
HETATM   35  C   UNL     1      -0.474   8.208 -28.929  1.00  0.00     0.002 C 
HETATM   36  C   UNL     1      -1.689   7.873 -29.790  1.00  0.00     0.020 C 
HETATM   37  O   UNL     1      -1.900   3.705 -31.573  1.00  0.00    -0.272 OA
ENDBRANCH  28  29
ENDBRANCH   8  28
TORSDOF 9
ENDMDL
MODEL 5
REMARK VINA RESULT:      -8.2      1.970      5.284
REMARK  9 active torsions:
REMARK  status: ('A' for Active; 'I' for Inactive)
REMARK    1  A    between atoms: O_2  and  C_3 
REMARK    2  A    between atoms: C_4  and  O_5 
REMARK    3  A    between atoms: C_8  and  C_9 
REMARK    4  A    between atoms: C_9  and  C_10 
REMARK    5  A    between atoms: C_10  and  N_11 
REMARK       I    between atoms: N_11  and  C_12 
REMARK    6  A    between atoms: C_12  and  C_13 
REMARK    7  A    between atoms: C_13  and  C_14 
REMARK    8  A    between atoms: N_21  and  C_22 
REMARK    9  A    between atoms: C_22  and  C_23 
REMARK       I    between atoms: C_23  and  N_24 
ROOT
HETATM    1  C   UNL     1      -6.736   1.975 -31.776  1.00  0.00     0.048 C 
HETATM    2  C   UNL     1      -7.883   2.747 -31.396  1.00  0.00     0.006 A 
HETATM    3  C   UNL     1      -7.790   3.985 -32.049  1.00  0.00     0.045 A 
HETATM    4  C   UNL     1      -8.770   4.982 -31.910  1.00  0.00     0.030 A 
HETATM    5  C   UNL     1      -9.861   4.729 -31.076  1.00  0.00     0.002 A 
HETATM    6  C   UNL     1      -9.978   3.517 -30.410  1.00  0.00     0.001 A 
HETATM    7  C   UNL     1      -9.006   2.522 -30.565  1.00  0.00     0.015 A 
HETATM    8  N   UNL     1      -6.630   3.966 -32.794  1.00  0.00    -0.346 N 
HETATM    9  C   UNL     1      -5.951   2.804 -32.560  1.00  0.00     0.108 C 
ENDROOT
BRANCH   1  10
HETATM   10  C   UNL     1      -6.349   0.603 -31.457  1.00  0.00     0.251 C 
HETATM   11  O   UNL     1      -6.618   0.092 -30.369  1.00  0.00    -0.281 OA
BRANCH  10  12
HETATM   12  C   UNL     1      -5.566  -0.262 -32.449  1.00  0.00     0.292 C 
HETATM   13  N   UNL     1      -6.222  -0.737 -33.567  1.00  0.00    -0.354 N 
HETATM   14  H   UNL     1      -5.684  -1.433 -34.070  1.00  0.00     0.162 HD
HETATM   15  O   UNL     1      -4.393  -0.543 -32.237  1.00  0.00    -0.264 OA
BRANCH  13  16
HETATM   16  C   UNL     1      -7.655  -0.654 -33.787  1.00  0.00     0.127 C 
BRANCH  16  17
HETATM   17  C   UNL     1      -8.027   0.515 -34.698  1.00  0.00     0.058 C 
BRANCH  17  18
HETATM   18  C   UNL     1      -9.333   1.148 -34.291  1.00  0.00    -0.054 A 
HETATM   19  C   UNL     1      -9.652   2.450 -34.708  1.00  0.00     0.046 A 
HETATM   20  C   UNL     1     -10.850   3.076 -34.320  1.00  0.00     0.102 A 
HETATM   21  C   UNL     1     -11.744   2.372 -33.493  1.00  0.00     0.101 A 
HETATM   22  C   UNL     1     -11.414   1.076 -33.071  1.00  0.00     0.040 A 
HETATM   23  C   UNL     1     -10.225   0.466 -33.464  1.00  0.00     0.010 A 
BRANCH  20  24
HETATM   24  O   UNL     1     -11.177   4.352 -34.694  1.00  0.00    -0.353 OA
HETATM   25  C   UNL     1     -10.158   5.181 -35.238  1.00  0.00     0.210 C 
ENDBRANCH  20  24
BRANCH  21  26
HETATM   26  O   UNL     1     -12.952   2.783 -32.991  1.00  0.00    -0.353 OA
HETATM   27  C   UNL     1     -14.123   2.073 -33.359  1.00  0.00     0.210 C 
ENDBRANCH  21  26
ENDBRANCH  17  18
ENDBRANCH  16  17
ENDBRANCH  13  16
ENDBRANCH  10  12
ENDBRANCH   1  10
BRANCH   8  28
HETATM   28  C   UNL     1      -6.156   5.033 -33.663  1.00  0.00     0.231 C 
BRANCH  28  29
HETATM   29  C   UNL     1      -5.276   6.030 -32.923  1.00  0.00     0.238 C 
HETATM   30  N   UNL     1      -3.888   5.866 -32.907  1.00  0.00    -0.351 N 
HETATM   31  C   UNL     1      -3.083   6.870 -32.207  1.00  0.00     0.126 C 
HETATM   32  C   UNL     1      -3.152   4.766 -33.539  1.00  0.00     0.126 C 
HETATM   33  C   UNL     1      -2.066   7.591 -33.096  1.00  0.00     0.020 C 
HETATM   34  C   UNL     1      -0.869   6.716 -33.461  1.00  0.00     0.002 C 
HETATM   35  C   UNL     1      -1.080   5.789 -34.657  1.00  0.00     0.002 C 
HETATM   36  C   UNL     1      -2.477   5.202 -34.836  1.00  0.00     0.020 C 
HETATM   37  O   UNL     1      -5.822   6.967 -32.327  1.00  0.00    -0.272 OA
ENDBRANCH  28  29
ENDBRANCH   8  28
TORSDOF 9
ENDMDL
MODEL 6
REMARK VINA RESULT:      -8.1      3.138      8.456
REMARK  9 active torsions:
REMARK  status: ('A' for Active; 'I' for Inactive)
REMARK    1  A    between atoms: O_2  and  C_3 
REMARK    2  A    between atoms: C_4  and  O_5 
REMARK    3  A    between atoms: C_8  and  C_9 
REMARK    4  A    between atoms: C_9  and  C_10 
REMARK    5  A    between atoms: C_10  and  N_11 
REMARK       I    between atoms: N_11  and  C_12 
REMARK    6  A    between atoms: C_12  and  C_13 
REMARK    7  A    between atoms: C_13  and  C_14 
REMARK    8  A    between atoms: N_21  and  C_22 
REMARK    9  A    between atoms: C_22  and  C_23 
REMARK       I    between atoms: C_23  and  N_24 
ROOT
HETATM    1  C   UNL     1      -3.314   4.098 -32.290  1.00  0.00     0.048 C 
HETATM    2  C   UNL     1      -4.320   4.577 -31.386  1.00  0.00     0.006 A 
HETATM    3  C   UNL     1      -4.882   3.457 -30.756  1.00  0.00     0.045 A 
HETATM    4  C   UNL     1      -5.894   3.571 -29.787  1.00  0.00     0.030 A 
HETATM    5  C   UNL     1      -6.362   4.846 -29.463  1.00  0.00     0.002 A 
HETATM    6  C   UNL     1      -5.831   5.973 -30.076  1.00  0.00     0.001 A 
HETATM    7  C   UNL     1      -4.812   5.853 -31.028  1.00  0.00     0.015 A 
HETATM    8  N   UNL     1      -4.244   2.343 -31.258  1.00  0.00    -0.346 N 
HETATM    9  C   UNL     1      -3.372   2.716 -32.243  1.00  0.00     0.108 C 
ENDROOT
BRANCH   1  10
HETATM   10  C   UNL     1      -2.373   4.812 -33.150  1.00  0.00     0.251 C 
HETATM   11  O   UNL     1      -1.156   4.651 -33.049  1.00  0.00    -0.281 OA
BRANCH  10  12
HETATM   12  C   UNL     1      -2.848   5.817 -34.202  1.00  0.00     0.292 C 
HETATM   13  N   UNL     1      -2.239   7.055 -34.252  1.00  0.00    -0.354 N 
HETATM   14  H   UNL     1      -2.726   7.708 -34.855  1.00  0.00     0.162 HD
HETATM   15  O   UNL     1      -3.765   5.533 -34.963  1.00  0.00    -0.264 OA
BRANCH  13  16
HETATM   16  C   UNL     1      -1.314   7.566 -33.255  1.00  0.00     0.127 C 
BRANCH  16  17
HETATM   17  C   UNL     1      -2.044   8.190 -32.066  1.00  0.00     0.058 C 
BRANCH  17  18
HETATM   18  C   UNL     1      -1.461   7.737 -30.752  1.00  0.00    -0.054 A 
HETATM   19  C   UNL     1      -2.142   7.983 -29.549  1.00  0.00     0.046 A 
HETATM   20  C   UNL     1      -1.609   7.597 -28.307  1.00  0.00     0.102 A 
HETATM   21  C   UNL     1      -0.361   6.949 -28.279  1.00  0.00     0.101 A 
HETATM   22  C   UNL     1       0.320   6.716 -29.482  1.00  0.00     0.040 A 
HETATM   23  C   UNL     1      -0.220   7.101 -30.708  1.00  0.00     0.010 A 
BRANCH  20  24
HETATM   24  O   UNL     1      -2.241   7.844 -27.117  1.00  0.00    -0.353 OA
HETATM   25  C   UNL     1      -3.194   6.899 -26.649  1.00  0.00     0.210 C 
ENDBRANCH  20  24
BRANCH  21  26
HETATM   26  O   UNL     1       0.346   6.497 -27.194  1.00  0.00    -0.353 OA
HETATM   27  C   UNL     1       1.213   7.395 -26.521  1.00  0.00     0.210 C 
ENDBRANCH  21  26
ENDBRANCH  17  18
ENDBRANCH  16  17
ENDBRANCH  13  16
ENDBRANCH  10  12
ENDBRANCH   1  10
BRANCH   8  28
HETATM   28  C   UNL     1      -4.486   0.966 -30.854  1.00  0.00     0.231 C 
BRANCH  28  29
HETATM   29  C   UNL     1      -4.801   0.065 -32.038  1.00  0.00     0.238 C 
HETATM   30  N   UNL     1      -6.090   0.039 -32.579  1.00  0.00    -0.351 N 
HETATM   31  C   UNL     1      -6.335  -0.822 -33.738  1.00  0.00     0.126 C 
HETATM   32  C   UNL     1      -7.237   0.809 -32.086  1.00  0.00     0.126 C 
HETATM   33  C   UNL     1      -6.820  -0.076 -34.984  1.00  0.00     0.020 C 
HETATM   34  C   UNL     1      -8.272   0.385 -34.873  1.00  0.00     0.002 C 
HETATM   35  C   UNL     1      -8.481   1.711 -34.142  1.00  0.00     0.002 C 
HETATM   36  C   UNL     1      -7.543   2.010 -32.975  1.00  0.00     0.020 C 
HETATM   37  O   UNL     1      -3.898  -0.650 -32.491  1.00  0.00    -0.272 OA
ENDBRANCH  28  29
ENDBRANCH   8  28
TORSDOF 9
ENDMDL
MODEL 7
REMARK VINA RESULT:      -8.1      2.775      5.208
REMARK  9 active torsions:
REMARK  status: ('A' for Active; 'I' for Inactive)
REMARK    1  A    between atoms: O_2  and  C_3 
REMARK    2  A    between atoms: C_4  and  O_5 
REMARK    3  A    between atoms: C_8  and  C_9 
REMARK    4  A    between atoms: C_9  and  C_10 
REMARK    5  A    between atoms: C_10  and  N_11 
REMARK       I    between atoms: N_11  and  C_12 
REMARK    6  A    between atoms: C_12  and  C_13 
REMARK    7  A    between atoms: C_13  and  C_14 
REMARK    8  A    between atoms: N_21  and  C_22 
REMARK    9  A    between atoms: C_22  and  C_23 
REMARK       I    between atoms: C_23  and  N_24 
ROOT
HETATM    1  C   UNL     1      -4.339   5.075 -32.081  1.00  0.00     0.048 C 
HETATM    2  C   UNL     1      -3.225   5.356 -32.938  1.00  0.00     0.006 A 
HETATM    3  C   UNL     1      -2.649   6.555 -32.497  1.00  0.00     0.045 A 
HETATM    4  C   UNL     1      -1.514   7.113 -33.110  1.00  0.00     0.030 A 
HETATM    5  C   UNL     1      -0.961   6.453 -34.209  1.00  0.00     0.002 A 
HETATM    6  C   UNL     1      -1.514   5.268 -34.676  1.00  0.00     0.001 A 
HETATM    7  C   UNL     1      -2.635   4.709 -34.050  1.00  0.00     0.015 A 
HETATM    8  N   UNL     1      -3.385   6.987 -31.414  1.00  0.00    -0.346 N 
HETATM    9  C   UNL     1      -4.451   6.155 -31.220  1.00  0.00     0.108 C 
ENDROOT
BRANCH   1  10
HETATM   10  C   UNL     1      -5.254   3.937 -32.030  1.00  0.00     0.251 C 
HETATM   11  O   UNL     1      -5.905   3.587 -33.016  1.00  0.00    -0.281 OA
BRANCH  10  12
HETATM   12  C   UNL     1      -5.473   3.137 -30.743  1.00  0.00     0.292 C 
HETATM   13  N   UNL     1      -4.630   2.077 -30.477  1.00  0.00    -0.354 N 
HETATM   14  H   UNL     1      -4.951   1.506 -29.704  1.00  0.00     0.162 HD
HETATM   15  O   UNL     1      -6.390   3.422 -29.983  1.00  0.00    -0.264 OA
BRANCH  13  16
HETATM   16  C   UNL     1      -3.671   1.522 -31.418  1.00  0.00     0.127 C 
BRANCH  16  17
HETATM   17  C   UNL     1      -3.449   0.027 -31.191  1.00  0.00     0.058 C 
BRANCH  17  18
HETATM   18  C   UNL     1      -4.025  -0.800 -32.312  1.00  0.00    -0.054 A 
HETATM   19  C   UNL     1      -4.996  -0.259 -33.168  1.00  0.00     0.046 A 
HETATM   20  C   UNL     1      -5.572  -1.016 -34.203  1.00  0.00     0.102 A 
HETATM   21  C   UNL     1      -5.156  -2.349 -34.377  1.00  0.00     0.101 A 
HETATM   22  C   UNL     1      -4.194  -2.888 -33.511  1.00  0.00     0.040 A 
HETATM   23  C   UNL     1      -3.630  -2.126 -32.490  1.00  0.00     0.010 A 
BRANCH  20  24
HETATM   24  O   UNL     1      -6.536  -0.520 -35.040  1.00  0.00    -0.353 OA
HETATM   25  C   UNL     1      -7.164   0.707 -34.697  1.00  0.00     0.210 C 
ENDBRANCH  20  24
BRANCH  21  26
HETATM   26  O   UNL     1      -5.582  -3.265 -35.305  1.00  0.00    -0.353 OA
HETATM   27  C   UNL     1      -5.787  -4.608 -34.894  1.00  0.00     0.210 C 
ENDBRANCH  21  26
ENDBRANCH  17  18
ENDBRANCH  16  17
ENDBRANCH  13  16
ENDBRANCH  10  12
ENDBRANCH   1  10
BRANCH   8  28
HETATM   28  C   UNL     1      -3.116   8.175 -30.617  1.00  0.00     0.231 C 
BRANCH  28  29
HETATM   29  C   UNL     1      -3.141   7.886 -29.124  1.00  0.00     0.238 C 
HETATM   30  N   UNL     1      -2.046   7.273 -28.508  1.00  0.00    -0.351 N 
HETATM   31  C   UNL     1      -2.107   7.044 -27.062  1.00  0.00     0.126 C 
HETATM   32  C   UNL     1      -0.822   6.833 -29.186  1.00  0.00     0.126 C 
HETATM   33  C   UNL     1      -0.996   7.738 -26.270  1.00  0.00     0.020 C 
HETATM   34  C   UNL     1       0.364   7.063 -26.437  1.00  0.00     0.002 C 
HETATM   35  C   UNL     1       1.151   7.481 -27.678  1.00  0.00     0.002 C 
HETATM   36  C   UNL     1       0.342   7.785 -28.937  1.00  0.00     0.020 C 
HETATM   37  O   UNL     1      -4.155   8.190 -28.483  1.00  0.00    -0.272 OA
ENDBRANCH  28  29
ENDBRANCH   8  28
TORSDOF 9
ENDMDL
MODEL 8
REMARK VINA RESULT:      -8.0      1.645      2.484
REMARK  9 active torsions:
REMARK  status: ('A' for Active; 'I' for Inactive)
REMARK    1  A    between atoms: O_2  and  C_3 
REMARK    2  A    between atoms: C_4  and  O_5 
REMARK    3  A    between atoms: C_8  and  C_9 
REMARK    4  A    between atoms: C_9  and  C_10 
REMARK    5  A    between atoms: C_10  and  N_11 
REMARK       I    between atoms: N_11  and  C_12 
REMARK    6  A    between atoms: C_12  and  C_13 
REMARK    7  A    between atoms: C_13  and  C_14 
REMARK    8  A    between atoms: N_21  and  C_22 
REMARK    9  A    between atoms: C_22  and  C_23 
REMARK       I    between atoms: C_23  and  N_24 
ROOT
HETATM    1  C   UNL     1      -8.477   3.941 -32.879  1.00  0.00     0.048 C 
HETATM    2  C   UNL     1      -8.205   4.488 -31.581  1.00  0.00     0.006 A 
HETATM    3  C   UNL     1      -6.813   4.505 -31.418  1.00  0.00     0.045 A 
HETATM    4  C   UNL     1      -6.200   5.002 -30.255  1.00  0.00     0.030 A 
HETATM    5  C   UNL     1      -7.015   5.473 -29.225  1.00  0.00     0.002 A 
HETATM    6  C   UNL     1      -8.398   5.462 -29.353  1.00  0.00     0.001 A 
HETATM    7  C   UNL     1      -9.001   4.981 -30.521  1.00  0.00     0.015 A 
HETATM    8  N   UNL     1      -6.261   3.988 -32.571  1.00  0.00    -0.346 N 
HETATM    9  C   UNL     1      -7.254   3.564 -33.408  1.00  0.00     0.108 C 
ENDROOT
BRANCH   1  10
HETATM   10  C   UNL     1      -9.733   3.751 -33.601  1.00  0.00     0.251 C 
HETATM   11  O   UNL     1      -9.885   4.162 -34.752  1.00  0.00    -0.281 OA
BRANCH  10  12
HETATM   12  C   UNL     1     -10.935   3.056 -32.955  1.00  0.00     0.292 C 
HETATM   13  N   UNL     1     -10.847   1.704 -32.690  1.00  0.00    -0.354 N 
HETATM   14  H   UNL     1     -11.738   1.298 -32.427  1.00  0.00     0.162 HD
HETATM   15  O   UNL     1     -11.955   3.685 -32.704  1.00  0.00    -0.264 OA
BRANCH  13  16
HETATM   16  C   UNL     1      -9.782   0.834 -33.157  1.00  0.00     0.127 C 
BRANCH  16  17
HETATM   17  C   UNL     1      -8.769   0.528 -32.054  1.00  0.00     0.058 C 
BRANCH  17  18
HETATM   18  C   UNL     1      -7.564  -0.203 -32.589  1.00  0.00    -0.054 A 
HETATM   19  C   UNL     1      -6.390  -0.293 -31.824  1.00  0.00     0.046 A 
HETATM   20  C   UNL     1      -5.242  -0.943 -32.310  1.00  0.00     0.102 A 
HETATM   21  C   UNL     1      -5.280  -1.514 -33.595  1.00  0.00     0.101 A 
HETATM   22  C   UNL     1      -6.451  -1.409 -34.359  1.00  0.00     0.040 A 
HETATM   23  C   UNL     1      -7.584  -0.765 -33.865  1.00  0.00     0.010 A 
BRANCH  20  24
HETATM   24  O   UNL     1      -4.077  -1.028 -31.594  1.00  0.00    -0.353 OA
HETATM   25  C   UNL     1      -3.272   0.137 -31.471  1.00  0.00     0.210 C 
ENDBRANCH  20  24
BRANCH  21  26
HETATM   26  O   UNL     1      -4.287  -2.180 -34.266  1.00  0.00    -0.353 OA
HETATM   27  C   UNL     1      -4.139  -3.576 -34.058  1.00  0.00     0.210 C 
ENDBRANCH  21  26
ENDBRANCH  17  18
ENDBRANCH  16  17
ENDBRANCH  13  16
ENDBRANCH  10  12
ENDBRANCH   1  10
BRANCH   8  28
HETATM   28  C   UNL     1      -4.839   3.855 -32.852  1.00  0.00     0.231 C 
BRANCH  28  29
HETATM   29  C   UNL     1      -4.221   5.160 -33.328  1.00  0.00     0.238 C 
HETATM   30  N   UNL     1      -3.241   5.797 -32.561  1.00  0.00    -0.351 N 
HETATM   31  C   UNL     1      -2.655   7.036 -33.078  1.00  0.00     0.126 C 
HETATM   32  C   UNL     1      -2.737   5.330 -31.264  1.00  0.00     0.126 C 
HETATM   33  C   UNL     1      -1.140   6.972 -33.292  1.00  0.00     0.020 C 
HETATM   34  C   UNL     1      -0.353   7.010 -31.983  1.00  0.00     0.002 C 
HETATM   35  C   UNL     1      -0.192   5.662 -31.281  1.00  0.00     0.002 C 
HETATM   36  C   UNL     1      -1.360   4.685 -31.387  1.00  0.00     0.020 C 
HETATM   37  O   UNL     1      -4.620   5.646 -34.395  1.00  0.00    -0.272 OA
ENDBRANCH  28  29
ENDBRANCH   8  28
TORSDOF 9
ENDMDL
MODEL 9
REMARK VINA RESULT:      -7.9      3.435      9.073
REMARK  9 active torsions:
REMARK  status: ('A' for Active; 'I' for Inactive)
REMARK    1  A    between atoms: O_2  and  C_3 
REMARK    2  A    between atoms: C_4  and  O_5 
REMARK    3  A    between atoms: C_8  and  C_9 
REMARK    4  A    between atoms: C_9  and  C_10 
REMARK    5  A    between atoms: C_10  and  N_11 
REMARK       I    between atoms: N_11  and  C_12 
REMARK    6  A    between atoms: C_12  and  C_13 
REMARK    7  A    between atoms: C_13  and  C_14 
REMARK    8  A    between atoms: N_21  and  C_22 
REMARK    9  A    between atoms: C_22  and  C_23 
REMARK       I    between atoms: C_23  and  N_24 
ROOT
HETATM    1  C   UNL     1      -3.157   4.810 -32.948  1.00  0.00     0.048 C 
HETATM    2  C   UNL     1      -3.899   5.392 -31.869  1.00  0.00     0.006 A 
HETATM    3  C   UNL     1      -4.583   4.353 -31.222  1.00  0.00     0.045 A 
HETATM    4  C   UNL     1      -5.398   4.575 -30.099  1.00  0.00     0.030 A 
HETATM    5  C   UNL     1      -5.540   5.882 -29.630  1.00  0.00     0.002 A 
HETATM    6  C   UNL     1      -4.883   6.935 -30.254  1.00  0.00     0.001 A 
HETATM    7  C   UNL     1      -4.060   6.703 -31.363  1.00  0.00     0.015 A 
HETATM    8  N   UNL     1      -4.268   3.185 -31.884  1.00  0.00    -0.346 N 
HETATM    9  C   UNL     1      -3.492   3.466 -32.972  1.00  0.00     0.108 C 
ENDROOT
BRANCH   1  10
HETATM   10  C   UNL     1      -2.224   5.400 -33.905  1.00  0.00     0.251 C 
HETATM   11  O   UNL     1      -1.986   4.866 -34.989  1.00  0.00    -0.281 OA
BRANCH  10  12
HETATM   12  C   UNL     1      -1.473   6.699 -33.599  1.00  0.00     0.292 C 
HETATM   13  N   UNL     1      -0.521   6.688 -32.600  1.00  0.00    -0.354 N 
HETATM   14  H   UNL     1      -0.203   7.618 -32.352  1.00  0.00     0.162 HD
HETATM   15  O   UNL     1      -1.732   7.725 -34.214  1.00  0.00    -0.264 OA
BRANCH  13  16
HETATM   16  C   UNL     1      -0.308   5.594 -31.668  1.00  0.00     0.127 C 
BRANCH  16  17
HETATM   17  C   UNL     1       0.791   5.913 -30.654  1.00  0.00     0.058 C 
BRANCH  17  18
HETATM   18  C   UNL     1       0.229   6.520 -29.393  1.00  0.00    -0.054 A 
HETATM   19  C   UNL     1      -0.413   7.768 -29.429  1.00  0.00     0.046 A 
HETATM   20  C   UNL     1      -0.921   8.370 -28.264  1.00  0.00     0.102 A 
HETATM   21  C   UNL     1      -0.778   7.696 -27.038  1.00  0.00     0.101 A 
HETATM   22  C   UNL     1      -0.126   6.455 -27.006  1.00  0.00     0.040 A 
HETATM   23  C   UNL     1       0.371   5.868 -28.168  1.00  0.00     0.010 A 
BRANCH  20  24
HETATM   24  O   UNL     1      -1.532   9.596 -28.267  1.00  0.00    -0.353 OA
HETATM   25  C   UNL     1      -2.484   9.875 -29.284  1.00  0.00     0.210 C 
ENDBRANCH  20  24
BRANCH  21  26
HETATM   26  O   UNL     1      -1.184   8.094 -25.789  1.00  0.00    -0.353 OA
HETATM   27  C   UNL     1      -2.476   7.719 -25.340  1.00  0.00     0.210 C 
ENDBRANCH  21  26
ENDBRANCH  17  18
ENDBRANCH  16  17
ENDBRANCH  13  16
ENDBRANCH  10  12
ENDBRANCH   1  10
BRANCH   8  28
HETATM   28  C   UNL     1      -4.728   1.850 -31.526  1.00  0.00     0.231 C 
BRANCH  28  29
HETATM   29  C   UNL     1      -5.686   1.275 -32.558  1.00  0.00     0.238 C 
HETATM   30  N   UNL     1      -5.276   0.234 -33.396  1.00  0.00    -0.351 N 
HETATM   31  C   UNL     1      -6.245  -0.306 -34.352  1.00  0.00     0.126 C 
HETATM   32  C   UNL     1      -3.943  -0.379 -33.404  1.00  0.00     0.126 C 
HETATM   33  C   UNL     1      -6.542  -1.797 -34.171  1.00  0.00     0.020 C 
HETATM   34  C   UNL     1      -5.400  -2.692 -34.647  1.00  0.00     0.002 C 
HETATM   35  C   UNL     1      -4.280  -2.913 -33.632  1.00  0.00     0.002 C 
HETATM   36  C   UNL     1      -3.937  -1.740 -32.717  1.00  0.00     0.020 C 
HETATM   37  O   UNL     1      -6.820   1.764 -32.645  1.00  0.00    -0.272 OA
ENDBRANCH  28  29
ENDBRANCH   8  28
TORSDOF 9
ENDMDL
MODEL 10
REMARK VINA RESULT:      -7.9      3.188      8.735
REMARK  9 active torsions:
REMARK  status: ('A' for Active; 'I' for Inactive)
REMARK    1  A    between atoms: O_2  and  C_3 
REMARK    2  A    between atoms: C_4  and  O_5 
REMARK    3  A    between atoms: C_8  and  C_9 
REMARK    4  A    between atoms: C_9  and  C_10 
REMARK    5  A    between atoms: C_10  and  N_11 
REMARK       I    between atoms: N_11  and  C_12 
REMARK    6  A    between atoms: C_12  and  C_13 
REMARK    7  A    between atoms: C_13  and  C_14 
REMARK    8  A    between atoms: N_21  and  C_22 
REMARK    9  A    between atoms: C_22  and  C_23 
REMARK       I    between atoms: C_23  and  N_24 
ROOT
HETATM    1  C   UNL     1      -3.028   4.200 -32.605  1.00  0.00     0.048 C 
HETATM    2  C   UNL     1      -4.408   4.564 -32.739  1.00  0.00     0.006 A 
HETATM    3  C   UNL     1      -5.161   3.623 -32.022  1.00  0.00     0.045 A 
HETATM    4  C   UNL     1      -6.561   3.695 -31.929  1.00  0.00     0.030 A 
HETATM    5  C   UNL     1      -7.218   4.733 -32.594  1.00  0.00     0.002 A 
HETATM    6  C   UNL     1      -6.501   5.676 -33.318  1.00  0.00     0.001 A 
HETATM    7  C   UNL     1      -5.105   5.607 -33.393  1.00  0.00     0.015 A 
HETATM    8  N   UNL     1      -4.272   2.722 -31.475  1.00  0.00    -0.346 N 
HETATM    9  C   UNL     1      -3.005   3.009 -31.898  1.00  0.00     0.108 C 
ENDROOT
BRANCH   1  10
HETATM   10  C   UNL     1      -1.809   4.851 -33.079  1.00  0.00     0.251 C 
HETATM   11  O   UNL     1      -1.551   4.943 -34.280  1.00  0.00    -0.281 OA
BRANCH  10  12
HETATM   12  C   UNL     1      -0.776   5.428 -32.108  1.00  0.00     0.292 C 
HETATM   13  N   UNL     1      -0.806   6.783 -31.845  1.00  0.00    -0.354 N 
HETATM   14  H   UNL     1       0.010   7.101 -31.334  1.00  0.00     0.162 HD
HETATM   15  O   UNL     1       0.070   4.704 -31.598  1.00  0.00    -0.264 OA
BRANCH  13  16
HETATM   16  C   UNL     1      -1.612   7.751 -32.568  1.00  0.00     0.127 C 
BRANCH  16  17
HETATM   17  C   UNL     1      -2.168   8.835 -31.645  1.00  0.00     0.058 C 
BRANCH  17  18
HETATM   18  C   UNL     1      -2.795   8.245 -30.407  1.00  0.00    -0.054 A 
HETATM   19  C   UNL     1      -2.182   8.406 -29.154  1.00  0.00     0.046 A 
HETATM   20  C   UNL     1      -2.729   7.843 -27.988  1.00  0.00     0.102 A 
HETATM   21  C   UNL     1      -3.920   7.103 -28.088  1.00  0.00     0.101 A 
HETATM   22  C   UNL     1      -4.522   6.936 -29.344  1.00  0.00     0.040 A 
HETATM   23  C   UNL     1      -3.971   7.501 -30.493  1.00  0.00     0.010 A 
BRANCH  20  24
HETATM   24  O   UNL     1      -2.141   7.966 -26.757  1.00  0.00    -0.353 OA
HETATM   25  C   UNL     1      -0.846   7.410 -26.566  1.00  0.00     0.210 C 
ENDBRANCH  20  24
BRANCH  21  26
HETATM   26  O   UNL     1      -4.620   6.464 -27.096  1.00  0.00    -0.353 OA
HETATM   27  C   UNL     1      -5.693   5.611 -27.458  1.00  0.00     0.210 C 
ENDBRANCH  21  26
ENDBRANCH  17  18
ENDBRANCH  16  17
ENDBRANCH  13  16
ENDBRANCH  10  12
ENDBRANCH   1  10
BRANCH   8  28
HETATM   28  C   UNL     1      -4.616   1.595 -30.619  1.00  0.00     0.231 C 
BRANCH  28  29
HETATM   29  C   UNL     1      -4.120   0.272 -31.181  1.00  0.00     0.238 C 
HETATM   30  N   UNL     1      -4.964  -0.520 -31.965  1.00  0.00    -0.351 N 
HETATM   31  C   UNL     1      -4.429  -1.771 -32.508  1.00  0.00     0.126 C 
HETATM   32  C   UNL     1      -6.357  -0.208 -32.301  1.00  0.00     0.126 C 
HETATM   33  C   UNL     1      -4.449  -1.851 -34.037  1.00  0.00     0.020 C 
HETATM   34  C   UNL     1      -5.851  -2.070 -34.602  1.00  0.00     0.002 C 
HETATM   35  C   UNL     1      -6.688  -0.804 -34.776  1.00  0.00     0.002 C 
HETATM   36  C   UNL     1      -6.500   0.296 -33.734  1.00  0.00     0.020 C 
HETATM   37  O   UNL     1      -2.967  -0.087 -30.910  1.00  0.00    -0.272 OA
ENDBRANCH  28  29
ENDBRANCH   8  28
TORSDOF 9
ENDMDL
