MODEL 1
REMARK VINA RESULT:      -8.5      0.000      0.000
REMARK  7 active torsions:
REMARK  status: ('A' for Active; 'I' for Inactive)
REMARK    1  A    between atoms: C_4  and  C_5 
REMARK    2  A    between atoms: C_7  and  C_8 
REMARK    3  A    between atoms: C_8  and  N_9 
REMARK       I    between atoms: N_9  and  C_10 
REMARK       I    between atoms: C_10  and  N_11 
REMARK    4  A    between atoms: N_11  and  C_12 
REMARK    5  A    between atoms: C_14  and  O_15 
REMARK    6  A    between atoms: O_15  and  C_16 
REMARK    7  A    between atoms: C_16  and  C_17 
ROOT
HETATM    1  N   UNL     1      -5.502   3.048 -33.340  1.00  0.00    -0.339 N 
HETATM    2  C   UNL     1      -6.030   2.684 -32.136  1.00  0.00     0.320 C 
HETATM    3  N   UNL     1      -6.151   1.352 -31.888  1.00  0.00    -0.309 N 
HETATM    4  O   UNL     1      -6.323   3.492 -31.259  1.00  0.00    -0.247 OA
HETATM    5  H   UNL     1      -4.803   2.394 -33.656  1.00  0.00     0.164 HD
HETATM    6  H   UNL     1      -6.314   1.181 -30.902  1.00  0.00     0.170 HD
ENDROOT
BRANCH   1   7
HETATM    7  C   UNL     1      -5.220   4.448 -33.580  1.00  0.00     0.162 C 
BRANCH   7   8
HETATM    8  C   UNL     1      -3.758   4.827 -33.548  1.00  0.00    -0.040 A 
HETATM    9  C   UNL     1      -3.008   4.936 -32.367  1.00  0.00     0.024 A 
HETATM   10  C   UNL     1      -1.663   5.347 -32.388  1.00  0.00     0.014 A 
HETATM   11  C   UNL     1      -1.067   5.660 -33.615  1.00  0.00     0.015 A 
HETATM   12  C   UNL     1      -1.798   5.559 -34.799  1.00  0.00     0.002 A 
HETATM   13  C   UNL     1      -3.131   5.150 -34.762  1.00  0.00     0.009 A 
BRANCH  10  14
HETATM   14  C   UNL     1      -0.896   5.447 -31.150  1.00  0.00     0.181 A 
HETATM   15  N   UNL     1      -0.627   6.653 -30.539  1.00  0.00    -0.212 NA
HETATM   16  C   UNL     1       0.079   6.320 -29.480  1.00  0.00     0.118 A 
HETATM   17  C   UNL     1       0.625   7.212 -28.437  1.00  0.00     0.093 C 
HETATM   18  N   UNL     1       0.247   4.966 -29.470  1.00  0.00    -0.263 N 
HETATM   19  N   UNL     1      -0.383   4.388 -30.504  1.00  0.00    -0.152 NA
HETATM   20  H   UNL     1       0.759   4.388 -28.814  1.00  0.00     0.190 HD
ENDBRANCH  10  14
ENDBRANCH   7   8
ENDBRANCH   1   7
BRANCH   3  21
HETATM   21  C   UNL     1      -6.172   0.224 -32.728  1.00  0.00     0.039 A 
HETATM   22  C   UNL     1      -5.066  -0.606 -32.959  1.00  0.00     0.066 A 
HETATM   23  C   UNL     1      -5.164  -1.683 -33.847  1.00  0.00     0.070 A 
HETATM   24  C   UNL     1      -6.373  -1.931 -34.500  1.00  0.00     0.037 A 
HETATM   25  C   UNL     1      -7.472  -1.103 -34.292  1.00  0.00     0.005 A 
HETATM   26  C   UNL     1      -7.366  -0.022 -33.418  1.00  0.00     0.030 A 
BRANCH  23  27
HETATM   27  O   UNL     1      -4.158  -2.549 -34.178  1.00  0.00    -0.349 OA
BRANCH  27  28
HETATM   28  C   UNL     1      -4.498  -3.932 -34.312  1.00  0.00     0.207 C 
BRANCH  28  29
HETATM   29  C   UNL     1      -3.447  -4.762 -33.590  1.00  0.00     0.248 C 
HETATM   30  F   UNL     1      -3.228  -4.245 -32.347  1.00  0.00    -0.253 F 
ENDBRANCH  28  29
ENDBRANCH  27  28
ENDBRANCH  23  27
ENDBRANCH   3  21
TORSDOF 7
ENDMDL
MODEL 2
REMARK VINA RESULT:      -8.4      1.372      1.850
REMARK  7 active torsions:
REMARK  status: ('A' for Active; 'I' for Inactive)
REMARK    1  A    between atoms: C_4  and  C_5 
REMARK    2  A    between atoms: C_7  and  C_8 
REMARK    3  A    between atoms: C_8  and  N_9 
REMARK       I    between atoms: N_9  and  C_10 
REMARK       I    between atoms: C_10  and  N_11 
REMARK    4  A    between atoms: N_11  and  C_12 
REMARK    5  A    between atoms: C_14  and  O_15 
REMARK    6  A    between atoms: O_15  and  C_16 
REMARK    7  A    between atoms: C_16  and  C_17 
ROOT
HETATM    1  N   UNL     1      -4.757   3.027 -32.979  1.00  0.00    -0.339 N 
HETATM    2  C   UNL     1      -5.745   2.658 -32.114  1.00  0.00     0.320 C 
HETATM    3  N   UNL     1      -5.739   1.370 -31.676  1.00  0.00    -0.309 N 
HETATM    4  O   UNL     1      -6.575   3.446 -31.668  1.00  0.00    -0.247 OA
HETATM    5  H   UNL     1      -3.891   2.546 -32.786  1.00  0.00     0.164 HD
HETATM    6  H   UNL     1      -6.343   1.260 -30.870  1.00  0.00     0.170 HD
ENDROOT
BRANCH   1   7
HETATM    7  C   UNL     1      -4.641   4.422 -33.348  1.00  0.00     0.162 C 
BRANCH   7   8
HETATM    8  C   UNL     1      -3.263   5.020 -33.192  1.00  0.00    -0.040 A 
HETATM    9  C   UNL     1      -2.509   4.942 -32.011  1.00  0.00     0.024 A 
HETATM   10  C   UNL     1      -1.254   5.565 -31.900  1.00  0.00     0.014 A 
HETATM   11  C   UNL     1      -0.752   6.282 -32.992  1.00  0.00     0.015 A 
HETATM   12  C   UNL     1      -1.487   6.373 -34.173  1.00  0.00     0.002 A 
HETATM   13  C   UNL     1      -2.733   5.750 -34.269  1.00  0.00     0.009 A 
BRANCH  10  14
HETATM   14  C   UNL     1      -0.481   5.466 -30.666  1.00  0.00     0.181 A 
HETATM   15  N   UNL     1      -0.433   6.483 -29.736  1.00  0.00    -0.212 NA
HETATM   16  C   UNL     1       0.360   6.015 -28.797  1.00  0.00     0.118 A 
HETATM   17  C   UNL     1       0.755   6.671 -27.534  1.00  0.00     0.093 C 
HETATM   18  N   UNL     1       0.790   4.773 -29.161  1.00  0.00    -0.263 N 
HETATM   19  N   UNL     1       0.252   4.392 -30.329  1.00  0.00    -0.152 NA
HETATM   20  H   UNL     1       1.427   4.147 -28.681  1.00  0.00     0.190 HD
ENDBRANCH  10  14
ENDBRANCH   7   8
ENDBRANCH   1   7
BRANCH   3  21
HETATM   21  C   UNL     1      -5.138   0.199 -32.171  1.00  0.00     0.039 A 
HETATM   22  C   UNL     1      -5.570  -0.483 -33.316  1.00  0.00     0.066 A 
HETATM   23  C   UNL     1      -4.940  -1.668 -33.713  1.00  0.00     0.070 A 
HETATM   24  C   UNL     1      -3.871  -2.166 -32.964  1.00  0.00     0.037 A 
HETATM   25  C   UNL     1      -3.446  -1.506 -31.815  1.00  0.00     0.005 A 
HETATM   26  C   UNL     1      -4.086  -0.334 -31.415  1.00  0.00     0.030 A 
BRANCH  23  27
HETATM   27  O   UNL     1      -5.278  -2.440 -34.791  1.00  0.00    -0.349 OA
BRANCH  27  28
HETATM   28  C   UNL     1      -5.159  -3.859 -34.648  1.00  0.00     0.207 C 
BRANCH  28  29
HETATM   29  C   UNL     1      -6.468  -4.502 -35.079  1.00  0.00     0.248 C 
HETATM   30  F   UNL     1      -7.468  -4.121 -34.232  1.00  0.00    -0.253 F 
ENDBRANCH  28  29
ENDBRANCH  27  28
ENDBRANCH  23  27
ENDBRANCH   3  21
TORSDOF 7
ENDMDL
MODEL 3
REMARK VINA RESULT:      -8.3      4.405      8.907
REMARK  7 active torsions:
REMARK  status: ('A' for Active; 'I' for Inactive)
REMARK    1  A    between atoms: C_4  and  C_5 
REMARK    2  A    between atoms: C_7  and  C_8 
REMARK    3  A    between atoms: C_8  and  N_9 
REMARK       I    between atoms: N_9  and  C_10 
REMARK       I    between atoms: C_10  and  N_11 
REMARK    4  A    between atoms: N_11  and  C_12 
REMARK    5  A    between atoms: C_14  and  O_15 
REMARK    6  A    between atoms: O_15  and  C_16 
REMARK    7  A    between atoms: C_16  and  C_17 
ROOT
HETATM    1  N   UNL     1      -2.417   6.084 -32.697  1.00  0.00    -0.339 N 
HETATM    2  C   UNL     1      -1.510   7.057 -32.999  1.00  0.00     0.320 C 
HETATM    3  N   UNL     1      -0.373   7.100 -32.253  1.00  0.00    -0.309 N 
HETATM    4  O   UNL     1      -1.643   7.828 -33.945  1.00  0.00    -0.247 OA
HETATM    5  H   UNL     1      -1.968   5.237 -32.381  1.00  0.00     0.164 HD
HETATM    6  H   UNL     1       0.330   7.678 -32.699  1.00  0.00     0.170 HD
ENDROOT
BRANCH   1   7
HETATM    7  C   UNL     1      -3.565   5.911 -33.561  1.00  0.00     0.162 C 
BRANCH   7   8
HETATM    8  C   UNL     1      -4.312   4.608 -33.392  1.00  0.00    -0.040 A 
HETATM    9  C   UNL     1      -3.735   3.444 -32.862  1.00  0.00     0.024 A 
HETATM   10  C   UNL     1      -4.458   2.241 -32.778  1.00  0.00     0.014 A 
HETATM   11  C   UNL     1      -5.778   2.208 -33.240  1.00  0.00     0.015 A 
HETATM   12  C   UNL     1      -6.368   3.355 -33.772  1.00  0.00     0.002 A 
HETATM   13  C   UNL     1      -5.638   4.542 -33.849  1.00  0.00     0.009 A 
BRANCH  10  14
HETATM   14  C   UNL     1      -3.844   1.042 -32.217  1.00  0.00     0.181 A 
HETATM   15  N   UNL     1      -4.100  -0.222 -32.706  1.00  0.00    -0.212 NA
HETATM   16  C   UNL     1      -3.377  -1.010 -31.940  1.00  0.00     0.118 A 
HETATM   17  C   UNL     1      -3.241  -2.478 -32.021  1.00  0.00     0.093 C 
HETATM   18  N   UNL     1      -2.728  -0.249 -31.012  1.00  0.00    -0.263 N 
HETATM   19  N   UNL     1      -2.989   1.056 -31.183  1.00  0.00    -0.152 NA
HETATM   20  H   UNL     1      -2.114  -0.538 -30.260  1.00  0.00     0.190 HD
ENDBRANCH  10  14
ENDBRANCH   7   8
ENDBRANCH   1   7
BRANCH   3  21
HETATM   21  C   UNL     1      -0.042   6.578 -30.989  1.00  0.00     0.039 A 
HETATM   22  C   UNL     1      -0.286   7.239 -29.777  1.00  0.00     0.066 A 
HETATM   23  C   UNL     1       0.116   6.665 -28.566  1.00  0.00     0.070 A 
HETATM   24  C   UNL     1       0.757   5.425 -28.569  1.00  0.00     0.037 A 
HETATM   25  C   UNL     1       1.019   4.769 -29.768  1.00  0.00     0.005 A 
HETATM   26  C   UNL     1       0.631   5.351 -30.973  1.00  0.00     0.030 A 
BRANCH  23  27
HETATM   27  O   UNL     1      -0.038   7.215 -27.323  1.00  0.00    -0.349 OA
BRANCH  27  28
HETATM   28  C   UNL     1       1.151   7.557 -26.602  1.00  0.00     0.207 C 
BRANCH  28  29
HETATM   29  C   UNL     1       1.535   8.986 -26.952  1.00  0.00     0.248 C 
HETATM   30  F   UNL     1       2.219   9.003 -28.132  1.00  0.00    -0.253 F 
ENDBRANCH  28  29
ENDBRANCH  27  28
ENDBRANCH  23  27
ENDBRANCH   3  21
TORSDOF 7
ENDMDL
MODEL 4
REMARK VINA RESULT:      -8.3      3.736      8.489
REMARK  7 active torsions:
REMARK  status: ('A' for Active; 'I' for Inactive)
REMARK    1  A    between atoms: C_4  and  C_5 
REMARK    2  A    between atoms: C_7  and  C_8 
REMARK    3  A    between atoms: C_8  and  N_9 
REMARK       I    between atoms: N_9  and  C_10 
REMARK       I    between atoms: C_10  and  N_11 
REMARK    4  A    between atoms: N_11  and  C_12 
REMARK    5  A    between atoms: C_14  and  O_15 
REMARK    6  A    between atoms: O_15  and  C_16 
REMARK    7  A    between atoms: C_16  and  C_17 
ROOT
HETATM    1  N   UNL     1      -5.787   3.640 -33.100  1.00  0.00    -0.339 N 
HETATM    2  C   UNL     1      -6.123   4.720 -33.863  1.00  0.00     0.320 C 
HETATM    3  N   UNL     1      -5.106   5.502 -34.316  1.00  0.00    -0.309 N 
HETATM    4  O   UNL     1      -7.275   4.965 -34.211  1.00  0.00    -0.247 OA
HETATM    5  H   UNL     1      -4.908   3.237 -33.388  1.00  0.00     0.164 HD
HETATM    6  H   UNL     1      -5.424   6.115 -35.057  1.00  0.00     0.170 HD
ENDROOT
BRANCH   1   7
HETATM    7  C   UNL     1      -6.825   2.703 -32.726  1.00  0.00     0.162 C 
BRANCH   7   8
HETATM    8  C   UNL     1      -6.780   1.371 -33.437  1.00  0.00    -0.040 A 
HETATM    9  C   UNL     1      -5.866   0.353 -33.126  1.00  0.00     0.024 A 
HETATM   10  C   UNL     1      -5.830  -0.848 -33.856  1.00  0.00     0.014 A 
HETATM   11  C   UNL     1      -6.723  -1.023 -34.920  1.00  0.00     0.015 A 
HETATM   12  C   UNL     1      -7.636  -0.022 -35.246  1.00  0.00     0.002 A 
HETATM   13  C   UNL     1      -7.660   1.165 -34.512  1.00  0.00     0.009 A 
BRANCH  10  14
HETATM   14  C   UNL     1      -4.878  -1.899 -33.513  1.00  0.00     0.181 A 
HETATM   15  N   UNL     1      -4.791  -3.082 -34.216  1.00  0.00    -0.212 NA
HETATM   16  C   UNL     1      -3.840  -3.748 -33.599  1.00  0.00     0.118 A 
HETATM   17  C   UNL     1      -3.301  -5.081 -33.937  1.00  0.00     0.093 C 
HETATM   18  N   UNL     1      -3.388  -3.002 -32.551  1.00  0.00    -0.263 N 
HETATM   19  N   UNL     1      -4.013  -1.816 -32.490  1.00  0.00    -0.152 NA
HETATM   20  H   UNL     1      -2.682  -3.227 -31.859  1.00  0.00     0.190 HD
ENDBRANCH  10  14
ENDBRANCH   7   8
ENDBRANCH   1   7
BRANCH   3  21
HETATM   21  C   UNL     1      -3.771   5.663 -33.902  1.00  0.00     0.039 A 
HETATM   22  C   UNL     1      -3.389   6.291 -32.708  1.00  0.00     0.066 A 
HETATM   23  C   UNL     1      -2.034   6.448 -32.395  1.00  0.00     0.070 A 
HETATM   24  C   UNL     1      -1.062   5.970 -33.276  1.00  0.00     0.037 A 
HETATM   25  C   UNL     1      -1.431   5.361 -34.471  1.00  0.00     0.005 A 
HETATM   26  C   UNL     1      -2.781   5.220 -34.787  1.00  0.00     0.030 A 
BRANCH  23  27
HETATM   27  O   UNL     1      -1.530   7.062 -31.281  1.00  0.00    -0.349 OA
BRANCH  27  28
HETATM   28  C   UNL     1      -1.068   6.222 -30.219  1.00  0.00     0.207 C 
BRANCH  28  29
HETATM   29  C   UNL     1       0.342   6.648 -29.842  1.00  0.00     0.248 C 
HETATM   30  F   UNL     1       0.979   7.152 -30.939  1.00  0.00    -0.253 F 
ENDBRANCH  28  29
ENDBRANCH  27  28
ENDBRANCH  23  27
ENDBRANCH   3  21
TORSDOF 7
ENDMDL
MODEL 5
REMARK VINA RESULT:      -8.0      3.848      9.117
REMARK  7 active torsions:
REMARK  status: ('A' for Active; 'I' for Inactive)
REMARK    1  A    between atoms: C_4  and  C_5 
REMARK    2  A    between atoms: C_7  and  C_8 
REMARK    3  A    between atoms: C_8  and  N_9 
REMARK       I    between atoms: N_9  and  C_10 
REMARK       I    between atoms: C_10  and  N_11 
REMARK    4  A    between atoms: N_11  and  C_12 
REMARK    5  A    between atoms: C_14  and  O_15 
REMARK    6  A    between atoms: O_15  and  C_16 
REMARK    7  A    between atoms: C_16  and  C_17 
ROOT
HETATM    1  N   UNL     1      -4.716   3.669 -32.948  1.00  0.00    -0.339 N 
HETATM    2  C   UNL     1      -5.180   4.682 -33.734  1.00  0.00     0.320 C 
HETATM    3  N   UNL     1      -4.350   5.742 -33.937  1.00  0.00    -0.309 N 
HETATM    4  O   UNL     1      -6.262   4.641 -34.314  1.00  0.00    -0.247 OA
HETATM    5  H   UNL     1      -3.721   3.539 -33.051  1.00  0.00     0.164 HD
HETATM    6  H   UNL     1      -4.673   6.310 -34.712  1.00  0.00     0.170 HD
ENDROOT
BRANCH   1   7
HETATM    7  C   UNL     1      -5.507   2.462 -32.831  1.00  0.00     0.162 C 
BRANCH   7   8
HETATM    8  C   UNL     1      -4.722   1.199 -32.560  1.00  0.00    -0.040 A 
HETATM    9  C   UNL     1      -4.974  -0.026 -33.197  1.00  0.00     0.024 A 
HETATM   10  C   UNL     1      -4.251  -1.185 -32.867  1.00  0.00     0.014 A 
HETATM   11  C   UNL     1      -3.264  -1.113 -31.878  1.00  0.00     0.015 A 
HETATM   12  C   UNL     1      -3.001   0.095 -31.232  1.00  0.00     0.002 A 
HETATM   13  C   UNL     1      -3.728   1.238 -31.570  1.00  0.00     0.009 A 
BRANCH  10  14
HETATM   14  C   UNL     1      -4.522  -2.449 -33.546  1.00  0.00     0.181 A 
HETATM   15  N   UNL     1      -5.644  -2.651 -34.320  1.00  0.00    -0.212 NA
HETATM   16  C   UNL     1      -5.523  -3.893 -34.736  1.00  0.00     0.118 A 
HETATM   17  C   UNL     1      -6.431  -4.645 -35.625  1.00  0.00     0.093 C 
HETATM   18  N   UNL     1      -4.380  -4.423 -34.212  1.00  0.00    -0.263 N 
HETATM   19  N   UNL     1      -3.716  -3.521 -33.475  1.00  0.00    -0.152 NA
HETATM   20  H   UNL     1      -4.002  -5.359 -34.310  1.00  0.00     0.190 HD
ENDBRANCH  10  14
ENDBRANCH   7   8
ENDBRANCH   1   7
BRANCH   3  21
HETATM   21  C   UNL     1      -3.223   6.215 -33.241  1.00  0.00     0.039 A 
HETATM   22  C   UNL     1      -3.217   6.529 -31.875  1.00  0.00     0.066 A 
HETATM   23  C   UNL     1      -2.061   7.037 -31.272  1.00  0.00     0.070 A 
HETATM   24  C   UNL     1      -0.908   7.224 -32.038  1.00  0.00     0.037 A 
HETATM   25  C   UNL     1      -0.909   6.932 -33.399  1.00  0.00     0.005 A 
HETATM   26  C   UNL     1      -2.067   6.441 -33.999  1.00  0.00     0.030 A 
BRANCH  23  27
HETATM   27  O   UNL     1      -1.930   7.405 -29.961  1.00  0.00    -0.349 OA
BRANCH  27  28
HETATM   28  C   UNL     1      -0.832   6.853 -29.228  1.00  0.00     0.207 C 
BRANCH  28  29
HETATM   29  C   UNL     1      -0.075   7.990 -28.559  1.00  0.00     0.248 C 
HETATM   30  F   UNL     1       1.195   8.050 -29.053  1.00  0.00    -0.253 F 
ENDBRANCH  28  29
ENDBRANCH  27  28
ENDBRANCH  23  27
ENDBRANCH   3  21
TORSDOF 7
ENDMDL
MODEL 6
REMARK VINA RESULT:      -8.0      3.481      8.635
REMARK  7 active torsions:
REMARK  status: ('A' for Active; 'I' for Inactive)
REMARK    1  A    between atoms: C_4  and  C_5 
REMARK    2  A    between atoms: C_7  and  C_8 
REMARK    3  A    between atoms: C_8  and  N_9 
REMARK       I    between atoms: N_9  and  C_10 
REMARK       I    between atoms: C_10  and  N_11 
REMARK    4  A    between atoms: N_11  and  C_12 
REMARK    5  A    between atoms: C_14  and  O_15 
REMARK    6  A    between atoms: O_15  and  C_16 
REMARK    7  A    between atoms: C_16  and  C_17 
ROOT
HETATM    1  N   UNL     1      -5.762   2.740 -31.692  1.00  0.00    -0.339 N 
HETATM    2  C   UNL     1      -5.873   3.827 -30.875  1.00  0.00     0.320 C 
HETATM    3  N   UNL     1      -5.069   4.891 -31.143  1.00  0.00    -0.309 N 
HETATM    4  O   UNL     1      -6.705   3.909 -29.975  1.00  0.00    -0.247 OA
HETATM    5  H   UNL     1      -5.547   3.005 -32.641  1.00  0.00     0.164 HD
HETATM    6  H   UNL     1      -5.389   5.719 -30.654  1.00  0.00     0.170 HD
ENDROOT
BRANCH   1   7
HETATM    7  C   UNL     1      -6.703   1.652 -31.532  1.00  0.00     0.162 C 
BRANCH   7   8
HETATM    8  C   UNL     1      -6.922   0.801 -32.761  1.00  0.00    -0.040 A 
HETATM    9  C   UNL     1      -6.354  -0.469 -32.940  1.00  0.00     0.024 A 
HETATM   10  C   UNL     1      -6.545  -1.197 -34.128  1.00  0.00     0.014 A 
HETATM   11  C   UNL     1      -7.313  -0.634 -35.153  1.00  0.00     0.015 A 
HETATM   12  C   UNL     1      -7.884   0.628 -34.994  1.00  0.00     0.002 A 
HETATM   13  C   UNL     1      -7.686   1.339 -33.809  1.00  0.00     0.009 A 
BRANCH  10  14
HETATM   14  C   UNL     1      -5.952  -2.520 -34.294  1.00  0.00     0.181 A 
HETATM   15  N   UNL     1      -4.669  -2.816 -33.885  1.00  0.00    -0.212 NA
HETATM   16  C   UNL     1      -4.516  -4.080 -34.213  1.00  0.00     0.118 A 
HETATM   17  C   UNL     1      -3.335  -4.939 -33.990  1.00  0.00     0.093 C 
HETATM   18  N   UNL     1      -5.657  -4.520 -34.818  1.00  0.00    -0.263 N 
HETATM   19  N   UNL     1      -6.591  -3.557 -34.858  1.00  0.00    -0.152 NA
HETATM   20  H   UNL     1      -5.865  -5.430 -35.212  1.00  0.00     0.190 HD
ENDBRANCH  10  14
ENDBRANCH   7   8
ENDBRANCH   1   7
BRANCH   3  21
HETATM   21  C   UNL     1      -3.877   5.022 -31.878  1.00  0.00     0.039 A 
HETATM   22  C   UNL     1      -2.599   4.776 -31.356  1.00  0.00     0.066 A 
HETATM   23  C   UNL     1      -1.462   4.974 -32.147  1.00  0.00     0.070 A 
HETATM   24  C   UNL     1      -1.606   5.414 -33.464  1.00  0.00     0.037 A 
HETATM   25  C   UNL     1      -2.868   5.678 -33.987  1.00  0.00     0.005 A 
HETATM   26  C   UNL     1      -3.997   5.494 -33.191  1.00  0.00     0.030 A 
BRANCH  23  27
HETATM   27  O   UNL     1      -0.164   4.796 -31.752  1.00  0.00    -0.349 OA
BRANCH  27  28
HETATM   28  C   UNL     1       0.236   5.396 -30.516  1.00  0.00     0.207 C 
BRANCH  28  29
HETATM   29  C   UNL     1       0.587   6.853 -30.776  1.00  0.00     0.248 C 
HETATM   30  F   UNL     1      -0.501   7.639 -30.531  1.00  0.00    -0.253 F 
ENDBRANCH  28  29
ENDBRANCH  27  28
ENDBRANCH  23  27
ENDBRANCH   3  21
TORSDOF 7
ENDMDL
MODEL 7
REMARK VINA RESULT:      -7.8      3.540      9.386
REMARK  7 active torsions:
REMARK  status: ('A' for Active; 'I' for Inactive)
REMARK    1  A    between atoms: C_4  and  C_5 
REMARK    2  A    between atoms: C_7  and  C_8 
REMARK    3  A    between atoms: C_8  and  N_9 
REMARK       I    between atoms: N_9  and  C_10 
REMARK       I    between atoms: C_10  and  N_11 
REMARK    4  A    between atoms: N_11  and  C_12 
REMARK    5  A    between atoms: C_14  and  O_15 
REMARK    6  A    between atoms: O_15  and  C_16 
REMARK    7  A    between atoms: C_16  and  C_17 
ROOT
HETATM    1  N   UNL     1      -3.681   3.509 -31.034  1.00  0.00    -0.339 N 
HETATM    2  C   UNL     1      -3.755   4.287 -32.152  1.00  0.00     0.320 C 
HETATM    3  N   UNL     1      -2.752   5.185 -32.352  1.00  0.00    -0.309 N 
HETATM    4  O   UNL     1      -4.631   4.158 -33.003  1.00  0.00    -0.247 OA
HETATM    5  H   UNL     1      -2.726   3.286 -30.794  1.00  0.00     0.164 HD
HETATM    6  H   UNL     1      -2.762   5.530 -33.305  1.00  0.00     0.170 HD
ENDROOT
BRANCH   1   7
HETATM    7  C   UNL     1      -4.645   2.443 -30.863  1.00  0.00     0.162 C 
BRANCH   7   8
HETATM    8  C   UNL     1      -4.236   1.104 -31.431  1.00  0.00    -0.040 A 
HETATM    9  C   UNL     1      -5.064   0.318 -32.246  1.00  0.00     0.024 A 
HETATM   10  C   UNL     1      -4.655  -0.948 -32.702  1.00  0.00     0.014 A 
HETATM   11  C   UNL     1      -3.397  -1.432 -32.327  1.00  0.00     0.015 A 
HETATM   12  C   UNL     1      -2.561  -0.665 -31.515  1.00  0.00     0.002 A 
HETATM   13  C   UNL     1      -2.980   0.589 -31.070  1.00  0.00     0.009 A 
BRANCH  10  14
HETATM   14  C   UNL     1      -5.527  -1.748 -33.556  1.00  0.00     0.181 A 
HETATM   15  N   UNL     1      -5.119  -2.933 -34.131  1.00  0.00    -0.212 NA
HETATM   16  C   UNL     1      -6.169  -3.330 -34.816  1.00  0.00     0.118 A 
HETATM   17  C   UNL     1      -6.316  -4.561 -35.619  1.00  0.00     0.093 C 
HETATM   18  N   UNL     1      -7.163  -2.406 -34.676  1.00  0.00    -0.263 N 
HETATM   19  N   UNL     1      -6.789  -1.407 -33.862  1.00  0.00    -0.152 NA
HETATM   20  H   UNL     1      -8.088  -2.390 -35.088  1.00  0.00     0.190 HD
ENDBRANCH  10  14
ENDBRANCH   7   8
ENDBRANCH   1   7
BRANCH   3  21
HETATM   21  C   UNL     1      -1.799   5.756 -31.490  1.00  0.00     0.039 A 
HETATM   22  C   UNL     1      -2.114   6.627 -30.437  1.00  0.00     0.066 A 
HETATM   23  C   UNL     1      -1.097   7.185 -29.654  1.00  0.00     0.070 A 
HETATM   24  C   UNL     1       0.235   6.865 -29.924  1.00  0.00     0.037 A 
HETATM   25  C   UNL     1       0.559   6.016 -30.977  1.00  0.00     0.005 A 
HETATM   26  C   UNL     1      -0.455   5.474 -31.764  1.00  0.00     0.030 A 
BRANCH  23  27
HETATM   27  O   UNL     1      -1.266   8.064 -28.619  1.00  0.00    -0.349 OA
BRANCH  27  28
HETATM   28  C   UNL     1      -0.538   7.810 -27.414  1.00  0.00     0.207 C 
BRANCH  28  29
HETATM   29  C   UNL     1      -1.258   6.722 -26.632  1.00  0.00     0.248 C 
HETATM   30  F   UNL     1      -0.450   5.630 -26.511  1.00  0.00    -0.253 F 
ENDBRANCH  28  29
ENDBRANCH  27  28
ENDBRANCH  23  27
ENDBRANCH   3  21
TORSDOF 7
ENDMDL
MODEL 8
REMARK VINA RESULT:      -7.6      1.913      2.508
REMARK  7 active torsions:
REMARK  status: ('A' for Active; 'I' for Inactive)
REMARK    1  A    between atoms: C_4  and  C_5 
REMARK    2  A    between atoms: C_7  and  C_8 
REMARK    3  A    between atoms: C_8  and  N_9 
REMARK       I    between atoms: N_9  and  C_10 
REMARK       I    between atoms: C_10  and  N_11 
REMARK    4  A    between atoms: N_11  and  C_12 
REMARK    5  A    between atoms: C_14  and  O_15 
REMARK    6  A    between atoms: O_15  and  C_16 
REMARK    7  A    between atoms: C_16  and  C_17 
ROOT
HETATM    1  N   UNL     1      -5.063   3.289 -33.575  1.00  0.00    -0.339 N 
HETATM    2  C   UNL     1      -5.784   3.032 -32.447  1.00  0.00     0.320 C 
HETATM    3  N   UNL     1      -5.691   1.781 -31.920  1.00  0.00    -0.309 N 
HETATM    4  O   UNL     1      -6.440   3.888 -31.859  1.00  0.00    -0.247 OA
HETATM    5  H   UNL     1      -4.190   2.783 -33.586  1.00  0.00     0.164 HD
HETATM    6  H   UNL     1      -6.052   1.759 -30.974  1.00  0.00     0.170 HD
ENDROOT
BRANCH   1   7
HETATM    7  C   UNL     1      -5.018   4.646 -34.078  1.00  0.00     0.162 C 
BRANCH   7   8
HETATM    8  C   UNL     1      -3.722   5.383 -33.834  1.00  0.00    -0.040 A 
HETATM    9  C   UNL     1      -3.547   6.333 -32.816  1.00  0.00     0.024 A 
HETATM   10  C   UNL     1      -2.337   7.033 -32.666  1.00  0.00     0.014 A 
HETATM   11  C   UNL     1      -1.290   6.777 -33.559  1.00  0.00     0.015 A 
HETATM   12  C   UNL     1      -1.446   5.838 -34.578  1.00  0.00     0.002 A 
HETATM   13  C   UNL     1      -2.653   5.152 -34.714  1.00  0.00     0.009 A 
BRANCH  10  14
HETATM   14  C   UNL     1      -2.170   8.012 -31.597  1.00  0.00     0.181 A 
HETATM   15  N   UNL     1      -1.748   7.665 -30.331  1.00  0.00    -0.212 NA
HETATM   16  C   UNL     1      -1.737   8.806 -29.678  1.00  0.00     0.118 A 
HETATM   17  C   UNL     1      -1.340   9.045 -28.275  1.00  0.00     0.093 C 
HETATM   18  N   UNL     1      -2.160   9.798 -30.514  1.00  0.00    -0.263 N 
HETATM   19  N   UNL     1      -2.417   9.324 -31.743  1.00  0.00    -0.152 NA
HETATM   20  H   UNL     1      -2.293  10.785 -30.325  1.00  0.00     0.190 HD
ENDBRANCH  10  14
ENDBRANCH   7   8
ENDBRANCH   1   7
BRANCH   3  21
HETATM   21  C   UNL     1      -5.278   0.549 -32.460  1.00  0.00     0.039 A 
HETATM   22  C   UNL     1      -5.930  -0.105 -33.515  1.00  0.00     0.066 A 
HETATM   23  C   UNL     1      -5.477  -1.351 -33.961  1.00  0.00     0.070 A 
HETATM   24  C   UNL     1      -4.366  -1.940 -33.353  1.00  0.00     0.037 A 
HETATM   25  C   UNL     1      -3.723  -1.308 -32.293  1.00  0.00     0.005 A 
HETATM   26  C   UNL     1      -4.187  -0.073 -31.842  1.00  0.00     0.030 A 
BRANCH  23  27
HETATM   27  O   UNL     1      -6.035  -2.102 -34.959  1.00  0.00    -0.349 OA
BRANCH  27  28
HETATM   28  C   UNL     1      -6.907  -3.169 -34.572  1.00  0.00     0.207 C 
BRANCH  28  29
HETATM   29  C   UNL     1      -6.480  -4.433 -35.302  1.00  0.00     0.248 C 
HETATM   30  F   UNL     1      -5.278  -4.860 -34.819  1.00  0.00    -0.253 F 
ENDBRANCH  28  29
ENDBRANCH  27  28
ENDBRANCH  23  27
ENDBRANCH   3  21
TORSDOF 7
ENDMDL
MODEL 9
REMARK VINA RESULT:      -7.5      3.472      8.780
REMARK  7 active torsions:
REMARK  status: ('A' for Active; 'I' for Inactive)
REMARK    1  A    between atoms: C_4  and  C_5 
REMARK    2  A    between atoms: C_7  and  C_8 
REMARK    3  A    between atoms: C_8  and  N_9 
REMARK       I    between atoms: N_9  and  C_10 
REMARK       I    between atoms: C_10  and  N_11 
REMARK    4  A    between atoms: N_11  and  C_12 
REMARK    5  A    between atoms: C_14  and  O_15 
REMARK    6  A    between atoms: O_15  and  C_16 
REMARK    7  A    between atoms: C_16  and  C_17 
ROOT
HETATM    1  N   UNL     1      -4.446   3.573 -30.874  1.00  0.00    -0.339 N 
HETATM    2  C   UNL     1      -5.060   4.739 -30.525  1.00  0.00     0.320 C 
HETATM    3  N   UNL     1      -4.525   5.893 -31.009  1.00  0.00    -0.309 N 
HETATM    4  O   UNL     1      -6.097   4.782 -29.867  1.00  0.00    -0.247 OA
HETATM    5  H   UNL     1      -4.058   3.617 -31.805  1.00  0.00     0.164 HD
HETATM    6  H   UNL     1      -5.175   6.664 -30.905  1.00  0.00     0.170 HD
ENDROOT
BRANCH   1   7
HETATM    7  C   UNL     1      -5.070   2.320 -30.503  1.00  0.00     0.162 C 
BRANCH   7   8
HETATM    8  C   UNL     1      -4.537   1.098 -31.214  1.00  0.00    -0.040 A 
HETATM    9  C   UNL     1      -5.313   0.288 -32.057  1.00  0.00     0.024 A 
HETATM   10  C   UNL     1      -4.784  -0.871 -32.650  1.00  0.00     0.014 A 
HETATM   11  C   UNL     1      -3.456  -1.225 -32.385  1.00  0.00     0.015 A 
HETATM   12  C   UNL     1      -2.670  -0.434 -31.547  1.00  0.00     0.002 A 
HETATM   13  C   UNL     1      -3.209   0.714 -30.965  1.00  0.00     0.009 A 
BRANCH  10  14
HETATM   14  C   UNL     1      -5.603  -1.697 -33.531  1.00  0.00     0.181 A 
HETATM   15  N   UNL     1      -5.155  -2.888 -34.064  1.00  0.00    -0.212 NA
HETATM   16  C   UNL     1      -6.166  -3.309 -34.792  1.00  0.00     0.118 A 
HETATM   17  C   UNL     1      -6.259  -4.555 -35.579  1.00  0.00     0.093 C 
HETATM   18  N   UNL     1      -7.174  -2.393 -34.718  1.00  0.00    -0.263 N 
HETATM   19  N   UNL     1      -6.852  -1.376 -33.906  1.00  0.00    -0.152 NA
HETATM   20  H   UNL     1      -8.078  -2.395 -35.177  1.00  0.00     0.190 HD
ENDBRANCH  10  14
ENDBRANCH   7   8
ENDBRANCH   1   7
BRANCH   3  21
HETATM   21  C   UNL     1      -3.257   6.210 -31.529  1.00  0.00     0.039 A 
HETATM   22  C   UNL     1      -2.100   6.345 -30.750  1.00  0.00     0.066 A 
HETATM   23  C   UNL     1      -0.886   6.707 -31.344  1.00  0.00     0.070 A 
HETATM   24  C   UNL     1      -0.832   6.928 -32.722  1.00  0.00     0.037 A 
HETATM   25  C   UNL     1      -1.978   6.815 -33.502  1.00  0.00     0.005 A 
HETATM   26  C   UNL     1      -3.189   6.469 -32.903  1.00  0.00     0.030 A 
BRANCH  23  27
HETATM   27  O   UNL     1       0.305   6.896 -30.697  1.00  0.00    -0.349 OA
BRANCH  27  28
HETATM   28  C   UNL     1       0.511   6.180 -29.476  1.00  0.00     0.207 C 
BRANCH  28  29
HETATM   29  C   UNL     1       0.902   4.749 -29.812  1.00  0.00     0.248 C 
HETATM   30  F   UNL     1       1.629   4.731 -30.966  1.00  0.00    -0.253 F 
ENDBRANCH  28  29
ENDBRANCH  27  28
ENDBRANCH  23  27
ENDBRANCH   3  21
TORSDOF 7
ENDMDL
MODEL 10
REMARK VINA RESULT:      -7.4      2.027      2.477
REMARK  7 active torsions:
REMARK  status: ('A' for Active; 'I' for Inactive)
REMARK    1  A    between atoms: C_4  and  C_5 
REMARK    2  A    between atoms: C_7  and  C_8 
REMARK    3  A    between atoms: C_8  and  N_9 
REMARK       I    between atoms: N_9  and  C_10 
REMARK       I    between atoms: C_10  and  N_11 
REMARK    4  A    between atoms: N_11  and  C_12 
REMARK    5  A    between atoms: C_14  and  O_15 
REMARK    6  A    between atoms: O_15  and  C_16 
REMARK    7  A    between atoms: C_16  and  C_17 
ROOT
HETATM    1  N   UNL     1      -4.147   2.120 -31.826  1.00  0.00    -0.339 N 
HETATM    2  C   UNL     1      -5.343   2.338 -31.208  1.00  0.00     0.320 C 
HETATM    3  N   UNL     1      -6.394   1.565 -31.597  1.00  0.00    -0.309 N 
HETATM    4  O   UNL     1      -5.487   3.133 -30.283  1.00  0.00    -0.247 OA
HETATM    5  H   UNL     1      -4.019   1.148 -32.064  1.00  0.00     0.164 HD
HETATM    6  H   UNL     1      -7.153   1.625 -30.929  1.00  0.00     0.170 HD
ENDROOT
BRANCH   1   7
HETATM    7  C   UNL     1      -2.975   2.815 -31.337  1.00  0.00     0.162 C 
BRANCH   7   8
HETATM    8  C   UNL     1      -2.655   4.115 -32.037  1.00  0.00    -0.040 A 
HETATM    9  C   UNL     1      -2.584   5.354 -31.384  1.00  0.00     0.024 A 
HETATM   10  C   UNL     1      -2.337   6.543 -32.093  1.00  0.00     0.014 A 
HETATM   11  C   UNL     1      -2.166   6.484 -33.481  1.00  0.00     0.015 A 
HETATM   12  C   UNL     1      -2.235   5.261 -34.147  1.00  0.00     0.002 A 
HETATM   13  C   UNL     1      -2.481   4.090 -33.431  1.00  0.00     0.009 A 
BRANCH  10  14
HETATM   14  C   UNL     1      -2.259   7.823 -31.396  1.00  0.00     0.181 A 
HETATM   15  N   UNL     1      -2.239   7.920 -30.020  1.00  0.00    -0.212 NA
HETATM   16  C   UNL     1      -2.174   9.214 -29.795  1.00  0.00     0.118 A 
HETATM   17  C   UNL     1      -2.102   9.905 -28.492  1.00  0.00     0.093 C 
HETATM   18  N   UNL     1      -2.178   9.870 -30.991  1.00  0.00    -0.263 N 
HETATM   19  N   UNL     1      -2.206   9.010 -32.020  1.00  0.00    -0.152 NA
HETATM   20  H   UNL     1      -2.163  10.867 -31.177  1.00  0.00     0.190 HD
ENDBRANCH  10  14
ENDBRANCH   7   8
ENDBRANCH   1   7
BRANCH   3  21
HETATM   21  C   UNL     1      -6.636   0.798 -32.751  1.00  0.00     0.039 A 
HETATM   22  C   UNL     1      -6.564  -0.601 -32.795  1.00  0.00     0.066 A 
HETATM   23  C   UNL     1      -6.777  -1.282 -33.999  1.00  0.00     0.070 A 
HETATM   24  C   UNL     1      -7.069  -0.560 -35.158  1.00  0.00     0.037 A 
HETATM   25  C   UNL     1      -7.126   0.830 -35.129  1.00  0.00     0.005 A 
HETATM   26  C   UNL     1      -6.898   1.505 -33.931  1.00  0.00     0.030 A 
BRANCH  23  27
HETATM   27  O   UNL     1      -6.710  -2.636 -34.181  1.00  0.00    -0.349 OA
BRANCH  27  28
HETATM   28  C   UNL     1      -5.709  -3.132 -35.075  1.00  0.00     0.207 C 
BRANCH  28  29
HETATM   29  C   UNL     1      -4.377  -3.162 -34.341  1.00  0.00     0.248 C 
HETATM   30  F   UNL     1      -4.238  -4.353 -33.689  1.00  0.00    -0.253 F 
ENDBRANCH  28  29
ENDBRANCH  27  28
ENDBRANCH  23  27
ENDBRANCH   3  21
TORSDOF 7
ENDMDL
