MODEL 1
REMARK VINA RESULT:      -8.8      0.000      0.000
REMARK  5 active torsions:
REMARK  status: ('A' for Active; 'I' for Inactive)
REMARK    1  A    between atoms: C_3  and  O_4 
REMARK    2  A    between atoms: O_4  and  C_5 
REMARK    3  A    between atoms: C_5  and  C_6 
REMARK       I    between atoms: C_6  and  N_7 
REMARK    4  A    between atoms: N_7  and  N_8 
REMARK    5  A    between atoms: C_9  and  C_10 
ROOT
HETATM    1  C   UNL     1      -9.911   0.972 -32.775  1.00  0.00     0.261 C 
HETATM    2  N   UNL     1      -8.554   1.286 -32.687  1.00  0.00    -0.246 N 
HETATM    3  O   UNL     1     -10.374  -0.165 -32.792  1.00  0.00    -0.269 OA
HETATM    4  H   UNL     1      -8.248   2.251 -32.659  1.00  0.00     0.192 HD
ENDROOT
BRANCH   2   5
HETATM    5  N   UNL     1      -7.626   0.288 -32.618  1.00  0.00    -0.184 NA
HETATM    6  C   UNL     1      -6.706   0.312 -33.528  1.00  0.00     0.153 C 
BRANCH   6   7
HETATM    7  C   UNL     1      -5.663  -0.696 -33.558  1.00  0.00     0.018 A 
HETATM    8  C   UNL     1      -5.808  -2.040 -34.039  1.00  0.00     0.004 A 
HETATM    9  C   UNL     1      -4.573  -2.671 -33.898  1.00  0.00     0.043 A 
HETATM   10  C   UNL     1      -6.877  -2.782 -34.590  1.00  0.00     0.014 A 
HETATM   11  C   UNL     1      -4.349  -4.000 -34.278  1.00  0.00     0.030 A 
HETATM   12  N   UNL     1      -3.711  -1.752 -33.350  1.00  0.00    -0.358 N 
HETATM   13  C   UNL     1      -5.423  -4.709 -34.821  1.00  0.00     0.002 A 
HETATM   14  C   UNL     1      -6.671  -4.112 -34.975  1.00  0.00     0.001 A 
HETATM   15  H   UNL     1      -2.740  -1.939 -33.137  1.00  0.00     0.166 HD
HETATM   16  C   UNL     1      -4.349  -0.557 -33.133  1.00  0.00     0.018 A 
HETATM   17  C   UNL     1      -3.628   0.602 -32.540  1.00  0.00     0.069 C 
ENDBRANCH   6   7
ENDBRANCH   2   5
BRANCH   1  18
HETATM   18  C   UNL     1     -10.768   2.239 -32.839  1.00  0.00     0.280 C 
BRANCH  18  19
HETATM   19  O   UNL     1     -11.710   2.216 -33.908  1.00  0.00    -0.341 OA
BRANCH  19  20
HETATM   20  C   UNL     1     -12.983   2.403 -33.432  1.00  0.00     0.081 A 
HETATM   21  C   UNL     1     -13.399   3.676 -33.007  1.00  0.00    -0.027 A 
HETATM   22  C   UNL     1     -12.489   4.868 -33.057  1.00  0.00     0.051 C 
HETATM   23  C   UNL     1     -14.694   3.819 -32.487  1.00  0.00     0.028 A 
HETATM   24  C   UNL     1     -15.558   2.726 -32.441  1.00  0.00     0.012 A 
HETATM   25  C   UNL     1     -15.155   1.478 -32.916  1.00  0.00     0.028 A 
HETATM   26 BR   UNL     1     -17.300   2.940 -31.736  1.00  0.00    -0.051 Br
HETATM   27  C   UNL     1     -13.864   1.307 -33.433  1.00  0.00    -0.027 A 
HETATM   28  C   UNL     1     -13.429  -0.037 -33.944  1.00  0.00     0.051 C 
ENDBRANCH  19  20
ENDBRANCH  18  19
ENDBRANCH   1  18
TORSDOF 5
ENDMDL
MODEL 2
REMARK VINA RESULT:      -8.7      0.199      1.713
REMARK  5 active torsions:
REMARK  status: ('A' for Active; 'I' for Inactive)
REMARK    1  A    between atoms: C_3  and  O_4 
REMARK    2  A    between atoms: O_4  and  C_5 
REMARK    3  A    between atoms: C_5  and  C_6 
REMARK       I    between atoms: C_6  and  N_7 
REMARK    4  A    between atoms: N_7  and  N_8 
REMARK    5  A    between atoms: C_9  and  C_10 
ROOT
HETATM    1  C   UNL     1      -9.687   1.138 -32.692  1.00  0.00     0.261 C 
HETATM    2  N   UNL     1      -8.359   1.546 -32.560  1.00  0.00    -0.246 N 
HETATM    3  O   UNL     1     -10.068  -0.029 -32.718  1.00  0.00    -0.269 OA
HETATM    4  H   UNL     1      -8.122   2.531 -32.527  1.00  0.00     0.192 HD
ENDROOT
BRANCH   2   5
HETATM    5  N   UNL     1      -7.366   0.616 -32.454  1.00  0.00    -0.184 NA
HETATM    6  C   UNL     1      -6.828   0.238 -33.569  1.00  0.00     0.153 C 
BRANCH   6   7
HETATM    7  C   UNL     1      -5.761  -0.745 -33.584  1.00  0.00     0.018 A 
HETATM    8  C   UNL     1      -5.869  -2.093 -34.064  1.00  0.00     0.004 A 
HETATM    9  C   UNL     1      -4.621  -2.695 -33.908  1.00  0.00     0.043 A 
HETATM   10  C   UNL     1      -6.913  -2.861 -34.626  1.00  0.00     0.014 A 
HETATM   11  C   UNL     1      -4.362  -4.019 -34.282  1.00  0.00     0.030 A 
HETATM   12  N   UNL     1      -3.787  -1.755 -33.350  1.00  0.00    -0.358 N 
HETATM   13  C   UNL     1      -5.413  -4.754 -34.837  1.00  0.00     0.002 A 
HETATM   14  C   UNL     1      -6.672  -4.186 -35.007  1.00  0.00     0.001 A 
HETATM   15  H   UNL     1      -2.815  -1.919 -33.125  1.00  0.00     0.166 HD
HETATM   16  C   UNL     1      -4.455  -0.575 -33.144  1.00  0.00     0.018 A 
HETATM   17  C   UNL     1      -3.769   0.602 -32.544  1.00  0.00     0.069 C 
ENDBRANCH   6   7
ENDBRANCH   2   5
BRANCH   1  18
HETATM   18  C   UNL     1     -10.627   2.342 -32.792  1.00  0.00     0.280 C 
BRANCH  18  19
HETATM   19  O   UNL     1     -11.556   2.229 -33.866  1.00  0.00    -0.341 OA
BRANCH  19  20
HETATM   20  C   UNL     1     -12.843   2.341 -33.402  1.00  0.00     0.081 A 
HETATM   21  C   UNL     1     -13.683   1.215 -33.369  1.00  0.00    -0.027 A 
HETATM   22  C   UNL     1     -13.219  -0.137 -33.826  1.00  0.00     0.051 C 
HETATM   23  C   UNL     1     -15.004   1.377 -32.927  1.00  0.00     0.028 A 
HETATM   24  C   UNL     1     -15.451   2.623 -32.488  1.00  0.00     0.012 A 
HETATM   25  C   UNL     1     -14.594   3.723 -32.475  1.00  0.00     0.028 A 
HETATM   26 BR   UNL     1     -17.237   2.820 -31.898  1.00  0.00    -0.051 Br
HETATM   27  C   UNL     1     -13.272   3.589 -32.918  1.00  0.00    -0.027 A 
HETATM   28  C   UNL     1     -12.349   4.775 -32.903  1.00  0.00     0.051 C 
ENDBRANCH  19  20
ENDBRANCH  18  19
ENDBRANCH   1  18
TORSDOF 5
ENDMDL
MODEL 3
REMARK VINA RESULT:      -8.6      6.699      9.755
REMARK  5 active torsions:
REMARK  status: ('A' for Active; 'I' for Inactive)
REMARK    1  A    between atoms: C_3  and  O_4 
REMARK    2  A    between atoms: O_4  and  C_5 
REMARK    3  A    between atoms: C_5  and  C_6 
REMARK       I    between atoms: C_6  and  N_7 
REMARK    4  A    between atoms: N_7  and  N_8 
REMARK    5  A    between atoms: C_9  and  C_10 
ROOT
HETATM    1  C   UNL     1      -2.927   3.761 -32.174  1.00  0.00     0.261 C 
HETATM    2  N   UNL     1      -3.533   2.621 -31.644  1.00  0.00    -0.246 N 
HETATM    3  O   UNL     1      -2.436   3.842 -33.296  1.00  0.00    -0.269 OA
HETATM    4  H   UNL     1      -3.935   2.635 -30.714  1.00  0.00     0.192 HD
ENDROOT
BRANCH   2   5
HETATM    5  N   UNL     1      -3.606   1.478 -32.386  1.00  0.00    -0.184 NA
HETATM    6  C   UNL     1      -4.760   0.892 -32.403  1.00  0.00     0.153 C 
BRANCH   6   7
HETATM    7  C   UNL     1      -4.961  -0.331 -33.158  1.00  0.00     0.018 A 
HETATM    8  C   UNL     1      -4.308  -1.585 -32.915  1.00  0.00     0.004 A 
HETATM    9  C   UNL     1      -4.787  -2.496 -33.854  1.00  0.00     0.043 A 
HETATM   10  C   UNL     1      -3.354  -2.035 -31.975  1.00  0.00     0.014 A 
HETATM   11  C   UNL     1      -4.365  -3.830 -33.904  1.00  0.00     0.030 A 
HETATM   12  N   UNL     1      -5.692  -1.826 -34.642  1.00  0.00    -0.358 N 
HETATM   13  C   UNL     1      -3.423  -4.249 -32.962  1.00  0.00     0.002 A 
HETATM   14  C   UNL     1      -2.922  -3.366 -32.010  1.00  0.00     0.001 A 
HETATM   15  H   UNL     1      -6.198  -2.244 -35.411  1.00  0.00     0.166 HD
HETATM   16  C   UNL     1      -5.808  -0.519 -34.242  1.00  0.00     0.018 A 
HETATM   17  C   UNL     1      -6.727   0.420 -34.943  1.00  0.00     0.069 C 
ENDBRANCH   6   7
ENDBRANCH   2   5
BRANCH   1  18
HETATM   18  C   UNL     1      -2.960   4.920 -31.174  1.00  0.00     0.280 C 
BRANCH  18  19
HETATM   19  O   UNL     1      -2.330   6.097 -31.673  1.00  0.00    -0.341 OA
BRANCH  19  20
HETATM   20  C   UNL     1      -1.558   6.678 -30.699  1.00  0.00     0.081 A 
HETATM   21  C   UNL     1      -2.126   7.595 -29.799  1.00  0.00    -0.027 A 
HETATM   22  C   UNL     1      -3.577   7.972 -29.857  1.00  0.00     0.051 C 
HETATM   23  C   UNL     1      -1.296   8.200 -28.843  1.00  0.00     0.028 A 
HETATM   24  C   UNL     1       0.053   7.855 -28.766  1.00  0.00     0.012 A 
HETATM   25  C   UNL     1       0.597   6.904 -29.628  1.00  0.00     0.028 A 
HETATM   26 BR   UNL     1       1.156   8.683 -27.470  1.00  0.00    -0.051 Br
HETATM   27  C   UNL     1      -0.209   6.291 -30.596  1.00  0.00    -0.027 A 
HETATM   28  C   UNL     1       0.376   5.266 -31.525  1.00  0.00     0.051 C 
ENDBRANCH  19  20
ENDBRANCH  18  19
ENDBRANCH   1  18
TORSDOF 5
ENDMDL
MODEL 4
REMARK VINA RESULT:      -8.5      3.415      8.551
REMARK  5 active torsions:
REMARK  status: ('A' for Active; 'I' for Inactive)
REMARK    1  A    between atoms: C_3  and  O_4 
REMARK    2  A    between atoms: O_4  and  C_5 
REMARK    3  A    between atoms: C_5  and  C_6 
REMARK       I    between atoms: C_6  and  N_7 
REMARK    4  A    between atoms: N_7  and  N_8 
REMARK    5  A    between atoms: C_9  and  C_10 
ROOT
HETATM    1  C   UNL     1      -7.246   1.296 -31.719  1.00  0.00     0.261 C 
HETATM    2  N   UNL     1      -7.827   2.514 -32.072  1.00  0.00    -0.246 N 
HETATM    3  O   UNL     1      -7.850   0.330 -31.263  1.00  0.00    -0.269 OA
HETATM    4  H   UNL     1      -7.265   3.262 -32.462  1.00  0.00     0.192 HD
ENDROOT
BRANCH   2   5
HETATM    5  N   UNL     1      -9.169   2.702 -31.912  1.00  0.00    -0.184 NA
HETATM    6  C   UNL     1      -9.855   2.820 -33.003  1.00  0.00     0.153 C 
BRANCH   6   7
HETATM    7  C   UNL     1     -11.291   3.023 -32.960  1.00  0.00     0.018 A 
HETATM    8  C   UNL     1     -12.288   2.036 -33.259  1.00  0.00     0.004 A 
HETATM    9  C   UNL     1     -13.536   2.636 -33.090  1.00  0.00     0.043 A 
HETATM   10  C   UNL     1     -12.249   0.680 -33.653  1.00  0.00     0.014 A 
HETATM   11  C   UNL     1     -14.741   1.954 -33.293  1.00  0.00     0.030 A 
HETATM   12  N   UNL     1     -13.309   3.937 -32.708  1.00  0.00    -0.358 N 
HETATM   13  C   UNL     1     -14.672   0.614 -33.681  1.00  0.00     0.002 A 
HETATM   14  C   UNL     1     -13.445  -0.016 -33.860  1.00  0.00     0.001 A 
HETATM   15  H   UNL     1     -14.040   4.609 -32.516  1.00  0.00     0.166 HD
HETATM   16  C   UNL     1     -11.964   4.192 -32.627  1.00  0.00     0.018 A 
HETATM   17  C   UNL     1     -11.459   5.536 -32.236  1.00  0.00     0.069 C 
ENDBRANCH   6   7
ENDBRANCH   2   5
BRANCH   1  18
HETATM   18  C   UNL     1      -5.738   1.307 -31.985  1.00  0.00     0.280 C 
BRANCH  18  19
HETATM   19  O   UNL     1      -5.421   1.196 -33.370  1.00  0.00    -0.341 OA
BRANCH  19  20
HETATM   20  C   UNL     1      -5.560  -0.103 -33.793  1.00  0.00     0.081 A 
HETATM   21  C   UNL     1      -6.640  -0.467 -34.614  1.00  0.00    -0.027 A 
HETATM   22  C   UNL     1      -7.669   0.529 -35.063  1.00  0.00     0.051 C 
HETATM   23  C   UNL     1      -6.772  -1.811 -34.992  1.00  0.00     0.028 A 
HETATM   24  C   UNL     1      -5.820  -2.750 -34.594  1.00  0.00     0.012 A 
HETATM   25  C   UNL     1      -4.722  -2.369 -33.823  1.00  0.00     0.028 A 
HETATM   26 BR   UNL     1      -6.017  -4.558 -35.113  1.00  0.00    -0.051 Br
HETATM   27  C   UNL     1      -4.572  -1.034 -33.427  1.00  0.00    -0.027 A 
HETATM   28  C   UNL     1      -3.389  -0.623 -32.596  1.00  0.00     0.051 C 
ENDBRANCH  19  20
ENDBRANCH  18  19
ENDBRANCH   1  18
TORSDOF 5
ENDMDL
MODEL 5
REMARK VINA RESULT:      -8.5      7.212     10.526
REMARK  5 active torsions:
REMARK  status: ('A' for Active; 'I' for Inactive)
REMARK    1  A    between atoms: C_3  and  O_4 
REMARK    2  A    between atoms: O_4  and  C_5 
REMARK    3  A    between atoms: C_5  and  C_6 
REMARK       I    between atoms: C_6  and  N_7 
REMARK    4  A    between atoms: N_7  and  N_8 
REMARK    5  A    between atoms: C_9  and  C_10 
ROOT
HETATM    1  C   UNL     1      -2.941   5.039 -31.726  1.00  0.00     0.261 C 
HETATM    2  N   UNL     1      -2.860   3.756 -31.184  1.00  0.00    -0.246 N 
HETATM    3  O   UNL     1      -3.206   5.296 -32.897  1.00  0.00    -0.269 OA
HETATM    4  H   UNL     1      -2.655   3.622 -30.201  1.00  0.00     0.192 HD
ENDROOT
BRANCH   2   5
HETATM    5  N   UNL     1      -3.078   2.665 -31.975  1.00  0.00    -0.184 NA
HETATM    6  C   UNL     1      -4.137   1.973 -31.700  1.00  0.00     0.153 C 
BRANCH   6   7
HETATM    7  C   UNL     1      -4.474   0.792 -32.472  1.00  0.00     0.018 A 
HETATM    8  C   UNL     1      -5.593   0.661 -33.361  1.00  0.00     0.004 A 
HETATM    9  C   UNL     1      -5.548  -0.622 -33.904  1.00  0.00     0.043 A 
HETATM   10  C   UNL     1      -6.640   1.519 -33.763  1.00  0.00     0.014 A 
HETATM   11  C   UNL     1      -6.492  -1.092 -34.825  1.00  0.00     0.030 A 
HETATM   12  N   UNL     1      -4.450  -1.250 -33.365  1.00  0.00    -0.358 N 
HETATM   13  C   UNL     1      -7.516  -0.222 -35.206  1.00  0.00     0.002 A 
HETATM   14  C   UNL     1      -7.593   1.065 -34.683  1.00  0.00     0.001 A 
HETATM   15  H   UNL     1      -4.173  -2.198 -33.583  1.00  0.00     0.166 HD
HETATM   16  C   UNL     1      -3.792  -0.417 -32.497  1.00  0.00     0.018 A 
HETATM   17  C   UNL     1      -2.569  -0.868 -31.778  1.00  0.00     0.069 C 
ENDBRANCH   6   7
ENDBRANCH   2   5
BRANCH   1  18
HETATM   18  C   UNL     1      -2.665   6.106 -30.663  1.00  0.00     0.280 C 
BRANCH  18  19
HETATM   19  O   UNL     1      -1.539   6.921 -30.979  1.00  0.00    -0.341 OA
BRANCH  19  20
HETATM   20  C   UNL     1      -0.809   7.191 -29.849  1.00  0.00     0.081 A 
HETATM   21  C   UNL     1       0.197   6.304 -29.428  1.00  0.00    -0.027 A 
HETATM   22  C   UNL     1       0.516   5.047 -30.183  1.00  0.00     0.051 C 
HETATM   23  C   UNL     1       0.893   6.593 -28.246  1.00  0.00     0.028 A 
HETATM   24  C   UNL     1       0.619   7.761 -27.535  1.00  0.00     0.012 A 
HETATM   25  C   UNL     1      -0.344   8.662 -27.989  1.00  0.00     0.028 A 
HETATM   26 BR   UNL     1       1.569   8.131 -25.942  1.00  0.00    -0.051 Br
HETATM   27  C   UNL     1      -1.059   8.393 -29.164  1.00  0.00    -0.027 A 
HETATM   28  C   UNL     1      -2.096   9.364 -29.654  1.00  0.00     0.051 C 
ENDBRANCH  19  20
ENDBRANCH  18  19
ENDBRANCH   1  18
TORSDOF 5
ENDMDL
MODEL 6
REMARK VINA RESULT:      -8.5      7.138     10.360
REMARK  5 active torsions:
REMARK  status: ('A' for Active; 'I' for Inactive)
REMARK    1  A    between atoms: C_3  and  O_4 
REMARK    2  A    between atoms: O_4  and  C_5 
REMARK    3  A    between atoms: C_5  and  C_6 
REMARK       I    between atoms: C_6  and  N_7 
REMARK    4  A    between atoms: N_7  and  N_8 
REMARK    5  A    between atoms: C_9  and  C_10 
ROOT
HETATM    1  C   UNL     1      -3.022   4.945 -31.799  1.00  0.00     0.261 C 
HETATM    2  N   UNL     1      -2.745   3.680 -31.277  1.00  0.00    -0.246 N 
HETATM    3  O   UNL     1      -3.485   5.163 -32.914  1.00  0.00    -0.269 OA
HETATM    4  H   UNL     1      -2.381   3.577 -30.337  1.00  0.00     0.192 HD
ENDROOT
BRANCH   2   5
HETATM    5  N   UNL     1      -2.983   2.565 -32.027  1.00  0.00    -0.184 NA
HETATM    6  C   UNL     1      -4.100   1.955 -31.789  1.00  0.00     0.153 C 
BRANCH   6   7
HETATM    7  C   UNL     1      -4.464   0.758 -32.524  1.00  0.00     0.018 A 
HETATM    8  C   UNL     1      -5.593   0.620 -33.399  1.00  0.00     0.004 A 
HETATM    9  C   UNL     1      -5.574  -0.679 -33.905  1.00  0.00     0.043 A 
HETATM   10  C   UNL     1      -6.630   1.484 -33.816  1.00  0.00     0.014 A 
HETATM   11  C   UNL     1      -6.534  -1.159 -34.804  1.00  0.00     0.030 A 
HETATM   12  N   UNL     1      -4.482  -1.309 -33.358  1.00  0.00    -0.358 N 
HETATM   13  C   UNL     1      -7.547  -0.283 -35.200  1.00  0.00     0.002 A 
HETATM   14  C   UNL     1      -7.597   1.020 -34.715  1.00  0.00     0.001 A 
HETATM   15  H   UNL     1      -4.223  -2.268 -33.551  1.00  0.00     0.166 HD
HETATM   16  C   UNL     1      -3.802  -0.463 -32.520  1.00  0.00     0.018 A 
HETATM   17  C   UNL     1      -2.580  -0.913 -31.799  1.00  0.00     0.069 C 
ENDBRANCH   6   7
ENDBRANCH   2   5
BRANCH   1  18
HETATM   18  C   UNL     1      -2.683   6.044 -30.789  1.00  0.00     0.280 C 
BRANCH  18  19
HETATM   19  O   UNL     1      -1.479   6.736 -31.110  1.00  0.00    -0.341 OA
BRANCH  19  20
HETATM   20  C   UNL     1      -0.812   7.097 -29.966  1.00  0.00     0.081 A 
HETATM   21  C   UNL     1      -1.132   8.298 -29.310  1.00  0.00    -0.027 A 
HETATM   22  C   UNL     1      -2.201   9.221 -29.818  1.00  0.00     0.051 C 
HETATM   23  C   UNL     1      -0.402   8.653 -28.168  1.00  0.00     0.028 A 
HETATM   24  C   UNL     1       0.589   7.804 -27.674  1.00  0.00     0.012 A 
HETATM   25  C   UNL     1       0.863   6.589 -28.301  1.00  0.00     0.028 A 
HETATM   26 BR   UNL     1       1.563   8.302 -26.132  1.00  0.00    -0.051 Br
HETATM   27  C   UNL     1       0.152   6.214 -29.448  1.00  0.00    -0.027 A 
HETATM   28  C   UNL     1       0.447   4.905 -30.123  1.00  0.00     0.051 C 
ENDBRANCH  19  20
ENDBRANCH  18  19
ENDBRANCH   1  18
TORSDOF 5
ENDMDL
MODEL 7
REMARK VINA RESULT:      -8.4      6.549      9.853
REMARK  5 active torsions:
REMARK  status: ('A' for Active; 'I' for Inactive)
REMARK    1  A    between atoms: C_3  and  O_4 
REMARK    2  A    between atoms: O_4  and  C_5 
REMARK    3  A    between atoms: C_5  and  C_6 
REMARK       I    between atoms: C_6  and  N_7 
REMARK    4  A    between atoms: N_7  and  N_8 
REMARK    5  A    between atoms: C_9  and  C_10 
ROOT
HETATM    1  C   UNL     1      -3.057   3.894 -32.427  1.00  0.00     0.261 C 
HETATM    2  N   UNL     1      -3.589   2.717 -31.899  1.00  0.00    -0.246 N 
HETATM    3  O   UNL     1      -3.343   4.369 -33.522  1.00  0.00    -0.269 OA
HETATM    4  H   UNL     1      -3.318   2.396 -30.976  1.00  0.00     0.192 HD
ENDROOT
BRANCH   2   5
HETATM    5  N   UNL     1      -4.497   1.995 -32.617  1.00  0.00    -0.184 NA
HETATM    6  C   UNL     1      -4.886   0.885 -32.078  1.00  0.00     0.153 C 
BRANCH   6   7
HETATM    7  C   UNL     1      -5.850   0.031 -32.746  1.00  0.00     0.018 A 
HETATM    8  C   UNL     1      -5.547  -1.165 -33.478  1.00  0.00     0.004 A 
HETATM    9  C   UNL     1      -6.752  -1.683 -33.951  1.00  0.00     0.043 A 
HETATM   10  C   UNL     1      -4.357  -1.864 -33.778  1.00  0.00     0.014 A 
HETATM   11  C   UNL     1      -6.830  -2.859 -34.706  1.00  0.00     0.030 A 
HETATM   12  N   UNL     1      -7.749  -0.835 -33.530  1.00  0.00    -0.358 N 
HETATM   13  C   UNL     1      -5.638  -3.531 -34.986  1.00  0.00     0.002 A 
HETATM   14  C   UNL     1      -4.417  -3.043 -34.531  1.00  0.00     0.001 A 
HETATM   15  H   UNL     1      -8.731  -0.967 -33.732  1.00  0.00     0.166 HD
HETATM   16  C   UNL     1      -7.226   0.206 -32.806  1.00  0.00     0.018 A 
HETATM   17  C   UNL     1      -8.106   1.267 -32.242  1.00  0.00     0.069 C 
ENDBRANCH   6   7
ENDBRANCH   2   5
BRANCH   1  18
HETATM   18  C   UNL     1      -2.065   4.537 -31.455  1.00  0.00     0.280 C 
BRANCH  18  19
HETATM   19  O   UNL     1      -1.522   5.760 -31.947  1.00  0.00    -0.341 OA
BRANCH  19  20
HETATM   20  C   UNL     1      -1.076   6.540 -30.910  1.00  0.00     0.081 A 
HETATM   21  C   UNL     1       0.157   6.262 -30.297  1.00  0.00    -0.027 A 
HETATM   22  C   UNL     1       1.029   5.124 -30.742  1.00  0.00     0.051 C 
HETATM   23  C   UNL     1       0.561   7.055 -29.213  1.00  0.00     0.028 A 
HETATM   24  C   UNL     1      -0.230   8.124 -28.791  1.00  0.00     0.012 A 
HETATM   25  C   UNL     1      -1.426   8.425 -29.440  1.00  0.00     0.028 A 
HETATM   26 BR   UNL     1       0.333   9.181 -27.327  1.00  0.00    -0.051 Br
HETATM   27  C   UNL     1      -1.855   7.643 -30.520  1.00  0.00    -0.027 A 
HETATM   28  C   UNL     1      -3.145   7.968 -31.220  1.00  0.00     0.051 C 
ENDBRANCH  19  20
ENDBRANCH  18  19
ENDBRANCH   1  18
TORSDOF 5
ENDMDL
MODEL 8
REMARK VINA RESULT:      -8.3      5.745      9.309
REMARK  5 active torsions:
REMARK  status: ('A' for Active; 'I' for Inactive)
REMARK    1  A    between atoms: C_3  and  O_4 
REMARK    2  A    between atoms: O_4  and  C_5 
REMARK    3  A    between atoms: C_5  and  C_6 
REMARK       I    between atoms: C_6  and  N_7 
REMARK    4  A    between atoms: N_7  and  N_8 
REMARK    5  A    between atoms: C_9  and  C_10 
ROOT
HETATM    1  C   UNL     1      -5.987   2.165 -31.336  1.00  0.00     0.261 C 
HETATM    2  N   UNL     1      -4.874   2.834 -31.847  1.00  0.00    -0.246 N 
HETATM    3  O   UNL     1      -6.415   2.277 -30.192  1.00  0.00    -0.269 OA
HETATM    4  H   UNL     1      -4.591   2.704 -32.812  1.00  0.00     0.192 HD
ENDROOT
BRANCH   2   5
HETATM    5  N   UNL     1      -4.166   3.688 -31.052  1.00  0.00    -0.184 NA
HETATM    6  C   UNL     1      -4.127   4.920 -31.444  1.00  0.00     0.153 C 
BRANCH   6   7
HETATM    7  C   UNL     1      -3.405   5.921 -30.681  1.00  0.00     0.018 A 
HETATM    8  C   UNL     1      -1.982   6.101 -30.666  1.00  0.00     0.004 A 
HETATM    9  C   UNL     1      -1.704   7.170 -29.815  1.00  0.00     0.043 A 
HETATM   10  C   UNL     1      -0.899   5.458 -31.305  1.00  0.00     0.014 A 
HETATM   11  C   UNL     1      -0.404   7.628 -29.569  1.00  0.00     0.030 A 
HETATM   12  N   UNL     1      -2.906   7.620 -29.326  1.00  0.00    -0.358 N 
HETATM   13  C   UNL     1       0.648   6.974 -30.216  1.00  0.00     0.002 A 
HETATM   14  C   UNL     1       0.407   5.903 -31.071  1.00  0.00     0.001 A 
HETATM   15  H   UNL     1      -3.005   8.392 -28.681  1.00  0.00     0.166 HD
HETATM   16  C   UNL     1      -3.944   6.879 -29.832  1.00  0.00     0.018 A 
HETATM   17  C   UNL     1      -5.353   7.168 -29.449  1.00  0.00     0.069 C 
ENDBRANCH   6   7
ENDBRANCH   2   5
BRANCH   1  18
HETATM   18  C   UNL     1      -6.626   1.266 -32.399  1.00  0.00     0.280 C 
BRANCH  18  19
HETATM   19  O   UNL     1      -5.785   1.067 -33.532  1.00  0.00    -0.341 OA
BRANCH  19  20
HETATM   20  C   UNL     1      -5.776  -0.255 -33.898  1.00  0.00     0.081 A 
HETATM   21  C   UNL     1      -6.832  -0.786 -34.658  1.00  0.00    -0.027 A 
HETATM   22  C   UNL     1      -7.995   0.054 -35.099  1.00  0.00     0.051 C 
HETATM   23  C   UNL     1      -6.809  -2.151 -34.977  1.00  0.00     0.028 A 
HETATM   24  C   UNL     1      -5.733  -2.947 -34.585  1.00  0.00     0.012 A 
HETATM   25  C   UNL     1      -4.663  -2.400 -33.878  1.00  0.00     0.028 A 
HETATM   26 BR   UNL     1      -5.721  -4.786 -35.025  1.00  0.00    -0.051 Br
HETATM   27  C   UNL     1      -4.666  -1.040 -33.540  1.00  0.00    -0.027 A 
HETATM   28  C   UNL     1      -3.513  -0.450 -32.778  1.00  0.00     0.051 C 
ENDBRANCH  19  20
ENDBRANCH  18  19
ENDBRANCH   1  18
TORSDOF 5
ENDMDL
MODEL 9
REMARK VINA RESULT:      -8.1      5.769      9.243
REMARK  5 active torsions:
REMARK  status: ('A' for Active; 'I' for Inactive)
REMARK    1  A    between atoms: C_3  and  O_4 
REMARK    2  A    between atoms: O_4  and  C_5 
REMARK    3  A    between atoms: C_5  and  C_6 
REMARK       I    between atoms: C_6  and  N_7 
REMARK    4  A    between atoms: N_7  and  N_8 
REMARK    5  A    between atoms: C_9  and  C_10 
ROOT
HETATM    1  C   UNL     1      -5.925   2.233 -31.239  1.00  0.00     0.261 C 
HETATM    2  N   UNL     1      -4.848   2.915 -31.808  1.00  0.00    -0.246 N 
HETATM    3  O   UNL     1      -6.272   2.316 -30.065  1.00  0.00    -0.269 OA
HETATM    4  H   UNL     1      -4.633   2.811 -32.793  1.00  0.00     0.192 HD
ENDROOT
BRANCH   2   5
HETATM    5  N   UNL     1      -4.084   3.746 -31.042  1.00  0.00    -0.184 NA
HETATM    6  C   UNL     1      -4.213   5.010 -31.283  1.00  0.00     0.153 C 
BRANCH   6   7
HETATM    7  C   UNL     1      -3.452   5.992 -30.532  1.00  0.00     0.018 A 
HETATM    8  C   UNL     1      -2.029   6.166 -30.579  1.00  0.00     0.004 A 
HETATM    9  C   UNL     1      -1.706   7.215 -29.719  1.00  0.00     0.043 A 
HETATM   10  C   UNL     1      -0.979   5.533 -31.281  1.00  0.00     0.014 A 
HETATM   11  C   UNL     1      -0.395   7.663 -29.523  1.00  0.00     0.030 A 
HETATM   12  N   UNL     1      -2.883   7.659 -29.165  1.00  0.00    -0.358 N 
HETATM   13  C   UNL     1       0.624   7.019 -30.231  1.00  0.00     0.002 A 
HETATM   14  C   UNL     1       0.338   5.968 -31.098  1.00  0.00     0.001 A 
HETATM   15  H   UNL     1      -2.949   8.417 -28.500  1.00  0.00     0.166 HD
HETATM   16  C   UNL     1      -3.947   6.933 -29.639  1.00  0.00     0.018 A 
HETATM   17  C   UNL     1      -5.335   7.219 -29.186  1.00  0.00     0.069 C 
ENDBRANCH   6   7
ENDBRANCH   2   5
BRANCH   1  18
HETATM   18  C   UNL     1      -6.639   1.365 -32.278  1.00  0.00     0.280 C 
BRANCH  18  19
HETATM   19  O   UNL     1      -5.867   1.170 -33.460  1.00  0.00    -0.341 OA
BRANCH  19  20
HETATM   20  C   UNL     1      -5.897  -0.148 -33.842  1.00  0.00     0.081 A 
HETATM   21  C   UNL     1      -4.831  -1.003 -33.516  1.00  0.00    -0.027 A 
HETATM   22  C   UNL     1      -3.634  -0.525 -32.747  1.00  0.00     0.051 C 
HETATM   23  C   UNL     1      -4.878  -2.333 -33.959  1.00  0.00     0.028 A 
HETATM   24  C   UNL     1      -5.986  -2.799 -34.666  1.00  0.00     0.012 A 
HETATM   25  C   UNL     1      -7.064  -1.958 -34.938  1.00  0.00     0.028 A 
HETATM   26 BR   UNL     1      -6.029  -4.596 -35.255  1.00  0.00    -0.051 Br
HETATM   27  C   UNL     1      -7.038  -0.623 -34.513  1.00  0.00    -0.027 A 
HETATM   28  C   UNL     1      -8.199   0.284 -34.806  1.00  0.00     0.051 C 
ENDBRANCH  19  20
ENDBRANCH  18  19
ENDBRANCH   1  18
TORSDOF 5
ENDMDL
MODEL 10
REMARK VINA RESULT:      -8.1      3.525      9.208
REMARK  5 active torsions:
REMARK  status: ('A' for Active; 'I' for Inactive)
REMARK    1  A    between atoms: C_3  and  O_4 
REMARK    2  A    between atoms: O_4  and  C_5 
REMARK    3  A    between atoms: C_5  and  C_6 
REMARK       I    between atoms: C_6  and  N_7 
REMARK    4  A    between atoms: N_7  and  N_8 
REMARK    5  A    between atoms: C_9  and  C_10 
ROOT
HETATM    1  C   UNL     1      -7.545   1.305 -31.855  1.00  0.00     0.261 C 
HETATM    2  N   UNL     1      -8.240   2.398 -32.373  1.00  0.00    -0.246 N 
HETATM    3  O   UNL     1      -8.056   0.363 -31.255  1.00  0.00    -0.269 OA
HETATM    4  H   UNL     1      -7.750   3.131 -32.875  1.00  0.00     0.192 HD
ENDROOT
BRANCH   2   5
HETATM    5  N   UNL     1      -9.594   2.481 -32.224  1.00  0.00    -0.184 NA
HETATM    6  C   UNL     1     -10.247   2.916 -33.253  1.00  0.00     0.153 C 
BRANCH   6   7
HETATM    7  C   UNL     1     -11.692   3.047 -33.215  1.00  0.00     0.018 A 
HETATM    8  C   UNL     1     -12.442   3.804 -32.254  1.00  0.00     0.004 A 
HETATM    9  C   UNL     1     -13.791   3.673 -32.578  1.00  0.00     0.043 A 
HETATM   10  C   UNL     1     -12.098   4.598 -31.137  1.00  0.00     0.014 A 
HETATM   11  C   UNL     1     -14.813   4.292 -31.848  1.00  0.00     0.030 A 
HETATM   12  N   UNL     1     -13.863   2.866 -33.688  1.00  0.00    -0.358 N 
HETATM   13  C   UNL     1     -14.444   5.072 -30.749  1.00  0.00     0.002 A 
HETATM   14  C   UNL     1     -13.106   5.224 -30.396  1.00  0.00     0.001 A 
HETATM   15  H   UNL     1     -14.726   2.600 -34.143  1.00  0.00     0.166 HD
HETATM   16  C   UNL     1     -12.610   2.474 -34.086  1.00  0.00     0.018 A 
HETATM   17  C   UNL     1     -12.420   1.588 -35.266  1.00  0.00     0.069 C 
ENDBRANCH   6   7
ENDBRANCH   2   5
BRANCH   1  18
HETATM   18  C   UNL     1      -6.045   1.418 -32.139  1.00  0.00     0.280 C 
BRANCH  18  19
HETATM   19  O   UNL     1      -5.730   1.250 -33.519  1.00  0.00    -0.341 OA
BRANCH  19  20
HETATM   20  C   UNL     1      -5.702  -0.082 -33.847  1.00  0.00     0.081 A 
HETATM   21  C   UNL     1      -6.737  -0.644 -34.612  1.00  0.00    -0.027 A 
HETATM   22  C   UNL     1      -7.898   0.172 -35.101  1.00  0.00     0.051 C 
HETATM   23  C   UNL     1      -6.695  -2.017 -34.893  1.00  0.00     0.028 A 
HETATM   24  C   UNL     1      -5.620  -2.791 -34.456  1.00  0.00     0.012 A 
HETATM   25  C   UNL     1      -4.570  -2.214 -33.743  1.00  0.00     0.028 A 
HETATM   26 BR   UNL     1      -5.582  -4.642 -34.844  1.00  0.00    -0.051 Br
HETATM   27  C   UNL     1      -4.592  -0.845 -33.444  1.00  0.00    -0.027 A 
HETATM   28  C   UNL     1      -3.461  -0.223 -32.675  1.00  0.00     0.051 C 
ENDBRANCH  19  20
ENDBRANCH  18  19
ENDBRANCH   1  18
TORSDOF 5
ENDMDL
