MODEL 1
REMARK VINA RESULT:      -8.6      0.000      0.000
REMARK  5 active torsions:
REMARK  status: ('A' for Active; 'I' for Inactive)
REMARK    1  A    between atoms: C_7  and  C_8 
REMARK    2  A    between atoms: N_9  and  N_10 
REMARK       I    between atoms: N_10  and  C_11 
REMARK    3  A    between atoms: C_11  and  C_12 
REMARK    4  A    between atoms: C_12  and  N_13 
REMARK    5  A    between atoms: N_13  and  C_14 
ROOT
HETATM    1  N   UNL     1      -8.526   1.337 -32.283  1.00  0.00    -0.246 N 
HETATM    2  C   UNL     1      -9.840   1.271 -32.740  1.00  0.00     0.250 C 
HETATM    3  O   UNL     1     -10.423   0.254 -33.114  1.00  0.00    -0.270 OA
HETATM    4  H   UNL     1      -8.118   2.252 -32.115  1.00  0.00     0.192 HD
ENDROOT
BRANCH   1   5
HETATM    5  N   UNL     1      -7.590   0.335 -32.383  1.00  0.00    -0.184 NA
HETATM    6  C   UNL     1      -6.746   0.360 -33.365  1.00  0.00     0.153 C 
BRANCH   6   7
HETATM    7  C   UNL     1      -5.694  -0.643 -33.450  1.00  0.00     0.018 A 
HETATM    8  C   UNL     1      -4.363  -0.511 -33.071  1.00  0.00     0.018 A 
HETATM    9  C   UNL     1      -3.619   0.634 -32.482  1.00  0.00     0.069 C 
HETATM   10  N   UNL     1      -3.732  -1.700 -33.339  1.00  0.00    -0.358 N 
HETATM   11  H   UNL     1      -2.755  -1.891 -33.167  1.00  0.00     0.166 HD
HETATM   12  C   UNL     1      -4.609  -2.606 -33.885  1.00  0.00     0.043 A 
HETATM   13  C   UNL     1      -5.849  -1.974 -33.968  1.00  0.00     0.004 A 
HETATM   14  C   UNL     1      -4.395  -3.922 -34.312  1.00  0.00     0.030 A 
HETATM   15  C   UNL     1      -6.933  -2.700 -34.508  1.00  0.00     0.014 A 
HETATM   16  C   UNL     1      -6.738  -4.017 -34.940  1.00  0.00     0.001 A 
HETATM   17  C   UNL     1      -5.485  -4.617 -34.842  1.00  0.00     0.002 A 
ENDBRANCH   6   7
ENDBRANCH   1   5
BRANCH   2  18
HETATM   18  C   UNL     1     -10.552   2.629 -32.726  1.00  0.00     0.197 C 
BRANCH  18  19
HETATM   19  N   UNL     1     -11.620   2.683 -33.730  1.00  0.00    -0.282 NA
HETATM   20  H   UNL     1     -11.379   2.111 -34.547  1.00  0.00     0.128 HD
BRANCH  19  21
HETATM   21  C   UNL     1     -12.937   2.411 -33.323  1.00  0.00     0.047 A 
HETATM   22  C   UNL     1     -13.690   1.436 -33.998  1.00  0.00     0.137 A 
HETATM   23  F   UNL     1     -13.112   0.724 -34.979  1.00  0.00    -0.204 F 
HETATM   24  C   UNL     1     -15.018   1.171 -33.673  1.00  0.00     0.044 A 
HETATM   25  C   UNL     1     -15.635   1.904 -32.663  1.00  0.00     0.003 A 
HETATM   26  C   UNL     1     -14.920   2.898 -31.997  1.00  0.00     0.002 A 
HETATM   27  C   UNL     1     -13.585   3.155 -32.330  1.00  0.00     0.026 A 
ENDBRANCH  19  21
ENDBRANCH  18  19
ENDBRANCH   2  18
TORSDOF 5
ENDMDL
MODEL 2
REMARK VINA RESULT:      -8.6      5.957      9.071
REMARK  5 active torsions:
REMARK  status: ('A' for Active; 'I' for Inactive)
REMARK    1  A    between atoms: C_7  and  C_8 
REMARK    2  A    between atoms: N_9  and  N_10 
REMARK       I    between atoms: N_10  and  C_11 
REMARK    3  A    between atoms: C_11  and  C_12 
REMARK    4  A    between atoms: C_12  and  N_13 
REMARK    5  A    between atoms: N_13  and  C_14 
ROOT
HETATM    1  N   UNL     1      -4.093   1.302 -32.068  1.00  0.00    -0.246 N 
HETATM    2  C   UNL     1      -3.377   0.216 -31.570  1.00  0.00     0.250 C 
HETATM    3  O   UNL     1      -2.358   0.278 -30.884  1.00  0.00    -0.270 OA
HETATM    4  H   UNL     1      -4.850   1.123 -32.722  1.00  0.00     0.192 HD
ENDROOT
BRANCH   1   5
HETATM    5  N   UNL     1      -3.666   2.608 -32.076  1.00  0.00    -0.184 NA
HETATM    6  C   UNL     1      -2.897   3.013 -33.036  1.00  0.00     0.153 C 
BRANCH   6   7
HETATM    7  C   UNL     1      -2.496   4.410 -33.114  1.00  0.00     0.018 A 
HETATM    8  C   UNL     1      -2.888   5.354 -34.056  1.00  0.00     0.018 A 
HETATM    9  C   UNL     1      -3.799   5.253 -35.227  1.00  0.00     0.069 C 
HETATM   10  N   UNL     1      -2.259   6.535 -33.750  1.00  0.00    -0.358 N 
HETATM   11  H   UNL     1      -2.356   7.396 -34.270  1.00  0.00     0.166 HD
HETATM   12  C   UNL     1      -1.464   6.392 -32.639  1.00  0.00     0.043 A 
HETATM   13  C   UNL     1      -1.591   5.071 -32.214  1.00  0.00     0.004 A 
HETATM   14  C   UNL     1      -0.648   7.325 -31.990  1.00  0.00     0.030 A 
HETATM   15  C   UNL     1      -0.859   4.661 -31.078  1.00  0.00     0.014 A 
HETATM   16  C   UNL     1      -0.038   5.581 -30.416  1.00  0.00     0.001 A 
HETATM   17  C   UNL     1       0.064   6.895 -30.867  1.00  0.00     0.002 A 
ENDBRANCH   6   7
ENDBRANCH   1   5
BRANCH   2  18
HETATM   18  C   UNL     1      -3.996  -1.136 -31.943  1.00  0.00     0.197 C 
BRANCH  18  19
HETATM   19  N   UNL     1      -3.912  -1.383 -33.387  1.00  0.00    -0.282 NA
HETATM   20  H   UNL     1      -2.934  -1.436 -33.689  1.00  0.00     0.128 HD
BRANCH  19  21
HETATM   21  C   UNL     1      -4.644  -2.453 -33.927  1.00  0.00     0.047 A 
HETATM   22  C   UNL     1      -5.970  -2.252 -34.346  1.00  0.00     0.137 A 
HETATM   23  F   UNL     1      -6.495  -1.017 -34.290  1.00  0.00    -0.204 F 
HETATM   24  C   UNL     1      -6.757  -3.293 -34.833  1.00  0.00     0.044 A 
HETATM   25  C   UNL     1      -6.232  -4.580 -34.891  1.00  0.00     0.003 A 
HETATM   26  C   UNL     1      -4.928  -4.814 -34.454  1.00  0.00     0.002 A 
HETATM   27  C   UNL     1      -4.144  -3.760 -33.968  1.00  0.00     0.026 A 
ENDBRANCH  19  21
ENDBRANCH  18  19
ENDBRANCH   2  18
TORSDOF 5
ENDMDL
MODEL 3
REMARK VINA RESULT:      -8.6      5.346      8.055
REMARK  5 active torsions:
REMARK  status: ('A' for Active; 'I' for Inactive)
REMARK    1  A    between atoms: C_7  and  C_8 
REMARK    2  A    between atoms: N_9  and  N_10 
REMARK       I    between atoms: N_10  and  C_11 
REMARK    3  A    between atoms: C_11  and  C_12 
REMARK    4  A    between atoms: C_12  and  N_13 
REMARK    5  A    between atoms: N_13  and  C_14 
ROOT
HETATM    1  N   UNL     1      -4.763   1.515 -31.446  1.00  0.00    -0.246 N 
HETATM    2  C   UNL     1      -5.021   2.875 -31.590  1.00  0.00     0.250 C 
HETATM    3  O   UNL     1      -5.968   3.369 -32.200  1.00  0.00    -0.270 OA
HETATM    4  H   UNL     1      -3.884   1.231 -31.021  1.00  0.00     0.192 HD
ENDROOT
BRANCH   1   5
HETATM    5  N   UNL     1      -5.381   0.503 -32.141  1.00  0.00    -0.184 NA
HETATM    6  C   UNL     1      -4.815   0.037 -33.209  1.00  0.00     0.153 C 
BRANCH   6   7
HETATM    7  C   UNL     1      -5.406  -1.088 -33.919  1.00  0.00     0.018 A 
HETATM    8  C   UNL     1      -6.530  -1.080 -34.737  1.00  0.00     0.018 A 
HETATM    9  C   UNL     1      -7.445   0.022 -35.136  1.00  0.00     0.069 C 
HETATM   10  N   UNL     1      -6.729  -2.362 -35.187  1.00  0.00    -0.358 N 
HETATM   11  H   UNL     1      -7.478  -2.652 -35.799  1.00  0.00     0.166 HD
HETATM   12  C   UNL     1      -5.771  -3.209 -34.686  1.00  0.00     0.043 A 
HETATM   13  C   UNL     1      -4.924  -2.442 -33.887  1.00  0.00     0.004 A 
HETATM   14  C   UNL     1      -5.598  -4.585 -34.876  1.00  0.00     0.030 A 
HETATM   15  C   UNL     1      -3.847  -3.088 -33.243  1.00  0.00     0.014 A 
HETATM   16  C   UNL     1      -3.658  -4.464 -33.422  1.00  0.00     0.001 A 
HETATM   17  C   UNL     1      -4.523  -5.200 -34.228  1.00  0.00     0.002 A 
ENDBRANCH   6   7
ENDBRANCH   1   5
BRANCH   2  18
HETATM   18  C   UNL     1      -3.992   3.763 -30.879  1.00  0.00     0.197 C 
BRANCH  18  19
HETATM   19  N   UNL     1      -2.639   3.532 -31.396  1.00  0.00    -0.282 NA
HETATM   20  H   UNL     1      -2.561   2.594 -31.802  1.00  0.00     0.128 HD
BRANCH  19  21
HETATM   21  C   UNL     1      -2.083   4.483 -32.267  1.00  0.00     0.047 A 
HETATM   22  C   UNL     1      -1.367   5.575 -31.746  1.00  0.00     0.137 A 
HETATM   23  F   UNL     1      -1.162   5.651 -30.421  1.00  0.00    -0.204 F 
HETATM   24  C   UNL     1      -0.848   6.576 -32.563  1.00  0.00     0.044 A 
HETATM   25  C   UNL     1      -1.058   6.516 -33.937  1.00  0.00     0.003 A 
HETATM   26  C   UNL     1      -1.790   5.460 -34.478  1.00  0.00     0.002 A 
HETATM   27  C   UNL     1      -2.305   4.457 -33.649  1.00  0.00     0.026 A 
ENDBRANCH  19  21
ENDBRANCH  18  19
ENDBRANCH   2  18
TORSDOF 5
ENDMDL
MODEL 4
REMARK VINA RESULT:      -8.2      1.630      1.986
REMARK  5 active torsions:
REMARK  status: ('A' for Active; 'I' for Inactive)
REMARK    1  A    between atoms: C_7  and  C_8 
REMARK    2  A    between atoms: N_9  and  N_10 
REMARK       I    between atoms: N_10  and  C_11 
REMARK    3  A    between atoms: C_11  and  C_12 
REMARK    4  A    between atoms: C_12  and  N_13 
REMARK    5  A    between atoms: N_13  and  C_14 
ROOT
HETATM    1  N   UNL     1      -7.670   1.184 -31.466  1.00  0.00    -0.246 N 
HETATM    2  C   UNL     1      -9.017   1.254 -31.813  1.00  0.00     0.250 C 
HETATM    3  O   UNL     1      -9.731   0.303 -32.127  1.00  0.00    -0.270 OA
HETATM    4  H   UNL     1      -7.157   2.052 -31.342  1.00  0.00     0.192 HD
ENDROOT
BRANCH   1   5
HETATM    5  N   UNL     1      -6.855   0.090 -31.631  1.00  0.00    -0.184 NA
HETATM    6  C   UNL     1      -6.236  -0.069 -32.758  1.00  0.00     0.153 C 
BRANCH   6   7
HETATM    7  C   UNL     1      -5.304  -1.173 -32.932  1.00  0.00     0.018 A 
HETATM    8  C   UNL     1      -4.022  -1.293 -32.409  1.00  0.00     0.018 A 
HETATM    9  C   UNL     1      -3.227  -0.383 -31.543  1.00  0.00     0.069 C 
HETATM   10  N   UNL     1      -3.506  -2.490 -32.838  1.00  0.00    -0.358 N 
HETATM   11  H   UNL     1      -2.585  -2.840 -32.612  1.00  0.00     0.166 HD
HETATM   12  C   UNL     1      -4.410  -3.157 -33.629  1.00  0.00     0.043 A 
HETATM   13  C   UNL     1      -5.550  -2.358 -33.707  1.00  0.00     0.004 A 
HETATM   14  C   UNL     1      -4.300  -4.393 -34.276  1.00  0.00     0.030 A 
HETATM   15  C   UNL     1      -6.638  -2.823 -34.478  1.00  0.00     0.014 A 
HETATM   16  C   UNL     1      -6.546  -4.057 -35.133  1.00  0.00     0.001 A 
HETATM   17  C   UNL     1      -5.392  -4.829 -35.032  1.00  0.00     0.002 A 
ENDBRANCH   6   7
ENDBRANCH   1   5
BRANCH   2  18
HETATM   18  C   UNL     1      -9.581   2.679 -31.756  1.00  0.00     0.197 C 
BRANCH  18  19
HETATM   19  N   UNL     1     -11.023   2.694 -32.023  1.00  0.00    -0.282 NA
HETATM   20  H   UNL     1     -11.503   3.339 -31.388  1.00  0.00     0.128 HD
BRANCH  19  21
HETATM   21  C   UNL     1     -11.458   2.903 -33.342  1.00  0.00     0.047 A 
HETATM   22  C   UNL     1     -12.207   1.911 -33.998  1.00  0.00     0.137 A 
HETATM   23  F   UNL     1     -12.559   0.803 -33.324  1.00  0.00    -0.204 F 
HETATM   24  C   UNL     1     -12.611   2.044 -35.324  1.00  0.00     0.044 A 
HETATM   25  C   UNL     1     -12.248   3.181 -36.039  1.00  0.00     0.003 A 
HETATM   26  C   UNL     1     -11.480   4.168 -35.423  1.00  0.00     0.002 A 
HETATM   27  C   UNL     1     -11.082   4.026 -34.088  1.00  0.00     0.026 A 
ENDBRANCH  19  21
ENDBRANCH  18  19
ENDBRANCH   2  18
TORSDOF 5
ENDMDL
MODEL 5
REMARK VINA RESULT:      -8.1      2.732      8.249
REMARK  5 active torsions:
REMARK  status: ('A' for Active; 'I' for Inactive)
REMARK    1  A    between atoms: C_7  and  C_8 
REMARK    2  A    between atoms: N_9  and  N_10 
REMARK       I    between atoms: N_10  and  C_11 
REMARK    3  A    between atoms: C_11  and  C_12 
REMARK    4  A    between atoms: C_12  and  N_13 
REMARK    5  A    between atoms: N_13  and  C_14 
ROOT
HETATM    1  N   UNL     1      -7.536   0.109 -32.040  1.00  0.00    -0.246 N 
HETATM    2  C   UNL     1      -6.215   0.461 -32.304  1.00  0.00     0.250 C 
HETATM    3  O   UNL     1      -5.820   1.574 -32.647  1.00  0.00    -0.270 OA
HETATM    4  H   UNL     1      -7.754  -0.871 -31.881  1.00  0.00     0.192 HD
ENDROOT
BRANCH   1   5
HETATM    5  N   UNL     1      -8.643   0.871 -32.331  1.00  0.00    -0.184 NA
HETATM    6  C   UNL     1      -9.163   0.796 -33.515  1.00  0.00     0.153 C 
BRANCH   6   7
HETATM    7  C   UNL     1     -10.381   1.529 -33.827  1.00  0.00     0.018 A 
HETATM    8  C   UNL     1     -10.499   2.866 -34.188  1.00  0.00     0.018 A 
HETATM    9  C   UNL     1      -9.473   3.928 -34.369  1.00  0.00     0.069 C 
HETATM   10  N   UNL     1     -11.832   3.132 -34.379  1.00  0.00    -0.358 N 
HETATM   11  H   UNL     1     -12.213   4.029 -34.645  1.00  0.00     0.166 HD
HETATM   12  C   UNL     1     -12.591   2.010 -34.150  1.00  0.00     0.043 A 
HETATM   13  C   UNL     1     -11.711   0.986 -33.803  1.00  0.00     0.004 A 
HETATM   14  C   UNL     1     -13.978   1.832 -34.220  1.00  0.00     0.030 A 
HETATM   15  C   UNL     1     -12.250  -0.286 -33.509  1.00  0.00     0.014 A 
HETATM   16  C   UNL     1     -13.635  -0.483 -33.574  1.00  0.00     0.001 A 
HETATM   17  C   UNL     1     -14.484   0.563 -33.925  1.00  0.00     0.002 A 
ENDBRANCH   6   7
ENDBRANCH   1   5
BRANCH   2  18
HETATM   18  C   UNL     1      -5.232  -0.700 -32.110  1.00  0.00     0.197 C 
BRANCH  18  19
HETATM   19  N   UNL     1      -4.697  -1.168 -33.394  1.00  0.00    -0.282 NA
HETATM   20  H   UNL     1      -3.672  -1.164 -33.382  1.00  0.00     0.128 HD
BRANCH  19  21
HETATM   21  C   UNL     1      -5.169  -2.385 -33.912  1.00  0.00     0.047 A 
HETATM   22  C   UNL     1      -4.372  -3.539 -33.822  1.00  0.00     0.137 A 
HETATM   23  F   UNL     1      -3.198  -3.476 -33.173  1.00  0.00    -0.204 F 
HETATM   24  C   UNL     1      -4.768  -4.756 -34.372  1.00  0.00     0.044 A 
HETATM   25  C   UNL     1      -5.978  -4.837 -35.055  1.00  0.00     0.003 A 
HETATM   26  C   UNL     1      -6.775  -3.701 -35.185  1.00  0.00     0.002 A 
HETATM   27  C   UNL     1      -6.369  -2.483 -34.626  1.00  0.00     0.026 A 
ENDBRANCH  19  21
ENDBRANCH  18  19
ENDBRANCH   2  18
TORSDOF 5
ENDMDL
MODEL 6
REMARK VINA RESULT:      -8.0      5.692      8.817
REMARK  5 active torsions:
REMARK  status: ('A' for Active; 'I' for Inactive)
REMARK    1  A    between atoms: C_7  and  C_8 
REMARK    2  A    between atoms: N_9  and  N_10 
REMARK       I    between atoms: N_10  and  C_11 
REMARK    3  A    between atoms: C_11  and  C_12 
REMARK    4  A    between atoms: C_12  and  N_13 
REMARK    5  A    between atoms: N_13  and  C_14 
ROOT
HETATM    1  N   UNL     1      -4.640   2.959 -32.462  1.00  0.00    -0.246 N 
HETATM    2  C   UNL     1      -3.607   3.892 -32.427  1.00  0.00     0.250 C 
HETATM    3  O   UNL     1      -2.596   3.875 -33.127  1.00  0.00    -0.270 OA
HETATM    4  H   UNL     1      -5.366   3.013 -31.752  1.00  0.00     0.192 HD
ENDROOT
BRANCH   1   5
HETATM    5  N   UNL     1      -4.606   1.748 -33.111  1.00  0.00    -0.184 NA
HETATM    6  C   UNL     1      -5.382   0.794 -32.705  1.00  0.00     0.153 C 
BRANCH   6   7
HETATM    7  C   UNL     1      -5.426  -0.471 -33.424  1.00  0.00     0.018 A 
HETATM    8  C   UNL     1      -6.228  -0.803 -34.510  1.00  0.00     0.018 A 
HETATM    9  C   UNL     1      -7.245  -0.017 -35.255  1.00  0.00     0.069 C 
HETATM   10  N   UNL     1      -5.943  -2.101 -34.857  1.00  0.00    -0.358 N 
HETATM   11  H   UNL     1      -6.380  -2.608 -35.613  1.00  0.00     0.166 HD
HETATM   12  C   UNL     1      -4.982  -2.628 -34.030  1.00  0.00     0.043 A 
HETATM   13  C   UNL     1      -4.635  -1.631 -33.120  1.00  0.00     0.004 A 
HETATM   14  C   UNL     1      -4.405  -3.904 -34.019  1.00  0.00     0.030 A 
HETATM   15  C   UNL     1      -3.658  -1.929 -32.144  1.00  0.00     0.014 A 
HETATM   16  C   UNL     1      -3.070  -3.199 -32.118  1.00  0.00     0.001 A 
HETATM   17  C   UNL     1      -3.440  -4.171 -33.044  1.00  0.00     0.002 A 
ENDBRANCH   6   7
ENDBRANCH   1   5
BRANCH   2  18
HETATM   18  C   UNL     1      -3.843   5.014 -31.408  1.00  0.00     0.197 C 
BRANCH  18  19
HETATM   19  N   UNL     1      -3.129   6.238 -31.787  1.00  0.00    -0.282 NA
HETATM   20  H   UNL     1      -3.764   7.043 -31.789  1.00  0.00     0.128 HD
BRANCH  19  21
HETATM   21  C   UNL     1      -1.945   6.561 -31.104  1.00  0.00     0.047 A 
HETATM   22  C   UNL     1      -0.722   6.584 -31.797  1.00  0.00     0.137 A 
HETATM   23  F   UNL     1      -0.716   6.368 -33.123  1.00  0.00    -0.204 F 
HETATM   24  C   UNL     1       0.487   6.839 -31.156  1.00  0.00     0.044 A 
HETATM   25  C   UNL     1       0.500   7.058 -29.781  1.00  0.00     0.003 A 
HETATM   26  C   UNL     1      -0.694   7.011 -29.063  1.00  0.00     0.002 A 
HETATM   27  C   UNL     1      -1.905   6.757 -29.719  1.00  0.00     0.026 A 
ENDBRANCH  19  21
ENDBRANCH  18  19
ENDBRANCH   2  18
TORSDOF 5
ENDMDL
MODEL 7
REMARK VINA RESULT:      -7.7      4.999      8.638
REMARK  5 active torsions:
REMARK  status: ('A' for Active; 'I' for Inactive)
REMARK    1  A    between atoms: C_7  and  C_8 
REMARK    2  A    between atoms: N_9  and  N_10 
REMARK       I    between atoms: N_10  and  C_11 
REMARK    3  A    between atoms: C_11  and  C_12 
REMARK    4  A    between atoms: C_12  and  N_13 
REMARK    5  A    between atoms: N_13  and  C_14 
ROOT
HETATM    1  N   UNL     1      -5.784   1.674 -32.393  1.00  0.00    -0.246 N 
HETATM    2  C   UNL     1      -6.347   1.121 -33.539  1.00  0.00     0.250 C 
HETATM    3  O   UNL     1      -6.444   1.673 -34.634  1.00  0.00    -0.270 OA
HETATM    4  H   UNL     1      -5.870   1.165 -31.517  1.00  0.00     0.192 HD
ENDROOT
BRANCH   1   5
HETATM    5  N   UNL     1      -5.449   2.996 -32.221  1.00  0.00    -0.184 NA
HETATM    6  C   UNL     1      -4.338   3.291 -31.623  1.00  0.00     0.153 C 
BRANCH   6   7
HETATM    7  C   UNL     1      -3.919   4.679 -31.500  1.00  0.00     0.018 A 
HETATM    8  C   UNL     1      -4.353   5.617 -30.570  1.00  0.00     0.018 A 
HETATM    9  C   UNL     1      -5.331   5.514 -29.455  1.00  0.00     0.069 C 
HETATM   10  N   UNL     1      -3.700   6.797 -30.832  1.00  0.00    -0.358 N 
HETATM   11  H   UNL     1      -3.823   7.655 -30.313  1.00  0.00     0.166 HD
HETATM   12  C   UNL     1      -2.855   6.660 -31.906  1.00  0.00     0.043 A 
HETATM   13  C   UNL     1      -2.967   5.342 -32.348  1.00  0.00     0.004 A 
HETATM   14  C   UNL     1      -2.013   7.598 -32.514  1.00  0.00     0.030 A 
HETATM   15  C   UNL     1      -2.195   4.944 -33.461  1.00  0.00     0.014 A 
HETATM   16  C   UNL     1      -1.347   5.868 -34.082  1.00  0.00     0.001 A 
HETATM   17  C   UNL     1      -1.259   7.176 -33.613  1.00  0.00     0.002 A 
ENDBRANCH   6   7
ENDBRANCH   1   5
BRANCH   2  18
HETATM   18  C   UNL     1      -6.851  -0.313 -33.332  1.00  0.00     0.197 C 
BRANCH  18  19
HETATM   19  N   UNL     1      -6.746  -1.100 -34.565  1.00  0.00    -0.282 NA
HETATM   20  H   UNL     1      -6.309  -0.549 -35.311  1.00  0.00     0.128 HD
BRANCH  19  21
HETATM   21  C   UNL     1      -6.157  -2.374 -34.499  1.00  0.00     0.047 A 
HETATM   22  C   UNL     1      -4.787  -2.497 -34.211  1.00  0.00     0.137 A 
HETATM   23  F   UNL     1      -4.075  -1.393 -33.930  1.00  0.00    -0.204 F 
HETATM   24  C   UNL     1      -4.143  -3.732 -34.192  1.00  0.00     0.044 A 
HETATM   25  C   UNL     1      -4.865  -4.884 -34.488  1.00  0.00     0.003 A 
HETATM   26  C   UNL     1      -6.219  -4.789 -34.807  1.00  0.00     0.002 A 
HETATM   27  C   UNL     1      -6.857  -3.543 -34.820  1.00  0.00     0.026 A 
ENDBRANCH  19  21
ENDBRANCH  18  19
ENDBRANCH   2  18
TORSDOF 5
ENDMDL
MODEL 8
REMARK VINA RESULT:      -7.6      1.417      2.848
REMARK  5 active torsions:
REMARK  status: ('A' for Active; 'I' for Inactive)
REMARK    1  A    between atoms: C_7  and  C_8 
REMARK    2  A    between atoms: N_9  and  N_10 
REMARK       I    between atoms: N_10  and  C_11 
REMARK    3  A    between atoms: C_11  and  C_12 
REMARK    4  A    between atoms: C_12  and  N_13 
REMARK    5  A    between atoms: N_13  and  C_14 
ROOT
HETATM    1  N   UNL     1      -9.048   1.113 -34.504  1.00  0.00    -0.246 N 
HETATM    2  C   UNL     1      -9.380   2.434 -34.216  1.00  0.00     0.250 C 
HETATM    3  O   UNL     1      -8.673   3.240 -33.612  1.00  0.00    -0.270 OA
HETATM    4  H   UNL     1      -9.763   0.511 -34.904  1.00  0.00     0.192 HD
ENDROOT
BRANCH   1   5
HETATM    5  N   UNL     1      -7.988   0.418 -33.973  1.00  0.00    -0.184 NA
HETATM    6  C   UNL     1      -7.428  -0.512 -34.680  1.00  0.00     0.153 C 
BRANCH   6   7
HETATM    7  C   UNL     1      -6.254  -1.208 -34.176  1.00  0.00     0.018 A 
HETATM    8  C   UNL     1      -5.875  -2.523 -34.423  1.00  0.00     0.018 A 
HETATM    9  C   UNL     1      -6.509  -3.589 -35.243  1.00  0.00     0.069 C 
HETATM   10  N   UNL     1      -4.708  -2.757 -33.738  1.00  0.00    -0.358 N 
HETATM   11  H   UNL     1      -4.205  -3.633 -33.733  1.00  0.00     0.166 HD
HETATM   12  C   UNL     1      -4.314  -1.638 -33.047  1.00  0.00     0.043 A 
HETATM   13  C   UNL     1      -5.261  -0.647 -33.302  1.00  0.00     0.004 A 
HETATM   14  C   UNL     1      -3.203  -1.434 -32.222  1.00  0.00     0.030 A 
HETATM   15  C   UNL     1      -5.086   0.616 -32.694  1.00  0.00     0.014 A 
HETATM   16  C   UNL     1      -3.980   0.837 -31.865  1.00  0.00     0.001 A 
HETATM   17  C   UNL     1      -3.053  -0.175 -31.634  1.00  0.00     0.002 A 
ENDBRANCH   6   7
ENDBRANCH   1   5
BRANCH   2  18
HETATM   18  C   UNL     1     -10.758   2.841 -34.753  1.00  0.00     0.197 C 
BRANCH  18  19
HETATM   19  N   UNL     1     -11.759   1.798 -34.500  1.00  0.00    -0.282 NA
HETATM   20  H   UNL     1     -11.305   0.914 -34.248  1.00  0.00     0.128 HD
BRANCH  19  21
HETATM   21  C   UNL     1     -12.804   2.076 -33.605  1.00  0.00     0.047 A 
HETATM   22  C   UNL     1     -13.999   1.339 -33.675  1.00  0.00     0.137 A 
HETATM   23  F   UNL     1     -14.094   0.327 -34.552  1.00  0.00    -0.204 F 
HETATM   24  C   UNL     1     -15.087   1.615 -32.850  1.00  0.00     0.044 A 
HETATM   25  C   UNL     1     -15.008   2.665 -31.940  1.00  0.00     0.003 A 
HETATM   26  C   UNL     1     -13.846   3.432 -31.871  1.00  0.00     0.002 A 
HETATM   27  C   UNL     1     -12.756   3.145 -32.702  1.00  0.00     0.026 A 
ENDBRANCH  19  21
ENDBRANCH  18  19
ENDBRANCH   2  18
TORSDOF 5
ENDMDL
MODEL 9
REMARK VINA RESULT:      -7.5      5.075      8.612
REMARK  5 active torsions:
REMARK  status: ('A' for Active; 'I' for Inactive)
REMARK    1  A    between atoms: C_7  and  C_8 
REMARK    2  A    between atoms: N_9  and  N_10 
REMARK       I    between atoms: N_10  and  C_11 
REMARK    3  A    between atoms: C_11  and  C_12 
REMARK    4  A    between atoms: C_12  and  N_13 
REMARK    5  A    between atoms: N_13  and  C_14 
ROOT
HETATM    1  N   UNL     1      -4.823   3.846 -33.034  1.00  0.00    -0.246 N 
HETATM    2  C   UNL     1      -5.358   4.940 -32.359  1.00  0.00     0.250 C 
HETATM    3  O   UNL     1      -6.490   5.012 -31.884  1.00  0.00    -0.270 OA
HETATM    4  H   UNL     1      -3.918   3.951 -33.484  1.00  0.00     0.192 HD
ENDROOT
BRANCH   1   5
HETATM    5  N   UNL     1      -5.530   2.756 -33.482  1.00  0.00    -0.184 NA
HETATM    6  C   UNL     1      -5.599   1.701 -32.734  1.00  0.00     0.153 C 
BRANCH   6   7
HETATM    7  C   UNL     1      -6.408   0.563 -33.147  1.00  0.00     0.018 A 
HETATM    8  C   UNL     1      -7.794   0.458 -33.136  1.00  0.00     0.018 A 
HETATM    9  C   UNL     1      -8.848   1.423 -32.726  1.00  0.00     0.069 C 
HETATM   10  N   UNL     1      -8.122  -0.792 -33.600  1.00  0.00    -0.358 N 
HETATM   11  H   UNL     1      -9.062  -1.147 -33.697  1.00  0.00     0.166 HD
HETATM   12  C   UNL     1      -6.992  -1.510 -33.910  1.00  0.00     0.043 A 
HETATM   13  C   UNL     1      -5.899  -0.688 -33.639  1.00  0.00     0.004 A 
HETATM   14  C   UNL     1      -6.861  -2.814 -34.401  1.00  0.00     0.030 A 
HETATM   15  C   UNL     1      -4.604  -1.201 -33.871  1.00  0.00     0.014 A 
HETATM   16  C   UNL     1      -4.454  -2.504 -34.362  1.00  0.00     0.001 A 
HETATM   17  C   UNL     1      -5.568  -3.297 -34.623  1.00  0.00     0.002 A 
ENDBRANCH   6   7
ENDBRANCH   1   5
BRANCH   2  18
HETATM   18  C   UNL     1      -4.372   6.108 -32.228  1.00  0.00     0.197 C 
BRANCH  18  19
HETATM   19  N   UNL     1      -3.094   5.805 -32.880  1.00  0.00    -0.282 NA
HETATM   20  H   UNL     1      -2.980   6.362 -33.733  1.00  0.00     0.128 HD
BRANCH  19  21
HETATM   21  C   UNL     1      -1.920   5.857 -32.110  1.00  0.00     0.047 A 
HETATM   22  C   UNL     1      -1.003   6.905 -32.303  1.00  0.00     0.137 A 
HETATM   23  F   UNL     1      -1.300   7.883 -33.174  1.00  0.00    -0.204 F 
HETATM   24  C   UNL     1       0.202   6.970 -31.608  1.00  0.00     0.044 A 
HETATM   25  C   UNL     1       0.529   5.961 -30.707  1.00  0.00     0.003 A 
HETATM   26  C   UNL     1      -0.349   4.894 -30.518  1.00  0.00     0.002 A 
HETATM   27  C   UNL     1      -1.560   4.839 -31.219  1.00  0.00     0.026 A 
ENDBRANCH  19  21
ENDBRANCH  18  19
ENDBRANCH   2  18
TORSDOF 5
ENDMDL
MODEL 10
REMARK VINA RESULT:      -7.5      6.646     10.079
REMARK  5 active torsions:
REMARK  status: ('A' for Active; 'I' for Inactive)
REMARK    1  A    between atoms: C_7  and  C_8 
REMARK    2  A    between atoms: N_9  and  N_10 
REMARK       I    between atoms: N_10  and  C_11 
REMARK    3  A    between atoms: C_11  and  C_12 
REMARK    4  A    between atoms: C_12  and  N_13 
REMARK    5  A    between atoms: N_13  and  C_14 
ROOT
HETATM    1  N   UNL     1      -3.365   2.110 -32.383  1.00  0.00    -0.246 N 
HETATM    2  C   UNL     1      -3.666   0.840 -31.897  1.00  0.00     0.250 C 
HETATM    3  O   UNL     1      -4.016   0.572 -30.748  1.00  0.00    -0.270 OA
HETATM    4  H   UNL     1      -2.974   2.190 -33.318  1.00  0.00     0.192 HD
ENDROOT
BRANCH   1   5
HETATM    5  N   UNL     1      -3.185   3.239 -31.621  1.00  0.00    -0.184 NA
HETATM    6  C   UNL     1      -2.757   4.320 -32.191  1.00  0.00     0.153 C 
BRANCH   6   7
HETATM    7  C   UNL     1      -2.634   5.552 -31.425  1.00  0.00     0.018 A 
HETATM    8  C   UNL     1      -3.571   6.571 -31.300  1.00  0.00     0.018 A 
HETATM    9  C   UNL     1      -4.934   6.726 -31.874  1.00  0.00     0.069 C 
HETATM   10  N   UNL     1      -3.030   7.540 -30.492  1.00  0.00    -0.358 N 
HETATM   11  H   UNL     1      -3.489   8.401 -30.231  1.00  0.00     0.166 HD
HETATM   12  C   UNL     1      -1.765   7.188 -30.088  1.00  0.00     0.043 A 
HETATM   13  C   UNL     1      -1.487   5.945 -30.654  1.00  0.00     0.004 A 
HETATM   14  C   UNL     1      -0.857   7.875 -29.274  1.00  0.00     0.030 A 
HETATM   15  C   UNL     1      -0.229   5.360 -30.392  1.00  0.00     0.014 A 
HETATM   16  C   UNL     1       0.693   6.032 -29.581  1.00  0.00     0.001 A 
HETATM   17  C   UNL     1       0.380   7.272 -29.030  1.00  0.00     0.002 A 
ENDBRANCH   6   7
ENDBRANCH   1   5
BRANCH   2  18
HETATM   18  C   UNL     1      -3.542  -0.258 -32.960  1.00  0.00     0.197 C 
BRANCH  18  19
HETATM   19  N   UNL     1      -3.439  -1.587 -32.347  1.00  0.00    -0.282 NA
HETATM   20  H   UNL     1      -3.803  -1.573 -31.388  1.00  0.00     0.128 HD
BRANCH  19  21
HETATM   21  C   UNL     1      -3.959  -2.689 -33.044  1.00  0.00     0.047 A 
HETATM   22  C   UNL     1      -3.476  -3.980 -32.773  1.00  0.00     0.137 A 
HETATM   23  F   UNL     1      -2.572  -4.149 -31.793  1.00  0.00    -0.204 F 
HETATM   24  C   UNL     1      -3.916  -5.098 -33.477  1.00  0.00     0.044 A 
HETATM   25  C   UNL     1      -4.846  -4.940 -34.500  1.00  0.00     0.003 A 
HETATM   26  C   UNL     1      -5.321  -3.667 -34.811  1.00  0.00     0.002 A 
HETATM   27  C   UNL     1      -4.874  -2.549 -34.095  1.00  0.00     0.026 A 
ENDBRANCH  19  21
ENDBRANCH  18  19
ENDBRANCH   2  18
TORSDOF 5
ENDMDL
