MODEL 1
REMARK VINA RESULT:     -10.1      0.000      0.000
REMARK  7 active torsions:
REMARK  status: ('A' for Active; 'I' for Inactive)
REMARK    1  A    between atoms: N_7  and  C_8 
REMARK    2  A    between atoms: C_8  and  C_9 
REMARK       I    between atoms: C_9  and  N_10 
REMARK    3  A    between atoms: N_10  and  C_11 
REMARK    4  A    between atoms: C_11  and  C_12 
REMARK    5  A    between atoms: C_12  and  C_13 
REMARK    6  A    between atoms: C_12  and  C_23 
REMARK    7  A    between atoms: C_26  and  O_27 
ROOT
HETATM    1  C   UNL     1      -6.383   3.862 -33.576  1.00  0.00     0.136 C 
ENDROOT
BRANCH   1   2
HETATM    2  N   UNL     1      -5.133   4.085 -34.297  1.00  0.00    -0.359 N 
HETATM    3  C   UNL     1      -4.448   5.260 -34.015  1.00  0.00     0.236 C 
HETATM    4  O   UNL     1      -4.969   6.181 -33.385  1.00  0.00    -0.272 OA
HETATM    5  H   UNL     1      -4.575   3.271 -34.553  1.00  0.00     0.162 HD
BRANCH   3   6
HETATM    6  C   UNL     1      -2.956   5.262 -34.309  1.00  0.00     0.239 C 
BRANCH   6   7
HETATM    7  N   UNL     1      -2.111   5.715 -33.231  1.00  0.00    -0.259 N 
HETATM    8  C   UNL     1      -1.548   6.953 -33.180  1.00  0.00     0.326 C 
HETATM    9  N   UNL     1      -0.959   7.114 -31.946  1.00  0.00    -0.324 N 
HETATM   10  O   UNL     1      -1.570   7.820 -34.035  1.00  0.00    -0.247 OA
HETATM   11  C   UNL     1      -1.327   6.055 -31.029  1.00  0.00     0.119 C 
HETATM   12  H   UNL     1      -0.601   8.024 -31.682  1.00  0.00     0.165 HD
HETATM   13  C   UNL     1      -0.137   5.492 -30.232  1.00  0.00     0.019 C 
HETATM   14  C   UNL     1      -1.945   5.064 -32.042  1.00  0.00     0.257 C 
HETATM   15  C   UNL     1      -2.467   6.520 -30.100  1.00  0.00     0.041 C 
HETATM   16  C   UNL     1       1.054   5.102 -31.113  1.00  0.00     0.013 C 
HETATM   17  C   UNL     1       0.325   6.490 -29.151  1.00  0.00     0.007 C 
HETATM   18  C   UNL     1      -0.820   6.926 -28.240  1.00  0.00     0.001 C 
HETATM   19  C   UNL     1      -1.987   7.499 -29.033  1.00  0.00     0.003 C 
HETATM   20  O   UNL     1      -2.320   3.923 -31.803  1.00  0.00    -0.270 OA
ENDBRANCH   6   7
ENDBRANCH   3   6
ENDBRANCH   1   2
BRANCH   1  21
HETATM   21  C   UNL     1      -7.334   2.787 -34.146  1.00  0.00     0.071 C 
BRANCH  21  22
HETATM   22  C   UNL     1      -8.630   2.722 -33.355  1.00  0.00    -0.020 A 
HETATM   23  C   UNL     1      -9.942   3.101 -33.808  1.00  0.00    -0.001 A 
HETATM   24  C   UNL     1     -10.832   2.888 -32.753  1.00  0.00     0.042 A 
HETATM   25  C   UNL     1     -10.459   3.603 -35.021  1.00  0.00     0.014 A 
HETATM   26  C   UNL     1     -12.205   3.148 -32.849  1.00  0.00     0.030 A 
HETATM   27  N   UNL     1     -10.103   2.403 -31.698  1.00  0.00    -0.365 N 
HETATM   28  C   UNL     1     -12.689   3.642 -34.062  1.00  0.00     0.002 A 
HETATM   29  C   UNL     1     -11.831   3.866 -35.135  1.00  0.00     0.001 A 
HETATM   30  H   UNL     1     -10.491   2.157 -30.797  1.00  0.00     0.165 HD
HETATM   31  C   UNL     1      -8.784   2.299 -32.043  1.00  0.00     0.097 A 
ENDBRANCH  21  22
BRANCH  21  32
HETATM   32  C   UNL     1      -6.829   1.348 -34.148  1.00  0.00    -0.048 A 
HETATM   33  C   UNL     1      -7.464   0.404 -34.973  1.00  0.00     0.011 A 
HETATM   34  C   UNL     1      -7.062  -0.935 -34.974  1.00  0.00     0.037 A 
HETATM   35  C   UNL     1      -6.020  -1.365 -34.154  1.00  0.00     0.068 A 
HETATM   36  C   UNL     1      -5.379  -0.439 -33.333  1.00  0.00     0.037 A 
HETATM   37  C   UNL     1      -5.781   0.903 -33.328  1.00  0.00     0.011 A 
BRANCH  35  38
HETATM   38  O   UNL     1      -5.735  -2.699 -34.243  1.00  0.00    -0.356 OA
HETATM   39  C   UNL     1      -6.734  -3.532 -34.817  1.00  0.00     0.210 C 
ENDBRANCH  35  38
ENDBRANCH  21  32
ENDBRANCH   1  21
TORSDOF 7
ENDMDL
MODEL 2
REMARK VINA RESULT:     -10.0      2.510      5.292
REMARK  7 active torsions:
REMARK  status: ('A' for Active; 'I' for Inactive)
REMARK    1  A    between atoms: N_7  and  C_8 
REMARK    2  A    between atoms: C_8  and  C_9 
REMARK       I    between atoms: C_9  and  N_10 
REMARK    3  A    between atoms: N_10  and  C_11 
REMARK    4  A    between atoms: C_11  and  C_12 
REMARK    5  A    between atoms: C_12  and  C_13 
REMARK    6  A    between atoms: C_12  and  C_23 
REMARK    7  A    between atoms: C_26  and  O_27 
ROOT
HETATM    1  C   UNL     1      -5.960   2.112 -33.933  1.00  0.00     0.136 C 
ENDROOT
BRANCH   1   2
HETATM    2  N   UNL     1      -5.574   3.246 -33.098  1.00  0.00    -0.359 N 
HETATM    3  C   UNL     1      -5.336   4.450 -33.748  1.00  0.00     0.236 C 
HETATM    4  O   UNL     1      -5.212   4.516 -34.971  1.00  0.00    -0.272 OA
HETATM    5  H   UNL     1      -5.949   3.295 -32.151  1.00  0.00     0.162 HD
BRANCH   3   6
HETATM    6  C   UNL     1      -5.472   5.712 -32.909  1.00  0.00     0.239 C 
BRANCH   6   7
HETATM    7  N   UNL     1      -4.335   6.032 -32.081  1.00  0.00    -0.259 N 
HETATM    8  C   UNL     1      -4.207   5.634 -30.785  1.00  0.00     0.326 C 
HETATM    9  N   UNL     1      -2.939   5.954 -30.354  1.00  0.00    -0.324 N 
HETATM   10  O   UNL     1      -5.027   5.055 -30.097  1.00  0.00    -0.247 OA
HETATM   11  C   UNL     1      -2.084   6.367 -31.448  1.00  0.00     0.119 C 
HETATM   12  H   UNL     1      -2.622   5.617 -29.453  1.00  0.00     0.165 HD
HETATM   13  C   UNL     1      -1.249   7.622 -31.135  1.00  0.00     0.019 C 
HETATM   14  C   UNL     1      -3.165   6.573 -32.534  1.00  0.00     0.257 C 
HETATM   15  C   UNL     1      -1.198   5.193 -31.911  1.00  0.00     0.041 C 
HETATM   16  C   UNL     1      -2.083   8.784 -30.585  1.00  0.00     0.013 C 
HETATM   17  C   UNL     1      -0.109   7.294 -30.151  1.00  0.00     0.007 C 
HETATM   18  C   UNL     1       0.759   6.136 -30.637  1.00  0.00     0.001 C 
HETATM   19  C   UNL     1      -0.070   4.892 -30.928  1.00  0.00     0.003 C 
HETATM   20  O   UNL     1      -2.991   7.043 -33.650  1.00  0.00    -0.270 OA
ENDBRANCH   6   7
ENDBRANCH   3   6
ENDBRANCH   1   2
BRANCH   1  21
HETATM   21  C   UNL     1      -6.681   0.942 -33.229  1.00  0.00     0.071 C 
BRANCH  21  22
HETATM   22  C   UNL     1      -6.241  -0.398 -33.797  1.00  0.00    -0.020 A 
HETATM   23  C   UNL     1      -5.204  -1.255 -33.289  1.00  0.00    -0.001 A 
HETATM   24  C   UNL     1      -5.133  -2.374 -34.123  1.00  0.00     0.042 A 
HETATM   25  C   UNL     1      -4.318  -1.190 -32.193  1.00  0.00     0.014 A 
HETATM   26  C   UNL     1      -4.229  -3.423 -33.918  1.00  0.00     0.030 A 
HETATM   27  N   UNL     1      -6.081  -2.211 -35.102  1.00  0.00    -0.365 N 
HETATM   28  C   UNL     1      -3.366  -3.332 -32.824  1.00  0.00     0.002 A 
HETATM   29  C   UNL     1      -3.409  -2.232 -31.971  1.00  0.00     0.001 A 
HETATM   30  H   UNL     1      -6.255  -2.871 -35.847  1.00  0.00     0.165 HD
HETATM   31  C   UNL     1      -6.751  -1.033 -34.919  1.00  0.00     0.097 A 
ENDBRANCH  21  22
BRANCH  21  32
HETATM   32  C   UNL     1      -8.202   0.906 -33.329  1.00  0.00    -0.048 A 
HETATM   33  C   UNL     1      -8.908  -0.083 -32.623  1.00  0.00     0.011 A 
HETATM   34  C   UNL     1     -10.299  -0.180 -32.720  1.00  0.00     0.037 A 
HETATM   35  C   UNL     1     -11.019   0.705 -33.523  1.00  0.00     0.068 A 
HETATM   36  C   UNL     1     -10.331   1.693 -34.226  1.00  0.00     0.037 A 
HETATM   37  C   UNL     1      -8.937   1.790 -34.133  1.00  0.00     0.011 A 
BRANCH  35  38
HETATM   38  O   UNL     1     -12.370   0.493 -33.538  1.00  0.00    -0.356 OA
HETATM   39  C   UNL     1     -13.106   1.118 -34.581  1.00  0.00     0.210 C 
ENDBRANCH  35  38
ENDBRANCH  21  32
ENDBRANCH   1  21
TORSDOF 7
ENDMDL
MODEL 3
REMARK VINA RESULT:      -9.9      1.465      2.425
REMARK  7 active torsions:
REMARK  status: ('A' for Active; 'I' for Inactive)
REMARK    1  A    between atoms: N_7  and  C_8 
REMARK    2  A    between atoms: C_8  and  C_9 
REMARK       I    between atoms: C_9  and  N_10 
REMARK    3  A    between atoms: N_10  and  C_11 
REMARK    4  A    between atoms: C_11  and  C_12 
REMARK    5  A    between atoms: C_12  and  C_13 
REMARK    6  A    between atoms: C_12  and  C_23 
REMARK    7  A    between atoms: C_26  and  O_27 
ROOT
HETATM    1  C   UNL     1      -7.115   2.789 -33.726  1.00  0.00     0.136 C 
ENDROOT
BRANCH   1   2
HETATM    2  N   UNL     1      -5.936   3.436 -34.295  1.00  0.00    -0.359 N 
HETATM    3  C   UNL     1      -5.704   4.754 -33.924  1.00  0.00     0.236 C 
HETATM    4  O   UNL     1      -6.560   5.429 -33.350  1.00  0.00    -0.272 OA
HETATM    5  H   UNL     1      -5.120   2.858 -34.493  1.00  0.00     0.162 HD
BRANCH   3   6
HETATM    6  C   UNL     1      -4.271   5.251 -34.044  1.00  0.00     0.239 C 
BRANCH   6   7
HETATM    7  N   UNL     1      -3.543   5.349 -32.803  1.00  0.00    -0.259 N 
HETATM    8  C   UNL     1      -3.313   4.293 -31.976  1.00  0.00     0.326 C 
HETATM    9  N   UNL     1      -2.446   4.696 -30.985  1.00  0.00    -0.324 N 
HETATM   10  O   UNL     1      -3.742   3.158 -32.075  1.00  0.00    -0.247 OA
HETATM   11  C   UNL     1      -1.872   5.995 -31.265  1.00  0.00     0.119 C 
HETATM   12  H   UNL     1      -2.062   4.005 -30.351  1.00  0.00     0.165 HD
HETATM   13  C   UNL     1      -1.862   6.938 -30.048  1.00  0.00     0.019 C 
HETATM   14  C   UNL     1      -2.816   6.435 -32.407  1.00  0.00     0.257 C 
HETATM   15  C   UNL     1      -0.464   5.840 -31.877  1.00  0.00     0.041 C 
HETATM   16  C   UNL     1      -3.224   7.048 -29.355  1.00  0.00     0.013 C 
HETATM   17  C   UNL     1      -0.795   6.505 -29.023  1.00  0.00     0.007 C 
HETATM   18  C   UNL     1       0.590   6.368 -29.652  1.00  0.00     0.001 C 
HETATM   19  C   UNL     1       0.577   5.420 -30.844  1.00  0.00     0.003 C 
HETATM   20  O   UNL     1      -2.843   7.536 -32.942  1.00  0.00    -0.270 OA
ENDBRANCH   6   7
ENDBRANCH   3   6
ENDBRANCH   1   2
BRANCH   1  21
HETATM   21  C   UNL     1      -7.582   1.479 -34.396  1.00  0.00     0.071 C 
BRANCH  21  22
HETATM   22  C   UNL     1      -8.948   1.054 -33.882  1.00  0.00    -0.020 A 
HETATM   23  C   UNL     1     -10.220   1.634 -34.221  1.00  0.00    -0.001 A 
HETATM   24  C   UNL     1     -11.204   0.940 -33.511  1.00  0.00     0.042 A 
HETATM   25  C   UNL     1     -10.632   2.683 -35.070  1.00  0.00     0.014 A 
HETATM   26  C   UNL     1     -12.568   1.239 -33.607  1.00  0.00     0.030 A 
HETATM   27  N   UNL     1     -10.566  -0.020 -32.767  1.00  0.00    -0.365 N 
HETATM   28  C   UNL     1     -12.946   2.281 -34.457  1.00  0.00     0.002 A 
HETATM   29  C   UNL     1     -11.994   2.994 -35.180  1.00  0.00     0.001 A 
HETATM   30  H   UNL     1     -11.034  -0.674 -32.154  1.00  0.00     0.165 HD
HETATM   31  C   UNL     1      -9.217   0.036 -32.979  1.00  0.00     0.097 A 
ENDBRANCH  21  22
BRANCH  21  32
HETATM   32  C   UNL     1      -6.709   0.246 -34.191  1.00  0.00    -0.048 A 
HETATM   33  C   UNL     1      -5.712   0.273 -33.202  1.00  0.00     0.011 A 
HETATM   34  C   UNL     1      -4.861  -0.818 -33.010  1.00  0.00     0.037 A 
HETATM   35  C   UNL     1      -4.982  -1.962 -33.798  1.00  0.00     0.068 A 
HETATM   36  C   UNL     1      -5.969  -2.004 -34.781  1.00  0.00     0.037 A 
HETATM   37  C   UNL     1      -6.822  -0.910 -34.978  1.00  0.00     0.011 A 
BRANCH  35  38
HETATM   38  O   UNL     1      -4.081  -2.950 -33.514  1.00  0.00    -0.356 OA
HETATM   39  C   UNL     1      -4.255  -4.190 -34.187  1.00  0.00     0.210 C 
ENDBRANCH  35  38
ENDBRANCH  21  32
ENDBRANCH   1  21
TORSDOF 7
ENDMDL
MODEL 4
REMARK VINA RESULT:      -9.9      1.919      2.691
REMARK  7 active torsions:
REMARK  status: ('A' for Active; 'I' for Inactive)
REMARK    1  A    between atoms: N_7  and  C_8 
REMARK    2  A    between atoms: C_8  and  C_9 
REMARK       I    between atoms: C_9  and  N_10 
REMARK    3  A    between atoms: N_10  and  C_11 
REMARK    4  A    between atoms: C_11  and  C_12 
REMARK    5  A    between atoms: C_12  and  C_13 
REMARK    6  A    between atoms: C_12  and  C_23 
REMARK    7  A    between atoms: C_26  and  O_27 
ROOT
HETATM    1  C   UNL     1      -7.799   2.030 -31.505  1.00  0.00     0.136 C 
ENDROOT
BRANCH   1   2
HETATM    2  N   UNL     1      -7.466   3.441 -31.330  1.00  0.00    -0.359 N 
HETATM    3  C   UNL     1      -6.144   3.804 -31.549  1.00  0.00     0.236 C 
HETATM    4  O   UNL     1      -5.246   2.967 -31.643  1.00  0.00    -0.272 OA
HETATM    5  H   UNL     1      -8.182   4.133 -31.549  1.00  0.00     0.162 HD
BRANCH   3   6
HETATM    6  C   UNL     1      -5.891   5.262 -31.904  1.00  0.00     0.239 C 
BRANCH   6   7
HETATM    7  N   UNL     1      -4.632   5.801 -31.450  1.00  0.00    -0.259 N 
HETATM    8  C   UNL     1      -4.313   5.977 -30.139  1.00  0.00     0.326 C 
HETATM    9  N   UNL     1      -2.987   6.337 -30.057  1.00  0.00    -0.324 N 
HETATM   10  O   UNL     1      -5.030   5.815 -29.167  1.00  0.00    -0.247 OA
HETATM   11  C   UNL     1      -2.304   6.176 -31.324  1.00  0.00     0.119 C 
HETATM   12  H   UNL     1      -2.542   6.385 -29.148  1.00  0.00     0.165 HD
HETATM   13  C   UNL     1      -1.403   7.369 -31.692  1.00  0.00     0.019 C 
HETATM   14  C   UNL     1      -3.536   5.998 -32.240  1.00  0.00     0.257 C 
HETATM   15  C   UNL     1      -1.526   4.844 -31.349  1.00  0.00     0.041 C 
HETATM   16  C   UNL     1      -2.116   8.721 -31.590  1.00  0.00     0.013 C 
HETATM   17  C   UNL     1      -0.131   7.388 -30.822  1.00  0.00     0.007 C 
HETATM   18  C   UNL     1       0.625   6.063 -30.872  1.00  0.00     0.001 C 
HETATM   19  C   UNL     1      -0.266   4.889 -30.490  1.00  0.00     0.003 C 
HETATM   20  O   UNL     1      -3.527   5.937 -33.463  1.00  0.00    -0.270 OA
ENDBRANCH   6   7
ENDBRANCH   3   6
ENDBRANCH   1   2
BRANCH   1  21
HETATM   21  C   UNL     1      -8.029   1.542 -32.951  1.00  0.00     0.071 C 
BRANCH  21  22
HETATM   22  C   UNL     1      -9.471   1.109 -33.165  1.00  0.00    -0.020 A 
HETATM   23  C   UNL     1     -10.478   1.796 -33.927  1.00  0.00    -0.001 A 
HETATM   24  C   UNL     1     -11.656   1.049 -33.844  1.00  0.00     0.042 A 
HETATM   25  C   UNL     1     -10.501   2.985 -34.687  1.00  0.00     0.014 A 
HETATM   26  C   UNL     1     -12.845   1.426 -34.478  1.00  0.00     0.030 A 
HETATM   27  N   UNL     1     -11.387  -0.047 -33.063  1.00  0.00    -0.365 N 
HETATM   28  C   UNL     1     -12.837   2.606 -35.226  1.00  0.00     0.002 A 
HETATM   29  C   UNL     1     -11.682   3.376 -35.331  1.00  0.00     0.001 A 
HETATM   30  H   UNL     1     -12.059  -0.765 -32.832  1.00  0.00     0.165 HD
HETATM   31  C   UNL     1     -10.084  -0.024 -32.649  1.00  0.00     0.097 A 
ENDBRANCH  21  22
BRANCH  21  32
HETATM   32  C   UNL     1      -7.209   0.343 -33.417  1.00  0.00    -0.048 A 
HETATM   33  C   UNL     1      -7.448  -0.192 -34.694  1.00  0.00     0.011 A 
HETATM   34  C   UNL     1      -6.750  -1.316 -35.143  1.00  0.00     0.037 A 
HETATM   35  C   UNL     1      -5.799  -1.934 -34.332  1.00  0.00     0.068 A 
HETATM   36  C   UNL     1      -5.550  -1.411 -33.064  1.00  0.00     0.037 A 
HETATM   37  C   UNL     1      -6.250  -0.286 -32.609  1.00  0.00     0.011 A 
BRANCH  35  38
HETATM   38  O   UNL     1      -5.198  -3.029 -34.887  1.00  0.00    -0.356 OA
HETATM   39  C   UNL     1      -6.031  -4.148 -35.163  1.00  0.00     0.210 C 
ENDBRANCH  35  38
ENDBRANCH  21  32
ENDBRANCH   1  21
TORSDOF 7
ENDMDL
MODEL 5
REMARK VINA RESULT:      -9.7      2.104      4.475
REMARK  7 active torsions:
REMARK  status: ('A' for Active; 'I' for Inactive)
REMARK    1  A    between atoms: N_7  and  C_8 
REMARK    2  A    between atoms: C_8  and  C_9 
REMARK       I    between atoms: C_9  and  N_10 
REMARK    3  A    between atoms: N_10  and  C_11 
REMARK    4  A    between atoms: C_11  and  C_12 
REMARK    5  A    between atoms: C_12  and  C_13 
REMARK    6  A    between atoms: C_12  and  C_23 
REMARK    7  A    between atoms: C_26  and  O_27 
ROOT
HETATM    1  C   UNL     1      -5.188   2.828 -33.375  1.00  0.00     0.136 C 
ENDROOT
BRANCH   1   2
HETATM    2  N   UNL     1      -4.543   4.025 -32.842  1.00  0.00    -0.359 N 
HETATM    3  C   UNL     1      -4.288   5.052 -33.741  1.00  0.00     0.236 C 
HETATM    4  O   UNL     1      -4.367   4.886 -34.959  1.00  0.00    -0.272 OA
HETATM    5  H   UNL     1      -4.744   4.289 -31.878  1.00  0.00     0.162 HD
BRANCH   3   6
HETATM    6  C   UNL     1      -4.139   6.448 -33.153  1.00  0.00     0.239 C 
BRANCH   6   7
HETATM    7  N   UNL     1      -2.957   6.661 -32.354  1.00  0.00    -0.259 N 
HETATM    8  C   UNL     1      -1.921   7.458 -32.736  1.00  0.00     0.326 C 
HETATM    9  N   UNL     1      -1.051   7.579 -31.676  1.00  0.00    -0.324 N 
HETATM   10  O   UNL     1      -1.766   8.023 -33.804  1.00  0.00    -0.247 OA
HETATM   11  C   UNL     1      -1.614   7.049 -30.451  1.00  0.00     0.119 C 
HETATM   12  H   UNL     1      -0.285   8.239 -31.736  1.00  0.00     0.165 HD
HETATM   13  C   UNL     1      -0.632   6.172 -29.653  1.00  0.00     0.019 C 
HETATM   14  C   UNL     1      -2.815   6.282 -31.050  1.00  0.00     0.257 C 
HETATM   15  C   UNL     1      -2.191   8.190 -29.588  1.00  0.00     0.041 C 
HETATM   16  C   UNL     1       0.033   5.082 -30.498  1.00  0.00     0.013 C 
HETATM   17  C   UNL     1       0.452   7.034 -28.975  1.00  0.00     0.007 C 
HETATM   18  C   UNL     1      -0.146   8.148 -28.120  1.00  0.00     0.001 C 
HETATM   19  C   UNL     1      -1.102   9.023 -28.920  1.00  0.00     0.003 C 
HETATM   20  O   UNL     1      -3.577   5.542 -30.443  1.00  0.00    -0.270 OA
ENDBRANCH   6   7
ENDBRANCH   3   6
ENDBRANCH   1   2
BRANCH   1  21
HETATM   21  C   UNL     1      -5.793   1.847 -32.349  1.00  0.00     0.071 C 
BRANCH  21  22
HETATM   22  C   UNL     1      -5.013   0.543 -32.306  1.00  0.00    -0.020 A 
HETATM   23  C   UNL     1      -5.160  -0.584 -33.189  1.00  0.00    -0.001 A 
HETATM   24  C   UNL     1      -4.253  -1.564 -32.779  1.00  0.00     0.042 A 
HETATM   25  C   UNL     1      -5.977  -0.863 -34.305  1.00  0.00     0.014 A 
HETATM   26  C   UNL     1      -4.121  -2.800 -33.423  1.00  0.00     0.030 A 
HETATM   27  N   UNL     1      -3.580  -1.065 -31.691  1.00  0.00    -0.365 N 
HETATM   28  C   UNL     1      -4.941  -3.047 -34.526  1.00  0.00     0.002 A 
HETATM   29  C   UNL     1      -5.856  -2.094 -34.963  1.00  0.00     0.001 A 
HETATM   30  H   UNL     1      -2.860  -1.562 -31.186  1.00  0.00     0.165 HD
HETATM   31  C   UNL     1      -4.025   0.194 -31.397  1.00  0.00     0.097 A 
ENDBRANCH  21  22
BRANCH  21  32
HETATM   32  C   UNL     1      -7.236   1.409 -32.577  1.00  0.00    -0.048 A 
HETATM   33  C   UNL     1      -7.905   1.842 -33.734  1.00  0.00     0.011 A 
HETATM   34  C   UNL     1      -9.241   1.500 -33.961  1.00  0.00     0.037 A 
HETATM   35  C   UNL     1      -9.941   0.720 -33.041  1.00  0.00     0.068 A 
HETATM   36  C   UNL     1      -9.289   0.281 -31.891  1.00  0.00     0.037 A 
HETATM   37  C   UNL     1      -7.950   0.625 -31.659  1.00  0.00     0.011 A 
BRANCH  35  38
HETATM   38  O   UNL     1     -11.242   0.468 -33.379  1.00  0.00    -0.356 OA
HETATM   39  C   UNL     1     -11.874   1.402 -34.245  1.00  0.00     0.210 C 
ENDBRANCH  35  38
ENDBRANCH  21  32
ENDBRANCH   1  21
TORSDOF 7
ENDMDL
MODEL 6
REMARK VINA RESULT:      -9.7      1.944      4.473
REMARK  7 active torsions:
REMARK  status: ('A' for Active; 'I' for Inactive)
REMARK    1  A    between atoms: N_7  and  C_8 
REMARK    2  A    between atoms: C_8  and  C_9 
REMARK       I    between atoms: C_9  and  N_10 
REMARK    3  A    between atoms: N_10  and  C_11 
REMARK    4  A    between atoms: C_11  and  C_12 
REMARK    5  A    between atoms: C_12  and  C_13 
REMARK    6  A    between atoms: C_12  and  C_23 
REMARK    7  A    between atoms: C_26  and  O_27 
ROOT
HETATM    1  C   UNL     1      -5.848   4.316 -33.875  1.00  0.00     0.136 C 
ENDROOT
BRANCH   1   2
HETATM    2  N   UNL     1      -4.406   4.141 -33.722  1.00  0.00    -0.359 N 
HETATM    3  C   UNL     1      -3.592   4.939 -34.515  1.00  0.00     0.236 C 
HETATM    4  O   UNL     1      -4.037   5.579 -35.468  1.00  0.00    -0.272 OA
HETATM    5  H   UNL     1      -4.050   3.879 -32.803  1.00  0.00     0.162 HD
BRANCH   3   6
HETATM    6  C   UNL     1      -2.175   5.172 -34.012  1.00  0.00     0.239 C 
BRANCH   6   7
HETATM    7  N   UNL     1      -2.069   5.666 -32.661  1.00  0.00    -0.259 N 
HETATM    8  C   UNL     1      -2.065   4.864 -31.561  1.00  0.00     0.326 C 
HETATM    9  N   UNL     1      -1.774   5.637 -30.459  1.00  0.00    -0.324 N 
HETATM   10  O   UNL     1      -2.241   3.660 -31.513  1.00  0.00    -0.247 OA
HETATM   11  C   UNL     1      -1.330   6.964 -30.832  1.00  0.00     0.119 C 
HETATM   12  H   UNL     1      -1.602   5.186 -29.569  1.00  0.00     0.165 HD
HETATM   13  C   UNL     1      -1.977   8.085 -30.000  1.00  0.00     0.019 C 
HETATM   14  C   UNL     1      -1.747   6.949 -32.320  1.00  0.00     0.257 C 
HETATM   15  C   UNL     1       0.211   7.044 -30.797  1.00  0.00     0.041 C 
HETATM   16  C   UNL     1      -3.505   7.987 -29.935  1.00  0.00     0.013 C 
HETATM   17  C   UNL     1      -1.401   8.115 -28.571  1.00  0.00     0.007 C 
HETATM   18  C   UNL     1       0.124   8.205 -28.564  1.00  0.00     0.001 C 
HETATM   19  C   UNL     1       0.760   7.083 -29.374  1.00  0.00     0.003 C 
HETATM   20  O   UNL     1      -1.702   7.894 -33.096  1.00  0.00    -0.270 OA
ENDBRANCH   6   7
ENDBRANCH   3   6
ENDBRANCH   1   2
BRANCH   1  21
HETATM   21  C   UNL     1      -6.746   3.680 -32.792  1.00  0.00     0.071 C 
BRANCH  21  22
HETATM   22  C   UNL     1      -6.367   2.228 -32.544  1.00  0.00    -0.020 A 
HETATM   23  C   UNL     1      -6.555   1.118 -33.440  1.00  0.00    -0.001 A 
HETATM   24  C   UNL     1      -6.073  -0.027 -32.801  1.00  0.00     0.042 A 
HETATM   25  C   UNL     1      -7.088   0.978 -34.739  1.00  0.00     0.014 A 
HETATM   26  C   UNL     1      -6.095  -1.296 -33.391  1.00  0.00     0.030 A 
HETATM   27  N   UNL     1      -5.612   0.359 -31.568  1.00  0.00    -0.365 N 
HETATM   28  C   UNL     1      -6.625  -1.404 -34.679  1.00  0.00     0.002 A 
HETATM   29  C   UNL     1      -7.115  -0.284 -35.346  1.00  0.00     0.001 A 
HETATM   30  H   UNL     1      -5.205  -0.267 -30.887  1.00  0.00     0.165 HD
HETATM   31  C   UNL     1      -5.782   1.705 -31.400  1.00  0.00     0.097 A 
ENDBRANCH  21  22
BRANCH  21  32
HETATM   32  C   UNL     1      -8.243   3.628 -33.076  1.00  0.00    -0.048 A 
HETATM   33  C   UNL     1      -9.085   2.949 -32.179  1.00  0.00     0.011 A 
HETATM   34  C   UNL     1     -10.456   2.840 -32.423  1.00  0.00     0.037 A 
HETATM   35  C   UNL     1     -11.022   3.405 -33.565  1.00  0.00     0.068 A 
HETATM   36  C   UNL     1     -10.200   4.086 -34.462  1.00  0.00     0.037 A 
HETATM   37  C   UNL     1      -8.824   4.193 -34.222  1.00  0.00     0.011 A 
BRANCH  35  38
HETATM   38  O   UNL     1     -12.371   3.217 -33.688  1.00  0.00    -0.356 OA
HETATM   39  C   UNL     1     -12.858   1.900 -33.471  1.00  0.00     0.210 C 
ENDBRANCH  35  38
ENDBRANCH  21  32
ENDBRANCH   1  21
TORSDOF 7
ENDMDL
MODEL 7
REMARK VINA RESULT:      -9.6      3.193      8.528
REMARK  7 active torsions:
REMARK  status: ('A' for Active; 'I' for Inactive)
REMARK    1  A    between atoms: N_7  and  C_8 
REMARK    2  A    between atoms: C_8  and  C_9 
REMARK       I    between atoms: C_9  and  N_10 
REMARK    3  A    between atoms: N_10  and  C_11 
REMARK    4  A    between atoms: C_11  and  C_12 
REMARK    5  A    between atoms: C_12  and  C_13 
REMARK    6  A    between atoms: C_12  and  C_23 
REMARK    7  A    between atoms: C_26  and  O_27 
ROOT
HETATM    1  C   UNL     1      -6.329   1.622 -30.397  1.00  0.00     0.136 C 
ENDROOT
BRANCH   1   2
HETATM    2  N   UNL     1      -7.604   2.326 -30.290  1.00  0.00    -0.359 N 
HETATM    3  C   UNL     1      -7.547   3.696 -30.071  1.00  0.00     0.236 C 
HETATM    4  O   UNL     1      -6.503   4.259 -29.739  1.00  0.00    -0.272 OA
HETATM    5  H   UNL     1      -8.393   1.973 -30.831  1.00  0.00     0.162 HD
BRANCH   3   6
HETATM    6  C   UNL     1      -8.768   4.501 -30.489  1.00  0.00     0.239 C 
BRANCH   6   7
HETATM    7  N   UNL     1      -9.684   3.824 -31.375  1.00  0.00    -0.259 N 
HETATM    8  C   UNL     1     -11.008   3.657 -31.108  1.00  0.00     0.326 C 
HETATM    9  N   UNL     1     -11.616   3.136 -32.228  1.00  0.00    -0.324 N 
HETATM   10  O   UNL     1     -11.607   3.942 -30.087  1.00  0.00    -0.247 OA
HETATM   11  C   UNL     1     -10.740   3.164 -33.381  1.00  0.00     0.119 C 
HETATM   12  H   UNL     1     -12.626   3.064 -32.256  1.00  0.00     0.165 HD
HETATM   13  C   UNL     1     -10.748   1.855 -34.191  1.00  0.00     0.019 C 
HETATM   14  C   UNL     1      -9.405   3.463 -32.662  1.00  0.00     0.257 C 
HETATM   15  C   UNL     1     -11.059   4.386 -34.267  1.00  0.00     0.041 C 
HETATM   16  C   UNL     1     -10.525   0.608 -33.330  1.00  0.00     0.013 C 
HETATM   17  C   UNL     1     -12.060   1.706 -34.987  1.00  0.00     0.007 C 
HETATM   18  C   UNL     1     -12.346   2.924 -35.862  1.00  0.00     0.001 C 
HETATM   19  C   UNL     1     -12.355   4.213 -35.053  1.00  0.00     0.003 C 
HETATM   20  O   UNL     1      -8.293   3.479 -33.174  1.00  0.00    -0.270 OA
ENDBRANCH   6   7
ENDBRANCH   3   6
ENDBRANCH   1   2
BRANCH   1  21
HETATM   21  C   UNL     1      -5.667   1.587 -31.791  1.00  0.00     0.071 C 
BRANCH  21  22
HETATM   22  C   UNL     1      -4.929   0.278 -32.019  1.00  0.00    -0.020 A 
HETATM   23  C   UNL     1      -5.204  -0.707 -33.030  1.00  0.00    -0.001 A 
HETATM   24  C   UNL     1      -4.290  -1.751 -32.864  1.00  0.00     0.042 A 
HETATM   25  C   UNL     1      -6.143  -0.810 -34.078  1.00  0.00     0.014 A 
HETATM   26  C   UNL     1      -4.267  -2.884 -33.686  1.00  0.00     0.030 A 
HETATM   27  N   UNL     1      -3.491  -1.426 -31.797  1.00  0.00    -0.365 N 
HETATM   28  C   UNL     1      -5.207  -2.957 -34.717  1.00  0.00     0.002 A 
HETATM   29  C   UNL     1      -6.132  -1.935 -34.913  1.00  0.00     0.001 A 
HETATM   30  H   UNL     1      -2.737  -2.001 -31.448  1.00  0.00     0.165 HD
HETATM   31  C   UNL     1      -3.862  -0.215 -31.281  1.00  0.00     0.097 A 
ENDBRANCH  21  22
BRANCH  21  32
HETATM   32  C   UNL     1      -4.622   2.658 -32.089  1.00  0.00    -0.048 A 
HETATM   33  C   UNL     1      -4.744   3.423 -33.261  1.00  0.00     0.011 A 
HETATM   34  C   UNL     1      -3.786   4.384 -33.594  1.00  0.00     0.037 A 
HETATM   35  C   UNL     1      -2.685   4.606 -32.769  1.00  0.00     0.068 A 
HETATM   36  C   UNL     1      -2.553   3.857 -31.600  1.00  0.00     0.037 A 
HETATM   37  C   UNL     1      -3.510   2.890 -31.265  1.00  0.00     0.011 A 
BRANCH  35  38
HETATM   38  O   UNL     1      -1.819   5.565 -33.216  1.00  0.00    -0.356 OA
HETATM   39  C   UNL     1      -1.542   5.580 -34.610  1.00  0.00     0.210 C 
ENDBRANCH  35  38
ENDBRANCH  21  32
ENDBRANCH   1  21
TORSDOF 7
ENDMDL
MODEL 8
REMARK VINA RESULT:      -9.6      2.191      4.405
REMARK  7 active torsions:
REMARK  status: ('A' for Active; 'I' for Inactive)
REMARK    1  A    between atoms: N_7  and  C_8 
REMARK    2  A    between atoms: C_8  and  C_9 
REMARK       I    between atoms: C_9  and  N_10 
REMARK    3  A    between atoms: N_10  and  C_11 
REMARK    4  A    between atoms: C_11  and  C_12 
REMARK    5  A    between atoms: C_12  and  C_13 
REMARK    6  A    between atoms: C_12  and  C_23 
REMARK    7  A    between atoms: C_26  and  O_27 
ROOT
HETATM    1  C   UNL     1      -5.297   4.169 -33.568  1.00  0.00     0.136 C 
ENDROOT
BRANCH   1   2
HETATM    2  N   UNL     1      -3.839   4.095 -33.535  1.00  0.00    -0.359 N 
HETATM    3  C   UNL     1      -3.149   4.936 -34.398  1.00  0.00     0.236 C 
HETATM    4  O   UNL     1      -3.715   5.534 -35.314  1.00  0.00    -0.272 OA
HETATM    5  H   UNL     1      -3.390   3.869 -32.648  1.00  0.00     0.162 HD
BRANCH   3   6
HETATM    6  C   UNL     1      -1.715   5.271 -34.017  1.00  0.00     0.239 C 
BRANCH   6   7
HETATM    7  N   UNL     1      -1.560   6.072 -32.827  1.00  0.00    -0.259 N 
HETATM    8  C   UNL     1      -1.612   7.432 -32.818  1.00  0.00     0.326 C 
HETATM    9  N   UNL     1      -1.607   7.860 -31.510  1.00  0.00    -0.324 N 
HETATM   10  O   UNL     1      -1.693   8.183 -33.773  1.00  0.00    -0.247 OA
HETATM   11  C   UNL     1      -1.796   6.765 -30.582  1.00  0.00     0.119 C 
HETATM   12  H   UNL     1      -1.770   8.839 -31.308  1.00  0.00     0.165 HD
HETATM   13  C   UNL     1      -0.835   6.804 -29.380  1.00  0.00     0.019 C 
HETATM   14  C   UNL     1      -1.561   5.584 -31.551  1.00  0.00     0.257 C 
HETATM   15  C   UNL     1      -3.269   6.691 -30.131  1.00  0.00     0.041 C 
HETATM   16  C   UNL     1       0.634   6.968 -29.784  1.00  0.00     0.013 C 
HETATM   17  C   UNL     1      -1.228   7.922 -28.395  1.00  0.00     0.007 C 
HETATM   18  C   UNL     1      -2.687   7.821 -27.957  1.00  0.00     0.001 C 
HETATM   19  C   UNL     1      -3.635   7.801 -29.149  1.00  0.00     0.003 C 
HETATM   20  O   UNL     1      -1.489   4.400 -31.248  1.00  0.00    -0.270 OA
ENDBRANCH   6   7
ENDBRANCH   3   6
ENDBRANCH   1   2
BRANCH   1  21
HETATM   21  C   UNL     1      -6.054   3.546 -32.375  1.00  0.00     0.071 C 
BRANCH  21  22
HETATM   22  C   UNL     1      -5.864   2.038 -32.329  1.00  0.00    -0.020 A 
HETATM   23  C   UNL     1      -6.257   1.084 -33.332  1.00  0.00    -0.001 A 
HETATM   24  C   UNL     1      -5.900  -0.185 -32.871  1.00  0.00     0.042 A 
HETATM   25  C   UNL     1      -6.880   1.180 -34.594  1.00  0.00     0.014 A 
HETATM   26  C   UNL     1      -6.132  -1.356 -33.602  1.00  0.00     0.030 A 
HETATM   27  N   UNL     1      -5.318  -0.022 -31.639  1.00  0.00    -0.365 N 
HETATM   28  C   UNL     1      -6.748  -1.231 -34.850  1.00  0.00     0.002 A 
HETATM   29  C   UNL     1      -7.117   0.018 -35.341  1.00  0.00     0.001 A 
HETATM   30  H   UNL     1      -4.961  -0.776 -31.069  1.00  0.00     0.165 HD
HETATM   31  C   UNL     1      -5.290   1.303 -31.302  1.00  0.00     0.097 A 
ENDBRANCH  21  22
BRANCH  21  32
HETATM   32  C   UNL     1      -7.567   3.731 -32.342  1.00  0.00    -0.048 A 
HETATM   33  C   UNL     1      -8.273   3.368 -31.183  1.00  0.00     0.011 A 
HETATM   34  C   UNL     1      -9.665   3.480 -31.125  1.00  0.00     0.037 A 
HETATM   35  C   UNL     1     -10.386   3.955 -32.220  1.00  0.00     0.068 A 
HETATM   36  C   UNL     1      -9.698   4.322 -33.375  1.00  0.00     0.037 A 
HETATM   37  C   UNL     1      -8.303   4.208 -33.437  1.00  0.00     0.011 A 
BRANCH  35  38
HETATM   38  O   UNL     1     -11.740   4.004 -32.035  1.00  0.00    -0.356 OA
HETATM   39  C   UNL     1     -12.199   4.261 -30.715  1.00  0.00     0.210 C 
ENDBRANCH  35  38
ENDBRANCH  21  32
ENDBRANCH   1  21
TORSDOF 7
ENDMDL
MODEL 9
REMARK VINA RESULT:      -9.4      3.229      8.189
REMARK  7 active torsions:
REMARK  status: ('A' for Active; 'I' for Inactive)
REMARK    1  A    between atoms: N_7  and  C_8 
REMARK    2  A    between atoms: C_8  and  C_9 
REMARK       I    between atoms: C_9  and  N_10 
REMARK    3  A    between atoms: N_10  and  C_11 
REMARK    4  A    between atoms: C_11  and  C_12 
REMARK    5  A    between atoms: C_12  and  C_13 
REMARK    6  A    between atoms: C_12  and  C_23 
REMARK    7  A    between atoms: C_26  and  O_27 
ROOT
HETATM    1  C   UNL     1      -5.958   1.816 -30.042  1.00  0.00     0.136 C 
ENDROOT
BRANCH   1   2
HETATM    2  N   UNL     1      -7.171   2.559 -29.709  1.00  0.00    -0.359 N 
HETATM    3  C   UNL     1      -7.032   3.925 -29.504  1.00  0.00     0.236 C 
HETATM    4  O   UNL     1      -5.929   4.454 -29.365  1.00  0.00    -0.272 OA
HETATM    5  H   UNL     1      -8.055   2.233 -30.100  1.00  0.00     0.162 HD
BRANCH   3   6
HETATM    6  C   UNL     1      -8.283   4.770 -29.698  1.00  0.00     0.239 C 
BRANCH   6   7
HETATM    7  N   UNL     1      -9.022   4.516 -30.910  1.00  0.00    -0.259 N 
HETATM    8  C   UNL     1      -8.583   4.865 -32.151  1.00  0.00     0.326 C 
HETATM    9  N   UNL     1      -9.436   4.321 -33.084  1.00  0.00    -0.324 N 
HETATM   10  O   UNL     1      -7.590   5.508 -32.439  1.00  0.00    -0.247 OA
HETATM   11  C   UNL     1     -10.355   3.373 -32.489  1.00  0.00     0.119 C 
HETATM   12  H   UNL     1      -9.193   4.370 -34.066  1.00  0.00     0.165 HD
HETATM   13  C   UNL     1     -11.809   3.543 -32.967  1.00  0.00     0.019 C 
HETATM   14  C   UNL     1     -10.127   3.719 -31.000  1.00  0.00     0.257 C 
HETATM   15  C   UNL     1      -9.851   1.931 -32.700  1.00  0.00     0.041 C 
HETATM   16  C   UNL     1     -12.318   4.984 -32.858  1.00  0.00     0.013 C 
HETATM   17  C   UNL     1     -11.975   3.045 -34.416  1.00  0.00     0.007 C 
HETATM   18  C   UNL     1     -11.477   1.613 -34.596  1.00  0.00     0.001 C 
HETATM   19  C   UNL     1     -10.033   1.454 -34.138  1.00  0.00     0.003 C 
HETATM   20  O   UNL     1     -10.757   3.276 -30.049  1.00  0.00    -0.270 OA
ENDBRANCH   6   7
ENDBRANCH   3   6
ENDBRANCH   1   2
BRANCH   1  21
HETATM   21  C   UNL     1      -5.564   1.759 -31.533  1.00  0.00     0.071 C 
BRANCH  21  22
HETATM   22  C   UNL     1      -4.943   0.418 -31.888  1.00  0.00    -0.020 A 
HETATM   23  C   UNL     1      -5.336  -0.464 -32.955  1.00  0.00    -0.001 A 
HETATM   24  C   UNL     1      -4.503  -1.585 -32.906  1.00  0.00     0.042 A 
HETATM   25  C   UNL     1      -6.321  -0.414 -33.963  1.00  0.00     0.014 A 
HETATM   26  C   UNL     1      -4.603  -2.650 -33.809  1.00  0.00     0.030 A 
HETATM   27  N   UNL     1      -3.639  -1.403 -31.856  1.00  0.00    -0.365 N 
HETATM   28  C   UNL     1      -5.586  -2.572 -34.799  1.00  0.00     0.002 A 
HETATM   29  C   UNL     1      -6.434  -1.470 -34.877  1.00  0.00     0.001 A 
HETATM   30  H   UNL     1      -2.920  -2.060 -31.585  1.00  0.00     0.165 HD
HETATM   31  C   UNL     1      -3.890  -0.210 -31.238  1.00  0.00     0.097 A 
ENDBRANCH  21  22
BRANCH  21  32
HETATM   32  C   UNL     1      -4.541   2.781 -32.019  1.00  0.00    -0.048 A 
HETATM   33  C   UNL     1      -3.363   2.972 -31.277  1.00  0.00     0.011 A 
HETATM   34  C   UNL     1      -2.420   3.929 -31.661  1.00  0.00     0.037 A 
HETATM   35  C   UNL     1      -2.627   4.717 -32.793  1.00  0.00     0.068 A 
HETATM   36  C   UNL     1      -3.789   4.535 -33.540  1.00  0.00     0.037 A 
HETATM   37  C   UNL     1      -4.738   3.579 -33.156  1.00  0.00     0.011 A 
BRANCH  35  38
HETATM   38  O   UNL     1      -1.633   5.620 -33.051  1.00  0.00    -0.356 OA
HETATM   39  C   UNL     1      -1.684   6.291 -34.302  1.00  0.00     0.210 C 
ENDBRANCH  35  38
ENDBRANCH  21  32
ENDBRANCH   1  21
TORSDOF 7
ENDMDL
MODEL 10
REMARK VINA RESULT:      -9.4      2.763      9.036
REMARK  7 active torsions:
REMARK  status: ('A' for Active; 'I' for Inactive)
REMARK    1  A    between atoms: N_7  and  C_8 
REMARK    2  A    between atoms: C_8  and  C_9 
REMARK       I    between atoms: C_9  and  N_10 
REMARK    3  A    between atoms: N_10  and  C_11 
REMARK    4  A    between atoms: C_11  and  C_12 
REMARK    5  A    between atoms: C_12  and  C_13 
REMARK    6  A    between atoms: C_12  and  C_23 
REMARK    7  A    between atoms: C_26  and  O_27 
ROOT
HETATM    1  C   UNL     1      -6.742   5.517 -33.178  1.00  0.00     0.136 C 
ENDROOT
BRANCH   1   2
HETATM    2  N   UNL     1      -8.044   6.021 -32.746  1.00  0.00    -0.359 N 
HETATM    3  C   UNL     1      -9.116   5.796 -33.599  1.00  0.00     0.236 C 
HETATM    4  O   UNL     1      -8.956   5.418 -34.760  1.00  0.00    -0.272 OA
HETATM    5  H   UNL     1      -8.241   6.046 -31.746  1.00  0.00     0.162 HD
BRANCH   3   6
HETATM    6  C   UNL     1     -10.500   5.809 -32.966  1.00  0.00     0.239 C 
BRANCH   6   7
HETATM    7  N   UNL     1     -11.241   4.576 -33.072  1.00  0.00    -0.259 N 
HETATM    8  C   UNL     1     -11.065   3.514 -32.239  1.00  0.00     0.326 C 
HETATM    9  N   UNL     1     -12.045   2.584 -32.504  1.00  0.00    -0.324 N 
HETATM   10  O   UNL     1     -10.226   3.380 -31.365  1.00  0.00    -0.247 OA
HETATM   11  C   UNL     1     -13.071   3.115 -33.377  1.00  0.00     0.119 C 
HETATM   12  H   UNL     1     -12.148   1.784 -31.892  1.00  0.00     0.165 HD
HETATM   13  C   UNL     1     -13.477   2.149 -34.505  1.00  0.00     0.019 C 
HETATM   14  C   UNL     1     -12.342   4.390 -33.858  1.00  0.00     0.257 C 
HETATM   15  C   UNL     1     -14.292   3.576 -32.554  1.00  0.00     0.041 C 
HETATM   16  C   UNL     1     -12.283   1.597 -35.290  1.00  0.00     0.013 C 
HETATM   17  C   UNL     1     -14.319   0.981 -33.956  1.00  0.00     0.007 C 
HETATM   18  C   UNL     1     -15.525   1.464 -33.154  1.00  0.00     0.001 C 
HETATM   19  C   UNL     1     -15.116   2.404 -32.028  1.00  0.00     0.003 C 
HETATM   20  O   UNL     1     -12.730   5.164 -34.723  1.00  0.00    -0.270 OA
ENDBRANCH   6   7
ENDBRANCH   3   6
ENDBRANCH   1   2
BRANCH   1  21
HETATM   21  C   UNL     1      -6.068   4.463 -32.273  1.00  0.00     0.071 C 
BRANCH  21  22
HETATM   22  C   UNL     1      -4.624   4.834 -31.977  1.00  0.00    -0.020 A 
HETATM   23  C   UNL     1      -3.566   5.028 -32.931  1.00  0.00    -0.001 A 
HETATM   24  C   UNL     1      -2.406   5.345 -32.219  1.00  0.00     0.042 A 
HETATM   25  C   UNL     1      -3.483   4.969 -34.338  1.00  0.00     0.014 A 
HETATM   26  C   UNL     1      -1.178   5.605 -32.838  1.00  0.00     0.030 A 
HETATM   27  N   UNL     1      -2.735   5.343 -30.887  1.00  0.00    -0.365 N 
HETATM   28  C   UNL     1      -1.127   5.542 -34.232  1.00  0.00     0.002 A 
HETATM   29  C   UNL     1      -2.262   5.230 -34.974  1.00  0.00     0.001 A 
HETATM   30  H   UNL     1      -2.087   5.541 -30.137  1.00  0.00     0.165 HD
HETATM   31  C   UNL     1      -4.058   5.038 -30.727  1.00  0.00     0.097 A 
ENDBRANCH  21  22
BRANCH  21  32
HETATM   32  C   UNL     1      -5.983   3.040 -32.813  1.00  0.00    -0.048 A 
HETATM   33  C   UNL     1      -6.633   2.728 -34.019  1.00  0.00     0.011 A 
HETATM   34  C   UNL     1      -6.617   1.426 -34.527  1.00  0.00     0.037 A 
HETATM   35  C   UNL     1      -5.953   0.406 -33.848  1.00  0.00     0.068 A 
HETATM   36  C   UNL     1      -5.300   0.702 -32.653  1.00  0.00     0.037 A 
HETATM   37  C   UNL     1      -5.317   2.005 -32.139  1.00  0.00     0.011 A 
BRANCH  35  38
HETATM   38  O   UNL     1      -6.024  -0.821 -34.448  1.00  0.00    -0.356 OA
HETATM   39  C   UNL     1      -7.056  -1.693 -34.007  1.00  0.00     0.210 C 
ENDBRANCH  35  38
ENDBRANCH  21  32
ENDBRANCH   1  21
TORSDOF 7
ENDMDL
