MODEL 1
REMARK VINA RESULT:      -8.0      0.000      0.000
REMARK  5 active torsions:
REMARK  status: ('A' for Active; 'I' for Inactive)
REMARK    1  A    between atoms: C_8  and  C_9 
REMARK    2  A    between atoms: C_9  and  N_10 
REMARK    3  A    between atoms: N_10  and  C_13 
REMARK    4  A    between atoms: C_13  and  C_14 
REMARK    5  A    between atoms: C_13  and  C_19 
ROOT
HETATM    1  N   UNL     1      -4.504  -1.560 -32.557  1.00  0.00    -0.056 N 
HETATM    2  H   UNL     1      -4.013  -2.442 -32.369  1.00  0.00     0.278 HD
HETATM    3  H   UNL     1      -5.283  -1.496 -31.889  1.00  0.00     0.278 HD
ENDROOT
BRANCH   1   4
HETATM    4  C   UNL     1      -3.564  -0.438 -32.301  1.00  0.00     0.275 C 
BRANCH   4   5
HETATM    5  C   UNL     1      -4.219   0.643 -31.503  1.00  0.00     0.004 A 
HETATM    6  C   UNL     1      -3.827   1.965 -31.645  1.00  0.00     0.113 A 
HETATM    7  C   UNL     1      -4.404   2.985 -30.925  1.00  0.00     0.105 A 
HETATM    8  O   UNL     1      -2.872   2.417 -32.508  1.00  0.00    -0.322 OA
HETATM    9  C   UNL     1      -5.416   2.747 -30.022  1.00  0.00     0.040 A 
HETATM   10  O   UNL     1      -3.871   4.197 -31.223  1.00  0.00    -0.323 OA
HETATM   11  C   UNL     1      -5.841   1.427 -29.854  1.00  0.00     0.003 A 
HETATM   12  C   UNL     1      -5.249   0.381 -30.587  1.00  0.00     0.012 A 
HETATM   13  C   UNL     1      -2.852   3.831 -32.170  1.00  0.00     0.352 A 
ENDBRANCH   4   5
ENDBRANCH   1   4
BRANCH   1  14
HETATM   14  C   UNL     1      -5.054  -1.627 -33.949  1.00  0.00     0.292 C 
BRANCH  14  15
HETATM   15  C   UNL     1      -5.357  -3.025 -34.409  1.00  0.00     0.190 A 
HETATM   16  N   UNL     1      -4.524  -4.055 -34.221  1.00  0.00    -0.109 NA
HETATM   17  O   UNL     1      -5.234  -5.137 -34.750  1.00  0.00    -0.205 OA
HETATM   18  C   UNL     1      -6.435  -4.648 -35.158  1.00  0.00     0.288 A 
HETATM   19  N   UNL     1      -6.585  -3.361 -34.941  1.00  0.00    -0.215 NA
ENDBRANCH  14  15
BRANCH  14  20
HETATM   20  C   UNL     1      -6.364  -0.862 -34.047  1.00  0.00    -0.020 A 
HETATM   21  C   UNL     1      -7.275  -0.906 -32.974  1.00  0.00     0.011 A 
HETATM   22  C   UNL     1      -8.498  -0.231 -33.047  1.00  0.00     0.024 A 
HETATM   23  C   UNL     1      -8.828   0.493 -34.189  1.00  0.00     0.034 A 
HETATM   24 CL   UNL     1     -10.331   1.320 -34.276  1.00  0.00    -0.084 Cl
HETATM   25  C   UNL     1      -7.941   0.552 -35.261  1.00  0.00     0.024 A 
HETATM   26  C   UNL     1      -6.717  -0.122 -35.193  1.00  0.00     0.011 A 
ENDBRANCH  14  20
ENDBRANCH   1  14
TORSDOF 5
ENDMDL
MODEL 2
REMARK VINA RESULT:      -7.9      4.122      6.627
REMARK  5 active torsions:
REMARK  status: ('A' for Active; 'I' for Inactive)
REMARK    1  A    between atoms: C_8  and  C_9 
REMARK    2  A    between atoms: C_9  and  N_10 
REMARK    3  A    between atoms: N_10  and  C_13 
REMARK    4  A    between atoms: C_13  and  C_14 
REMARK    5  A    between atoms: C_13  and  C_19 
ROOT
HETATM    1  N   UNL     1      -7.787   1.228 -34.706  1.00  0.00    -0.056 N 
HETATM    2  H   UNL     1      -8.245   0.322 -34.859  1.00  0.00     0.278 HD
HETATM    3  H   UNL     1      -7.625   1.648 -35.630  1.00  0.00     0.278 HD
ENDROOT
BRANCH   1   4
HETATM    4  C   UNL     1      -8.719   2.099 -33.944  1.00  0.00     0.275 C 
BRANCH   4   5
HETATM    5  C   UNL     1     -10.093   1.511 -33.902  1.00  0.00     0.004 A 
HETATM    6  C   UNL     1     -11.148   2.125 -34.559  1.00  0.00     0.113 A 
HETATM    7  C   UNL     1     -12.425   1.615 -34.538  1.00  0.00     0.105 A 
HETATM    8  O   UNL     1     -11.056   3.258 -35.313  1.00  0.00    -0.322 OA
HETATM    9  C   UNL     1     -12.727   0.454 -33.863  1.00  0.00     0.040 A 
HETATM   10  O   UNL     1     -13.298   2.373 -35.249  1.00  0.00    -0.323 OA
HETATM   11  C   UNL     1     -11.689  -0.195 -33.190  1.00  0.00     0.003 A 
HETATM   12  C   UNL     1     -10.382   0.326 -33.207  1.00  0.00     0.012 A 
HETATM   13  C   UNL     1     -12.449   3.452 -35.680  1.00  0.00     0.352 A 
ENDBRANCH   4   5
ENDBRANCH   1   4
BRANCH   1  14
HETATM   14  C   UNL     1      -6.467   0.971 -34.044  1.00  0.00     0.292 C 
BRANCH  14  15
HETATM   15  C   UNL     1      -6.464   1.274 -32.573  1.00  0.00     0.190 A 
HETATM   16  N   UNL     1      -7.044   0.485 -31.660  1.00  0.00    -0.109 NA
HETATM   17  O   UNL     1      -6.744   1.125 -30.453  1.00  0.00    -0.205 OA
HETATM   18  C   UNL     1      -5.980   2.204 -30.767  1.00  0.00     0.288 A 
HETATM   19  N   UNL     1      -5.742   2.330 -32.054  1.00  0.00    -0.215 NA
ENDBRANCH  14  15
BRANCH  14  20
HETATM   20  C   UNL     1      -6.079  -0.494 -34.170  1.00  0.00    -0.020 A 
HETATM   21  C   UNL     1      -7.027  -1.426 -34.634  1.00  0.00     0.011 A 
HETATM   22  C   UNL     1      -6.704  -2.783 -34.736  1.00  0.00     0.024 A 
HETATM   23  C   UNL     1      -5.435  -3.227 -34.377  1.00  0.00     0.034 A 
HETATM   24 CL   UNL     1      -5.042  -4.894 -34.503  1.00  0.00    -0.084 Cl
HETATM   25  C   UNL     1      -4.481  -2.322 -33.917  1.00  0.00     0.024 A 
HETATM   26  C   UNL     1      -4.799  -0.964 -33.812  1.00  0.00     0.011 A 
ENDBRANCH  14  20
ENDBRANCH   1  14
TORSDOF 5
ENDMDL
MODEL 3
REMARK VINA RESULT:      -7.9      2.353      6.333
REMARK  5 active torsions:
REMARK  status: ('A' for Active; 'I' for Inactive)
REMARK    1  A    between atoms: C_8  and  C_9 
REMARK    2  A    between atoms: C_9  and  N_10 
REMARK    3  A    between atoms: N_10  and  C_13 
REMARK    4  A    between atoms: C_13  and  C_14 
REMARK    5  A    between atoms: C_13  and  C_19 
ROOT
HETATM    1  N   UNL     1      -4.789   0.546 -33.172  1.00  0.00    -0.056 N 
HETATM    2  H   UNL     1      -4.361   1.124 -33.904  1.00  0.00     0.278 HD
HETATM    3  H   UNL     1      -5.781   0.431 -33.415  1.00  0.00     0.278 HD
ENDROOT
BRANCH   1   4
HETATM    4  C   UNL     1      -4.137  -0.789 -33.188  1.00  0.00     0.275 C 
BRANCH   4   5
HETATM    5  C   UNL     1      -5.034  -1.820 -33.792  1.00  0.00     0.004 A 
HETATM    6  C   UNL     1      -4.640  -3.147 -33.868  1.00  0.00     0.113 A 
HETATM    7  C   UNL     1      -5.437  -4.121 -34.421  1.00  0.00     0.105 A 
HETATM    8  O   UNL     1      -3.463  -3.649 -33.393  1.00  0.00    -0.322 OA
HETATM    9  C   UNL     1      -6.683  -3.831 -34.928  1.00  0.00     0.040 A 
HETATM   10  O   UNL     1      -4.855  -5.348 -34.388  1.00  0.00    -0.323 OA
HETATM   11  C   UNL     1      -7.118  -2.505 -34.866  1.00  0.00     0.003 A 
HETATM   12  C   UNL     1      -6.302  -1.505 -34.305  1.00  0.00     0.012 A 
HETATM   13  C   UNL     1      -3.577  -5.039 -33.805  1.00  0.00     0.352 A 
ENDBRANCH   4   5
ENDBRANCH   1   4
BRANCH   1  14
HETATM   14  C   UNL     1      -4.684   1.293 -31.876  1.00  0.00     0.292 C 
BRANCH  14  15
HETATM   15  C   UNL     1      -3.767   2.480 -31.940  1.00  0.00     0.190 A 
HETATM   16  N   UNL     1      -2.656   2.589 -31.202  1.00  0.00    -0.109 NA
HETATM   17  O   UNL     1      -2.110   3.803 -31.628  1.00  0.00    -0.205 OA
HETATM   18  C   UNL     1      -2.928   4.272 -32.607  1.00  0.00     0.288 A 
HETATM   19  N   UNL     1      -3.946   3.483 -32.871  1.00  0.00    -0.215 NA
ENDBRANCH  14  15
BRANCH  14  20
HETATM   20  C   UNL     1      -6.042   1.835 -31.457  1.00  0.00    -0.020 A 
HETATM   21  C   UNL     1      -7.146   1.679 -32.317  1.00  0.00     0.011 A 
HETATM   22  C   UNL     1      -8.401   2.189 -31.967  1.00  0.00     0.024 A 
HETATM   23  C   UNL     1      -8.569   2.861 -30.760  1.00  0.00     0.034 A 
HETATM   24 CL   UNL     1     -10.111   3.487 -30.335  1.00  0.00    -0.084 Cl
HETATM   25  C   UNL     1      -7.490   3.025 -29.894  1.00  0.00     0.024 A 
HETATM   26  C   UNL     1      -6.234   2.517 -30.239  1.00  0.00     0.011 A 
ENDBRANCH  14  20
ENDBRANCH   1  14
TORSDOF 5
ENDMDL
MODEL 4
REMARK VINA RESULT:      -7.9      4.206      6.886
REMARK  5 active torsions:
REMARK  status: ('A' for Active; 'I' for Inactive)
REMARK    1  A    between atoms: C_8  and  C_9 
REMARK    2  A    between atoms: C_9  and  N_10 
REMARK    3  A    between atoms: N_10  and  C_13 
REMARK    4  A    between atoms: C_13  and  C_14 
REMARK    5  A    between atoms: C_13  and  C_19 
ROOT
HETATM    1  N   UNL     1      -8.591   0.475 -33.539  1.00  0.00    -0.056 N 
HETATM    2  H   UNL     1      -8.898  -0.351 -33.012  1.00  0.00     0.278 HD
HETATM    3  H   UNL     1      -8.901   0.348 -34.511  1.00  0.00     0.278 HD
ENDROOT
BRANCH   1   4
HETATM    4  C   UNL     1      -9.272   1.669 -32.975  1.00  0.00     0.275 C 
BRANCH   4   5
HETATM    5  C   UNL     1     -10.316   2.187 -33.911  1.00  0.00     0.004 A 
HETATM    6  C   UNL     1     -11.518   1.516 -34.075  1.00  0.00     0.113 A 
HETATM    7  C   UNL     1     -12.498   1.961 -34.930  1.00  0.00     0.105 A 
HETATM    8  O   UNL     1     -11.886   0.383 -33.411  1.00  0.00    -0.322 OA
HETATM    9  C   UNL     1     -12.341   3.110 -35.672  1.00  0.00     0.040 A 
HETATM   10  O   UNL     1     -13.590   1.154 -34.932  1.00  0.00    -0.323 OA
HETATM   11  C   UNL     1     -11.145   3.817 -35.531  1.00  0.00     0.003 A 
HETATM   12  C   UNL     1     -10.138   3.361 -34.659  1.00  0.00     0.012 A 
HETATM   13  C   UNL     1     -13.176   0.116 -34.027  1.00  0.00     0.352 A 
ENDBRANCH   4   5
ENDBRANCH   1   4
BRANCH   1  14
HETATM   14  C   UNL     1      -7.094   0.515 -33.501  1.00  0.00     0.292 C 
BRANCH  14  15
HETATM   15  C   UNL     1      -6.536   0.865 -32.151  1.00  0.00     0.190 A 
HETATM   16  N   UNL     1      -5.862   1.994 -31.907  1.00  0.00    -0.109 NA
HETATM   17  O   UNL     1      -5.595   1.913 -30.536  1.00  0.00    -0.205 OA
HETATM   18  C   UNL     1      -6.176   0.765 -30.097  1.00  0.00     0.288 A 
HETATM   19  N   UNL     1      -6.803   0.094 -31.037  1.00  0.00    -0.215 NA
ENDBRANCH  14  15
BRANCH  14  20
HETATM   20  C   UNL     1      -6.510  -0.843 -33.856  1.00  0.00    -0.020 A 
HETATM   21  C   UNL     1      -7.371  -1.887 -34.246  1.00  0.00     0.011 A 
HETATM   22  C   UNL     1      -6.863  -3.154 -34.554  1.00  0.00     0.024 A 
HETATM   23  C   UNL     1      -5.495  -3.395 -34.476  1.00  0.00     0.034 A 
HETATM   24 CL   UNL     1      -4.875  -4.951 -34.854  1.00  0.00    -0.084 Cl
HETATM   25  C   UNL     1      -4.626  -2.376 -34.094  1.00  0.00     0.024 A 
HETATM   26  C   UNL     1      -5.128  -1.108 -33.784  1.00  0.00     0.011 A 
ENDBRANCH  14  20
ENDBRANCH   1  14
TORSDOF 5
ENDMDL
MODEL 5
REMARK VINA RESULT:      -7.7      3.455      5.193
REMARK  5 active torsions:
REMARK  status: ('A' for Active; 'I' for Inactive)
REMARK    1  A    between atoms: C_8  and  C_9 
REMARK    2  A    between atoms: C_9  and  N_10 
REMARK    3  A    between atoms: N_10  and  C_13 
REMARK    4  A    between atoms: C_13  and  C_14 
REMARK    5  A    between atoms: C_13  and  C_19 
ROOT
HETATM    1  N   UNL     1      -3.923   1.852 -32.222  1.00  0.00    -0.056 N 
HETATM    2  H   UNL     1      -4.492   2.320 -32.936  1.00  0.00     0.278 HD
HETATM    3  H   UNL     1      -3.119   1.428 -32.703  1.00  0.00     0.278 HD
ENDROOT
BRANCH   1   4
HETATM    4  C   UNL     1      -3.422   2.881 -31.274  1.00  0.00     0.275 C 
BRANCH   4   5
HETATM    5  C   UNL     1      -2.713   3.980 -31.997  1.00  0.00     0.004 A 
HETATM    6  C   UNL     1      -3.246   4.526 -33.155  1.00  0.00     0.113 A 
HETATM    7  C   UNL     1      -2.619   5.535 -33.848  1.00  0.00     0.105 A 
HETATM    8  O   UNL     1      -4.433   4.167 -33.723  1.00  0.00    -0.322 OA
HETATM    9  C   UNL     1      -1.424   6.068 -33.423  1.00  0.00     0.040 A 
HETATM   10  O   UNL     1      -3.317   5.919 -34.948  1.00  0.00    -0.323 OA
HETATM   11  C   UNL     1      -0.858   5.547 -32.257  1.00  0.00     0.003 A 
HETATM   12  C   UNL     1      -1.494   4.511 -31.548  1.00  0.00     0.012 A 
HETATM   13  C   UNL     1      -4.427   5.006 -34.911  1.00  0.00     0.352 A 
ENDBRANCH   4   5
ENDBRANCH   1   4
BRANCH   1  14
HETATM   14  C   UNL     1      -4.755   0.767 -31.607  1.00  0.00     0.292 C 
BRANCH  14  15
HETATM   15  C   UNL     1      -6.231   0.949 -31.820  1.00  0.00     0.190 A 
HETATM   16  N   UNL     1      -7.159   0.323 -31.089  1.00  0.00    -0.109 NA
HETATM   17  O   UNL     1      -8.359   0.831 -31.597  1.00  0.00    -0.205 OA
HETATM   18  C   UNL     1      -8.020   1.740 -32.549  1.00  0.00     0.288 A 
HETATM   19  N   UNL     1      -6.723   1.885 -32.707  1.00  0.00    -0.215 NA
ENDBRANCH  14  15
BRANCH  14  20
HETATM   20  C   UNL     1      -4.408  -0.584 -32.212  1.00  0.00    -0.020 A 
HETATM   21  C   UNL     1      -5.008  -0.976 -33.425  1.00  0.00     0.011 A 
HETATM   22  C   UNL     1      -4.726  -2.224 -33.991  1.00  0.00     0.024 A 
HETATM   23  C   UNL     1      -3.846  -3.095 -33.355  1.00  0.00     0.034 A 
HETATM   24 CL   UNL     1      -3.503  -4.627 -34.052  1.00  0.00    -0.084 Cl
HETATM   25  C   UNL     1      -3.241  -2.727 -32.156  1.00  0.00     0.024 A 
HETATM   26  C   UNL     1      -3.520  -1.481 -31.586  1.00  0.00     0.011 A 
ENDBRANCH  14  20
ENDBRANCH   1  14
TORSDOF 5
ENDMDL
MODEL 6
REMARK VINA RESULT:      -7.7      2.329      6.022
REMARK  5 active torsions:
REMARK  status: ('A' for Active; 'I' for Inactive)
REMARK    1  A    between atoms: C_8  and  C_9 
REMARK    2  A    between atoms: C_9  and  N_10 
REMARK    3  A    between atoms: N_10  and  C_13 
REMARK    4  A    between atoms: C_13  and  C_14 
REMARK    5  A    between atoms: C_13  and  C_19 
ROOT
HETATM    1  N   UNL     1      -5.780   0.502 -33.416  1.00  0.00    -0.056 N 
HETATM    2  H   UNL     1      -4.861   0.375 -32.977  1.00  0.00     0.278 HD
HETATM    3  H   UNL     1      -5.727   1.350 -33.995  1.00  0.00     0.278 HD
ENDROOT
BRANCH   1   4
HETATM    4  C   UNL     1      -6.039  -0.663 -34.302  1.00  0.00     0.275 C 
BRANCH   4   5
HETATM    5  C   UNL     1      -5.200  -1.836 -33.908  1.00  0.00     0.004 A 
HETATM    6  C   UNL     1      -5.445  -3.093 -34.441  1.00  0.00     0.113 A 
HETATM    7  C   UNL     1      -4.698  -4.195 -34.099  1.00  0.00     0.105 A 
HETATM    8  O   UNL     1      -6.406  -3.385 -35.364  1.00  0.00    -0.322 OA
HETATM    9  C   UNL     1      -3.653  -4.109 -33.207  1.00  0.00     0.040 A 
HETATM   10  O   UNL     1      -5.108  -5.319 -34.740  1.00  0.00    -0.323 OA
HETATM   11  C   UNL     1      -3.373  -2.858 -32.652  1.00  0.00     0.003 A 
HETATM   12  C   UNL     1      -4.139  -1.729 -32.997  1.00  0.00     0.012 A 
HETATM   13  C   UNL     1      -6.234  -4.824 -35.485  1.00  0.00     0.352 A 
ENDBRANCH   4   5
ENDBRANCH   1   4
BRANCH   1  14
HETATM   14  C   UNL     1      -6.786   0.712 -32.326  1.00  0.00     0.292 C 
BRANCH  14  15
HETATM   15  C   UNL     1      -6.480   1.889 -31.445  1.00  0.00     0.190 A 
HETATM   16  N   UNL     1      -7.219   2.219 -30.379  1.00  0.00    -0.109 NA
HETATM   17  O   UNL     1      -6.538   3.320 -29.850  1.00  0.00    -0.205 OA
HETATM   18  C   UNL     1      -5.440   3.506 -30.629  1.00  0.00     0.288 A 
HETATM   19  N   UNL     1      -5.329   2.633 -31.606  1.00  0.00    -0.215 NA
ENDBRANCH  14  15
BRANCH  14  20
HETATM   20  C   UNL     1      -8.165   0.975 -32.911  1.00  0.00    -0.020 A 
HETATM   21  C   UNL     1      -9.230   0.111 -32.592  1.00  0.00     0.011 A 
HETATM   22  C   UNL     1     -10.503   0.314 -33.135  1.00  0.00     0.024 A 
HETATM   23  C   UNL     1     -10.728   1.379 -34.003  1.00  0.00     0.034 A 
HETATM   24 CL   UNL     1     -12.292   1.626 -34.669  1.00  0.00    -0.084 Cl
HETATM   25  C   UNL     1      -9.690   2.247 -34.331  1.00  0.00     0.024 A 
HETATM   26  C   UNL     1      -8.415   2.047 -33.791  1.00  0.00     0.011 A 
ENDBRANCH  14  20
ENDBRANCH   1  14
TORSDOF 5
ENDMDL
MODEL 7
REMARK VINA RESULT:      -7.6      3.576      6.019
REMARK  5 active torsions:
REMARK  status: ('A' for Active; 'I' for Inactive)
REMARK    1  A    between atoms: C_8  and  C_9 
REMARK    2  A    between atoms: C_9  and  N_10 
REMARK    3  A    between atoms: N_10  and  C_13 
REMARK    4  A    between atoms: C_13  and  C_14 
REMARK    5  A    between atoms: C_13  and  C_19 
ROOT
HETATM    1  N   UNL     1      -6.651   2.234 -30.852  1.00  0.00    -0.056 N 
HETATM    2  H   UNL     1      -6.090   2.730 -30.151  1.00  0.00     0.278 HD
HETATM    3  H   UNL     1      -6.652   1.239 -30.593  1.00  0.00     0.278 HD
ENDROOT
BRANCH   1   4
HETATM    4  C   UNL     1      -8.044   2.745 -30.783  1.00  0.00     0.275 C 
BRANCH   4   5
HETATM    5  C   UNL     1      -8.938   2.005 -31.726  1.00  0.00     0.004 A 
HETATM    6  C   UNL     1      -9.628   2.677 -32.723  1.00  0.00     0.113 A 
HETATM    7  C   UNL     1     -10.462   2.031 -33.605  1.00  0.00     0.105 A 
HETATM    8  O   UNL     1      -9.551   4.017 -32.971  1.00  0.00    -0.322 OA
HETATM    9  C   UNL     1     -10.652   0.669 -33.550  1.00  0.00     0.040 A 
HETATM   10  O   UNL     1     -11.032   2.880 -34.498  1.00  0.00    -0.323 OA
HETATM   11  C   UNL     1      -9.970  -0.044 -32.561  1.00  0.00     0.003 A 
HETATM   12  C   UNL     1      -9.120   0.616 -31.654  1.00  0.00     0.012 A 
HETATM   13  C   UNL     1     -10.514   4.146 -34.053  1.00  0.00     0.352 A 
ENDBRANCH   4   5
ENDBRANCH   1   4
BRANCH   1  14
HETATM   14  C   UNL     1      -5.976   2.395 -32.181  1.00  0.00     0.292 C 
BRANCH  14  15
HETATM   15  C   UNL     1      -4.565   2.900 -32.080  1.00  0.00     0.190 A 
HETATM   16  N   UNL     1      -3.740   2.575 -31.078  1.00  0.00    -0.109 NA
HETATM   17  O   UNL     1      -2.548   3.217 -31.428  1.00  0.00    -0.205 OA
HETATM   18  C   UNL     1      -2.773   3.822 -32.625  1.00  0.00     0.288 A 
HETATM   19  N   UNL     1      -3.985   3.632 -33.097  1.00  0.00    -0.215 NA
ENDBRANCH  14  15
BRANCH  14  20
HETATM   20  C   UNL     1      -5.893   1.061 -32.907  1.00  0.00    -0.020 A 
HETATM   21  C   UNL     1      -6.508   0.918 -34.166  1.00  0.00     0.011 A 
HETATM   22  C   UNL     1      -6.468  -0.304 -34.845  1.00  0.00     0.024 A 
HETATM   23  C   UNL     1      -5.817  -1.396 -34.278  1.00  0.00     0.034 A 
HETATM   24 CL   UNL     1      -5.772  -2.896 -35.114  1.00  0.00    -0.084 Cl
HETATM   25  C   UNL     1      -5.201  -1.275 -33.035  1.00  0.00     0.024 A 
HETATM   26  C   UNL     1      -5.239  -0.056 -32.351  1.00  0.00     0.011 A 
ENDBRANCH  14  20
ENDBRANCH   1  14
TORSDOF 5
ENDMDL
MODEL 8
REMARK VINA RESULT:      -7.6      3.491      5.241
REMARK  5 active torsions:
REMARK  status: ('A' for Active; 'I' for Inactive)
REMARK    1  A    between atoms: C_8  and  C_9 
REMARK    2  A    between atoms: C_9  and  N_10 
REMARK    3  A    between atoms: N_10  and  C_13 
REMARK    4  A    between atoms: C_13  and  C_14 
REMARK    5  A    between atoms: C_13  and  C_19 
ROOT
HETATM    1  N   UNL     1      -4.429   2.496 -32.846  1.00  0.00    -0.056 N 
HETATM    2  H   UNL     1      -5.028   3.300 -33.067  1.00  0.00     0.278 HD
HETATM    3  H   UNL     1      -4.101   2.107 -33.739  1.00  0.00     0.278 HD
ENDROOT
BRANCH   1   4
HETATM    4  C   UNL     1      -3.254   2.985 -32.079  1.00  0.00     0.275 C 
BRANCH   4   5
HETATM    5  C   UNL     1      -2.666   4.205 -32.713  1.00  0.00     0.004 A 
HETATM    6  C   UNL     1      -1.603   4.868 -32.122  1.00  0.00     0.113 A 
HETATM    7  C   UNL     1      -1.040   5.995 -32.674  1.00  0.00     0.105 A 
HETATM    8  O   UNL     1      -0.976   4.488 -30.971  1.00  0.00    -0.322 OA
HETATM    9  C   UNL     1      -1.501   6.526 -33.857  1.00  0.00     0.040 A 
HETATM   10  O   UNL     1      -0.011   6.479 -31.931  1.00  0.00    -0.323 OA
HETATM   11  C   UNL     1      -2.570   5.883 -34.485  1.00  0.00     0.003 A 
HETATM   12  C   UNL     1      -3.151   4.732 -33.920  1.00  0.00     0.012 A 
HETATM   13  C   UNL     1      -0.017   5.569 -30.817  1.00  0.00     0.352 A 
ENDBRANCH   4   5
ENDBRANCH   1   4
BRANCH   1  14
HETATM   14  C   UNL     1      -5.270   1.473 -32.144  1.00  0.00     0.292 C 
BRANCH  14  15
HETATM   15  C   UNL     1      -6.689   1.913 -31.921  1.00  0.00     0.190 A 
HETATM   16  N   UNL     1      -7.553   1.239 -31.154  1.00  0.00    -0.109 NA
HETATM   17  O   UNL     1      -8.703   2.034 -31.197  1.00  0.00    -0.205 OA
HETATM   18  C   UNL     1      -8.390   3.123 -31.949  1.00  0.00     0.288 A 
HETATM   19  N   UNL     1      -7.153   3.125 -32.392  1.00  0.00    -0.215 NA
ENDBRANCH  14  15
BRANCH  14  20
HETATM   20  C   UNL     1      -5.352   0.193 -32.960  1.00  0.00    -0.020 A 
HETATM   21  C   UNL     1      -6.316   0.082 -33.981  1.00  0.00     0.011 A 
HETATM   22  C   UNL     1      -6.431  -1.094 -34.730  1.00  0.00     0.024 A 
HETATM   23  C   UNL     1      -5.588  -2.170 -34.471  1.00  0.00     0.034 A 
HETATM   24 CL   UNL     1      -5.731  -3.613 -35.393  1.00  0.00    -0.084 Cl
HETATM   25  C   UNL     1      -4.626  -2.081 -33.468  1.00  0.00     0.024 A 
HETATM   26  C   UNL     1      -4.509  -0.909 -32.715  1.00  0.00     0.011 A 
ENDBRANCH  14  20
ENDBRANCH   1  14
TORSDOF 5
ENDMDL
MODEL 9
REMARK VINA RESULT:      -7.6      3.483      6.578
REMARK  5 active torsions:
REMARK  status: ('A' for Active; 'I' for Inactive)
REMARK    1  A    between atoms: C_8  and  C_9 
REMARK    2  A    between atoms: C_9  and  N_10 
REMARK    3  A    between atoms: N_10  and  C_13 
REMARK    4  A    between atoms: C_13  and  C_14 
REMARK    5  A    between atoms: C_13  and  C_19 
ROOT
HETATM    1  N   UNL     1      -6.494   1.333 -32.881  1.00  0.00    -0.056 N 
HETATM    2  H   UNL     1      -7.318   0.889 -32.459  1.00  0.00     0.278 HD
HETATM    3  H   UNL     1      -5.682   1.079 -32.304  1.00  0.00     0.278 HD
ENDROOT
BRANCH   1   4
HETATM    4  C   UNL     1      -6.306   0.767 -34.242  1.00  0.00     0.275 C 
BRANCH   4   5
HETATM    5  C   UNL     1      -5.790  -0.634 -34.178  1.00  0.00     0.004 A 
HETATM    6  C   UNL     1      -4.718  -0.958 -33.361  1.00  0.00     0.113 A 
HETATM    7  C   UNL     1      -4.214  -2.235 -33.280  1.00  0.00     0.105 A 
HETATM    8  O   UNL     1      -4.063  -0.090 -32.536  1.00  0.00    -0.322 OA
HETATM    9  C   UNL     1      -4.756  -3.271 -34.006  1.00  0.00     0.040 A 
HETATM   10  O   UNL     1      -3.168  -2.327 -32.419  1.00  0.00    -0.323 OA
HETATM   11  C   UNL     1      -5.841  -2.985 -34.838  1.00  0.00     0.003 A 
HETATM   12  C   UNL     1      -6.356  -1.678 -34.926  1.00  0.00     0.012 A 
HETATM   13  C   UNL     1      -3.025  -0.957 -32.003  1.00  0.00     0.352 A 
ENDBRANCH   4   5
ENDBRANCH   1   4
BRANCH   1  14
HETATM   14  C   UNL     1      -6.691   2.817 -32.827  1.00  0.00     0.292 C 
BRANCH  14  15
HETATM   15  C   UNL     1      -7.069   3.324 -31.464  1.00  0.00     0.190 A 
HETATM   16  N   UNL     1      -6.968   2.585 -30.354  1.00  0.00    -0.109 NA
HETATM   17  O   UNL     1      -7.369   3.469 -29.347  1.00  0.00    -0.205 OA
HETATM   18  C   UNL     1      -7.625   4.657 -29.957  1.00  0.00     0.288 A 
HETATM   19  N   UNL     1      -7.423   4.642 -31.256  1.00  0.00    -0.215 NA
ENDBRANCH  14  15
BRANCH  14  20
HETATM   20  C   UNL     1      -5.409   3.543 -33.203  1.00  0.00    -0.020 A 
HETATM   21  C   UNL     1      -5.409   4.431 -34.296  1.00  0.00     0.011 A 
HETATM   22  C   UNL     1      -4.238   5.093 -34.679  1.00  0.00     0.024 A 
HETATM   23  C   UNL     1      -3.055   4.878 -33.979  1.00  0.00     0.034 A 
HETATM   24 CL   UNL     1      -1.618   5.692 -34.452  1.00  0.00    -0.084 Cl
HETATM   25  C   UNL     1      -3.032   4.006 -32.893  1.00  0.00     0.024 A 
HETATM   26  C   UNL     1      -4.200   3.341 -32.507  1.00  0.00     0.011 A 
ENDBRANCH  14  20
ENDBRANCH   1  14
TORSDOF 5
ENDMDL
MODEL 10
REMARK VINA RESULT:      -7.5      4.043      7.015
REMARK  5 active torsions:
REMARK  status: ('A' for Active; 'I' for Inactive)
REMARK    1  A    between atoms: C_8  and  C_9 
REMARK    2  A    between atoms: C_9  and  N_10 
REMARK    3  A    between atoms: N_10  and  C_13 
REMARK    4  A    between atoms: C_13  and  C_14 
REMARK    5  A    between atoms: C_13  and  C_19 
ROOT
HETATM    1  N   UNL     1      -5.118   2.337 -31.314  1.00  0.00    -0.056 N 
HETATM    2  H   UNL     1      -6.128   2.401 -31.143  1.00  0.00     0.278 HD
HETATM    3  H   UNL     1      -4.645   2.780 -30.516  1.00  0.00     0.278 HD
ENDROOT
BRANCH   1   4
HETATM    4  C   UNL     1      -4.742   0.900 -31.353  1.00  0.00     0.275 C 
BRANCH   4   5
HETATM    5  C   UNL     1      -5.556   0.156 -32.361  1.00  0.00     0.004 A 
HETATM    6  C   UNL     1      -6.941   0.216 -32.338  1.00  0.00     0.113 A 
HETATM    7  C   UNL     1      -7.722  -0.459 -33.247  1.00  0.00     0.105 A 
HETATM    8  O   UNL     1      -7.685   0.949 -31.460  1.00  0.00    -0.322 OA
HETATM    9  C   UNL     1      -7.167  -1.231 -34.242  1.00  0.00     0.040 A 
HETATM   10  O   UNL     1      -9.049  -0.257 -33.041  1.00  0.00    -0.323 OA
HETATM   11  C   UNL     1      -5.774  -1.313 -34.300  1.00  0.00     0.003 A 
HETATM   12  C   UNL     1      -4.972  -0.627 -33.369  1.00  0.00     0.012 A 
HETATM   13  C   UNL     1      -9.029   0.574 -31.868  1.00  0.00     0.352 A 
ENDBRANCH   4   5
ENDBRANCH   1   4
BRANCH   1  14
HETATM   14  C   UNL     1      -4.811   3.111 -32.560  1.00  0.00     0.292 C 
BRANCH  14  15
HETATM   15  C   UNL     1      -5.951   3.968 -33.030  1.00  0.00     0.190 A 
HETATM   16  N   UNL     1      -6.014   4.495 -34.259  1.00  0.00    -0.109 NA
HETATM   17  O   UNL     1      -7.248   5.152 -34.259  1.00  0.00    -0.205 OA
HETATM   18  C   UNL     1      -7.814   4.911 -33.046  1.00  0.00     0.288 A 
HETATM   19  N   UNL     1      -7.080   4.157 -32.259  1.00  0.00    -0.215 NA
ENDBRANCH  14  15
BRANCH  14  20
HETATM   20  C   UNL     1      -3.643   4.058 -32.330  1.00  0.00    -0.020 A 
HETATM   21  C   UNL     1      -3.684   4.960 -31.250  1.00  0.00     0.011 A 
HETATM   22  C   UNL     1      -2.635   5.859 -31.030  1.00  0.00     0.024 A 
HETATM   23  C   UNL     1      -1.535   5.869 -31.883  1.00  0.00     0.034 A 
HETATM   24 CL   UNL     1      -0.249   6.975 -31.611  1.00  0.00    -0.084 Cl
HETATM   25  C   UNL     1      -1.474   4.984 -32.956  1.00  0.00     0.024 A 
HETATM   26  C   UNL     1      -2.520   4.084 -33.181  1.00  0.00     0.011 A 
ENDBRANCH  14  20
ENDBRANCH   1  14
TORSDOF 5
ENDMDL
