MODEL 1
REMARK VINA RESULT:      -9.6      0.000      0.000
REMARK  9 active torsions:
REMARK  status: ('A' for Active; 'I' for Inactive)
REMARK    1  A    between atoms: C_2  and  O_3 
REMARK    2  A    between atoms: O_3  and  C_4 
REMARK    3  A    between atoms: C_7  and  C_8 
REMARK       I    between atoms: C_8  and  N_9 
REMARK    4  A    between atoms: N_9  and  C_10 
REMARK    5  A    between atoms: C_10  and  N_11 
REMARK    6  A    between atoms: N_11  and  C_12 
REMARK    7  A    between atoms: C_15  and  N_16 
REMARK    8  A    between atoms: N_19  and  C_21 
REMARK    9  A    between atoms: C_21  and  C_22 
ROOT
HETATM    1  C   UNL     1      -3.064   3.936 -31.650  1.00  0.00     0.034 C 
HETATM    2  C   UNL     1      -2.967   2.576 -31.374  1.00  0.00     0.032 C 
HETATM    3  C   UNL     1      -4.116   1.808 -31.161  1.00  0.00     0.031 C 
HETATM    4  C   UNL     1      -5.397   2.363 -31.266  1.00  0.00     0.030 C 
HETATM    5  C   UNL     1      -5.457   3.763 -31.398  1.00  0.00     0.031 C 
HETATM    6  C   UNL     1      -4.308   4.548 -31.576  1.00  0.00     0.032 C 
ENDROOT
BRANCH   1   7
HETATM    7  N   UNL     1      -1.934   4.709 -31.980  1.00  0.00    -0.333 N 
HETATM    8  H   UNL     1      -1.146   4.221 -32.395  1.00  0.00     0.168 HD
BRANCH   7   9
HETATM    9  C   UNL     1      -1.797   6.060 -31.861  1.00  0.00     0.179 C 
HETATM   10  S   UNL     1      -2.254   7.065 -33.110  1.00  0.00    -0.040 SA
BRANCH   9  11
HETATM   11  N   UNL     1      -1.255   6.602 -30.725  1.00  0.00    -0.299 N 
HETATM   12  C   UNL     1      -0.199   6.069 -30.000  1.00  0.00     0.257 C 
HETATM   13  O   UNL     1       0.503   5.112 -30.306  1.00  0.00    -0.267 OA
HETATM   14  H   UNL     1      -1.385   7.602 -30.638  1.00  0.00     0.171 HD
BRANCH  12  15
HETATM   15  C   UNL     1       0.132   6.774 -28.750  1.00  0.00     0.032 A 
HETATM   16  C   UNL     1      -0.246   6.233 -27.519  1.00  0.00     0.020 A 
HETATM   17  C   UNL     1       0.256   6.798 -26.345  1.00  0.00     0.038 A 
HETATM   18  C   UNL     1       1.123   7.897 -26.391  1.00  0.00     0.069 A 
HETATM   19  C   UNL     1       1.441   8.467 -27.623  1.00  0.00     0.038 A 
HETATM   20  C   UNL     1       0.964   7.894 -28.805  1.00  0.00     0.020 A 
BRANCH  18  21
HETATM   21  O   UNL     1       1.610   8.279 -25.173  1.00  0.00    -0.347 OA
BRANCH  21  22
HETATM   22  C   UNL     1       2.536   9.372 -25.096  1.00  0.00     0.120 C 
HETATM   23  C   UNL     1       3.680   9.047 -24.135  1.00  0.00     0.040 C 
HETATM   24  C   UNL     1       1.753  10.570 -24.562  1.00  0.00     0.040 C 
ENDBRANCH  21  22
ENDBRANCH  18  21
ENDBRANCH  12  15
ENDBRANCH   9  11
ENDBRANCH   7   9
ENDBRANCH   1   7
BRANCH   4  25
HETATM   25  N   UNL     1      -6.575   1.596 -31.247  1.00  0.00    -0.378 N 
HETATM   26  C   UNL     1      -6.488   0.134 -31.041  1.00  0.00     0.150 C 
HETATM   27  C   UNL     1      -6.109  -0.611 -32.343  1.00  0.00     0.255 C 
HETATM   28  N   UNL     1      -7.020  -0.218 -33.509  1.00  0.00    -0.064 N 
HETATM   29  H   UNL     1      -7.953  -0.589 -33.293  1.00  0.00     0.280 HD
HETATM   30  C   UNL     1      -7.147   1.303 -33.648  1.00  0.00     0.255 C 
HETATM   31  C   UNL     1      -7.558   1.942 -32.304  1.00  0.00     0.150 C 
BRANCH  28  32
HETATM   32  C   UNL     1      -6.581  -0.839 -34.817  1.00  0.00     0.273 C 
BRANCH  32  33
HETATM   33  C   UNL     1      -6.040  -2.232 -34.657  1.00  0.00    -0.033 A 
HETATM   34  C   UNL     1      -4.680  -2.441 -34.376  1.00  0.00     0.009 A 
HETATM   35  C   UNL     1      -4.174  -3.737 -34.261  1.00  0.00     0.001 A 
HETATM   36  C   UNL     1      -5.015  -4.834 -34.431  1.00  0.00     0.000 A 
HETATM   37  C   UNL     1      -6.367  -4.640 -34.706  1.00  0.00     0.001 A 
HETATM   38  C   UNL     1      -6.880  -3.346 -34.815  1.00  0.00     0.009 A 
ENDBRANCH  32  33
ENDBRANCH  28  32
ENDBRANCH   4  25
TORSDOF 9
ENDMDL
MODEL 2
REMARK VINA RESULT:      -9.3      1.433      2.000
REMARK  9 active torsions:
REMARK  status: ('A' for Active; 'I' for Inactive)
REMARK    1  A    between atoms: C_2  and  O_3 
REMARK    2  A    between atoms: O_3  and  C_4 
REMARK    3  A    between atoms: C_7  and  C_8 
REMARK       I    between atoms: C_8  and  N_9 
REMARK    4  A    between atoms: N_9  and  C_10 
REMARK    5  A    between atoms: C_10  and  N_11 
REMARK    6  A    between atoms: N_11  and  C_12 
REMARK    7  A    between atoms: C_15  and  N_16 
REMARK    8  A    between atoms: N_19  and  C_21 
REMARK    9  A    between atoms: C_21  and  C_22 
ROOT
HETATM    1  C   UNL     1      -4.624   5.457 -33.048  1.00  0.00     0.034 C 
HETATM    2  C   UNL     1      -4.818   4.920 -31.779  1.00  0.00     0.032 C 
HETATM    3  C   UNL     1      -5.727   3.876 -31.577  1.00  0.00     0.031 C 
HETATM    4  C   UNL     1      -6.431   3.303 -32.643  1.00  0.00     0.030 C 
HETATM    5  C   UNL     1      -6.325   3.962 -33.882  1.00  0.00     0.031 C 
HETATM    6  C   UNL     1      -5.443   5.034 -34.086  1.00  0.00     0.032 C 
ENDROOT
BRANCH   1   7
HETATM    7  N   UNL     1      -3.637   6.428 -33.300  1.00  0.00    -0.333 N 
HETATM    8  H   UNL     1      -3.957   7.366 -33.519  1.00  0.00     0.168 HD
BRANCH   7   9
HETATM    9  C   UNL     1      -2.285   6.267 -33.223  1.00  0.00     0.179 C 
HETATM   10  S   UNL     1      -1.454   5.535 -34.469  1.00  0.00    -0.040 SA
BRANCH   9  11
HETATM   11  N   UNL     1      -1.602   6.678 -32.109  1.00  0.00    -0.299 N 
HETATM   12  C   UNL     1      -1.112   5.850 -31.110  1.00  0.00     0.257 C 
HETATM   13  O   UNL     1      -1.090   4.624 -31.106  1.00  0.00    -0.267 OA
HETATM   14  H   UNL     1      -1.123   7.564 -32.218  1.00  0.00     0.171 HD
BRANCH  12  15
HETATM   15  C   UNL     1      -0.511   6.537 -29.954  1.00  0.00     0.032 A 
HETATM   16  C   UNL     1      -0.933   7.822 -29.605  1.00  0.00     0.020 A 
HETATM   17  C   UNL     1      -0.512   8.371 -28.392  1.00  0.00     0.038 A 
HETATM   18  C   UNL     1       0.328   7.651 -27.532  1.00  0.00     0.069 A 
HETATM   19  C   UNL     1       0.794   6.396 -27.922  1.00  0.00     0.038 A 
HETATM   20  C   UNL     1       0.359   5.828 -29.123  1.00  0.00     0.020 A 
BRANCH  18  21
HETATM   21  O   UNL     1       0.577   8.272 -26.342  1.00  0.00    -0.347 OA
BRANCH  21  22
HETATM   22  C   UNL     1       1.713   9.141 -26.224  1.00  0.00     0.120 C 
HETATM   23  C   UNL     1       2.587   8.736 -25.037  1.00  0.00     0.040 C 
HETATM   24  C   UNL     1       1.162  10.547 -25.989  1.00  0.00     0.040 C 
ENDBRANCH  21  22
ENDBRANCH  18  21
ENDBRANCH  12  15
ENDBRANCH   9  11
ENDBRANCH   7   9
ENDBRANCH   1   7
BRANCH   4  25
HETATM   25  N   UNL     1      -7.206   2.137 -32.517  1.00  0.00    -0.378 N 
HETATM   26  C   UNL     1      -6.890   1.164 -31.450  1.00  0.00     0.150 C 
HETATM   27  C   UNL     1      -5.704   0.248 -31.837  1.00  0.00     0.255 C 
HETATM   28  N   UNL     1      -5.913  -0.404 -33.208  1.00  0.00    -0.064 N 
HETATM   29  H   UNL     1      -6.692  -1.064 -33.105  1.00  0.00     0.280 HD
HETATM   30  C   UNL     1      -6.313   0.623 -34.274  1.00  0.00     0.255 C 
HETATM   31  C   UNL     1      -7.520   1.461 -33.800  1.00  0.00     0.150 C 
BRANCH  28  32
HETATM   32  C   UNL     1      -4.706  -1.198 -33.658  1.00  0.00     0.273 C 
BRANCH  32  33
HETATM   33  C   UNL     1      -5.053  -2.585 -34.123  1.00  0.00    -0.033 A 
HETATM   34  C   UNL     1      -6.301  -2.850 -34.709  1.00  0.00     0.009 A 
HETATM   35  C   UNL     1      -6.633  -4.146 -35.109  1.00  0.00     0.001 A 
HETATM   36  C   UNL     1      -5.727  -5.188 -34.924  1.00  0.00     0.000 A 
HETATM   37  C   UNL     1      -4.484  -4.938 -34.347  1.00  0.00     0.001 A 
HETATM   38  C   UNL     1      -4.145  -3.642 -33.951  1.00  0.00     0.009 A 
ENDBRANCH  32  33
ENDBRANCH  28  32
ENDBRANCH   4  25
TORSDOF 9
ENDMDL
MODEL 3
REMARK VINA RESULT:      -9.2      1.396      1.697
REMARK  9 active torsions:
REMARK  status: ('A' for Active; 'I' for Inactive)
REMARK    1  A    between atoms: C_2  and  O_3 
REMARK    2  A    between atoms: O_3  and  C_4 
REMARK    3  A    between atoms: C_7  and  C_8 
REMARK       I    between atoms: C_8  and  N_9 
REMARK    4  A    between atoms: N_9  and  C_10 
REMARK    5  A    between atoms: C_10  and  N_11 
REMARK    6  A    between atoms: N_11  and  C_12 
REMARK    7  A    between atoms: C_15  and  N_16 
REMARK    8  A    between atoms: N_19  and  C_21 
REMARK    9  A    between atoms: C_21  and  C_22 
ROOT
HETATM    1  C   UNL     1      -3.764   5.451 -31.538  1.00  0.00     0.034 C 
HETATM    2  C   UNL     1      -5.131   5.249 -31.369  1.00  0.00     0.032 C 
HETATM    3  C   UNL     1      -5.639   3.968 -31.131  1.00  0.00     0.031 C 
HETATM    4  C   UNL     1      -4.794   2.859 -31.003  1.00  0.00     0.030 C 
HETATM    5  C   UNL     1      -3.440   3.069 -31.325  1.00  0.00     0.031 C 
HETATM    6  C   UNL     1      -2.927   4.345 -31.602  1.00  0.00     0.032 C 
ENDROOT
BRANCH   1   7
HETATM    7  N   UNL     1      -3.214   6.740 -31.667  1.00  0.00    -0.333 N 
HETATM    8  H   UNL     1      -3.864   7.520 -31.684  1.00  0.00     0.168 HD
BRANCH   7   9
HETATM    9  C   UNL     1      -1.893   7.072 -31.711  1.00  0.00     0.179 C 
HETATM   10  S   UNL     1      -1.089   7.129 -33.171  1.00  0.00    -0.040 SA
BRANCH   9  11
HETATM   11  N   UNL     1      -1.206   7.330 -30.554  1.00  0.00    -0.299 N 
HETATM   12  C   UNL     1      -1.759   7.810 -29.376  1.00  0.00     0.257 C 
HETATM   13  O   UNL     1      -2.949   7.963 -29.123  1.00  0.00    -0.267 OA
HETATM   14  H   UNL     1      -0.348   6.801 -30.452  1.00  0.00     0.171 HD
BRANCH  12  15
HETATM   15  C   UNL     1      -0.798   8.117 -28.303  1.00  0.00     0.032 A 
HETATM   16  C   UNL     1      -1.251   8.365 -27.006  1.00  0.00     0.020 A 
HETATM   17  C   UNL     1      -0.324   8.443 -25.964  1.00  0.00     0.038 A 
HETATM   18  C   UNL     1       1.046   8.282 -26.209  1.00  0.00     0.069 A 
HETATM   19  C   UNL     1       1.490   8.099 -27.518  1.00  0.00     0.038 A 
HETATM   20  C   UNL     1       0.569   7.995 -28.564  1.00  0.00     0.020 A 
BRANCH  18  21
HETATM   21  O   UNL     1       1.822   8.286 -25.085  1.00  0.00    -0.347 OA
BRANCH  21  22
HETATM   22  C   UNL     1       2.279   9.535 -24.548  1.00  0.00     0.120 C 
HETATM   23  C   UNL     1       3.797   9.527 -24.372  1.00  0.00     0.040 C 
HETATM   24  C   UNL     1       1.613   9.692 -23.182  1.00  0.00     0.040 C 
ENDBRANCH  21  22
ENDBRANCH  18  21
ENDBRANCH  12  15
ENDBRANCH   9  11
ENDBRANCH   7   9
ENDBRANCH   1   7
BRANCH   4  25
HETATM   25  N   UNL     1      -5.240   1.595 -30.579  1.00  0.00    -0.378 N 
HETATM   26  C   UNL     1      -4.353   0.421 -30.730  1.00  0.00     0.150 C 
HETATM   27  C   UNL     1      -4.374  -0.135 -32.174  1.00  0.00     0.255 C 
HETATM   28  N   UNL     1      -5.802  -0.390 -32.665  1.00  0.00    -0.064 N 
HETATM   29  H   UNL     1      -6.171  -1.170 -32.110  1.00  0.00     0.280 HD
HETATM   30  C   UNL     1      -6.713   0.820 -32.425  1.00  0.00     0.255 C 
HETATM   31  C   UNL     1      -6.641   1.275 -30.951  1.00  0.00     0.150 C 
BRANCH  28  32
HETATM   32  C   UNL     1      -5.845  -0.810 -34.118  1.00  0.00     0.273 C 
BRANCH  32  33
HETATM   33  C   UNL     1      -5.685  -2.293 -34.308  1.00  0.00    -0.033 A 
HETATM   34  C   UNL     1      -4.443  -2.910 -34.090  1.00  0.00     0.009 A 
HETATM   35  C   UNL     1      -4.290  -4.282 -34.301  1.00  0.00     0.001 A 
HETATM   36  C   UNL     1      -5.370  -5.048 -34.733  1.00  0.00     0.000 A 
HETATM   37  C   UNL     1      -6.608  -4.448 -34.949  1.00  0.00     0.001 A 
HETATM   38  C   UNL     1      -6.769  -3.078 -34.734  1.00  0.00     0.009 A 
ENDBRANCH  32  33
ENDBRANCH  28  32
ENDBRANCH   4  25
TORSDOF 9
ENDMDL
MODEL 4
REMARK VINA RESULT:      -9.0      3.742     10.544
REMARK  9 active torsions:
REMARK  status: ('A' for Active; 'I' for Inactive)
REMARK    1  A    between atoms: C_2  and  O_3 
REMARK    2  A    between atoms: O_3  and  C_4 
REMARK    3  A    between atoms: C_7  and  C_8 
REMARK       I    between atoms: C_8  and  N_9 
REMARK    4  A    between atoms: N_9  and  C_10 
REMARK    5  A    between atoms: C_10  and  N_11 
REMARK    6  A    between atoms: N_11  and  C_12 
REMARK    7  A    between atoms: C_15  and  N_16 
REMARK    8  A    between atoms: N_19  and  C_21 
REMARK    9  A    between atoms: C_21  and  C_22 
ROOT
HETATM    1  C   UNL     1      -6.065   4.805 -29.060  1.00  0.00     0.034 C 
HETATM    2  C   UNL     1      -5.337   5.237 -30.165  1.00  0.00     0.032 C 
HETATM    3  C   UNL     1      -4.472   6.331 -30.065  1.00  0.00     0.031 C 
HETATM    4  C   UNL     1      -4.269   6.995 -28.848  1.00  0.00     0.030 C 
HETATM    5  C   UNL     1      -5.126   6.631 -27.793  1.00  0.00     0.031 C 
HETATM    6  C   UNL     1      -6.024   5.558 -27.895  1.00  0.00     0.032 C 
ENDROOT
BRANCH   1   7
HETATM    7  N   UNL     1      -6.856   3.641 -29.102  1.00  0.00    -0.333 N 
HETATM    8  H   UNL     1      -6.946   3.112 -28.240  1.00  0.00     0.168 HD
BRANCH   7   9
HETATM    9  C   UNL     1      -7.572   3.170 -30.162  1.00  0.00     0.179 C 
HETATM   10  S   UNL     1      -8.988   3.922 -30.622  1.00  0.00    -0.040 SA
BRANCH   9  11
HETATM   11  N   UNL     1      -7.151   2.056 -30.841  1.00  0.00    -0.299 N 
HETATM   12  C   UNL     1      -6.524   2.053 -32.078  1.00  0.00     0.257 C 
HETATM   13  O   UNL     1      -6.128   3.024 -32.712  1.00  0.00    -0.267 OA
HETATM   14  H   UNL     1      -6.959   1.257 -30.250  1.00  0.00     0.171 HD
BRANCH  12  15
HETATM   15  C   UNL     1      -6.268   0.722 -32.656  1.00  0.00     0.032 A 
HETATM   16  C   UNL     1      -6.824   0.376 -33.889  1.00  0.00     0.020 A 
HETATM   17  C   UNL     1      -6.403  -0.798 -34.519  1.00  0.00     0.038 A 
HETATM   18  C   UNL     1      -5.442  -1.626 -33.926  1.00  0.00     0.069 A 
HETATM   19  C   UNL     1      -4.943  -1.301 -32.665  1.00  0.00     0.038 A 
HETATM   20  C   UNL     1      -5.339  -0.117 -32.037  1.00  0.00     0.020 A 
BRANCH  18  21
HETATM   21  O   UNL     1      -5.057  -2.683 -34.700  1.00  0.00    -0.347 OA
BRANCH  21  22
HETATM   22  C   UNL     1      -5.468  -4.009 -34.336  1.00  0.00     0.120 C 
HETATM   23  C   UNL     1      -4.255  -4.921 -34.150  1.00  0.00     0.040 C 
HETATM   24  C   UNL     1      -6.322  -4.533 -35.489  1.00  0.00     0.040 C 
ENDBRANCH  21  22
ENDBRANCH  18  21
ENDBRANCH  12  15
ENDBRANCH   9  11
ENDBRANCH   7   9
ENDBRANCH   1   7
BRANCH   4  25
HETATM   25  N   UNL     1      -3.275   7.970 -28.658  1.00  0.00    -0.378 N 
HETATM   26  C   UNL     1      -2.962   8.914 -29.752  1.00  0.00     0.150 C 
HETATM   27  C   UNL     1      -2.034   8.278 -30.815  1.00  0.00     0.255 C 
HETATM   28  N   UNL     1      -0.787   7.653 -30.180  1.00  0.00    -0.064 N 
HETATM   29  H   UNL     1      -0.223   8.427 -29.813  1.00  0.00     0.280 HD
HETATM   30  C   UNL     1      -1.143   6.739 -29.002  1.00  0.00     0.255 C 
HETATM   31  C   UNL     1      -2.044   7.479 -27.989  1.00  0.00     0.150 C 
BRANCH  28  32
HETATM   32  C   UNL     1       0.064   6.915 -31.190  1.00  0.00     0.273 C 
BRANCH  32  33
HETATM   33  C   UNL     1      -0.747   6.186 -32.226  1.00  0.00    -0.033 A 
HETATM   34  C   UNL     1      -0.893   6.715 -33.518  1.00  0.00     0.009 A 
HETATM   35  C   UNL     1      -1.675   6.053 -34.467  1.00  0.00     0.001 A 
HETATM   36  C   UNL     1      -2.320   4.864 -34.135  1.00  0.00     0.000 A 
HETATM   37  C   UNL     1      -2.180   4.328 -32.857  1.00  0.00     0.001 A 
HETATM   38  C   UNL     1      -1.394   4.982 -31.907  1.00  0.00     0.009 A 
ENDBRANCH  32  33
ENDBRANCH  28  32
ENDBRANCH   4  25
TORSDOF 9
ENDMDL
MODEL 5
REMARK VINA RESULT:      -8.9      1.646      2.083
REMARK  9 active torsions:
REMARK  status: ('A' for Active; 'I' for Inactive)
REMARK    1  A    between atoms: C_2  and  O_3 
REMARK    2  A    between atoms: O_3  and  C_4 
REMARK    3  A    between atoms: C_7  and  C_8 
REMARK       I    between atoms: C_8  and  N_9 
REMARK    4  A    between atoms: N_9  and  C_10 
REMARK    5  A    between atoms: C_10  and  N_11 
REMARK    6  A    between atoms: N_11  and  C_12 
REMARK    7  A    between atoms: C_15  and  N_16 
REMARK    8  A    between atoms: N_19  and  C_21 
REMARK    9  A    between atoms: C_21  and  C_22 
ROOT
HETATM    1  C   UNL     1      -4.675   4.817 -30.567  1.00  0.00     0.034 C 
HETATM    2  C   UNL     1      -5.622   4.348 -29.662  1.00  0.00     0.032 C 
HETATM    3  C   UNL     1      -6.553   3.376 -30.043  1.00  0.00     0.031 C 
HETATM    4  C   UNL     1      -6.534   2.807 -31.323  1.00  0.00     0.030 C 
HETATM    5  C   UNL     1      -5.666   3.405 -32.255  1.00  0.00     0.031 C 
HETATM    6  C   UNL     1      -4.753   4.407 -31.891  1.00  0.00     0.032 C 
ENDROOT
BRANCH   1   7
HETATM    7  N   UNL     1      -3.658   5.709 -30.181  1.00  0.00    -0.333 N 
HETATM    8  H   UNL     1      -2.718   5.333 -30.101  1.00  0.00     0.168 HD
BRANCH   7   9
HETATM    9  C   UNL     1      -3.779   7.049 -29.956  1.00  0.00     0.179 C 
HETATM   10  S   UNL     1      -5.139   7.867 -30.465  1.00  0.00    -0.040 SA
BRANCH   9  11
HETATM   11  N   UNL     1      -2.770   7.740 -29.338  1.00  0.00    -0.299 N 
HETATM   12  C   UNL     1      -1.414   7.474 -29.462  1.00  0.00     0.257 C 
HETATM   13  O   UNL     1      -0.881   6.678 -30.225  1.00  0.00    -0.267 OA
HETATM   14  H   UNL     1      -3.009   8.693 -29.090  1.00  0.00     0.171 HD
BRANCH  12  15
HETATM   15  C   UNL     1      -0.528   8.284 -28.608  1.00  0.00     0.032 A 
HETATM   16  C   UNL     1      -1.053   9.330 -27.846  1.00  0.00     0.020 A 
HETATM   17  C   UNL     1      -0.246   9.946 -26.887  1.00  0.00     0.038 A 
HETATM   18  C   UNL     1       1.077   9.530 -26.689  1.00  0.00     0.069 A 
HETATM   19  C   UNL     1       1.609   8.528 -27.501  1.00  0.00     0.038 A 
HETATM   20  C   UNL     1       0.802   7.889 -28.446  1.00  0.00     0.020 A 
BRANCH  18  21
HETATM   21  O   UNL     1       1.713  10.155 -25.654  1.00  0.00    -0.347 OA
BRANCH  21  22
HETATM   22  C   UNL     1       2.015   9.415 -24.463  1.00  0.00     0.120 C 
HETATM   23  C   UNL     1       1.479  10.135 -23.226  1.00  0.00     0.040 C 
HETATM   24  C   UNL     1       3.538   9.329 -24.378  1.00  0.00     0.040 C 
ENDBRANCH  21  22
ENDBRANCH  18  21
ENDBRANCH  12  15
ENDBRANCH   9  11
ENDBRANCH   7   9
ENDBRANCH   1   7
BRANCH   4  25
HETATM   25  N   UNL     1      -7.322   1.701 -31.687  1.00  0.00    -0.378 N 
HETATM   26  C   UNL     1      -7.084   0.393 -31.040  1.00  0.00     0.150 C 
HETATM   27  C   UNL     1      -5.880  -0.350 -31.665  1.00  0.00     0.255 C 
HETATM   28  N   UNL     1      -5.998  -0.442 -33.190  1.00  0.00    -0.064 N 
HETATM   29  H   UNL     1      -6.786  -1.069 -33.388  1.00  0.00     0.280 HD
HETATM   30  C   UNL     1      -6.318   0.918 -33.821  1.00  0.00     0.255 C 
HETATM   31  C   UNL     1      -7.551   1.557 -33.146  1.00  0.00     0.150 C 
BRANCH  28  32
HETATM   32  C   UNL     1      -4.767  -1.050 -33.827  1.00  0.00     0.273 C 
BRANCH  32  33
HETATM   33  C   UNL     1      -4.928  -2.510 -34.145  1.00  0.00    -0.033 A 
HETATM   34  C   UNL     1      -6.087  -2.978 -34.784  1.00  0.00     0.009 A 
HETATM   35  C   UNL     1      -6.248  -4.339 -35.047  1.00  0.00     0.001 A 
HETATM   36  C   UNL     1      -5.258  -5.246 -34.673  1.00  0.00     0.000 A 
HETATM   37  C   UNL     1      -4.101  -4.794 -34.043  1.00  0.00     0.001 A 
HETATM   38  C   UNL     1      -3.933  -3.433 -33.783  1.00  0.00     0.009 A 
ENDBRANCH  32  33
ENDBRANCH  28  32
ENDBRANCH   4  25
TORSDOF 9
ENDMDL
MODEL 6
REMARK VINA RESULT:      -8.8      5.671      9.393
REMARK  9 active torsions:
REMARK  status: ('A' for Active; 'I' for Inactive)
REMARK    1  A    between atoms: C_2  and  O_3 
REMARK    2  A    between atoms: O_3  and  C_4 
REMARK    3  A    between atoms: C_7  and  C_8 
REMARK       I    between atoms: C_8  and  N_9 
REMARK    4  A    between atoms: N_9  and  C_10 
REMARK    5  A    between atoms: C_10  and  N_11 
REMARK    6  A    between atoms: N_11  and  C_12 
REMARK    7  A    between atoms: C_15  and  N_16 
REMARK    8  A    between atoms: N_19  and  C_21 
REMARK    9  A    between atoms: C_21  and  C_22 
ROOT
HETATM    1  C   UNL     1      -5.526   5.261 -31.351  1.00  0.00     0.034 C 
HETATM    2  C   UNL     1      -4.571   4.637 -32.148  1.00  0.00     0.032 C 
HETATM    3  C   UNL     1      -4.097   3.361 -31.827  1.00  0.00     0.031 C 
HETATM    4  C   UNL     1      -4.598   2.650 -30.730  1.00  0.00     0.030 C 
HETATM    5  C   UNL     1      -5.448   3.363 -29.863  1.00  0.00     0.031 C 
HETATM    6  C   UNL     1      -5.901   4.658 -30.159  1.00  0.00     0.032 C 
ENDROOT
BRANCH   1   7
HETATM    7  N   UNL     1      -6.102   6.494 -31.712  1.00  0.00    -0.333 N 
HETATM    8  H   UNL     1      -5.479   7.292 -31.785  1.00  0.00     0.168 HD
BRANCH   7   9
HETATM    9  C   UNL     1      -7.405   6.730 -32.037  1.00  0.00     0.179 C 
HETATM   10  S   UNL     1      -8.029   8.273 -31.944  1.00  0.00    -0.040 SA
BRANCH   9  11
HETATM   11  N   UNL     1      -8.222   5.696 -32.413  1.00  0.00    -0.299 N 
HETATM   12  C   UNL     1      -8.108   4.962 -33.585  1.00  0.00     0.257 C 
HETATM   13  O   UNL     1      -7.206   5.018 -34.412  1.00  0.00    -0.267 OA
HETATM   14  H   UNL     1      -8.677   5.223 -31.642  1.00  0.00     0.171 HD
BRANCH  12  15
HETATM   15  C   UNL     1      -9.176   3.974 -33.820  1.00  0.00     0.032 A 
HETATM   16  C   UNL     1      -9.174   2.762 -33.127  1.00  0.00     0.020 A 
HETATM   17  C   UNL     1     -10.296   1.934 -33.201  1.00  0.00     0.038 A 
HETATM   18  C   UNL     1     -11.412   2.304 -33.963  1.00  0.00     0.069 A 
HETATM   19  C   UNL     1     -11.375   3.487 -34.701  1.00  0.00     0.038 A 
HETATM   20  C   UNL     1     -10.267   4.334 -34.615  1.00  0.00     0.020 A 
BRANCH  18  21
HETATM   21  O   UNL     1     -12.470   1.446 -33.863  1.00  0.00    -0.347 OA
BRANCH  21  22
HETATM   22  C   UNL     1     -13.806   1.967 -33.903  1.00  0.00     0.120 C 
HETATM   23  C   UNL     1     -14.216   2.518 -32.538  1.00  0.00     0.040 C 
HETATM   24  C   UNL     1     -14.718   0.797 -34.271  1.00  0.00     0.040 C 
ENDBRANCH  21  22
ENDBRANCH  18  21
ENDBRANCH  12  15
ENDBRANCH   9  11
ENDBRANCH   7   9
ENDBRANCH   1   7
BRANCH   4  25
HETATM   25  N   UNL     1      -4.292   1.301 -30.480  1.00  0.00    -0.378 N 
HETATM   26  C   UNL     1      -3.246   0.631 -31.281  1.00  0.00     0.150 C 
HETATM   27  C   UNL     1      -3.777   0.180 -32.663  1.00  0.00     0.255 C 
HETATM   28  N   UNL     1      -5.062  -0.644 -32.536  1.00  0.00    -0.064 N 
HETATM   29  H   UNL     1      -4.802  -1.530 -32.087  1.00  0.00     0.280 HD
HETATM   30  C   UNL     1      -6.097   0.044 -31.639  1.00  0.00     0.255 C 
HETATM   31  C   UNL     1      -5.473   0.424 -30.278  1.00  0.00     0.150 C 
BRANCH  28  32
HETATM   32  C   UNL     1      -5.665  -0.981 -33.883  1.00  0.00     0.273 C 
BRANCH  32  33
HETATM   33  C   UNL     1      -5.541  -2.438 -34.236  1.00  0.00    -0.033 A 
HETATM   34  C   UNL     1      -6.602  -3.112 -34.861  1.00  0.00     0.009 A 
HETATM   35  C   UNL     1      -6.497  -4.473 -35.156  1.00  0.00     0.001 A 
HETATM   36  C   UNL     1      -5.337  -5.172 -34.828  1.00  0.00     0.000 A 
HETATM   37  C   UNL     1      -4.276  -4.513 -34.212  1.00  0.00     0.001 A 
HETATM   38  C   UNL     1      -4.374  -3.151 -33.920  1.00  0.00     0.009 A 
ENDBRANCH  32  33
ENDBRANCH  28  32
ENDBRANCH   4  25
TORSDOF 9
ENDMDL
MODEL 7
REMARK VINA RESULT:      -8.6      1.533      2.219
REMARK  9 active torsions:
REMARK  status: ('A' for Active; 'I' for Inactive)
REMARK    1  A    between atoms: C_2  and  O_3 
REMARK    2  A    between atoms: O_3  and  C_4 
REMARK    3  A    between atoms: C_7  and  C_8 
REMARK       I    between atoms: C_8  and  N_9 
REMARK    4  A    between atoms: N_9  and  C_10 
REMARK    5  A    between atoms: C_10  and  N_11 
REMARK    6  A    between atoms: N_11  and  C_12 
REMARK    7  A    between atoms: C_15  and  N_16 
REMARK    8  A    between atoms: N_19  and  C_21 
REMARK    9  A    between atoms: C_21  and  C_22 
ROOT
HETATM    1  C   UNL     1      -3.869   3.555 -31.130  1.00  0.00     0.034 C 
HETATM    2  C   UNL     1      -4.466   2.373 -30.700  1.00  0.00     0.032 C 
HETATM    3  C   UNL     1      -5.848   2.191 -30.808  1.00  0.00     0.031 C 
HETATM    4  C   UNL     1      -6.670   3.162 -31.395  1.00  0.00     0.030 C 
HETATM    5  C   UNL     1      -6.062   4.399 -31.681  1.00  0.00     0.031 C 
HETATM    6  C   UNL     1      -4.680   4.603 -31.541  1.00  0.00     0.032 C 
ENDROOT
BRANCH   1   7
HETATM    7  N   UNL     1      -2.471   3.720 -31.138  1.00  0.00    -0.333 N 
HETATM    8  H   UNL     1      -1.908   2.902 -30.930  1.00  0.00     0.168 HD
BRANCH   7   9
HETATM    9  C   UNL     1      -1.778   4.851 -31.453  1.00  0.00     0.179 C 
HETATM   10  S   UNL     1      -1.555   5.283 -33.048  1.00  0.00    -0.040 SA
BRANCH   9  11
HETATM   11  N   UNL     1      -1.232   5.626 -30.464  1.00  0.00    -0.299 N 
HETATM   12  C   UNL     1       0.006   5.425 -29.871  1.00  0.00     0.257 C 
HETATM   13  O   UNL     1       0.866   4.617 -30.203  1.00  0.00    -0.267 OA
HETATM   14  H   UNL     1      -1.580   6.577 -30.440  1.00  0.00     0.171 HD
BRANCH  12  15
HETATM   15  C   UNL     1       0.325   6.325 -28.749  1.00  0.00     0.032 A 
HETATM   16  C   UNL     1       0.874   7.584 -28.995  1.00  0.00     0.020 A 
HETATM   17  C   UNL     1       0.972   8.501 -27.946  1.00  0.00     0.038 A 
HETATM   18  C   UNL     1       0.532   8.168 -26.658  1.00  0.00     0.069 A 
HETATM   19  C   UNL     1       0.045   6.884 -26.412  1.00  0.00     0.038 A 
HETATM   20  C   UNL     1      -0.079   5.968 -27.460  1.00  0.00     0.020 A 
BRANCH  18  21
HETATM   21  O   UNL     1       0.598   9.193 -25.759  1.00  0.00    -0.347 OA
BRANCH  21  22
HETATM   22  C   UNL     1      -0.267  10.326 -25.917  1.00  0.00     0.120 C 
HETATM   23  C   UNL     1       0.061  11.409 -24.888  1.00  0.00     0.040 C 
HETATM   24  C   UNL     1      -1.691   9.823 -25.684  1.00  0.00     0.040 C 
ENDBRANCH  21  22
ENDBRANCH  18  21
ENDBRANCH  12  15
ENDBRANCH   9  11
ENDBRANCH   7   9
ENDBRANCH   1   7
BRANCH   4  25
HETATM   25  N   UNL     1      -8.026   2.946 -31.694  1.00  0.00    -0.378 N 
HETATM   26  C   UNL     1      -8.640   1.636 -31.388  1.00  0.00     0.150 C 
HETATM   27  C   UNL     1      -8.306   0.576 -32.465  1.00  0.00     0.255 C 
HETATM   28  N   UNL     1      -8.628   1.079 -33.876  1.00  0.00    -0.064 N 
HETATM   29  H   UNL     1      -9.649   1.158 -33.936  1.00  0.00     0.280 HD
HETATM   30  C   UNL     1      -8.039   2.471 -34.134  1.00  0.00     0.255 C 
HETATM   31  C   UNL     1      -8.456   3.456 -33.020  1.00  0.00     0.150 C 
BRANCH  28  32
HETATM   32  C   UNL     1      -8.187   0.106 -34.948  1.00  0.00     0.273 C 
BRANCH  32  33
HETATM   33  C   UNL     1      -6.943  -0.654 -34.580  1.00  0.00    -0.033 A 
HETATM   34  C   UNL     1      -6.885  -2.047 -34.740  1.00  0.00     0.009 A 
HETATM   35  C   UNL     1      -5.741  -2.754 -34.364  1.00  0.00     0.001 A 
HETATM   36  C   UNL     1      -4.649  -2.080 -33.823  1.00  0.00     0.000 A 
HETATM   37  C   UNL     1      -4.692  -0.697 -33.663  1.00  0.00     0.001 A 
HETATM   38  C   UNL     1      -5.831   0.015 -34.043  1.00  0.00     0.009 A 
ENDBRANCH  32  33
ENDBRANCH  28  32
ENDBRANCH   4  25
TORSDOF 9
ENDMDL
MODEL 8
REMARK VINA RESULT:      -8.5      3.264     11.690
REMARK  9 active torsions:
REMARK  status: ('A' for Active; 'I' for Inactive)
REMARK    1  A    between atoms: C_2  and  O_3 
REMARK    2  A    between atoms: O_3  and  C_4 
REMARK    3  A    between atoms: C_7  and  C_8 
REMARK       I    between atoms: C_8  and  N_9 
REMARK    4  A    between atoms: N_9  and  C_10 
REMARK    5  A    between atoms: C_10  and  N_11 
REMARK    6  A    between atoms: N_11  and  C_12 
REMARK    7  A    between atoms: C_15  and  N_16 
REMARK    8  A    between atoms: N_19  and  C_21 
REMARK    9  A    between atoms: C_21  and  C_22 
ROOT
HETATM    1  C   UNL     1      -5.984   5.326 -31.271  1.00  0.00     0.034 C 
HETATM    2  C   UNL     1      -5.679   6.663 -31.511  1.00  0.00     0.032 C 
HETATM    3  C   UNL     1      -4.351   7.076 -31.656  1.00  0.00     0.031 C 
HETATM    4  C   UNL     1      -3.292   6.162 -31.616  1.00  0.00     0.030 C 
HETATM    5  C   UNL     1      -3.619   4.850 -31.226  1.00  0.00     0.031 C 
HETATM    6  C   UNL     1      -4.947   4.433 -31.042  1.00  0.00     0.032 C 
ENDROOT
BRANCH   1   7
HETATM    7  N   UNL     1      -7.313   4.864 -31.234  1.00  0.00    -0.333 N 
HETATM    8  H   UNL     1      -7.870   5.122 -30.425  1.00  0.00     0.168 HD
BRANCH   7   9
HETATM    9  C   UNL     1      -7.965   4.151 -32.197  1.00  0.00     0.179 C 
HETATM   10  S   UNL     1      -9.320   4.781 -32.936  1.00  0.00    -0.040 SA
BRANCH   9  11
HETATM   11  N   UNL     1      -7.530   2.899 -32.544  1.00  0.00    -0.299 N 
HETATM   12  C   UNL     1      -6.692   2.602 -33.608  1.00  0.00     0.257 C 
HETATM   13  O   UNL     1      -6.102   3.394 -34.334  1.00  0.00    -0.267 OA
HETATM   14  H   UNL     1      -7.520   2.235 -31.779  1.00  0.00     0.171 HD
BRANCH  12  15
HETATM   15  C   UNL     1      -6.457   1.167 -33.848  1.00  0.00     0.032 A 
HETATM   16  C   UNL     1      -5.669   0.428 -32.964  1.00  0.00     0.020 A 
HETATM   17  C   UNL     1      -5.630  -0.963 -33.085  1.00  0.00     0.038 A 
HETATM   18  C   UNL     1      -6.366  -1.616 -34.082  1.00  0.00     0.069 A 
HETATM   19  C   UNL     1      -7.098  -0.862 -34.998  1.00  0.00     0.038 A 
HETATM   20  C   UNL     1      -7.162   0.528 -34.871  1.00  0.00     0.020 A 
BRANCH  18  21
HETATM   21  O   UNL     1      -6.310  -2.980 -34.018  1.00  0.00    -0.347 OA
BRANCH  21  22
HETATM   22  C   UNL     1      -5.558  -3.701 -35.004  1.00  0.00     0.120 C 
HETATM   23  C   UNL     1      -6.448  -4.701 -35.741  1.00  0.00     0.040 C 
HETATM   24  C   UNL     1      -4.465  -4.457 -34.250  1.00  0.00     0.040 C 
ENDBRANCH  21  22
ENDBRANCH  18  21
ENDBRANCH  12  15
ENDBRANCH   9  11
ENDBRANCH   7   9
ENDBRANCH   1   7
BRANCH   4  25
HETATM   25  N   UNL     1      -1.967   6.501 -31.943  1.00  0.00    -0.378 N 
HETATM   26  C   UNL     1      -0.928   5.449 -31.953  1.00  0.00     0.150 C 
HETATM   27  C   UNL     1      -0.418   5.127 -30.528  1.00  0.00     0.255 C 
HETATM   28  N   UNL     1       0.009   6.392 -29.778  1.00  0.00    -0.064 N 
HETATM   29  H   UNL     1       0.849   6.747 -30.250  1.00  0.00     0.280 HD
HETATM   30  C   UNL     1      -1.060   7.488 -29.849  1.00  0.00     0.255 C 
HETATM   31  C   UNL     1      -1.475   7.752 -31.314  1.00  0.00     0.150 C 
BRANCH  28  32
HETATM   32  C   UNL     1       0.386   6.109 -28.340  1.00  0.00     0.273 C 
BRANCH  32  33
HETATM   33  C   UNL     1       0.496   7.353 -27.503  1.00  0.00    -0.033 A 
HETATM   34  C   UNL     1      -0.375   7.565 -26.423  1.00  0.00     0.009 A 
HETATM   35  C   UNL     1      -0.293   8.737 -25.669  1.00  0.00     0.001 A 
HETATM   36  C   UNL     1       0.654   9.708 -25.987  1.00  0.00     0.000 A 
HETATM   37  C   UNL     1       1.527   9.508 -27.053  1.00  0.00     0.001 A 
HETATM   38  C   UNL     1       1.453   8.334 -27.807  1.00  0.00     0.009 A 
ENDBRANCH  32  33
ENDBRANCH  28  32
ENDBRANCH   4  25
TORSDOF 9
ENDMDL
MODEL 9
REMARK VINA RESULT:      -8.5     18.459     21.891
REMARK  9 active torsions:
REMARK  status: ('A' for Active; 'I' for Inactive)
REMARK    1  A    between atoms: C_2  and  O_3 
REMARK    2  A    between atoms: O_3  and  C_4 
REMARK    3  A    between atoms: C_7  and  C_8 
REMARK       I    between atoms: C_8  and  N_9 
REMARK    4  A    between atoms: N_9  and  C_10 
REMARK    5  A    between atoms: C_10  and  N_11 
REMARK    6  A    between atoms: N_11  and  C_12 
REMARK    7  A    between atoms: C_15  and  N_16 
REMARK    8  A    between atoms: N_19  and  C_21 
REMARK    9  A    between atoms: C_21  and  C_22 
ROOT
HETATM    1  C   UNL     1      -4.272 -13.296 -36.282  1.00  0.00     0.034 C 
HETATM    2  C   UNL     1      -3.694 -12.563 -37.315  1.00  0.00     0.032 C 
HETATM    3  C   UNL     1      -2.573 -13.050 -37.994  1.00  0.00     0.031 C 
HETATM    4  C   UNL     1      -2.025 -14.304 -37.697  1.00  0.00     0.030 C 
HETATM    5  C   UNL     1      -2.536 -14.950 -36.555  1.00  0.00     0.031 C 
HETATM    6  C   UNL     1      -3.638 -14.451 -35.845  1.00  0.00     0.032 C 
ENDROOT
BRANCH   1   7
HETATM    7  N   UNL     1      -5.465 -12.885 -35.658  1.00  0.00    -0.333 N 
HETATM    8  H   UNL     1      -5.525 -11.913 -35.369  1.00  0.00     0.168 HD
BRANCH   7   9
HETATM    9  C   UNL     1      -6.584 -13.634 -35.447  1.00  0.00     0.179 C 
HETATM   10  S   UNL     1      -6.892 -14.282 -33.942  1.00  0.00    -0.040 SA
BRANCH   9  11
HETATM   11  N   UNL     1      -7.451 -13.887 -36.478  1.00  0.00    -0.299 N 
HETATM   12  C   UNL     1      -7.636 -13.083 -37.593  1.00  0.00     0.257 C 
HETATM   13  O   UNL     1      -6.985 -12.095 -37.913  1.00  0.00    -0.267 OA
HETATM   14  H   UNL     1      -7.677 -14.866 -36.602  1.00  0.00     0.171 HD
BRANCH  12  15
HETATM   15  C   UNL     1      -8.708 -13.508 -38.510  1.00  0.00     0.032 A 
HETATM   16  C   UNL     1      -9.376 -12.564 -39.293  1.00  0.00     0.020 A 
HETATM   17  C   UNL     1     -10.234 -13.002 -40.304  1.00  0.00     0.038 A 
HETATM   18  C   UNL     1     -10.432 -14.369 -40.533  1.00  0.00     0.069 A 
HETATM   19  C   UNL     1      -9.809 -15.301 -39.703  1.00  0.00     0.038 A 
HETATM   20  C   UNL     1      -8.930 -14.873 -38.704  1.00  0.00     0.020 A 
BRANCH  18  21
HETATM   21  O   UNL     1     -11.219 -14.649 -41.614  1.00  0.00    -0.347 OA
BRANCH  21  22
HETATM   22  C   UNL     1     -11.381 -16.011 -42.035  1.00  0.00     0.120 C 
HETATM   23  C   UNL     1     -10.257 -16.425 -42.983  1.00  0.00     0.040 C 
HETATM   24  C   UNL     1     -12.717 -16.082 -42.773  1.00  0.00     0.040 C 
ENDBRANCH  21  22
ENDBRANCH  18  21
ENDBRANCH  12  15
ENDBRANCH   9  11
ENDBRANCH   7   9
ENDBRANCH   1   7
BRANCH   4  25
HETATM   25  N   UNL     1      -1.024 -14.912 -38.474  1.00  0.00    -0.378 N 
HETATM   26  C   UNL     1      -0.369 -14.140 -39.552  1.00  0.00     0.150 C 
HETATM   27  C   UNL     1      -1.235 -14.092 -40.834  1.00  0.00     0.255 C 
HETATM   28  N   UNL     1      -1.677 -15.491 -41.275  1.00  0.00    -0.064 N 
HETATM   29  H   UNL     1      -0.832 -15.984 -41.584  1.00  0.00     0.280 HD
HETATM   30  C   UNL     1      -2.282 -16.290 -40.116  1.00  0.00     0.255 C 
HETATM   31  C   UNL     1      -1.328 -16.300 -38.901  1.00  0.00     0.150 C 
BRANCH  28  32
HETATM   32  C   UNL     1      -2.629 -15.450 -42.450  1.00  0.00     0.273 C 
BRANCH  32  33
HETATM   33  C   UNL     1      -4.019 -15.022 -42.068  1.00  0.00    -0.033 A 
HETATM   34  C   UNL     1      -5.095 -15.918 -42.173  1.00  0.00     0.009 A 
HETATM   35  C   UNL     1      -6.390 -15.507 -41.850  1.00  0.00     0.001 A 
HETATM   36  C   UNL     1      -6.623 -14.201 -41.425  1.00  0.00     0.000 A 
HETATM   37  C   UNL     1      -5.564 -13.304 -41.312  1.00  0.00     0.001 A 
HETATM   38  C   UNL     1      -4.266 -13.712 -41.628  1.00  0.00     0.009 A 
ENDBRANCH  32  33
ENDBRANCH  28  32
ENDBRANCH   4  25
TORSDOF 9
ENDMDL
MODEL 10
REMARK VINA RESULT:      -8.4      4.334     12.636
REMARK  9 active torsions:
REMARK  status: ('A' for Active; 'I' for Inactive)
REMARK    1  A    between atoms: C_2  and  O_3 
REMARK    2  A    between atoms: O_3  and  C_4 
REMARK    3  A    between atoms: C_7  and  C_8 
REMARK       I    between atoms: C_8  and  N_9 
REMARK    4  A    between atoms: N_9  and  C_10 
REMARK    5  A    between atoms: C_10  and  N_11 
REMARK    6  A    between atoms: N_11  and  C_12 
REMARK    7  A    between atoms: C_15  and  N_16 
REMARK    8  A    between atoms: N_19  and  C_21 
REMARK    9  A    between atoms: C_21  and  C_22 
ROOT
HETATM    1  C   UNL     1      -4.381   3.389 -32.105  1.00  0.00     0.034 C 
HETATM    2  C   UNL     1      -4.893   4.531 -31.496  1.00  0.00     0.032 C 
HETATM    3  C   UNL     1      -4.089   5.658 -31.305  1.00  0.00     0.031 C 
HETATM    4  C   UNL     1      -2.765   5.699 -31.760  1.00  0.00     0.030 C 
HETATM    5  C   UNL     1      -2.235   4.484 -32.235  1.00  0.00     0.031 C 
HETATM    6  C   UNL     1      -3.025   3.336 -32.396  1.00  0.00     0.032 C 
ENDROOT
BRANCH   1   7
HETATM    7  N   UNL     1      -5.196   2.283 -32.412  1.00  0.00    -0.333 N 
HETATM    8  H   UNL     1      -4.981   1.772 -33.263  1.00  0.00     0.168 HD
BRANCH   7   9
HETATM    9  C   UNL     1      -6.214   1.776 -31.660  1.00  0.00     0.179 C 
HETATM   10  S   UNL     1      -5.909   1.142 -30.149  1.00  0.00    -0.040 SA
BRANCH   9  11
HETATM   11  N   UNL     1      -7.493   1.756 -32.152  1.00  0.00    -0.299 N 
HETATM   12  C   UNL     1      -7.921   1.041 -33.261  1.00  0.00     0.257 C 
HETATM   13  O   UNL     1      -7.280   0.220 -33.907  1.00  0.00    -0.267 OA
HETATM   14  H   UNL     1      -8.207   1.968 -31.465  1.00  0.00     0.171 HD
BRANCH  12  15
HETATM   15  C   UNL     1      -9.320   1.270 -33.662  1.00  0.00     0.032 A 
HETATM   16  C   UNL     1     -10.318   0.379 -33.263  1.00  0.00     0.020 A 
HETATM   17  C   UNL     1     -11.657   0.721 -33.468  1.00  0.00     0.038 A 
HETATM   18  C   UNL     1     -12.002   1.937 -34.071  1.00  0.00     0.069 A 
HETATM   19  C   UNL     1     -10.994   2.788 -34.523  1.00  0.00     0.038 A 
HETATM   20  C   UNL     1      -9.652   2.466 -34.301  1.00  0.00     0.020 A 
BRANCH  18  21
HETATM   21  O   UNL     1     -13.346   2.179 -34.117  1.00  0.00    -0.347 OA
BRANCH  21  22
HETATM   22  C   UNL     1     -14.242   1.322 -33.396  1.00  0.00     0.120 C 
HETATM   23  C   UNL     1     -15.251   0.671 -34.342  1.00  0.00     0.040 C 
HETATM   24  C   UNL     1     -14.984   2.208 -32.397  1.00  0.00     0.040 C 
ENDBRANCH  21  22
ENDBRANCH  18  21
ENDBRANCH  12  15
ENDBRANCH   9  11
ENDBRANCH   7   9
ENDBRANCH   1   7
BRANCH   4  25
HETATM   25  N   UNL     1      -1.985   6.868 -31.759  1.00  0.00    -0.378 N 
HETATM   26  C   UNL     1      -0.547   6.784 -32.094  1.00  0.00     0.150 C 
HETATM   27  C   UNL     1       0.299   6.303 -30.890  1.00  0.00     0.255 C 
HETATM   28  N   UNL     1       0.018   7.132 -29.632  1.00  0.00    -0.064 N 
HETATM   29  H   UNL     1       0.383   8.074 -29.811  1.00  0.00     0.280 HD
HETATM   30  C   UNL     1      -1.485   7.261 -29.356  1.00  0.00     0.255 C 
HETATM   31  C   UNL     1      -2.227   7.774 -30.610  1.00  0.00     0.150 C 
BRANCH  28  32
HETATM   32  C   UNL     1       0.739   6.593 -28.415  1.00  0.00     0.273 C 
BRANCH  32  33
HETATM   33  C   UNL     1       1.112   7.664 -27.429  1.00  0.00    -0.033 A 
HETATM   34  C   UNL     1       1.238   7.364 -26.063  1.00  0.00     0.009 A 
HETATM   35  C   UNL     1       1.552   8.368 -25.145  1.00  0.00     0.001 A 
HETATM   36  C   UNL     1       1.737   9.679 -25.579  1.00  0.00     0.000 A 
HETATM   37  C   UNL     1       1.619   9.989 -26.932  1.00  0.00     0.001 A 
HETATM   38  C   UNL     1       1.312   8.987 -27.855  1.00  0.00     0.009 A 
ENDBRANCH  32  33
ENDBRANCH  28  32
ENDBRANCH   4  25
TORSDOF 9
ENDMDL
