MODEL 1
REMARK VINA RESULT:      -8.8      0.000      0.000
REMARK  3 active torsions:
REMARK  status: ('A' for Active; 'I' for Inactive)
REMARK    1  A    between atoms: C_3  and  N_4 
REMARK    2  A    between atoms: C_14  and  N_15 
REMARK       I    between atoms: N_15  and  C_16 
REMARK    3  A    between atoms: C_16  and  C_17 
ROOT
HETATM    1  N   UNL     1      -9.927   1.745 -32.852  1.00  0.00    -0.237 N 
HETATM    2  N   UNL     1      -9.774   2.696 -31.889  1.00  0.00    -0.179 NA
HETATM    3  C   UNL     1      -8.562   2.498 -31.380  1.00  0.00     0.150 A 
HETATM    4  C   UNL     1      -7.898   1.429 -31.990  1.00  0.00     0.008 A 
HETATM    5  C   UNL     1      -8.777   0.970 -32.955  1.00  0.00     0.047 A 
HETATM    6  C   UNL     1      -8.578  -0.281 -33.752  1.00  0.00     0.069 C 
HETATM    7  C   UNL     1      -7.082  -0.727 -33.741  1.00  0.00    -0.040 C 
HETATM    8  C   UNL     1      -6.281   0.092 -34.774  1.00  0.00     0.015 C 
HETATM    9  C   UNL     1      -7.010  -2.209 -34.163  1.00  0.00     0.015 C 
HETATM   10  C   UNL     1      -6.465  -0.592 -32.313  1.00  0.00     0.039 C 
HETATM   11  C   UNL     1      -6.585   0.810 -31.667  1.00  0.00     0.122 C 
ENDROOT
BRANCH  11  12
HETATM   12  N   UNL     1      -5.539   1.718 -32.095  1.00  0.00    -0.347 N 
HETATM   13  C   UNL     1      -4.918   2.545 -31.196  1.00  0.00     0.270 C 
HETATM   14  O   UNL     1      -5.181   2.569 -29.998  1.00  0.00    -0.266 OA
HETATM   15  H   UNL     1      -5.276   1.716 -33.069  1.00  0.00     0.163 HD
BRANCH  13  16
HETATM   16  C   UNL     1      -3.884   3.456 -31.751  1.00  0.00     0.120 A 
HETATM   17  N   UNL     1      -2.655   3.572 -31.136  1.00  0.00    -0.303 N 
HETATM   18  C   UNL     1      -1.869   4.492 -31.831  1.00  0.00     0.324 A 
HETATM   19  H   UNL     1      -2.378   3.072 -30.304  1.00  0.00     0.171 HD
HETATM   20  O   UNL     1      -0.736   4.852 -31.580  1.00  0.00    -0.247 OA
HETATM   21  N   UNL     1      -2.684   4.914 -32.891  1.00  0.00    -0.316 N 
HETATM   22  C   UNL     1      -3.897   4.272 -32.817  1.00  0.00     0.128 A 
HETATM   23  H   UNL     1      -2.387   5.593 -33.576  1.00  0.00     0.170 HD
ENDBRANCH  13  16
ENDBRANCH  11  12
BRANCH   1  24
HETATM   24  C   UNL     1     -11.147   1.662 -33.586  1.00  0.00     0.064 A 
HETATM   25  C   UNL     1     -11.465   2.598 -34.599  1.00  0.00    -0.033 A 
HETATM   26  C   UNL     1     -10.593   3.774 -34.959  1.00  0.00     0.050 C 
HETATM   27  C   UNL     1     -12.676   2.450 -35.302  1.00  0.00     0.009 A 
HETATM   28  C   UNL     1     -13.557   1.409 -35.010  1.00  0.00     0.001 A 
HETATM   29  C   UNL     1     -13.235   0.486 -34.024  1.00  0.00     0.002 A 
HETATM   30  C   UNL     1     -12.035   0.607 -33.320  1.00  0.00     0.032 A 
ENDBRANCH   1  24
TORSDOF 3
ENDMDL
MODEL 2
REMARK VINA RESULT:      -8.6     15.866     17.256
REMARK  3 active torsions:
REMARK  status: ('A' for Active; 'I' for Inactive)
REMARK    1  A    between atoms: C_3  and  N_4 
REMARK    2  A    between atoms: C_14  and  N_15 
REMARK       I    between atoms: N_15  and  C_16 
REMARK    3  A    between atoms: C_16  and  C_17 
ROOT
HETATM    1  N   UNL     1      -7.104 -12.836 -39.632  1.00  0.00    -0.237 N 
HETATM    2  N   UNL     1      -6.296 -12.163 -40.498  1.00  0.00    -0.179 NA
HETATM    3  C   UNL     1      -5.113 -12.085 -39.896  1.00  0.00     0.150 A 
HETATM    4  C   UNL     1      -5.115 -12.698 -38.640  1.00  0.00     0.008 A 
HETATM    5  C   UNL     1      -6.396 -13.202 -38.493  1.00  0.00     0.047 A 
HETATM    6  C   UNL     1      -6.931 -13.794 -37.227  1.00  0.00     0.069 C 
HETATM    7  C   UNL     1      -5.774 -14.232 -36.274  1.00  0.00    -0.040 C 
HETATM    8  C   UNL     1      -5.220 -15.603 -36.715  1.00  0.00     0.015 C 
HETATM    9  C   UNL     1      -6.346 -14.396 -34.852  1.00  0.00     0.015 C 
HETATM   10  C   UNL     1      -4.643 -13.156 -36.230  1.00  0.00     0.039 C 
HETATM   11  C   UNL     1      -4.051 -12.756 -37.603  1.00  0.00     0.122 C 
ENDROOT
BRANCH  11  12
HETATM   12  N   UNL     1      -3.023 -13.670 -38.060  1.00  0.00    -0.347 N 
HETATM   13  C   UNL     1      -1.769 -13.215 -38.373  1.00  0.00     0.270 C 
HETATM   14  O   UNL     1      -1.428 -12.039 -38.279  1.00  0.00    -0.266 OA
HETATM   15  H   UNL     1      -3.254 -14.650 -38.131  1.00  0.00     0.163 HD
BRANCH  13  16
HETATM   16  C   UNL     1      -0.805 -14.234 -38.860  1.00  0.00     0.120 A 
HETATM   17  N   UNL     1       0.544 -13.953 -38.909  1.00  0.00    -0.303 N 
HETATM   18  C   UNL     1       1.235 -15.055 -39.412  1.00  0.00     0.324 A 
HETATM   19  H   UNL     1       0.959 -13.076 -38.630  1.00  0.00     0.171 HD
HETATM   20  O   UNL     1       2.430 -15.170 -39.601  1.00  0.00    -0.247 OA
HETATM   21  N   UNL     1       0.237 -16.009 -39.656  1.00  0.00    -0.316 N 
HETATM   22  C   UNL     1      -0.987 -15.485 -39.315  1.00  0.00     0.128 A 
HETATM   23  H   UNL     1       0.431 -16.924 -40.034  1.00  0.00     0.170 HD
ENDBRANCH  13  16
ENDBRANCH  11  12
BRANCH   1  24
HETATM   24  C   UNL     1      -8.471 -13.071 -39.967  1.00  0.00     0.064 A 
HETATM   25  C   UNL     1      -8.921 -14.346 -40.382  1.00  0.00    -0.033 A 
HETATM   26  C   UNL     1      -8.017 -15.540 -40.557  1.00  0.00     0.050 C 
HETATM   27  C   UNL     1     -10.287 -14.520 -40.678  1.00  0.00     0.009 A 
HETATM   28  C   UNL     1     -11.187 -13.460 -40.575  1.00  0.00     0.001 A 
HETATM   29  C   UNL     1     -10.743 -12.213 -40.156  1.00  0.00     0.002 A 
HETATM   30  C   UNL     1      -9.395 -12.020 -39.846  1.00  0.00     0.032 A 
ENDBRANCH   1  24
TORSDOF 3
ENDMDL
MODEL 3
REMARK VINA RESULT:      -8.4      2.650      5.296
REMARK  3 active torsions:
REMARK  status: ('A' for Active; 'I' for Inactive)
REMARK    1  A    between atoms: C_3  and  N_4 
REMARK    2  A    between atoms: C_14  and  N_15 
REMARK       I    between atoms: N_15  and  C_16 
REMARK    3  A    between atoms: C_16  and  C_17 
ROOT
HETATM    1  N   UNL     1      -5.562   1.763 -31.915  1.00  0.00    -0.237 N 
HETATM    2  N   UNL     1      -4.881   1.133 -30.917  1.00  0.00    -0.179 NA
HETATM    3  C   UNL     1      -3.695   1.732 -30.861  1.00  0.00     0.150 A 
HETATM    4  C   UNL     1      -3.571   2.755 -31.806  1.00  0.00     0.008 A 
HETATM    5  C   UNL     1      -4.791   2.783 -32.460  1.00  0.00     0.047 A 
HETATM    6  C   UNL     1      -5.077   3.603 -33.679  1.00  0.00     0.069 C 
HETATM    7  C   UNL     1      -4.049   4.769 -33.831  1.00  0.00    -0.040 C 
HETATM    8  C   UNL     1      -4.446   5.944 -32.913  1.00  0.00     0.015 C 
HETATM    9  C   UNL     1      -4.097   5.277 -35.286  1.00  0.00     0.015 C 
HETATM   10  C   UNL     1      -2.597   4.282 -33.527  1.00  0.00     0.039 C 
HETATM   11  C   UNL     1      -2.398   3.602 -32.151  1.00  0.00     0.122 C 
ENDROOT
BRANCH  11  12
HETATM   12  N   UNL     1      -2.196   4.553 -31.076  1.00  0.00    -0.347 N 
HETATM   13  C   UNL     1      -0.956   5.086 -30.836  1.00  0.00     0.270 C 
HETATM   14  O   UNL     1       0.041   4.818 -31.500  1.00  0.00    -0.266 OA
HETATM   15  H   UNL     1      -2.994   4.819 -30.518  1.00  0.00     0.163 HD
BRANCH  13  16
HETATM   16  C   UNL     1      -0.859   6.027 -29.691  1.00  0.00     0.120 A 
HETATM   17  N   UNL     1      -0.213   5.651 -28.531  1.00  0.00    -0.303 N 
HETATM   18  C   UNL     1      -0.268   6.694 -27.606  1.00  0.00     0.324 A 
HETATM   19  H   UNL     1       0.222   4.753 -28.381  1.00  0.00     0.171 HD
HETATM   20  O   UNL     1       0.186   6.721 -26.479  1.00  0.00    -0.247 OA
HETATM   21  N   UNL     1      -0.972   7.710 -28.268  1.00  0.00    -0.316 N 
HETATM   22  C   UNL     1      -1.318   7.279 -29.526  1.00  0.00     0.128 A 
HETATM   23  H   UNL     1      -1.177   8.602 -27.844  1.00  0.00     0.170 HD
ENDBRANCH  13  16
ENDBRANCH  11  12
BRANCH   1  24
HETATM   24  C   UNL     1      -6.881   1.339 -32.257  1.00  0.00     0.064 A 
HETATM   25  C   UNL     1      -7.104   0.307 -33.198  1.00  0.00    -0.033 A 
HETATM   26  C   UNL     1      -6.003  -0.394 -33.952  1.00  0.00     0.050 C 
HETATM   27  C   UNL     1      -8.428  -0.081 -33.477  1.00  0.00     0.009 A 
HETATM   28  C   UNL     1      -9.509   0.539 -32.850  1.00  0.00     0.001 A 
HETATM   29  C   UNL     1      -9.284   1.543 -31.918  1.00  0.00     0.002 A 
HETATM   30  C   UNL     1      -7.978   1.937 -31.617  1.00  0.00     0.032 A 
ENDBRANCH   1  24
TORSDOF 3
ENDMDL
MODEL 4
REMARK VINA RESULT:      -8.2      4.031      6.377
REMARK  3 active torsions:
REMARK  status: ('A' for Active; 'I' for Inactive)
REMARK    1  A    between atoms: C_3  and  N_4 
REMARK    2  A    between atoms: C_14  and  N_15 
REMARK       I    between atoms: N_15  and  C_16 
REMARK    3  A    between atoms: C_16  and  C_17 
ROOT
HETATM    1  N   UNL     1      -5.767   0.112 -31.778  1.00  0.00    -0.237 N 
HETATM    2  N   UNL     1      -6.338  -0.191 -30.579  1.00  0.00    -0.179 NA
HETATM    3  C   UNL     1      -6.240   0.915 -29.847  1.00  0.00     0.150 A 
HETATM    4  C   UNL     1      -5.613   1.956 -30.538  1.00  0.00     0.008 A 
HETATM    5  C   UNL     1      -5.337   1.434 -31.791  1.00  0.00     0.047 A 
HETATM    6  C   UNL     1      -4.508   2.124 -32.829  1.00  0.00     0.069 C 
HETATM    7  C   UNL     1      -4.415   3.657 -32.551  1.00  0.00    -0.040 C 
HETATM    8  C   UNL     1      -5.689   4.364 -33.059  1.00  0.00     0.015 C 
HETATM    9  C   UNL     1      -3.220   4.226 -33.343  1.00  0.00     0.015 C 
HETATM   10  C   UNL     1      -4.180   3.941 -31.034  1.00  0.00     0.039 C 
HETATM   11  C   UNL     1      -5.215   3.310 -30.072  1.00  0.00     0.122 C 
ENDROOT
BRANCH  11  12
HETATM   12  N   UNL     1      -6.415   4.111 -29.932  1.00  0.00    -0.347 N 
HETATM   13  C   UNL     1      -6.503   5.080 -28.966  1.00  0.00     0.270 C 
HETATM   14  O   UNL     1      -5.596   5.344 -28.182  1.00  0.00    -0.266 OA
HETATM   15  H   UNL     1      -7.178   3.942 -30.571  1.00  0.00     0.163 HD
BRANCH  13  16
HETATM   16  C   UNL     1      -7.790   5.818 -28.894  1.00  0.00     0.120 A 
HETATM   17  N   UNL     1      -7.961   6.835 -27.979  1.00  0.00    -0.303 N 
HETATM   18  C   UNL     1      -9.249   7.358 -28.096  1.00  0.00     0.324 A 
HETATM   19  H   UNL     1      -7.259   7.142 -27.322  1.00  0.00     0.171 HD
HETATM   20  O   UNL     1      -9.755   8.257 -27.454  1.00  0.00    -0.247 OA
HETATM   21  N   UNL     1      -9.836   6.610 -29.126  1.00  0.00    -0.316 N 
HETATM   22  C   UNL     1      -8.932   5.685 -29.589  1.00  0.00     0.128 A 
HETATM   23  H   UNL     1     -10.784   6.756 -29.441  1.00  0.00     0.170 HD
ENDBRANCH  13  16
ENDBRANCH  11  12
BRANCH   1  24
HETATM   24  C   UNL     1      -5.683  -0.880 -32.800  1.00  0.00     0.064 A 
HETATM   25  C   UNL     1      -4.516  -1.658 -32.980  1.00  0.00    -0.033 A 
HETATM   26  C   UNL     1      -3.259  -1.487 -32.165  1.00  0.00     0.050 C 
HETATM   27  C   UNL     1      -4.503  -2.636 -33.993  1.00  0.00     0.009 A 
HETATM   28  C   UNL     1      -5.611  -2.838 -34.815  1.00  0.00     0.001 A 
HETATM   29  C   UNL     1      -6.759  -2.079 -34.627  1.00  0.00     0.002 A 
HETATM   30  C   UNL     1      -6.799  -1.111 -33.622  1.00  0.00     0.032 A 
ENDBRANCH   1  24
TORSDOF 3
ENDMDL
MODEL 5
REMARK VINA RESULT:      -8.1      2.917      8.009
REMARK  3 active torsions:
REMARK  status: ('A' for Active; 'I' for Inactive)
REMARK    1  A    between atoms: C_3  and  N_4 
REMARK    2  A    between atoms: C_14  and  N_15 
REMARK       I    between atoms: N_15  and  C_16 
REMARK    3  A    between atoms: C_16  and  C_17 
ROOT
HETATM    1  N   UNL     1      -4.403   4.753 -32.496  1.00  0.00    -0.237 N 
HETATM    2  N   UNL     1      -5.026   5.289 -33.582  1.00  0.00    -0.179 NA
HETATM    3  C   UNL     1      -5.683   4.282 -34.151  1.00  0.00     0.150 A 
HETATM    4  C   UNL     1      -5.511   3.079 -33.460  1.00  0.00     0.008 A 
HETATM    5  C   UNL     1      -4.706   3.401 -32.381  1.00  0.00     0.047 A 
HETATM    6  C   UNL     1      -4.103   2.398 -31.448  1.00  0.00     0.069 C 
HETATM    7  C   UNL     1      -4.864   1.035 -31.514  1.00  0.00    -0.040 C 
HETATM    8  C   UNL     1      -6.145   1.105 -30.657  1.00  0.00     0.015 C 
HETATM    9  C   UNL     1      -3.959  -0.059 -30.913  1.00  0.00     0.015 C 
HETATM   10  C   UNL     1      -5.193   0.646 -32.989  1.00  0.00     0.039 C 
HETATM   11  C   UNL     1      -5.977   1.708 -33.798  1.00  0.00     0.122 C 
ENDROOT
BRANCH  11  12
HETATM   12  N   UNL     1      -7.407   1.647 -33.570  1.00  0.00    -0.347 N 
HETATM   13  C   UNL     1      -8.222   0.935 -34.410  1.00  0.00     0.270 C 
HETATM   14  O   UNL     1      -7.814   0.303 -35.380  1.00  0.00    -0.266 OA
HETATM   15  H   UNL     1      -7.783   2.135 -32.769  1.00  0.00     0.163 HD
BRANCH  13  16
HETATM   16  C   UNL     1      -9.674   0.968 -34.098  1.00  0.00     0.120 A 
HETATM   17  N   UNL     1     -10.539   1.706 -34.878  1.00  0.00    -0.303 N 
HETATM   18  C   UNL     1     -11.836   1.589 -34.377  1.00  0.00     0.324 A 
HETATM   19  H   UNL     1     -10.265   2.252 -35.682  1.00  0.00     0.171 HD
HETATM   20  O   UNL     1     -12.853   2.102 -34.801  1.00  0.00    -0.247 OA
HETATM   21  N   UNL     1     -11.705   0.744 -33.266  1.00  0.00    -0.316 N 
HETATM   22  C   UNL     1     -10.387   0.385 -33.120  1.00  0.00     0.128 A 
HETATM   23  H   UNL     1     -12.485   0.475 -32.686  1.00  0.00     0.170 HD
ENDBRANCH  13  16
ENDBRANCH  11  12
BRANCH   1  24
HETATM   24  C   UNL     1      -3.580   5.573 -31.668  1.00  0.00     0.064 A 
HETATM   25  C   UNL     1      -2.206   5.764 -31.950  1.00  0.00    -0.033 A 
HETATM   26  C   UNL     1      -1.484   5.098 -33.094  1.00  0.00     0.050 C 
HETATM   27  C   UNL     1      -1.452   6.602 -31.108  1.00  0.00     0.009 A 
HETATM   28  C   UNL     1      -2.033   7.231 -30.007  1.00  0.00     0.001 A 
HETATM   29  C   UNL     1      -3.384   7.049 -29.741  1.00  0.00     0.002 A 
HETATM   30  C   UNL     1      -4.156   6.231 -30.569  1.00  0.00     0.032 A 
ENDBRANCH   1  24
TORSDOF 3
ENDMDL
MODEL 6
REMARK VINA RESULT:      -7.9      2.884      8.041
REMARK  3 active torsions:
REMARK  status: ('A' for Active; 'I' for Inactive)
REMARK    1  A    between atoms: C_3  and  N_4 
REMARK    2  A    between atoms: C_14  and  N_15 
REMARK       I    between atoms: N_15  and  C_16 
REMARK    3  A    between atoms: C_16  and  C_17 
ROOT
HETATM    1  N   UNL     1      -5.338   3.185 -33.013  1.00  0.00    -0.237 N 
HETATM    2  N   UNL     1      -5.469   1.964 -33.602  1.00  0.00    -0.179 NA
HETATM    3  C   UNL     1      -6.604   1.458 -33.129  1.00  0.00     0.150 A 
HETATM    4  C   UNL     1      -7.237   2.323 -32.231  1.00  0.00     0.008 A 
HETATM    5  C   UNL     1      -6.426   3.444 -32.186  1.00  0.00     0.047 A 
HETATM    6  C   UNL     1      -6.602   4.576 -31.223  1.00  0.00     0.069 C 
HETATM    7  C   UNL     1      -8.048   4.599 -30.636  1.00  0.00    -0.040 C 
HETATM    8  C   UNL     1      -9.014   5.264 -31.639  1.00  0.00     0.015 C 
HETATM    9  C   UNL     1      -8.043   5.457 -29.354  1.00  0.00     0.015 C 
HETATM   10  C   UNL     1      -8.527   3.161 -30.262  1.00  0.00     0.039 C 
HETATM   11  C   UNL     1      -8.456   2.119 -31.405  1.00  0.00     0.122 C 
ENDROOT
BRANCH  11  12
HETATM   12  N   UNL     1      -9.610   2.165 -32.281  1.00  0.00    -0.347 N 
HETATM   13  C   UNL     1     -10.124   1.017 -32.826  1.00  0.00     0.270 C 
HETATM   14  O   UNL     1      -9.670  -0.102 -32.608  1.00  0.00    -0.266 OA
HETATM   15  H   UNL     1     -10.029   3.064 -32.470  1.00  0.00     0.163 HD
BRANCH  13  16
HETATM   16  C   UNL     1     -11.287   1.187 -33.733  1.00  0.00     0.120 A 
HETATM   17  N   UNL     1     -11.170   1.935 -34.886  1.00  0.00    -0.303 N 
HETATM   18  C   UNL     1     -12.394   1.957 -35.556  1.00  0.00     0.324 A 
HETATM   19  H   UNL     1     -10.327   2.400 -35.186  1.00  0.00     0.171 HD
HETATM   20  O   UNL     1     -12.669   2.518 -36.598  1.00  0.00    -0.247 OA
HETATM   21  N   UNL     1     -13.244   1.184 -34.752  1.00  0.00    -0.316 N 
HETATM   22  C   UNL     1     -12.549   0.732 -33.656  1.00  0.00     0.128 A 
HETATM   23  H   UNL     1     -14.213   1.018 -34.979  1.00  0.00     0.170 HD
ENDBRANCH  13  16
ENDBRANCH  11  12
BRANCH   1  24
HETATM   24  C   UNL     1      -4.196   3.993 -33.290  1.00  0.00     0.064 A 
HETATM   25  C   UNL     1      -3.012   3.887 -32.522  1.00  0.00    -0.033 A 
HETATM   26  C   UNL     1      -2.862   2.970 -31.335  1.00  0.00     0.050 C 
HETATM   27  C   UNL     1      -1.911   4.697 -32.859  1.00  0.00     0.009 A 
HETATM   28  C   UNL     1      -1.975   5.597 -33.922  1.00  0.00     0.001 A 
HETATM   29  C   UNL     1      -3.135   5.689 -34.680  1.00  0.00     0.002 A 
HETATM   30  C   UNL     1      -4.237   4.888 -34.372  1.00  0.00     0.032 A 
ENDBRANCH   1  24
TORSDOF 3
ENDMDL
MODEL 7
REMARK VINA RESULT:      -7.8      4.858     10.264
REMARK  3 active torsions:
REMARK  status: ('A' for Active; 'I' for Inactive)
REMARK    1  A    between atoms: C_3  and  N_4 
REMARK    2  A    between atoms: C_14  and  N_15 
REMARK       I    between atoms: N_15  and  C_16 
REMARK    3  A    between atoms: C_16  and  C_17 
ROOT
HETATM    1  N   UNL     1      -1.898   7.694 -28.503  1.00  0.00    -0.237 N 
HETATM    2  N   UNL     1      -2.997   7.436 -27.739  1.00  0.00    -0.179 NA
HETATM    3  C   UNL     1      -3.850   6.806 -28.541  1.00  0.00     0.150 A 
HETATM    4  C   UNL     1      -3.339   6.636 -29.832  1.00  0.00     0.008 A 
HETATM    5  C   UNL     1      -2.070   7.188 -29.786  1.00  0.00     0.047 A 
HETATM    6  C   UNL     1      -1.197   7.399 -30.984  1.00  0.00     0.069 C 
HETATM    7  C   UNL     1      -1.646   6.497 -32.177  1.00  0.00    -0.040 C 
HETATM    8  C   UNL     1      -1.097   5.068 -31.993  1.00  0.00     0.015 C 
HETATM    9  C   UNL     1      -1.040   7.066 -33.476  1.00  0.00     0.015 C 
HETATM   10  C   UNL     1      -3.201   6.489 -32.322  1.00  0.00     0.039 C 
HETATM   11  C   UNL     1      -3.985   6.083 -31.051  1.00  0.00     0.122 C 
ENDROOT
BRANCH  11  12
HETATM   12  N   UNL     1      -4.094   4.646 -30.892  1.00  0.00    -0.347 N 
HETATM   13  C   UNL     1      -5.320   4.044 -30.775  1.00  0.00     0.270 C 
HETATM   14  O   UNL     1      -6.384   4.654 -30.808  1.00  0.00    -0.266 OA
HETATM   15  H   UNL     1      -3.243   4.102 -30.882  1.00  0.00     0.163 HD
BRANCH  13  16
HETATM   16  C   UNL     1      -5.310   2.571 -30.586  1.00  0.00     0.120 A 
HETATM   17  N   UNL     1      -4.266   1.811 -31.071  1.00  0.00    -0.303 N 
HETATM   18  C   UNL     1      -4.494   0.465 -30.784  1.00  0.00     0.324 A 
HETATM   19  H   UNL     1      -3.468   2.181 -31.566  1.00  0.00     0.171 HD
HETATM   20  O   UNL     1      -3.795  -0.489 -31.061  1.00  0.00    -0.247 OA
HETATM   21  N   UNL     1      -5.718   0.457 -30.100  1.00  0.00    -0.316 N 
HETATM   22  C   UNL     1      -6.190   1.744 -29.997  1.00  0.00     0.128 A 
HETATM   23  H   UNL     1      -6.153  -0.388 -29.763  1.00  0.00     0.170 HD
ENDBRANCH  13  16
ENDBRANCH  11  12
BRANCH   1  24
HETATM   24  C   UNL     1      -0.788   8.394 -27.943  1.00  0.00     0.064 A 
HETATM   25  C   UNL     1       0.461   7.760 -27.746  1.00  0.00    -0.033 A 
HETATM   26  C   UNL     1       0.724   6.308 -28.053  1.00  0.00     0.050 C 
HETATM   27  C   UNL     1       1.525   8.511 -27.210  1.00  0.00     0.009 A 
HETATM   28  C   UNL     1       1.360   9.853 -26.866  1.00  0.00     0.001 A 
HETATM   29  C   UNL     1       0.134  10.473 -27.072  1.00  0.00     0.002 A 
HETATM   30  C   UNL     1      -0.932   9.752 -27.614  1.00  0.00     0.032 A 
ENDBRANCH   1  24
TORSDOF 3
ENDMDL
MODEL 8
REMARK VINA RESULT:      -7.8      3.333      8.141
REMARK  3 active torsions:
REMARK  status: ('A' for Active; 'I' for Inactive)
REMARK    1  A    between atoms: C_3  and  N_4 
REMARK    2  A    between atoms: C_14  and  N_15 
REMARK       I    between atoms: N_15  and  C_16 
REMARK    3  A    between atoms: C_16  and  C_17 
ROOT
HETATM    1  N   UNL     1      -4.190   5.154 -32.864  1.00  0.00    -0.237 N 
HETATM    2  N   UNL     1      -5.108   5.878 -33.563  1.00  0.00    -0.179 NA
HETATM    3  C   UNL     1      -6.156   5.074 -33.716  1.00  0.00     0.150 A 
HETATM    4  C   UNL     1      -5.955   3.821 -33.128  1.00  0.00     0.008 A 
HETATM    5  C   UNL     1      -4.695   3.895 -32.559  1.00  0.00     0.047 A 
HETATM    6  C   UNL     1      -3.969   2.730 -31.963  1.00  0.00     0.069 C 
HETATM    7  C   UNL     1      -4.953   1.572 -31.606  1.00  0.00    -0.040 C 
HETATM    8  C   UNL     1      -5.645   1.865 -30.258  1.00  0.00     0.015 C 
HETATM    9  C   UNL     1      -4.140   0.272 -31.438  1.00  0.00     0.015 C 
HETATM   10  C   UNL     1      -6.001   1.354 -32.742  1.00  0.00     0.039 C 
HETATM   11  C   UNL     1      -6.813   2.607 -33.147  1.00  0.00     0.122 C 
ENDROOT
BRANCH  11  12
HETATM   12  N   UNL     1      -7.951   2.844 -32.282  1.00  0.00    -0.347 N 
HETATM   13  C   UNL     1      -9.189   3.110 -32.807  1.00  0.00     0.270 C 
HETATM   14  O   UNL     1      -9.423   3.152 -34.012  1.00  0.00    -0.266 OA
HETATM   15  H   UNL     1      -7.809   2.798 -31.283  1.00  0.00     0.163 HD
BRANCH  13  16
HETATM   16  C   UNL     1     -10.275   3.367 -31.828  1.00  0.00     0.120 A 
HETATM   17  N   UNL     1     -11.597   3.271 -32.209  1.00  0.00    -0.303 N 
HETATM   18  C   UNL     1     -12.421   3.571 -31.124  1.00  0.00     0.324 A 
HETATM   19  H   UNL     1     -11.911   3.029 -33.137  1.00  0.00     0.171 HD
HETATM   20  O   UNL     1     -13.635   3.593 -31.087  1.00  0.00    -0.247 OA
HETATM   21  N   UNL     1     -11.530   3.846 -30.077  1.00  0.00    -0.316 N 
HETATM   22  C   UNL     1     -10.239   3.717 -30.531  1.00  0.00     0.128 A 
HETATM   23  H   UNL     1     -11.834   4.103 -29.150  1.00  0.00     0.170 HD
ENDBRANCH  13  16
ENDBRANCH  11  12
BRANCH   1  24
HETATM   24  C   UNL     1      -2.920   5.723 -32.549  1.00  0.00     0.064 A 
HETATM   25  C   UNL     1      -1.837   5.659 -33.456  1.00  0.00    -0.033 A 
HETATM   26  C   UNL     1      -1.898   4.957 -34.789  1.00  0.00     0.050 C 
HETATM   27  C   UNL     1      -0.615   6.259 -33.096  1.00  0.00     0.009 A 
HETATM   28  C   UNL     1      -0.461   6.901 -31.868  1.00  0.00     0.001 A 
HETATM   29  C   UNL     1      -1.531   6.972 -30.985  1.00  0.00     0.002 A 
HETATM   30  C   UNL     1      -2.756   6.393 -31.325  1.00  0.00     0.032 A 
ENDBRANCH   1  24
TORSDOF 3
ENDMDL
MODEL 9
REMARK VINA RESULT:      -7.8      3.499      7.846
REMARK  3 active torsions:
REMARK  status: ('A' for Active; 'I' for Inactive)
REMARK    1  A    between atoms: C_3  and  N_4 
REMARK    2  A    between atoms: C_14  and  N_15 
REMARK       I    between atoms: N_15  and  C_16 
REMARK    3  A    between atoms: C_16  and  C_17 
ROOT
HETATM    1  N   UNL     1      -3.284   4.484 -31.503  1.00  0.00    -0.237 N 
HETATM    2  N   UNL     1      -2.475   3.388 -31.493  1.00  0.00    -0.179 NA
HETATM    3  C   UNL     1      -3.271   2.359 -31.217  1.00  0.00     0.150 A 
HETATM    4  C   UNL     1      -4.602   2.749 -31.043  1.00  0.00     0.008 A 
HETATM    5  C   UNL     1      -4.602   4.117 -31.256  1.00  0.00     0.047 A 
HETATM    6  C   UNL     1      -5.776   5.011 -31.007  1.00  0.00     0.069 C 
HETATM    7  C   UNL     1      -7.108   4.197 -30.967  1.00  0.00    -0.040 C 
HETATM    8  C   UNL     1      -7.595   3.911 -32.403  1.00  0.00     0.015 C 
HETATM    9  C   UNL     1      -8.185   5.054 -30.272  1.00  0.00     0.015 C 
HETATM   10  C   UNL     1      -6.935   2.873 -30.157  1.00  0.00     0.039 C 
HETATM   11  C   UNL     1      -5.786   1.950 -30.630  1.00  0.00     0.122 C 
ENDROOT
BRANCH  11  12
HETATM   12  N   UNL     1      -6.168   1.101 -31.741  1.00  0.00    -0.347 N 
HETATM   13  C   UNL     1      -5.700  -0.184 -31.835  1.00  0.00     0.270 C 
HETATM   14  O   UNL     1      -4.958  -0.701 -31.005  1.00  0.00    -0.266 OA
HETATM   15  H   UNL     1      -6.795   1.479 -32.436  1.00  0.00     0.163 HD
BRANCH  13  16
HETATM   16  C   UNL     1      -6.132  -0.952 -33.030  1.00  0.00     0.120 A 
HETATM   17  N   UNL     1      -5.269  -1.841 -33.638  1.00  0.00    -0.303 N 
HETATM   18  C   UNL     1      -5.896  -2.422 -34.740  1.00  0.00     0.324 A 
HETATM   19  H   UNL     1      -4.327  -2.028 -33.330  1.00  0.00     0.171 HD
HETATM   20  O   UNL     1      -5.445  -3.243 -35.514  1.00  0.00    -0.247 OA
HETATM   21  N   UNL     1      -7.174  -1.844 -34.759  1.00  0.00    -0.316 N 
HETATM   22  C   UNL     1      -7.288  -0.958 -33.715  1.00  0.00     0.128 A 
HETATM   23  H   UNL     1      -7.868  -2.068 -35.456  1.00  0.00     0.170 HD
ENDBRANCH  13  16
ENDBRANCH  11  12
BRANCH   1  24
HETATM   24  C   UNL     1      -2.732   5.777 -31.747  1.00  0.00     0.064 A 
HETATM   25  C   UNL     1      -2.501   6.245 -33.062  1.00  0.00    -0.033 A 
HETATM   26  C   UNL     1      -2.762   5.428 -34.302  1.00  0.00     0.050 C 
HETATM   27  C   UNL     1      -1.974   7.539 -33.238  1.00  0.00     0.009 A 
HETATM   28  C   UNL     1      -1.672   8.350 -32.144  1.00  0.00     0.001 A 
HETATM   29  C   UNL     1      -1.912   7.890 -30.855  1.00  0.00     0.002 A 
HETATM   30  C   UNL     1      -2.445   6.614 -30.657  1.00  0.00     0.032 A 
ENDBRANCH   1  24
TORSDOF 3
ENDMDL
MODEL 10
REMARK VINA RESULT:      -7.8     16.113     18.166
REMARK  3 active torsions:
REMARK  status: ('A' for Active; 'I' for Inactive)
REMARK    1  A    between atoms: C_3  and  N_4 
REMARK    2  A    between atoms: C_14  and  N_15 
REMARK       I    between atoms: N_15  and  C_16 
REMARK    3  A    between atoms: C_16  and  C_17 
ROOT
HETATM    1  N   UNL     1      -4.639 -13.906 -39.696  1.00  0.00    -0.237 N 
HETATM    2  N   UNL     1      -3.864 -13.088 -38.930  1.00  0.00    -0.179 NA
HETATM    3  C   UNL     1      -4.580 -12.834 -37.839  1.00  0.00     0.150 A 
HETATM    4  C   UNL     1      -5.824 -13.472 -37.860  1.00  0.00     0.008 A 
HETATM    5  C   UNL     1      -5.839 -14.181 -39.049  1.00  0.00     0.047 A 
HETATM    6  C   UNL     1      -7.041 -14.885 -39.598  1.00  0.00     0.069 C 
HETATM    7  C   UNL     1      -8.098 -15.154 -38.481  1.00  0.00    -0.040 C 
HETATM    8  C   UNL     1      -7.701 -16.404 -37.669  1.00  0.00     0.015 C 
HETATM    9  C   UNL     1      -9.456 -15.445 -39.152  1.00  0.00     0.015 C 
HETATM   10  C   UNL     1      -8.265 -13.909 -37.553  1.00  0.00     0.039 C 
HETATM   11  C   UNL     1      -6.961 -13.383 -36.906  1.00  0.00     0.122 C 
ENDROOT
BRANCH  11  12
HETATM   12  N   UNL     1      -6.598 -14.105 -35.703  1.00  0.00    -0.347 N 
HETATM   13  C   UNL     1      -6.971 -13.642 -34.467  1.00  0.00     0.270 C 
HETATM   14  O   UNL     1      -7.630 -12.621 -34.293  1.00  0.00    -0.266 OA
HETATM   15  H   UNL     1      -6.074 -14.962 -35.801  1.00  0.00     0.163 HD
BRANCH  13  16
HETATM   16  C   UNL     1      -6.518 -14.445 -33.303  1.00  0.00     0.120 A 
HETATM   17  N   UNL     1      -5.344 -14.131 -32.652  1.00  0.00    -0.303 N 
HETATM   18  C   UNL     1      -5.130 -15.033 -31.610  1.00  0.00     0.324 A 
HETATM   19  H   UNL     1      -4.733 -13.368 -32.904  1.00  0.00     0.171 HD
HETATM   20  O   UNL     1      -4.201 -15.070 -30.828  1.00  0.00    -0.247 OA
HETATM   21  N   UNL     1      -6.233 -15.897 -31.666  1.00  0.00    -0.316 N 
HETATM   22  C   UNL     1      -7.055 -15.519 -32.700  1.00  0.00     0.128 A 
HETATM   23  H   UNL     1      -6.359 -16.670 -31.030  1.00  0.00     0.170 HD
ENDBRANCH  13  16
ENDBRANCH  11  12
BRANCH   1  24
HETATM   24  C   UNL     1      -4.169 -14.352 -40.967  1.00  0.00     0.064 A 
HETATM   25  C   UNL     1      -3.062 -15.225 -41.080  1.00  0.00    -0.033 A 
HETATM   26  C   UNL     1      -2.259 -15.720 -39.904  1.00  0.00     0.050 C 
HETATM   27  C   UNL     1      -2.660 -15.646 -42.362  1.00  0.00     0.009 A 
HETATM   28  C   UNL     1      -3.326 -15.210 -43.507  1.00  0.00     0.001 A 
HETATM   29  C   UNL     1      -4.420 -14.362 -43.390  1.00  0.00     0.002 A 
HETATM   30  C   UNL     1      -4.844 -13.940 -42.128  1.00  0.00     0.032 A 
ENDBRANCH   1  24
TORSDOF 3
ENDMDL
