MODEL 1
REMARK VINA RESULT:      -9.2      0.000      0.000
REMARK  8 active torsions:
REMARK  status: ('A' for Active; 'I' for Inactive)
REMARK    1  A    between atoms: C_4  and  C_5 
REMARK    2  A    between atoms: C_9  and  C_10 
REMARK       I    between atoms: C_10  and  N_11 
REMARK    3  A    between atoms: N_11  and  C_12 
REMARK    4  A    between atoms: C_12  and  C_13 
REMARK    5  A    between atoms: C_13  and  C_14 
REMARK    6  A    between atoms: C_14  and  C_15 
REMARK    7  A    between atoms: C_15  and  O_16 
REMARK    8  A    between atoms: O_16  and  C_17 
ROOT
HETATM    1  C   UNL     1      -6.916   2.786 -33.889  1.00  0.00     0.270 C 
HETATM    2  N   UNL     1      -5.773   3.478 -34.194  1.00  0.00    -0.345 N 
HETATM    3  O   UNL     1      -7.896   3.320 -33.380  1.00  0.00    -0.266 OA
HETATM    4  H   UNL     1      -5.034   3.027 -34.710  1.00  0.00     0.163 HD
ENDROOT
BRANCH   2   5
HETATM    5  C   UNL     1      -5.681   4.898 -33.977  1.00  0.00     0.217 C 
BRANCH   5   6
HETATM    6  C   UNL     1      -4.239   5.328 -34.187  1.00  0.00    -0.085 C 
BRANCH   6   7
HETATM    7  C   UNL     1      -3.002   5.698 -34.367  1.00  0.00    -0.078 C 
BRANCH   7   8
HETATM    8  C   UNL     1      -1.559   6.129 -34.578  1.00  0.00     0.269 C 
BRANCH   8   9
HETATM    9  O   UNL     1      -1.371   7.397 -33.955  1.00  0.00    -0.339 OA
BRANCH   9  10
HETATM   10  C   UNL     1      -1.226   7.403 -32.595  1.00  0.00     0.072 A 
HETATM   11  C   UNL     1      -0.403   6.555 -31.851  1.00  0.00     0.069 A 
HETATM   12  C   UNL     1      -0.331   6.639 -30.465  1.00  0.00     0.069 A 
HETATM   13  C   UNL     1      -1.111   7.612 -29.806  1.00  0.00    -0.007 A 
HETATM   14  N   UNL     1       0.476   5.795 -29.798  1.00  0.00    -0.260 NA
HETATM   15  C   UNL     1      -1.936   8.472 -30.546  1.00  0.00     0.016 A 
HETATM   16  C   UNL     1      -1.031   7.687 -28.410  1.00  0.00     0.015 A 
HETATM   17  C   UNL     1      -1.990   8.364 -31.934  1.00  0.00     0.038 A 
HETATM   18  C   UNL     1      -0.200   6.815 -27.719  1.00  0.00     0.020 A 
HETATM   19  C   UNL     1       0.527   5.895 -28.452  1.00  0.00     0.117 A 
ENDBRANCH   9  10
ENDBRANCH   8   9
ENDBRANCH   7   8
ENDBRANCH   6   7
ENDBRANCH   5   6
ENDBRANCH   2   5
BRANCH   1  20
HETATM   20  C   UNL     1      -6.888   1.389 -34.228  1.00  0.00     0.120 A 
HETATM   21  N   UNL     1      -7.817   0.831 -35.060  1.00  0.00    -0.272 N 
HETATM   22  N   UNL     1      -7.629  -0.476 -35.299  1.00  0.00    -0.174 NA
HETATM   23  H   UNL     1      -8.597   1.305 -35.507  1.00  0.00     0.189 HD
HETATM   24  C   UNL     1      -6.555  -0.804 -34.563  1.00  0.00     0.089 A 
HETATM   25  C   UNL     1      -6.061   0.341 -33.877  1.00  0.00     0.071 A 
BRANCH  24  26
HETATM   26  C   UNL     1      -6.019  -2.169 -34.537  1.00  0.00    -0.006 A 
HETATM   27  C   UNL     1      -4.689  -2.401 -34.160  1.00  0.00     0.014 A 
HETATM   28  C   UNL     1      -4.176  -3.701 -34.114  1.00  0.00     0.001 A 
HETATM   29  C   UNL     1      -4.987  -4.782 -34.450  1.00  0.00     0.000 A 
HETATM   30  C   UNL     1      -6.307  -4.566 -34.836  1.00  0.00     0.001 A 
HETATM   31  C   UNL     1      -6.822  -3.267 -34.879  1.00  0.00     0.014 A 
ENDBRANCH  24  26
ENDBRANCH   1  20
TORSDOF 8
ENDMDL
MODEL 2
REMARK VINA RESULT:      -9.1      1.692     10.289
REMARK  8 active torsions:
REMARK  status: ('A' for Active; 'I' for Inactive)
REMARK    1  A    between atoms: C_4  and  C_5 
REMARK    2  A    between atoms: C_9  and  C_10 
REMARK       I    between atoms: C_10  and  N_11 
REMARK    3  A    between atoms: N_11  and  C_12 
REMARK    4  A    between atoms: C_12  and  C_13 
REMARK    5  A    between atoms: C_13  and  C_14 
REMARK    6  A    between atoms: C_14  and  C_15 
REMARK    7  A    between atoms: C_15  and  O_16 
REMARK    8  A    between atoms: O_16  and  C_17 
ROOT
HETATM    1  C   UNL     1      -1.555   6.590 -33.332  1.00  0.00     0.270 C 
HETATM    2  N   UNL     1      -2.287   5.484 -33.678  1.00  0.00    -0.345 N 
HETATM    3  O   UNL     1      -1.498   7.592 -34.036  1.00  0.00    -0.266 OA
HETATM    4  H   UNL     1      -2.396   4.727 -33.021  1.00  0.00     0.163 HD
ENDROOT
BRANCH   2   5
HETATM    5  C   UNL     1      -3.079   5.461 -34.880  1.00  0.00     0.217 C 
BRANCH   5   6
HETATM    6  C   UNL     1      -4.495   5.041 -34.519  1.00  0.00    -0.085 C 
BRANCH   6   7
HETATM    7  C   UNL     1      -5.708   4.679 -34.209  1.00  0.00    -0.078 C 
BRANCH   7   8
HETATM    8  C   UNL     1      -7.123   4.257 -33.849  1.00  0.00     0.269 C 
BRANCH   8   9
HETATM    9  O   UNL     1      -7.051   3.211 -32.884  1.00  0.00    -0.339 OA
BRANCH   9  10
HETATM   10  C   UNL     1      -6.818   1.948 -33.356  1.00  0.00     0.072 A 
HETATM   11  C   UNL     1      -5.710   1.151 -33.062  1.00  0.00     0.069 A 
HETATM   12  C   UNL     1      -5.564  -0.123 -33.601  1.00  0.00     0.069 A 
HETATM   13  C   UNL     1      -6.569  -0.612 -34.461  1.00  0.00    -0.007 A 
HETATM   14  N   UNL     1      -4.474  -0.846 -33.287  1.00  0.00    -0.260 NA
HETATM   15  C   UNL     1      -7.688   0.181 -34.757  1.00  0.00     0.016 A 
HETATM   16  C   UNL     1      -6.411  -1.895 -34.999  1.00  0.00     0.015 A 
HETATM   17  C   UNL     1      -7.807   1.454 -34.205  1.00  0.00     0.038 A 
HETATM   18  C   UNL     1      -5.285  -2.644 -34.677  1.00  0.00     0.020 A 
HETATM   19  C   UNL     1      -4.355  -2.080 -33.825  1.00  0.00     0.117 A 
ENDBRANCH   9  10
ENDBRANCH   8   9
ENDBRANCH   7   8
ENDBRANCH   6   7
ENDBRANCH   5   6
ENDBRANCH   2   5
BRANCH   1  20
HETATM   20  C   UNL     1      -0.874   6.496 -32.070  1.00  0.00     0.120 A 
HETATM   21  N   UNL     1      -0.088   5.424 -31.754  1.00  0.00    -0.272 N 
HETATM   22  N   UNL     1       0.502   5.507 -30.551  1.00  0.00    -0.174 NA
HETATM   23  H   UNL     1       0.093   4.610 -32.335  1.00  0.00     0.189 HD
HETATM   24  C   UNL     1       0.055   6.663 -30.034  1.00  0.00     0.089 A 
HETATM   25  C   UNL     1      -0.810   7.313 -30.959  1.00  0.00     0.071 A 
BRANCH  24  26
HETATM   26  C   UNL     1       0.462   7.127 -28.704  1.00  0.00    -0.006 A 
HETATM   27  C   UNL     1       0.078   6.417 -27.558  1.00  0.00     0.014 A 
HETATM   28  C   UNL     1       0.478   6.841 -26.287  1.00  0.00     0.001 A 
HETATM   29  C   UNL     1       1.262   7.984 -26.149  1.00  0.00     0.000 A 
HETATM   30  C   UNL     1       1.643   8.705 -27.278  1.00  0.00     0.001 A 
HETATM   31  C   UNL     1       1.247   8.279 -28.549  1.00  0.00     0.014 A 
ENDBRANCH  24  26
ENDBRANCH   1  20
TORSDOF 8
ENDMDL
MODEL 3
REMARK VINA RESULT:      -9.0      0.987      1.539
REMARK  8 active torsions:
REMARK  status: ('A' for Active; 'I' for Inactive)
REMARK    1  A    between atoms: C_4  and  C_5 
REMARK    2  A    between atoms: C_9  and  C_10 
REMARK       I    between atoms: C_10  and  N_11 
REMARK    3  A    between atoms: N_11  and  C_12 
REMARK    4  A    between atoms: C_12  and  C_13 
REMARK    5  A    between atoms: C_13  and  C_14 
REMARK    6  A    between atoms: C_14  and  C_15 
REMARK    7  A    between atoms: C_15  and  O_16 
REMARK    8  A    between atoms: O_16  and  C_17 
ROOT
HETATM    1  C   UNL     1      -7.011   2.807 -33.928  1.00  0.00     0.270 C 
HETATM    2  N   UNL     1      -5.826   3.481 -34.075  1.00  0.00    -0.345 N 
HETATM    3  O   UNL     1      -8.043   3.359 -33.565  1.00  0.00    -0.266 OA
HETATM    4  H   UNL     1      -5.029   3.014 -34.480  1.00  0.00     0.163 HD
ENDROOT
BRANCH   2   5
HETATM    5  C   UNL     1      -5.745   4.901 -33.859  1.00  0.00     0.217 C 
BRANCH   5   6
HETATM    6  C   UNL     1      -4.307   5.344 -34.081  1.00  0.00    -0.085 C 
BRANCH   6   7
HETATM    7  C   UNL     1      -3.075   5.723 -34.273  1.00  0.00    -0.078 C 
BRANCH   7   8
HETATM    8  C   UNL     1      -1.638   6.165 -34.497  1.00  0.00     0.269 C 
BRANCH   8   9
HETATM    9  O   UNL     1      -1.484   7.482 -33.973  1.00  0.00    -0.339 OA
BRANCH   9  10
HETATM   10  C   UNL     1      -1.317   7.595 -32.621  1.00  0.00     0.072 A 
HETATM   11  C   UNL     1      -2.089   8.377 -31.758  1.00  0.00     0.069 A 
HETATM   12  C   UNL     1      -1.833   8.427 -30.392  1.00  0.00     0.069 A 
HETATM   13  C   UNL     1      -0.764   7.664 -29.877  1.00  0.00    -0.007 A 
HETATM   14  N   UNL     1      -2.606   9.199 -29.609  1.00  0.00    -0.260 NA
HETATM   15  C   UNL     1       0.014   6.873 -30.736  1.00  0.00     0.016 A 
HETATM   16  C   UNL     1      -0.514   7.725 -28.501  1.00  0.00     0.015 A 
HETATM   17  C   UNL     1      -0.265   6.842 -32.100  1.00  0.00     0.038 A 
HETATM   18  C   UNL     1      -1.310   8.523 -27.689  1.00  0.00     0.020 A 
HETATM   19  C   UNL     1      -2.335   9.234 -28.285  1.00  0.00     0.117 A 
ENDBRANCH   9  10
ENDBRANCH   8   9
ENDBRANCH   7   8
ENDBRANCH   6   7
ENDBRANCH   5   6
ENDBRANCH   2   5
BRANCH   1  20
HETATM   20  C   UNL     1      -6.956   1.407 -34.248  1.00  0.00     0.120 A 
HETATM   21  N   UNL     1      -7.884   0.816 -35.059  1.00  0.00    -0.272 N 
HETATM   22  N   UNL     1      -7.669  -0.489 -35.283  1.00  0.00    -0.174 NA
HETATM   23  H   UNL     1      -8.680   1.267 -35.501  1.00  0.00     0.189 HD
HETATM   24  C   UNL     1      -6.578  -0.783 -34.559  1.00  0.00     0.089 A 
HETATM   25  C   UNL     1      -6.100   0.382 -33.895  1.00  0.00     0.071 A 
BRANCH  24  26
HETATM   26  C   UNL     1      -6.012  -2.135 -34.522  1.00  0.00    -0.006 A 
HETATM   27  C   UNL     1      -4.682  -2.336 -34.123  1.00  0.00     0.014 A 
HETATM   28  C   UNL     1      -4.140  -3.623 -34.067  1.00  0.00     0.001 A 
HETATM   29  C   UNL     1      -4.920  -4.724 -34.415  1.00  0.00     0.000 A 
HETATM   30  C   UNL     1      -6.239  -4.538 -34.821  1.00  0.00     0.001 A 
HETATM   31  C   UNL     1      -6.783  -3.252 -34.875  1.00  0.00     0.014 A 
ENDBRANCH  24  26
ENDBRANCH   1  20
TORSDOF 8
ENDMDL
MODEL 4
REMARK VINA RESULT:      -8.9      2.427     11.763
REMARK  8 active torsions:
REMARK  status: ('A' for Active; 'I' for Inactive)
REMARK    1  A    between atoms: C_4  and  C_5 
REMARK    2  A    between atoms: C_9  and  C_10 
REMARK       I    between atoms: C_10  and  N_11 
REMARK    3  A    between atoms: N_11  and  C_12 
REMARK    4  A    between atoms: C_12  and  C_13 
REMARK    5  A    between atoms: C_13  and  C_14 
REMARK    6  A    between atoms: C_14  and  C_15 
REMARK    7  A    between atoms: C_15  and  O_16 
REMARK    8  A    between atoms: O_16  and  C_17 
ROOT
HETATM    1  C   UNL     1      -0.610   6.122 -31.448  1.00  0.00     0.270 C 
HETATM    2  N   UNL     1      -1.396   5.002 -31.538  1.00  0.00    -0.345 N 
HETATM    3  O   UNL     1      -0.295   6.787 -32.428  1.00  0.00    -0.266 OA
HETATM    4  H   UNL     1      -1.723   4.548 -30.698  1.00  0.00     0.163 HD
ENDROOT
BRANCH   2   5
HETATM    5  C   UNL     1      -1.942   4.574 -32.798  1.00  0.00     0.217 C 
BRANCH   5   6
HETATM    6  C   UNL     1      -2.959   3.474 -32.538  1.00  0.00    -0.085 C 
BRANCH   6   7
HETATM    7  C   UNL     1      -3.830   2.530 -32.315  1.00  0.00    -0.078 C 
BRANCH   7   8
HETATM    8  C   UNL     1      -4.846   1.430 -32.055  1.00  0.00     0.269 C 
BRANCH   8   9
HETATM    9  O   UNL     1      -5.571   1.192 -33.259  1.00  0.00    -0.339 OA
BRANCH   9  10
HETATM   10  C   UNL     1      -5.704  -0.111 -33.654  1.00  0.00     0.072 A 
HETATM   11  C   UNL     1      -4.753  -1.121 -33.495  1.00  0.00     0.069 A 
HETATM   12  C   UNL     1      -4.985  -2.419 -33.939  1.00  0.00     0.069 A 
HETATM   13  C   UNL     1      -6.217  -2.709 -34.562  1.00  0.00    -0.007 A 
HETATM   14  N   UNL     1      -4.032  -3.351 -33.763  1.00  0.00    -0.260 NA
HETATM   15  C   UNL     1      -7.180  -1.702 -34.721  1.00  0.00     0.016 A 
HETATM   16  C   UNL     1      -6.438  -4.019 -35.006  1.00  0.00     0.015 A 
HETATM   17  C   UNL     1      -6.919  -0.410 -34.268  1.00  0.00     0.038 A 
HETATM   18  C   UNL     1      -5.455  -4.984 -34.827  1.00  0.00     0.020 A 
HETATM   19  C   UNL     1      -4.281  -4.604 -34.205  1.00  0.00     0.117 A 
ENDBRANCH   9  10
ENDBRANCH   8   9
ENDBRANCH   7   8
ENDBRANCH   6   7
ENDBRANCH   5   6
ENDBRANCH   2   5
BRANCH   1  20
HETATM   20  C   UNL     1      -0.198   6.469 -30.115  1.00  0.00     0.120 A 
HETATM   21  N   UNL     1      -0.093   5.532 -29.127  1.00  0.00    -0.272 N 
HETATM   22  N   UNL     1       0.335   6.016 -27.951  1.00  0.00    -0.174 NA
HETATM   23  H   UNL     1      -0.288   4.538 -29.208  1.00  0.00     0.189 HD
HETATM   24  C   UNL     1       0.481   7.334 -28.160  1.00  0.00     0.089 A 
HETATM   25  C   UNL     1       0.156   7.657 -29.507  1.00  0.00     0.071 A 
BRANCH  24  26
HETATM   26  C   UNL     1       0.930   8.243 -27.101  1.00  0.00    -0.006 A 
HETATM   27  C   UNL     1       0.361   9.517 -26.971  1.00  0.00     0.014 A 
HETATM   28  C   UNL     1       0.770  10.382 -25.952  1.00  0.00     0.001 A 
HETATM   29  C   UNL     1       1.758   9.984 -25.055  1.00  0.00     0.000 A 
HETATM   30  C   UNL     1       2.340   8.725 -25.177  1.00  0.00     0.001 A 
HETATM   31  C   UNL     1       1.929   7.858 -26.194  1.00  0.00     0.014 A 
ENDBRANCH  24  26
ENDBRANCH   1  20
TORSDOF 8
ENDMDL
MODEL 5
REMARK VINA RESULT:      -8.6      2.365      2.737
REMARK  8 active torsions:
REMARK  status: ('A' for Active; 'I' for Inactive)
REMARK    1  A    between atoms: C_4  and  C_5 
REMARK    2  A    between atoms: C_9  and  C_10 
REMARK       I    between atoms: C_10  and  N_11 
REMARK    3  A    between atoms: N_11  and  C_12 
REMARK    4  A    between atoms: C_12  and  C_13 
REMARK    5  A    between atoms: C_13  and  C_14 
REMARK    6  A    between atoms: C_14  and  C_15 
REMARK    7  A    between atoms: C_15  and  O_16 
REMARK    8  A    between atoms: O_16  and  C_17 
ROOT
HETATM    1  C   UNL     1      -3.663   1.643 -31.743  1.00  0.00     0.270 C 
HETATM    2  N   UNL     1      -4.808   2.366 -31.956  1.00  0.00    -0.345 N 
HETATM    3  O   UNL     1      -2.654   2.135 -31.252  1.00  0.00    -0.266 OA
HETATM    4  H   UNL     1      -5.649   1.899 -32.259  1.00  0.00     0.163 HD
ENDROOT
BRANCH   2   5
HETATM    5  C   UNL     1      -4.902   3.747 -31.561  1.00  0.00     0.217 C 
BRANCH   5   6
HETATM    6  C   UNL     1      -4.229   4.601 -32.623  1.00  0.00    -0.085 C 
BRANCH   6   7
HETATM    7  C   UNL     1      -3.652   5.335 -33.534  1.00  0.00    -0.078 C 
BRANCH   7   8
HETATM    8  C   UNL     1      -2.980   6.190 -34.595  1.00  0.00     0.269 C 
BRANCH   8   9
HETATM    9  O   UNL     1      -1.570   6.128 -34.399  1.00  0.00    -0.339 OA
BRANCH   9  10
HETATM   10  C   UNL     1      -1.117   6.276 -33.117  1.00  0.00     0.072 A 
HETATM   11  C   UNL     1      -0.485   5.295 -32.349  1.00  0.00     0.069 A 
HETATM   12  C   UNL     1      -0.065   5.545 -31.047  1.00  0.00     0.069 A 
HETATM   13  C   UNL     1      -0.286   6.827 -30.501  1.00  0.00    -0.007 A 
HETATM   14  N   UNL     1       0.535   4.563 -30.352  1.00  0.00    -0.260 NA
HETATM   15  C   UNL     1      -0.916   7.820 -31.267  1.00  0.00     0.016 A 
HETATM   16  C   UNL     1       0.139   7.067 -29.188  1.00  0.00     0.015 A 
HETATM   17  C   UNL     1      -1.327   7.540 -32.568  1.00  0.00     0.038 A 
HETATM   18  C   UNL     1       0.758   6.053 -28.467  1.00  0.00     0.020 A 
HETATM   19  C   UNL     1       0.932   4.831 -29.088  1.00  0.00     0.117 A 
ENDBRANCH   9  10
ENDBRANCH   8   9
ENDBRANCH   7   8
ENDBRANCH   6   7
ENDBRANCH   5   6
ENDBRANCH   2   5
BRANCH   1  20
HETATM   20  C   UNL     1      -3.741   0.258 -32.121  1.00  0.00     0.120 A 
HETATM   21  N   UNL     1      -2.966  -0.696 -31.526  1.00  0.00    -0.272 N 
HETATM   22  N   UNL     1      -3.185  -1.943 -31.972  1.00  0.00    -0.174 NA
HETATM   23  H   UNL     1      -2.278  -0.550 -30.793  1.00  0.00     0.189 HD
HETATM   24  C   UNL     1      -4.115  -1.801 -32.930  1.00  0.00     0.089 A 
HETATM   25  C   UNL     1      -4.490  -0.434 -33.052  1.00  0.00     0.071 A 
BRANCH  24  26
HETATM   26  C   UNL     1      -4.630  -2.946 -33.687  1.00  0.00    -0.006 A 
HETATM   27  C   UNL     1      -5.763  -2.806 -34.502  1.00  0.00     0.014 A 
HETATM   28  C   UNL     1      -6.249  -3.888 -35.241  1.00  0.00     0.001 A 
HETATM   29  C   UNL     1      -5.611  -5.124 -35.170  1.00  0.00     0.000 A 
HETATM   30  C   UNL     1      -4.491  -5.281 -34.357  1.00  0.00     0.001 A 
HETATM   31  C   UNL     1      -4.002  -4.199 -33.620  1.00  0.00     0.014 A 
ENDBRANCH  24  26
ENDBRANCH   1  20
TORSDOF 8
ENDMDL
MODEL 6
REMARK VINA RESULT:      -8.5      1.683     10.862
REMARK  8 active torsions:
REMARK  status: ('A' for Active; 'I' for Inactive)
REMARK    1  A    between atoms: C_4  and  C_5 
REMARK    2  A    between atoms: C_9  and  C_10 
REMARK       I    between atoms: C_10  and  N_11 
REMARK    3  A    between atoms: N_11  and  C_12 
REMARK    4  A    between atoms: C_12  and  C_13 
REMARK    5  A    between atoms: C_13  and  C_14 
REMARK    6  A    between atoms: C_14  and  C_15 
REMARK    7  A    between atoms: C_15  and  O_16 
REMARK    8  A    between atoms: O_16  and  C_17 
ROOT
HETATM    1  C   UNL     1      -2.199   6.474 -32.863  1.00  0.00     0.270 C 
HETATM    2  N   UNL     1      -3.316   5.713 -32.634  1.00  0.00    -0.345 N 
HETATM    3  O   UNL     1      -2.015   7.077 -33.914  1.00  0.00    -0.266 OA
HETATM    4  H   UNL     1      -3.482   5.325 -31.719  1.00  0.00     0.163 HD
ENDROOT
BRANCH   2   5
HETATM    5  C   UNL     1      -4.370   5.623 -33.611  1.00  0.00     0.217 C 
BRANCH   5   6
HETATM    6  C   UNL     1      -5.122   4.320 -33.394  1.00  0.00    -0.085 C 
BRANCH   6   7
HETATM    7  C   UNL     1      -5.767   3.203 -33.209  1.00  0.00    -0.078 C 
BRANCH   7   8
HETATM    8  C   UNL     1      -6.518   1.899 -32.993  1.00  0.00     0.269 C 
BRANCH   8   9
HETATM    9  O   UNL     1      -6.487   1.154 -34.207  1.00  0.00    -0.339 OA
BRANCH   9  10
HETATM   10  C   UNL     1      -5.957  -0.106 -34.147  1.00  0.00     0.072 A 
HETATM   11  C   UNL     1      -6.535  -1.268 -34.664  1.00  0.00     0.069 A 
HETATM   12  C   UNL     1      -5.915  -2.506 -34.545  1.00  0.00     0.069 A 
HETATM   13  C   UNL     1      -4.669  -2.578 -33.887  1.00  0.00    -0.007 A 
HETATM   14  N   UNL     1      -6.518  -3.593 -35.059  1.00  0.00    -0.260 NA
HETATM   15  C   UNL     1      -4.080  -1.415 -33.369  1.00  0.00     0.016 A 
HETATM   16  C   UNL     1      -4.055  -3.830 -33.771  1.00  0.00     0.015 A 
HETATM   17  C   UNL     1      -4.725  -0.187 -33.501  1.00  0.00     0.038 A 
HETATM   18  C   UNL     1      -4.676  -4.955 -34.300  1.00  0.00     0.020 A 
HETATM   19  C   UNL     1      -5.895  -4.786 -34.928  1.00  0.00     0.117 A 
ENDBRANCH   9  10
ENDBRANCH   8   9
ENDBRANCH   7   8
ENDBRANCH   6   7
ENDBRANCH   5   6
ENDBRANCH   2   5
BRANCH   1  20
HETATM   20  C   UNL     1      -1.268   6.528 -31.769  1.00  0.00     0.120 A 
HETATM   21  N   UNL     1      -0.064   5.884 -31.816  1.00  0.00    -0.272 N 
HETATM   22  N   UNL     1       0.700   6.063 -30.727  1.00  0.00    -0.174 NA
HETATM   23  H   UNL     1       0.294   5.319 -32.580  1.00  0.00     0.189 HD
HETATM   24  C   UNL     1      -0.047   6.822 -29.910  1.00  0.00     0.089 A 
HETATM   25  C   UNL     1      -1.289   7.136 -30.530  1.00  0.00     0.071 A 
BRANCH  24  26
HETATM   26  C   UNL     1       0.430   7.241 -28.588  1.00  0.00    -0.006 A 
HETATM   27  C   UNL     1       1.263   8.361 -28.456  1.00  0.00     0.014 A 
HETATM   28  C   UNL     1       1.706   8.778 -27.198  1.00  0.00     0.001 A 
HETATM   29  C   UNL     1       1.325   8.075 -26.057  1.00  0.00     0.000 A 
HETATM   30  C   UNL     1       0.505   6.955 -26.173  1.00  0.00     0.001 A 
HETATM   31  C   UNL     1       0.059   6.540 -27.431  1.00  0.00     0.014 A 
ENDBRANCH  24  26
ENDBRANCH   1  20
TORSDOF 8
ENDMDL
MODEL 7
REMARK VINA RESULT:      -8.3      4.947      5.658
REMARK  8 active torsions:
REMARK  status: ('A' for Active; 'I' for Inactive)
REMARK    1  A    between atoms: C_4  and  C_5 
REMARK    2  A    between atoms: C_9  and  C_10 
REMARK       I    between atoms: C_10  and  N_11 
REMARK    3  A    between atoms: N_11  and  C_12 
REMARK    4  A    between atoms: C_12  and  C_13 
REMARK    5  A    between atoms: C_13  and  C_14 
REMARK    6  A    between atoms: C_14  and  C_15 
REMARK    7  A    between atoms: C_15  and  O_16 
REMARK    8  A    between atoms: O_16  and  C_17 
ROOT
HETATM    1  C   UNL     1      -9.553   1.392 -33.648  1.00  0.00     0.270 C 
HETATM    2  N   UNL     1     -10.183   2.096 -34.641  1.00  0.00    -0.345 N 
HETATM    3  O   UNL     1      -9.848   1.512 -32.464  1.00  0.00    -0.266 OA
HETATM    4  H   UNL     1      -9.987   1.887 -35.608  1.00  0.00     0.163 HD
ENDROOT
BRANCH   2   5
HETATM    5  C   UNL     1     -11.273   2.988 -34.345  1.00  0.00     0.217 C 
BRANCH   5   6
HETATM    6  C   UNL     1     -10.748   4.130 -33.491  1.00  0.00    -0.085 C 
BRANCH   6   7
HETATM    7  C   UNL     1     -10.297   5.109 -32.758  1.00  0.00    -0.078 C 
BRANCH   7   8
HETATM    8  C   UNL     1      -9.771   6.251 -31.904  1.00  0.00     0.269 C 
BRANCH   8   9
HETATM    9  O   UNL     1      -8.348   6.169 -31.867  1.00  0.00    -0.339 OA
BRANCH   9  10
HETATM   10  C   UNL     1      -7.805   4.951 -31.564  1.00  0.00     0.072 A 
HETATM   11  C   UNL     1      -6.984   4.186 -32.395  1.00  0.00     0.069 A 
HETATM   12  C   UNL     1      -6.486   2.951 -31.993  1.00  0.00     0.069 A 
HETATM   13  C   UNL     1      -6.823   2.472 -30.710  1.00  0.00    -0.007 A 
HETATM   14  N   UNL     1      -5.702   2.255 -32.835  1.00  0.00    -0.260 NA
HETATM   15  C   UNL     1      -7.644   3.237 -29.866  1.00  0.00     0.016 A 
HETATM   16  C   UNL     1      -6.317   1.228 -30.316  1.00  0.00     0.015 A 
HETATM   17  C   UNL     1      -8.130   4.470 -30.297  1.00  0.00     0.038 A 
HETATM   18  C   UNL     1      -5.509   0.505 -31.185  1.00  0.00     0.020 A 
HETATM   19  C   UNL     1      -5.233   1.057 -32.422  1.00  0.00     0.117 A 
ENDBRANCH   9  10
ENDBRANCH   8   9
ENDBRANCH   7   8
ENDBRANCH   6   7
ENDBRANCH   5   6
ENDBRANCH   2   5
BRANCH   1  20
HETATM   20  C   UNL     1      -8.532   0.486 -34.100  1.00  0.00     0.120 A 
HETATM   21  N   UNL     1      -7.735   0.775 -35.171  1.00  0.00    -0.272 N 
HETATM   22  N   UNL     1      -6.813  -0.161 -35.441  1.00  0.00    -0.174 NA
HETATM   23  H   UNL     1      -7.770   1.612 -35.746  1.00  0.00     0.189 HD
HETATM   24  C   UNL     1      -7.036  -1.128 -34.536  1.00  0.00     0.089 A 
HETATM   25  C   UNL     1      -8.107  -0.757 -33.676  1.00  0.00     0.071 A 
BRANCH  24  26
HETATM   26  C   UNL     1      -6.233  -2.354 -34.497  1.00  0.00    -0.006 A 
HETATM   27  C   UNL     1      -4.908  -2.320 -34.041  1.00  0.00     0.014 A 
HETATM   28  C   UNL     1      -4.142  -3.488 -33.982  1.00  0.00     0.001 A 
HETATM   29  C   UNL     1      -4.692  -4.703 -34.384  1.00  0.00     0.000 A 
HETATM   30  C   UNL     1      -6.004  -4.751 -34.849  1.00  0.00     0.001 A 
HETATM   31  C   UNL     1      -6.772  -3.584 -34.904  1.00  0.00     0.014 A 
ENDBRANCH  24  26
ENDBRANCH   1  20
TORSDOF 8
ENDMDL
MODEL 8
REMARK VINA RESULT:      -8.2      2.692     10.573
REMARK  8 active torsions:
REMARK  status: ('A' for Active; 'I' for Inactive)
REMARK    1  A    between atoms: C_4  and  C_5 
REMARK    2  A    between atoms: C_9  and  C_10 
REMARK       I    between atoms: C_10  and  N_11 
REMARK    3  A    between atoms: N_11  and  C_12 
REMARK    4  A    between atoms: C_12  and  C_13 
REMARK    5  A    between atoms: C_13  and  C_14 
REMARK    6  A    between atoms: C_14  and  C_15 
REMARK    7  A    between atoms: C_15  and  O_16 
REMARK    8  A    between atoms: O_16  and  C_17 
ROOT
HETATM    1  C   UNL     1      -0.468   5.986 -31.397  1.00  0.00     0.270 C 
HETATM    2  N   UNL     1      -0.812   7.012 -32.238  1.00  0.00    -0.345 N 
HETATM    3  O   UNL     1      -0.436   4.816 -31.761  1.00  0.00    -0.266 OA
HETATM    4  H   UNL     1      -0.719   7.968 -31.930  1.00  0.00     0.163 HD
ENDROOT
BRANCH   2   5
HETATM    5  C   UNL     1      -1.107   6.771 -33.626  1.00  0.00     0.217 C 
BRANCH   5   6
HETATM    6  C   UNL     1      -2.488   6.143 -33.726  1.00  0.00    -0.085 C 
BRANCH   6   7
HETATM    7  C   UNL     1      -3.671   5.604 -33.812  1.00  0.00    -0.078 C 
BRANCH   7   8
HETATM    8  C   UNL     1      -5.051   4.975 -33.912  1.00  0.00     0.269 C 
BRANCH   8   9
HETATM    9  O   UNL     1      -5.307   4.252 -32.711  1.00  0.00    -0.339 OA
BRANCH   9  10
HETATM   10  C   UNL     1      -5.095   2.901 -32.744  1.00  0.00     0.072 A 
HETATM   11  C   UNL     1      -4.039   2.219 -32.135  1.00  0.00     0.069 A 
HETATM   12  C   UNL     1      -3.910   0.838 -32.233  1.00  0.00     0.069 A 
HETATM   13  C   UNL     1      -4.877   0.119 -32.967  1.00  0.00    -0.007 A 
HETATM   14  N   UNL     1      -2.872   0.232 -31.629  1.00  0.00    -0.260 NA
HETATM   15  C   UNL     1      -5.943   0.797 -33.578  1.00  0.00     0.016 A 
HETATM   16  C   UNL     1      -4.736  -1.271 -33.061  1.00  0.00     0.015 A 
HETATM   17  C   UNL     1      -6.047   2.181 -33.464  1.00  0.00     0.038 A 
HETATM   18  C   UNL     1      -3.663  -1.899 -32.439  1.00  0.00     0.020 A 
HETATM   19  C   UNL     1      -2.768  -1.111 -31.742  1.00  0.00     0.117 A 
ENDBRANCH   9  10
ENDBRANCH   8   9
ENDBRANCH   7   8
ENDBRANCH   6   7
ENDBRANCH   5   6
ENDBRANCH   2   5
BRANCH   1  20
HETATM   20  C   UNL     1      -0.129   6.386 -30.058  1.00  0.00     0.120 A 
HETATM   21  N   UNL     1      -0.296   5.549 -28.992  1.00  0.00    -0.272 N 
HETATM   22  N   UNL     1       0.099   6.065 -27.818  1.00  0.00    -0.174 NA
HETATM   23  H   UNL     1      -0.664   4.602 -29.013  1.00  0.00     0.189 HD
HETATM   24  C   UNL     1       0.507   7.309 -28.115  1.00  0.00     0.089 A 
HETATM   25  C   UNL     1       0.380   7.548 -29.512  1.00  0.00     0.071 A 
BRANCH  24  26
HETATM   26  C   UNL     1       1.014   8.226 -27.089  1.00  0.00    -0.006 A 
HETATM   27  C   UNL     1       0.620   9.571 -27.082  1.00  0.00     0.014 A 
HETATM   28  C   UNL     1       1.083  10.447 -26.097  1.00  0.00     0.001 A 
HETATM   29  C   UNL     1       1.951   9.988 -25.108  1.00  0.00     0.000 A 
HETATM   30  C   UNL     1       2.358   8.656 -25.107  1.00  0.00     0.001 A 
HETATM   31  C   UNL     1       1.892   7.779 -26.090  1.00  0.00     0.014 A 
ENDBRANCH  24  26
ENDBRANCH   1  20
TORSDOF 8
ENDMDL
MODEL 9
REMARK VINA RESULT:      -8.1      3.704      6.924
REMARK  8 active torsions:
REMARK  status: ('A' for Active; 'I' for Inactive)
REMARK    1  A    between atoms: C_4  and  C_5 
REMARK    2  A    between atoms: C_9  and  C_10 
REMARK       I    between atoms: C_10  and  N_11 
REMARK    3  A    between atoms: N_11  and  C_12 
REMARK    4  A    between atoms: C_12  and  C_13 
REMARK    5  A    between atoms: C_13  and  C_14 
REMARK    6  A    between atoms: C_14  and  C_15 
REMARK    7  A    between atoms: C_15  and  O_16 
REMARK    8  A    between atoms: O_16  and  C_17 
ROOT
HETATM    1  C   UNL     1      -4.647   2.366 -32.057  1.00  0.00     0.270 C 
HETATM    2  N   UNL     1      -4.708   3.543 -32.757  1.00  0.00    -0.345 N 
HETATM    3  O   UNL     1      -4.244   2.305 -30.901  1.00  0.00    -0.266 OA
HETATM    4  H   UNL     1      -5.149   3.567 -33.664  1.00  0.00     0.163 HD
ENDROOT
BRANCH   2   5
HETATM    5  C   UNL     1      -4.345   4.794 -32.144  1.00  0.00     0.217 C 
BRANCH   5   6
HETATM    6  C   UNL     1      -5.553   5.337 -31.398  1.00  0.00    -0.085 C 
BRANCH   6   7
HETATM    7  C   UNL     1      -6.588   5.803 -30.758  1.00  0.00    -0.078 C 
BRANCH   7   8
HETATM    8  C   UNL     1      -7.796   6.347 -30.011  1.00  0.00     0.269 C 
BRANCH   8   9
HETATM    9  O   UNL     1      -8.531   5.247 -29.480  1.00  0.00    -0.339 OA
BRANCH   9  10
HETATM   10  C   UNL     1      -9.055   4.360 -30.379  1.00  0.00     0.072 A 
HETATM   11  C   UNL     1      -8.653   3.034 -30.557  1.00  0.00     0.069 A 
HETATM   12  C   UNL     1      -9.249   2.212 -31.507  1.00  0.00     0.069 A 
HETATM   13  C   UNL     1     -10.285   2.742 -32.304  1.00  0.00    -0.007 A 
HETATM   14  N   UNL     1      -8.821   0.944 -31.637  1.00  0.00    -0.260 NA
HETATM   15  C   UNL     1     -10.697   4.072 -32.129  1.00  0.00     0.016 A 
HETATM   16  C   UNL     1     -10.876   1.906 -33.259  1.00  0.00     0.015 A 
HETATM   17  C   UNL     1     -10.082   4.872 -31.170  1.00  0.00     0.038 A 
HETATM   18  C   UNL     1     -10.434   0.596 -33.397  1.00  0.00     0.020 A 
HETATM   19  C   UNL     1      -9.414   0.166 -32.570  1.00  0.00     0.117 A 
ENDBRANCH   9  10
ENDBRANCH   8   9
ENDBRANCH   7   8
ENDBRANCH   6   7
ENDBRANCH   5   6
ENDBRANCH   2   5
BRANCH   1  20
HETATM   20  C   UNL     1      -5.111   1.209 -32.775  1.00  0.00     0.120 A 
HETATM   21  N   UNL     1      -6.125   1.285 -33.687  1.00  0.00    -0.272 N 
HETATM   22  N   UNL     1      -6.412   0.122 -34.291  1.00  0.00    -0.174 NA
HETATM   23  H   UNL     1      -6.647   2.117 -33.947  1.00  0.00     0.189 HD
HETATM   24  C   UNL     1      -5.581  -0.768 -33.725  1.00  0.00     0.089 A 
HETATM   25  C   UNL     1      -4.748  -0.123 -32.769  1.00  0.00     0.071 A 
BRANCH  24  26
HETATM   26  C   UNL     1      -5.584  -2.183 -34.106  1.00  0.00    -0.006 A 
HETATM   27  C   UNL     1      -6.747  -2.778 -34.617  1.00  0.00     0.014 A 
HETATM   28  C   UNL     1      -6.753  -4.122 -35.001  1.00  0.00     0.001 A 
HETATM   29  C   UNL     1      -5.597  -4.889 -34.872  1.00  0.00     0.000 A 
HETATM   30  C   UNL     1      -4.437  -4.314 -34.357  1.00  0.00     0.001 A 
HETATM   31  C   UNL     1      -4.430  -2.970 -33.977  1.00  0.00     0.014 A 
ENDBRANCH  24  26
ENDBRANCH   1  20
TORSDOF 8
ENDMDL
MODEL 10
REMARK VINA RESULT:      -8.0     17.114     19.967
REMARK  8 active torsions:
REMARK  status: ('A' for Active; 'I' for Inactive)
REMARK    1  A    between atoms: C_4  and  C_5 
REMARK    2  A    between atoms: C_9  and  C_10 
REMARK       I    between atoms: C_10  and  N_11 
REMARK    3  A    between atoms: N_11  and  C_12 
REMARK    4  A    between atoms: C_12  and  C_13 
REMARK    5  A    between atoms: C_13  and  C_14 
REMARK    6  A    between atoms: C_14  and  C_15 
REMARK    7  A    between atoms: C_15  and  O_16 
REMARK    8  A    between atoms: O_16  and  C_17 
ROOT
HETATM    1  C   UNL     1      -3.914 -12.533 -38.222  1.00  0.00     0.270 C 
HETATM    2  N   UNL     1      -2.806 -12.122 -38.917  1.00  0.00    -0.345 N 
HETATM    3  O   UNL     1      -3.864 -12.894 -37.052  1.00  0.00    -0.266 OA
HETATM    4  H   UNL     1      -2.908 -11.729 -39.840  1.00  0.00     0.163 HD
ENDROOT
BRANCH   2   5
HETATM    5  C   UNL     1      -1.516 -12.043 -38.283  1.00  0.00     0.217 C 
BRANCH   5   6
HETATM    6  C   UNL     1      -0.757 -13.329 -38.568  1.00  0.00    -0.085 C 
BRANCH   6   7
HETATM    7  C   UNL     1      -0.106 -14.431 -38.812  1.00  0.00    -0.078 C 
BRANCH   7   8
HETATM    8  C   UNL     1       0.653 -15.717 -39.097  1.00  0.00     0.269 C 
BRANCH   8   9
HETATM    9  O   UNL     1       0.205 -16.240 -40.344  1.00  0.00    -0.339 OA
BRANCH   9  10
HETATM   10  C   UNL     1      -1.127 -16.106 -40.629  1.00  0.00     0.072 A 
HETATM   11  C   UNL     1      -1.679 -15.281 -41.612  1.00  0.00     0.069 A 
HETATM   12  C   UNL     1      -3.053 -15.213 -41.819  1.00  0.00     0.069 A 
HETATM   13  C   UNL     1      -3.898 -16.001 -41.011  1.00  0.00    -0.007 A 
HETATM   14  N   UNL     1      -3.531 -14.400 -42.778  1.00  0.00    -0.260 NA
HETATM   15  C   UNL     1      -3.351 -16.835 -40.024  1.00  0.00     0.016 A 
HETATM   16  C   UNL     1      -5.279 -15.922 -41.227  1.00  0.00     0.015 A 
HETATM   17  C   UNL     1      -1.971 -16.883 -39.838  1.00  0.00     0.038 A 
HETATM   18  C   UNL     1      -5.776 -15.082 -42.216  1.00  0.00     0.020 A 
HETATM   19  C   UNL     1      -4.870 -14.349 -42.957  1.00  0.00     0.117 A 
ENDBRANCH   9  10
ENDBRANCH   8   9
ENDBRANCH   7   8
ENDBRANCH   6   7
ENDBRANCH   5   6
ENDBRANCH   2   5
BRANCH   1  20
HETATM   20  C   UNL     1      -5.145 -12.491 -38.964  1.00  0.00     0.120 A 
HETATM   21  N   UNL     1      -5.241 -11.845 -40.164  1.00  0.00    -0.272 N 
HETATM   22  N   UNL     1      -6.450 -11.929 -40.740  1.00  0.00    -0.174 NA
HETATM   23  H   UNL     1      -4.501 -11.341 -40.645  1.00  0.00     0.189 HD
HETATM   24  C   UNL     1      -7.195 -12.624 -39.866  1.00  0.00     0.089 A 
HETATM   25  C   UNL     1      -6.410 -12.996 -38.739  1.00  0.00     0.071 A 
BRANCH  24  26
HETATM   26  C   UNL     1      -8.606 -12.930 -40.119  1.00  0.00    -0.006 A 
HETATM   27  C   UNL     1      -9.583 -11.934 -39.984  1.00  0.00     0.014 A 
HETATM   28  C   UNL     1     -10.928 -12.211 -40.242  1.00  0.00     0.001 A 
HETATM   29  C   UNL     1     -11.313 -13.492 -40.634  1.00  0.00     0.000 A 
HETATM   30  C   UNL     1     -10.355 -14.494 -40.765  1.00  0.00     0.001 A 
HETATM   31  C   UNL     1      -9.009 -14.216 -40.510  1.00  0.00     0.014 A 
ENDBRANCH  24  26
ENDBRANCH   1  20
TORSDOF 8
ENDMDL
