MODEL 1
REMARK VINA RESULT:      -8.8      0.000      0.000
REMARK  5 active torsions:
REMARK  status: ('A' for Active; 'I' for Inactive)
REMARK    1  A    between atoms: C_2  and  N_3 
REMARK       I    between atoms: N_3  and  C_4 
REMARK       I    between atoms: C_4  and  N_5 
REMARK    2  A    between atoms: C_7  and  C_8 
REMARK    3  A    between atoms: C_13  and  N_14 
REMARK       I    between atoms: N_14  and  C_15 
REMARK    4  A    between atoms: C_15  and  C_16 
REMARK    5  A    between atoms: C_19  and  O_20 
ROOT
HETATM    1  C   UNL     1      -6.317   4.643 -33.766  1.00  0.00     0.088 A 
HETATM    2  N   UNL     1      -7.215   5.627 -33.563  1.00  0.00    -0.177 NA
HETATM    3  N   UNL     1      -8.400   5.004 -33.527  1.00  0.00    -0.287 N 
HETATM    4  H   UNL     1      -9.232   5.569 -33.395  1.00  0.00     0.188 HD
HETATM    5  C   UNL     1      -8.310   3.652 -33.638  1.00  0.00     0.141 A 
HETATM    6  C   UNL     1      -6.986   3.384 -33.885  1.00  0.00     0.079 A 
ENDROOT
BRANCH   1   7
HETATM    7  C   UNL     1      -4.835   4.946 -33.628  1.00  0.00     0.060 C 
HETATM    8  C   UNL     1      -4.053   3.932 -32.780  1.00  0.00     0.138 C 
HETATM    9  N   UNL     1      -2.634   4.290 -32.678  1.00  0.00    -0.334 N 
HETATM   10  C   UNL     1      -2.222   4.988 -31.550  1.00  0.00     0.318 C 
HETATM   11  C   UNL     1      -1.945   4.355 -33.963  1.00  0.00     0.127 C 
HETATM   12  N   UNL     1      -0.861   5.160 -31.466  1.00  0.00    -0.339 N 
HETATM   13  O   UNL     1      -2.994   5.397 -30.686  1.00  0.00    -0.247 OA
HETATM   14  H   UNL     1      -0.341   4.407 -31.892  1.00  0.00     0.164 HD
HETATM   15  C   UNL     1      -2.626   5.392 -34.852  1.00  0.00     0.021 C 
HETATM   16  C   UNL     1      -4.122   5.100 -34.999  1.00  0.00     0.014 C 
BRANCH  12  17
HETATM   17  C   UNL     1      -0.250   5.770 -30.293  1.00  0.00     0.078 C 
HETATM   18  C   UNL     1       0.412   7.088 -30.682  1.00  0.00     0.032 C 
HETATM   19  C   UNL     1       0.769   4.826 -29.655  1.00  0.00     0.032 C 
ENDBRANCH  12  17
ENDBRANCH   1   7
BRANCH   6  20
HETATM   20  N   UNL     1      -6.499   2.109 -34.107  1.00  0.00    -0.320 N 
HETATM   21  C   UNL     1      -6.401   1.220 -33.047  1.00  0.00     0.256 C 
HETATM   22  O   UNL     1      -6.676   1.464 -31.877  1.00  0.00    -0.267 OA
HETATM   23  H   UNL     1      -5.718   2.043 -34.749  1.00  0.00     0.169 HD
BRANCH  21  24
HETATM   24  C   UNL     1      -5.843  -0.109 -33.403  1.00  0.00     0.032 A 
HETATM   25  C   UNL     1      -6.496  -0.883 -34.365  1.00  0.00     0.020 A 
HETATM   26  C   UNL     1      -5.967  -2.122 -34.731  1.00  0.00     0.038 A 
HETATM   27  C   UNL     1      -4.773  -2.579 -34.165  1.00  0.00     0.068 A 
HETATM   28  C   UNL     1      -4.123  -1.803 -33.203  1.00  0.00     0.038 A 
HETATM   29  C   UNL     1      -4.654  -0.566 -32.823  1.00  0.00     0.020 A 
BRANCH  27  30
HETATM   30  O   UNL     1      -4.348  -3.796 -34.623  1.00  0.00    -0.356 OA
HETATM   31  C   UNL     1      -3.621  -4.592 -33.694  1.00  0.00     0.210 C 
ENDBRANCH  27  30
ENDBRANCH  21  24
ENDBRANCH   6  20
TORSDOF 5
ENDMDL
MODEL 2
REMARK VINA RESULT:      -8.7      2.374      3.400
REMARK  5 active torsions:
REMARK  status: ('A' for Active; 'I' for Inactive)
REMARK    1  A    between atoms: C_2  and  N_3 
REMARK       I    between atoms: N_3  and  C_4 
REMARK       I    between atoms: C_4  and  N_5 
REMARK    2  A    between atoms: C_7  and  C_8 
REMARK    3  A    between atoms: C_13  and  N_14 
REMARK       I    between atoms: N_14  and  C_15 
REMARK    4  A    between atoms: C_15  and  C_16 
REMARK    5  A    between atoms: C_19  and  O_20 
ROOT
HETATM    1  C   UNL     1      -8.352   2.496 -33.517  1.00  0.00     0.088 A 
HETATM    2  N   UNL     1      -9.411   3.328 -33.577  1.00  0.00    -0.177 NA
HETATM    3  N   UNL     1     -10.467   2.522 -33.740  1.00  0.00    -0.287 N 
HETATM    4  H   UNL     1     -11.384   2.949 -33.825  1.00  0.00     0.188 HD
HETATM    5  C   UNL     1     -10.153   1.199 -33.730  1.00  0.00     0.141 A 
HETATM    6  C   UNL     1      -8.782   1.142 -33.678  1.00  0.00     0.079 A 
ENDROOT
BRANCH   1   7
HETATM    7  C   UNL     1      -6.997   3.042 -33.099  1.00  0.00     0.060 C 
HETATM    8  C   UNL     1      -6.903   4.574 -33.090  1.00  0.00     0.138 C 
HETATM    9  N   UNL     1      -5.568   5.033 -32.689  1.00  0.00    -0.334 N 
HETATM   10  C   UNL     1      -4.665   5.356 -33.695  1.00  0.00     0.318 C 
HETATM   11  C   UNL     1      -5.166   4.597 -31.355  1.00  0.00     0.127 C 
HETATM   12  N   UNL     1      -3.493   5.907 -33.237  1.00  0.00    -0.339 N 
HETATM   13  O   UNL     1      -4.895   5.191 -34.890  1.00  0.00    -0.247 OA
HETATM   14  H   UNL     1      -3.612   6.437 -32.387  1.00  0.00     0.164 HD
HETATM   15  C   UNL     1      -5.174   3.072 -31.295  1.00  0.00     0.021 C 
HETATM   16  C   UNL     1      -6.534   2.508 -31.717  1.00  0.00     0.014 C 
BRANCH  12  17
HETATM   17  C   UNL     1      -2.485   6.408 -34.162  1.00  0.00     0.078 C 
HETATM   18  C   UNL     1      -1.580   5.263 -34.607  1.00  0.00     0.032 C 
HETATM   19  C   UNL     1      -1.662   7.524 -33.519  1.00  0.00     0.032 C 
ENDBRANCH  12  17
ENDBRANCH   1   7
BRANCH   6  20
HETATM   20  N   UNL     1      -8.071  -0.045 -33.701  1.00  0.00    -0.320 N 
HETATM   21  C   UNL     1      -7.143  -0.267 -34.707  1.00  0.00     0.256 C 
HETATM   22  O   UNL     1      -6.899   0.491 -35.640  1.00  0.00    -0.267 OA
HETATM   23  H   UNL     1      -8.599  -0.877 -33.462  1.00  0.00     0.169 HD
BRANCH  21  24
HETATM   24  C   UNL     1      -6.461  -1.584 -34.640  1.00  0.00     0.032 A 
HETATM   25  C   UNL     1      -5.128  -1.637 -34.231  1.00  0.00     0.020 A 
HETATM   26  C   UNL     1      -4.482  -2.872 -34.136  1.00  0.00     0.038 A 
HETATM   27  C   UNL     1      -5.170  -4.056 -34.416  1.00  0.00     0.068 A 
HETATM   28  C   UNL     1      -6.504  -3.999 -34.826  1.00  0.00     0.038 A 
HETATM   29  C   UNL     1      -7.153  -2.764 -34.935  1.00  0.00     0.020 A 
BRANCH  27  30
HETATM   30  O   UNL     1      -4.434  -5.199 -34.264  1.00  0.00    -0.356 OA
HETATM   31  C   UNL     1      -3.269  -5.087 -33.455  1.00  0.00     0.210 C 
ENDBRANCH  27  30
ENDBRANCH  21  24
ENDBRANCH   6  20
TORSDOF 5
ENDMDL
MODEL 3
REMARK VINA RESULT:      -8.7      2.120      3.612
REMARK  5 active torsions:
REMARK  status: ('A' for Active; 'I' for Inactive)
REMARK    1  A    between atoms: C_2  and  N_3 
REMARK       I    between atoms: N_3  and  C_4 
REMARK       I    between atoms: C_4  and  N_5 
REMARK    2  A    between atoms: C_7  and  C_8 
REMARK    3  A    between atoms: C_13  and  N_14 
REMARK       I    between atoms: N_14  and  C_15 
REMARK    4  A    between atoms: C_15  and  C_16 
REMARK    5  A    between atoms: C_19  and  O_20 
ROOT
HETATM    1  C   UNL     1      -9.484   2.163 -32.993  1.00  0.00     0.088 A 
HETATM    2  N   UNL     1     -10.756   2.608 -32.993  1.00  0.00    -0.177 NA
HETATM    3  N   UNL     1     -11.503   1.501 -33.084  1.00  0.00    -0.287 N 
HETATM    4  H   UNL     1     -12.511   1.607 -33.115  1.00  0.00     0.188 HD
HETATM    5  C   UNL     1     -10.779   0.350 -33.086  1.00  0.00     0.141 A 
HETATM    6  C   UNL     1      -9.461   0.738 -33.118  1.00  0.00     0.079 A 
ENDROOT
BRANCH   1   7
HETATM    7  C   UNL     1      -8.356   3.126 -32.663  1.00  0.00     0.060 C 
HETATM    8  C   UNL     1      -7.433   3.455 -33.845  1.00  0.00     0.138 C 
HETATM    9  N   UNL     1      -6.362   4.379 -33.455  1.00  0.00    -0.334 N 
HETATM   10  C   UNL     1      -5.127   3.836 -33.124  1.00  0.00     0.318 C 
HETATM   11  C   UNL     1      -6.840   5.662 -32.950  1.00  0.00     0.127 C 
HETATM   12  N   UNL     1      -4.145   4.772 -32.909  1.00  0.00    -0.339 N 
HETATM   13  O   UNL     1      -4.915   2.628 -33.053  1.00  0.00    -0.247 OA
HETATM   14  H   UNL     1      -4.270   5.609 -33.458  1.00  0.00     0.164 HD
HETATM   15  C   UNL     1      -7.724   5.429 -31.727  1.00  0.00     0.021 C 
HETATM   16  C   UNL     1      -8.864   4.457 -32.045  1.00  0.00     0.014 C 
BRANCH  12  17
HETATM   17  C   UNL     1      -2.765   4.374 -32.663  1.00  0.00     0.078 C 
HETATM   18  C   UNL     1      -2.275   4.990 -31.357  1.00  0.00     0.032 C 
HETATM   19  C   UNL     1      -1.863   4.790 -33.825  1.00  0.00     0.032 C 
ENDBRANCH  12  17
ENDBRANCH   1   7
BRANCH   6  20
HETATM   20  N   UNL     1      -8.409  -0.157 -33.177  1.00  0.00    -0.320 N 
HETATM   21  C   UNL     1      -7.704  -0.307 -34.362  1.00  0.00     0.256 C 
HETATM   22  O   UNL     1      -7.947   0.265 -35.420  1.00  0.00    -0.267 OA
HETATM   23  H   UNL     1      -8.551  -1.035 -32.690  1.00  0.00     0.169 HD
BRANCH  21  24
HETATM   24  C   UNL     1      -6.613  -1.312 -34.311  1.00  0.00     0.032 A 
HETATM   25  C   UNL     1      -6.848  -2.595 -34.810  1.00  0.00     0.020 A 
HETATM   26  C   UNL     1      -5.822  -3.541 -34.795  1.00  0.00     0.038 A 
HETATM   27  C   UNL     1      -4.553  -3.205 -34.314  1.00  0.00     0.068 A 
HETATM   28  C   UNL     1      -4.322  -1.922 -33.814  1.00  0.00     0.038 A 
HETATM   29  C   UNL     1      -5.349  -0.972 -33.815  1.00  0.00     0.020 A 
BRANCH  27  30
HETATM   30  O   UNL     1      -3.630  -4.213 -34.373  1.00  0.00    -0.356 OA
HETATM   31  C   UNL     1      -3.393  -4.915 -33.158  1.00  0.00     0.210 C 
ENDBRANCH  27  30
ENDBRANCH  21  24
ENDBRANCH   6  20
TORSDOF 5
ENDMDL
MODEL 4
REMARK VINA RESULT:      -8.5      2.935      6.603
REMARK  5 active torsions:
REMARK  status: ('A' for Active; 'I' for Inactive)
REMARK    1  A    between atoms: C_2  and  N_3 
REMARK       I    between atoms: N_3  and  C_4 
REMARK       I    between atoms: C_4  and  N_5 
REMARK    2  A    between atoms: C_7  and  C_8 
REMARK    3  A    between atoms: C_13  and  N_14 
REMARK       I    between atoms: N_14  and  C_15 
REMARK    4  A    between atoms: C_15  and  C_16 
REMARK    5  A    between atoms: C_19  and  O_20 
ROOT
HETATM    1  C   UNL     1      -5.726   3.681 -31.207  1.00  0.00     0.088 A 
HETATM    2  N   UNL     1      -5.124   4.691 -30.549  1.00  0.00    -0.177 NA
HETATM    3  N   UNL     1      -3.813   4.470 -30.712  1.00  0.00    -0.287 N 
HETATM    4  H   UNL     1      -3.163   5.116 -30.278  1.00  0.00     0.188 HD
HETATM    5  C   UNL     1      -3.534   3.395 -31.496  1.00  0.00     0.141 A 
HETATM    6  C   UNL     1      -4.744   2.803 -31.764  1.00  0.00     0.079 A 
ENDROOT
BRANCH   1   7
HETATM    7  C   UNL     1      -7.226   3.732 -31.439  1.00  0.00     0.060 C 
HETATM    8  C   UNL     1      -7.954   2.403 -31.194  1.00  0.00     0.138 C 
HETATM    9  N   UNL     1      -9.395   2.518 -31.447  1.00  0.00    -0.334 N 
HETATM   10  C   UNL     1      -9.868   2.119 -32.690  1.00  0.00     0.318 C 
HETATM   11  C   UNL     1     -10.067   3.506 -30.608  1.00  0.00     0.127 C 
HETATM   12  N   UNL     1     -11.238   2.127 -32.796  1.00  0.00    -0.339 N 
HETATM   13  O   UNL     1      -9.137   1.763 -33.611  1.00  0.00    -0.247 OA
HETATM   14  H   UNL     1     -11.702   1.935 -31.921  1.00  0.00     0.164 HD
HETATM   15  C   UNL     1      -9.440   4.878 -30.837  1.00  0.00     0.021 C 
HETATM   16  C   UNL     1      -7.926   4.841 -30.609  1.00  0.00     0.014 C 
BRANCH  12  17
HETATM   17  C   UNL     1     -11.905   1.630 -33.991  1.00  0.00     0.078 C 
HETATM   18  C   UNL     1     -12.661   2.767 -34.672  1.00  0.00     0.032 C 
HETATM   19  C   UNL     1     -12.856   0.483 -33.649  1.00  0.00     0.032 C 
ENDBRANCH  12  17
ENDBRANCH   1   7
BRANCH   6  20
HETATM   20  N   UNL     1      -4.872   1.640 -32.502  1.00  0.00    -0.320 N 
HETATM   21  C   UNL     1      -4.913   0.417 -31.849  1.00  0.00     0.256 C 
HETATM   22  O   UNL     1      -4.807   0.244 -30.639  1.00  0.00    -0.267 OA
HETATM   23  H   UNL     1      -4.342   1.607 -33.365  1.00  0.00     0.169 HD
BRANCH  21  24
HETATM   24  C   UNL     1      -5.029  -0.760 -32.745  1.00  0.00     0.032 A 
HETATM   25  C   UNL     1      -6.158  -0.886 -33.557  1.00  0.00     0.020 A 
HETATM   26  C   UNL     1      -6.267  -1.973 -34.427  1.00  0.00     0.038 A 
HETATM   27  C   UNL     1      -5.240  -2.917 -34.514  1.00  0.00     0.068 A 
HETATM   28  C   UNL     1      -4.112  -2.789 -33.700  1.00  0.00     0.038 A 
HETATM   29  C   UNL     1      -4.003  -1.709 -32.818  1.00  0.00     0.020 A 
BRANCH  27  30
HETATM   30  O   UNL     1      -5.456  -3.921 -35.419  1.00  0.00    -0.356 OA
HETATM   31  C   UNL     1      -6.733  -4.547 -35.362  1.00  0.00     0.210 C 
ENDBRANCH  27  30
ENDBRANCH  21  24
ENDBRANCH   6  20
TORSDOF 5
ENDMDL
MODEL 5
REMARK VINA RESULT:      -8.0      2.977      5.225
REMARK  5 active torsions:
REMARK  status: ('A' for Active; 'I' for Inactive)
REMARK    1  A    between atoms: C_2  and  N_3 
REMARK       I    between atoms: N_3  and  C_4 
REMARK       I    between atoms: C_4  and  N_5 
REMARK    2  A    between atoms: C_7  and  C_8 
REMARK    3  A    between atoms: C_13  and  N_14 
REMARK       I    between atoms: N_14  and  C_15 
REMARK    4  A    between atoms: C_15  and  C_16 
REMARK    5  A    between atoms: C_19  and  O_20 
ROOT
HETATM    1  C   UNL     1      -3.844   0.471 -31.283  1.00  0.00     0.088 A 
HETATM    2  N   UNL     1      -2.652  -0.155 -31.235  1.00  0.00    -0.177 NA
HETATM    3  N   UNL     1      -2.890  -1.378 -31.725  1.00  0.00    -0.287 N 
HETATM    4  H   UNL     1      -2.117  -2.033 -31.767  1.00  0.00     0.188 HD
HETATM    5  C   UNL     1      -4.171  -1.559 -32.145  1.00  0.00     0.141 A 
HETATM    6  C   UNL     1      -4.845  -0.415 -31.794  1.00  0.00     0.079 A 
ENDROOT
BRANCH   1   7
HETATM    7  C   UNL     1      -3.913   1.967 -31.025  1.00  0.00     0.060 C 
HETATM    8  C   UNL     1      -3.729   2.839 -32.275  1.00  0.00     0.138 C 
HETATM    9  N   UNL     1      -3.794   4.269 -31.953  1.00  0.00    -0.334 N 
HETATM   10  C   UNL     1      -2.595   4.945 -31.762  1.00  0.00     0.318 C 
HETATM   11  C   UNL     1      -5.058   4.686 -31.355  1.00  0.00     0.127 C 
HETATM   12  N   UNL     1      -2.739   6.302 -31.605  1.00  0.00    -0.339 N 
HETATM   13  O   UNL     1      -1.499   4.392 -31.758  1.00  0.00    -0.247 OA
HETATM   14  H   UNL     1      -3.530   6.676 -32.106  1.00  0.00     0.164 HD
HETATM   15  C   UNL     1      -5.291   3.905 -30.064  1.00  0.00     0.021 C 
HETATM   16  C   UNL     1      -5.223   2.395 -30.310  1.00  0.00     0.014 C 
BRANCH  12  17
HETATM   17  C   UNL     1      -1.578   7.176 -31.507  1.00  0.00     0.078 C 
HETATM   18  C   UNL     1      -1.958   8.462 -30.780  1.00  0.00     0.032 C 
HETATM   19  C   UNL     1      -1.013   7.490 -32.893  1.00  0.00     0.032 C 
ENDBRANCH  12  17
ENDBRANCH   1   7
BRANCH   6  20
HETATM   20  N   UNL     1      -6.199  -0.235 -32.013  1.00  0.00    -0.320 N 
HETATM   21  C   UNL     1      -6.626   0.396 -33.171  1.00  0.00     0.256 C 
HETATM   22  O   UNL     1      -5.902   0.865 -34.043  1.00  0.00    -0.267 OA
HETATM   23  H   UNL     1      -6.744   0.025 -31.199  1.00  0.00     0.169 HD
BRANCH  21  24
HETATM   24  C   UNL     1      -8.097   0.553 -33.284  1.00  0.00     0.032 A 
HETATM   25  C   UNL     1      -8.611   1.578 -34.080  1.00  0.00     0.020 A 
HETATM   26  C   UNL     1      -9.993   1.719 -34.219  1.00  0.00     0.038 A 
HETATM   27  C   UNL     1     -10.865   0.823 -33.594  1.00  0.00     0.068 A 
HETATM   28  C   UNL     1     -10.347  -0.202 -32.798  1.00  0.00     0.038 A 
HETATM   29  C   UNL     1      -8.964  -0.341 -32.644  1.00  0.00     0.020 A 
BRANCH  27  30
HETATM   30  O   UNL     1     -12.193   1.054 -33.826  1.00  0.00    -0.356 OA
HETATM   31  C   UNL     1     -12.664   2.359 -33.506  1.00  0.00     0.210 C 
ENDBRANCH  27  30
ENDBRANCH  21  24
ENDBRANCH   6  20
TORSDOF 5
ENDMDL
MODEL 6
REMARK VINA RESULT:      -7.9      2.104      7.491
REMARK  5 active torsions:
REMARK  status: ('A' for Active; 'I' for Inactive)
REMARK    1  A    between atoms: C_2  and  N_3 
REMARK       I    between atoms: N_3  and  C_4 
REMARK       I    between atoms: C_4  and  N_5 
REMARK    2  A    between atoms: C_7  and  C_8 
REMARK    3  A    between atoms: C_13  and  N_14 
REMARK       I    between atoms: N_14  and  C_15 
REMARK    4  A    between atoms: C_15  and  C_16 
REMARK    5  A    between atoms: C_19  and  O_20 
ROOT
HETATM    1  C   UNL     1      -7.988   2.747 -33.213  1.00  0.00     0.088 A 
HETATM    2  N   UNL     1      -9.227   2.795 -33.741  1.00  0.00    -0.177 NA
HETATM    3  N   UNL     1      -9.395   4.074 -34.100  1.00  0.00    -0.287 N 
HETATM    4  H   UNL     1     -10.282   4.340 -34.513  1.00  0.00     0.188 HD
HETATM    5  C   UNL     1      -8.300   4.851 -33.883  1.00  0.00     0.141 A 
HETATM    6  C   UNL     1      -7.398   4.050 -33.227  1.00  0.00     0.079 A 
ENDROOT
BRANCH   1   7
HETATM    7  C   UNL     1      -7.358   1.398 -32.910  1.00  0.00     0.060 C 
HETATM    8  C   UNL     1      -6.077   1.101 -33.702  1.00  0.00     0.138 C 
HETATM    9  N   UNL     1      -5.529  -0.219 -33.370  1.00  0.00    -0.334 N 
HETATM   10  C   UNL     1      -5.848  -1.282 -34.206  1.00  0.00     0.318 C 
HETATM   11  C   UNL     1      -5.177  -0.379 -31.963  1.00  0.00     0.127 C 
HETATM   12  N   UNL     1      -5.184  -2.447 -33.907  1.00  0.00    -0.339 N 
HETATM   13  O   UNL     1      -6.632  -1.192 -35.148  1.00  0.00    -0.247 OA
HETATM   14  H   UNL     1      -4.270  -2.289 -33.509  1.00  0.00     0.164 HD
HETATM   15  C   UNL     1      -6.418  -0.157 -31.101  1.00  0.00     0.021 C 
HETATM   16  C   UNL     1      -7.065   1.198 -31.398  1.00  0.00     0.014 C 
BRANCH  12  17
HETATM   17  C   UNL     1      -5.314  -3.626 -34.751  1.00  0.00     0.078 C 
HETATM   18  C   UNL     1      -6.756  -4.125 -34.723  1.00  0.00     0.032 C 
HETATM   19  C   UNL     1      -4.356  -4.729 -34.300  1.00  0.00     0.032 C 
ENDBRANCH  12  17
ENDBRANCH   1   7
BRANCH   6  20
HETATM   20  N   UNL     1      -6.165   4.498 -32.789  1.00  0.00    -0.320 N 
HETATM   21  C   UNL     1      -5.148   4.711 -33.708  1.00  0.00     0.256 C 
HETATM   22  O   UNL     1      -5.214   4.500 -34.914  1.00  0.00    -0.267 OA
HETATM   23  H   UNL     1      -5.833   4.092 -31.922  1.00  0.00     0.169 HD
BRANCH  21  24
HETATM   24  C   UNL     1      -3.866   5.169 -33.117  1.00  0.00     0.032 A 
HETATM   25  C   UNL     1      -3.862   6.299 -32.298  1.00  0.00     0.020 A 
HETATM   26  C   UNL     1      -2.668   6.725 -31.712  1.00  0.00     0.038 A 
HETATM   27  C   UNL     1      -1.484   6.010 -31.914  1.00  0.00     0.068 A 
HETATM   28  C   UNL     1      -1.491   4.880 -32.735  1.00  0.00     0.038 A 
HETATM   29  C   UNL     1      -2.682   4.455 -33.335  1.00  0.00     0.020 A 
BRANCH  27  30
HETATM   30  O   UNL     1      -0.389   6.515 -31.268  1.00  0.00    -0.356 OA
HETATM   31  C   UNL     1       0.493   5.557 -30.693  1.00  0.00     0.210 C 
ENDBRANCH  27  30
ENDBRANCH  21  24
ENDBRANCH   6  20
TORSDOF 5
ENDMDL
MODEL 7
REMARK VINA RESULT:      -7.7     16.472     19.098
REMARK  5 active torsions:
REMARK  status: ('A' for Active; 'I' for Inactive)
REMARK    1  A    between atoms: C_2  and  N_3 
REMARK       I    between atoms: N_3  and  C_4 
REMARK       I    between atoms: C_4  and  N_5 
REMARK    2  A    between atoms: C_7  and  C_8 
REMARK    3  A    between atoms: C_13  and  N_14 
REMARK       I    between atoms: N_14  and  C_15 
REMARK    4  A    between atoms: C_15  and  C_16 
REMARK    5  A    between atoms: C_19  and  O_20 
ROOT
HETATM    1  C   UNL     1      -6.809 -13.592 -36.561  1.00  0.00     0.088 A 
HETATM    2  N   UNL     1      -7.530 -13.170 -35.503  1.00  0.00    -0.177 NA
HETATM    3  N   UNL     1      -6.644 -13.074 -34.504  1.00  0.00    -0.287 N 
HETATM    4  H   UNL     1      -6.982 -12.781 -33.594  1.00  0.00     0.188 HD
HETATM    5  C   UNL     1      -5.367 -13.359 -34.876  1.00  0.00     0.141 A 
HETATM    6  C   UNL     1      -5.445 -13.786 -36.179  1.00  0.00     0.079 A 
ENDROOT
BRANCH   1   7
HETATM    7  C   UNL     1      -7.440 -13.589 -37.943  1.00  0.00     0.060 C 
HETATM    8  C   UNL     1      -8.975 -13.569 -37.942  1.00  0.00     0.138 C 
HETATM    9  N   UNL     1      -9.518 -13.578 -39.306  1.00  0.00    -0.334 N 
HETATM   10  C   UNL     1      -9.906 -14.801 -39.840  1.00  0.00     0.318 C 
HETATM   11  C   UNL     1      -9.101 -12.440 -40.118  1.00  0.00     0.127 C 
HETATM   12  N   UNL     1     -10.530 -14.704 -41.060  1.00  0.00    -0.339 N 
HETATM   13  O   UNL     1      -9.733 -15.875 -39.269  1.00  0.00    -0.247 OA
HETATM   14  H   UNL     1     -11.045 -13.844 -41.172  1.00  0.00     0.164 HD
HETATM   15  C   UNL     1      -7.579 -12.419 -40.221  1.00  0.00     0.021 C 
HETATM   16  C   UNL     1      -6.929 -12.425 -38.834  1.00  0.00     0.014 C 
BRANCH  12  17
HETATM   17  C   UNL     1     -11.101 -15.877 -41.708  1.00  0.00     0.078 C 
HETATM   18  C   UNL     1     -10.183 -16.343 -42.833  1.00  0.00     0.032 C 
HETATM   19  C   UNL     1     -12.499 -15.575 -42.248  1.00  0.00     0.032 C 
ENDBRANCH  12  17
ENDBRANCH   1   7
BRANCH   6  20
HETATM   20  N   UNL     1      -4.346 -14.216 -36.902  1.00  0.00    -0.320 N 
HETATM   21  C   UNL     1      -3.504 -13.282 -37.487  1.00  0.00     0.256 C 
HETATM   22  O   UNL     1      -3.654 -12.065 -37.463  1.00  0.00    -0.267 OA
HETATM   23  H   UNL     1      -4.497 -15.030 -37.487  1.00  0.00     0.169 HD
BRANCH  21  24
HETATM   24  C   UNL     1      -2.375 -13.862 -38.256  1.00  0.00     0.032 A 
HETATM   25  C   UNL     1      -1.092 -13.343 -38.072  1.00  0.00     0.020 A 
HETATM   26  C   UNL     1      -0.016 -13.898 -38.766  1.00  0.00     0.038 A 
HETATM   27  C   UNL     1      -0.208 -14.989 -39.619  1.00  0.00     0.068 A 
HETATM   28  C   UNL     1      -1.493 -15.505 -39.801  1.00  0.00     0.038 A 
HETATM   29  C   UNL     1      -2.577 -14.946 -39.118  1.00  0.00     0.020 A 
BRANCH  27  30
HETATM   30  O   UNL     1       0.928 -15.455 -40.223  1.00  0.00    -0.356 OA
HETATM   31  C   UNL     1       2.111 -15.428 -39.431  1.00  0.00     0.210 C 
ENDBRANCH  27  30
ENDBRANCH  21  24
ENDBRANCH   6  20
TORSDOF 5
ENDMDL
MODEL 8
REMARK VINA RESULT:      -7.7     16.663     18.777
REMARK  5 active torsions:
REMARK  status: ('A' for Active; 'I' for Inactive)
REMARK    1  A    between atoms: C_2  and  N_3 
REMARK       I    between atoms: N_3  and  C_4 
REMARK       I    between atoms: C_4  and  N_5 
REMARK    2  A    between atoms: C_7  and  C_8 
REMARK    3  A    between atoms: C_13  and  N_14 
REMARK       I    between atoms: N_14  and  C_15 
REMARK    4  A    between atoms: C_15  and  C_16 
REMARK    5  A    between atoms: C_19  and  O_20 
ROOT
HETATM    1  C   UNL     1      -5.311 -13.537 -36.096  1.00  0.00     0.088 A 
HETATM    2  N   UNL     1      -4.819 -13.086 -34.925  1.00  0.00    -0.177 NA
HETATM    3  N   UNL     1      -5.891 -12.952 -34.135  1.00  0.00    -0.287 N 
HETATM    4  H   UNL     1      -5.749 -12.604 -33.193  1.00  0.00     0.188 HD
HETATM    5  C   UNL     1      -7.054 -13.349 -34.718  1.00  0.00     0.141 A 
HETATM    6  C   UNL     1      -6.735 -13.651 -36.019  1.00  0.00     0.079 A 
ENDROOT
BRANCH   1   7
HETATM    7  C   UNL     1      -4.354 -14.032 -37.167  1.00  0.00     0.060 C 
HETATM    8  C   UNL     1      -4.409 -13.245 -38.484  1.00  0.00     0.138 C 
HETATM    9  N   UNL     1      -3.470 -13.782 -39.475  1.00  0.00    -0.334 N 
HETATM   10  C   UNL     1      -3.965 -14.673 -40.420  1.00  0.00     0.318 C 
HETATM   11  C   UNL     1      -2.075 -13.753 -39.048  1.00  0.00     0.127 C 
HETATM   12  N   UNL     1      -3.057 -15.017 -41.392  1.00  0.00    -0.339 N 
HETATM   13  O   UNL     1      -5.116 -15.100 -40.410  1.00  0.00    -0.247 OA
HETATM   14  H   UNL     1      -2.397 -14.281 -41.594  1.00  0.00     0.164 HD
HETATM   15  C   UNL     1      -1.919 -14.568 -37.767  1.00  0.00     0.021 C 
HETATM   16  C   UNL     1      -2.880 -14.081 -36.679  1.00  0.00     0.014 C 
BRANCH  12  17
HETATM   17  C   UNL     1      -3.443 -15.851 -42.522  1.00  0.00     0.078 C 
HETATM   18  C   UNL     1      -2.278 -16.750 -42.922  1.00  0.00     0.032 C 
HETATM   19  C   UNL     1      -3.890 -14.993 -43.706  1.00  0.00     0.032 C 
ENDBRANCH  12  17
ENDBRANCH   1   7
BRANCH   6  20
HETATM   20  N   UNL     1      -7.671 -14.052 -36.955  1.00  0.00    -0.320 N 
HETATM   21  C   UNL     1      -8.034 -13.184 -37.974  1.00  0.00     0.256 C 
HETATM   22  O   UNL     1      -7.626 -12.037 -38.121  1.00  0.00    -0.267 OA
HETATM   23  H   UNL     1      -8.455 -14.583 -36.593  1.00  0.00     0.169 HD
BRANCH  21  24
HETATM   24  C   UNL     1      -9.062 -13.716 -38.903  1.00  0.00     0.032 A 
HETATM   25  C   UNL     1      -9.992 -12.836 -39.462  1.00  0.00     0.020 A 
HETATM   26  C   UNL     1     -10.946 -13.317 -40.360  1.00  0.00     0.038 A 
HETATM   27  C   UNL     1     -10.958 -14.666 -40.728  1.00  0.00     0.068 A 
HETATM   28  C   UNL     1     -10.028 -15.543 -40.167  1.00  0.00     0.038 A 
HETATM   29  C   UNL     1      -9.076 -15.070 -39.257  1.00  0.00     0.020 A 
BRANCH  27  30
HETATM   30  O   UNL     1     -11.927 -15.007 -41.632  1.00  0.00    -0.356 OA
HETATM   31  C   UNL     1     -11.593 -16.051 -42.540  1.00  0.00     0.210 C 
ENDBRANCH  27  30
ENDBRANCH  21  24
ENDBRANCH   6  20
TORSDOF 5
ENDMDL
MODEL 9
REMARK VINA RESULT:      -7.6     16.969     18.366
REMARK  5 active torsions:
REMARK  status: ('A' for Active; 'I' for Inactive)
REMARK    1  A    between atoms: C_2  and  N_3 
REMARK       I    between atoms: N_3  and  C_4 
REMARK       I    between atoms: C_4  and  N_5 
REMARK    2  A    between atoms: C_7  and  C_8 
REMARK    3  A    between atoms: C_13  and  N_14 
REMARK       I    between atoms: N_14  and  C_15 
REMARK    4  A    between atoms: C_15  and  C_16 
REMARK    5  A    between atoms: C_19  and  O_20 
ROOT
HETATM    1  C   UNL     1      -1.203 -14.601 -38.553  1.00  0.00     0.088 A 
HETATM    2  N   UNL     1       0.097 -14.676 -38.901  1.00  0.00    -0.177 NA
HETATM    3  N   UNL     1       0.137 -14.228 -40.162  1.00  0.00    -0.287 N 
HETATM    4  H   UNL     1       1.035 -14.213 -40.635  1.00  0.00     0.188 HD
HETATM    5  C   UNL     1      -1.068 -13.809 -40.633  1.00  0.00     0.141 A 
HETATM    6  C   UNL     1      -1.979 -14.117 -39.652  1.00  0.00     0.079 A 
ENDROOT
BRANCH   1   7
HETATM    7  C   UNL     1      -1.598 -14.807 -37.100  1.00  0.00     0.060 C 
HETATM    8  C   UNL     1      -2.825 -15.706 -36.895  1.00  0.00     0.138 C 
HETATM    9  N   UNL     1      -3.159 -15.853 -35.474  1.00  0.00    -0.334 N 
HETATM   10  C   UNL     1      -4.144 -15.024 -34.951  1.00  0.00     0.318 C 
HETATM   11  C   UNL     1      -2.091 -16.440 -34.671  1.00  0.00     0.127 C 
HETATM   12  N   UNL     1      -4.494 -15.320 -33.656  1.00  0.00    -0.339 N 
HETATM   13  O   UNL     1      -4.680 -14.122 -35.590  1.00  0.00    -0.247 OA
HETATM   14  H   UNL     1      -4.397 -16.300 -33.435  1.00  0.00     0.164 HD
HETATM   15  C   UNL     1      -0.842 -15.569 -34.771  1.00  0.00     0.021 C 
HETATM   16  C   UNL     1      -0.433 -15.351 -36.231  1.00  0.00     0.014 C 
BRANCH  12  17
HETATM   17  C   UNL     1      -5.588 -14.625 -32.993  1.00  0.00     0.078 C 
HETATM   18  C   UNL     1      -5.332 -14.573 -31.490  1.00  0.00     0.032 C 
HETATM   19  C   UNL     1      -6.925 -15.307 -33.287  1.00  0.00     0.032 C 
ENDBRANCH  12  17
ENDBRANCH   1   7
BRANCH   6  20
HETATM   20  N   UNL     1      -3.337 -13.885 -39.779  1.00  0.00    -0.320 N 
HETATM   21  C   UNL     1      -3.904 -12.782 -39.160  1.00  0.00     0.256 C 
HETATM   22  O   UNL     1      -3.313 -11.974 -38.450  1.00  0.00    -0.267 OA
HETATM   23  H   UNL     1      -3.929 -14.707 -39.736  1.00  0.00     0.169 HD
BRANCH  21  24
HETATM   24  C   UNL     1      -5.370 -12.651 -39.348  1.00  0.00     0.032 A 
HETATM   25  C   UNL     1      -6.195 -12.589 -38.224  1.00  0.00     0.020 A 
HETATM   26  C   UNL     1      -7.574 -12.436 -38.385  1.00  0.00     0.038 A 
HETATM   27  C   UNL     1      -8.129 -12.313 -39.662  1.00  0.00     0.068 A 
HETATM   28  C   UNL     1      -7.301 -12.377 -40.784  1.00  0.00     0.038 A 
HETATM   29  C   UNL     1      -5.921 -12.542 -40.630  1.00  0.00     0.020 A 
BRANCH  27  30
HETATM   30  O   UNL     1      -9.487 -12.146 -39.685  1.00  0.00    -0.356 OA
HETATM   31  C   UNL     1     -10.261 -13.338 -39.764  1.00  0.00     0.210 C 
ENDBRANCH  27  30
ENDBRANCH  21  24
ENDBRANCH   6  20
TORSDOF 5
ENDMDL
MODEL 10
REMARK VINA RESULT:      -7.6      2.293      6.975
REMARK  5 active torsions:
REMARK  status: ('A' for Active; 'I' for Inactive)
REMARK    1  A    between atoms: C_2  and  N_3 
REMARK       I    between atoms: N_3  and  C_4 
REMARK       I    between atoms: C_4  and  N_5 
REMARK    2  A    between atoms: C_7  and  C_8 
REMARK    3  A    between atoms: C_13  and  N_14 
REMARK       I    between atoms: N_14  and  C_15 
REMARK    4  A    between atoms: C_15  and  C_16 
REMARK    5  A    between atoms: C_19  and  O_20 
ROOT
HETATM    1  C   UNL     1      -8.991   4.734 -32.358  1.00  0.00     0.088 A 
HETATM    2  N   UNL     1     -10.203   5.315 -32.456  1.00  0.00    -0.177 NA
HETATM    3  N   UNL     1      -9.961   6.627 -32.347  1.00  0.00    -0.287 N 
HETATM    4  H   UNL     1     -10.751   7.262 -32.380  1.00  0.00     0.188 HD
HETATM    5  C   UNL     1      -8.640   6.933 -32.241  1.00  0.00     0.141 A 
HETATM    6  C   UNL     1      -7.984   5.729 -32.154  1.00  0.00     0.079 A 
ENDROOT
BRANCH   1   7
HETATM    7  C   UNL     1      -8.845   3.255 -32.674  1.00  0.00     0.060 C 
HETATM    8  C   UNL     1      -7.873   2.500 -31.756  1.00  0.00     0.138 C 
HETATM    9  N   UNL     1      -7.771   1.083 -32.123  1.00  0.00    -0.334 N 
HETATM   10  C   UNL     1      -6.712   0.700 -32.937  1.00  0.00     0.318 C 
HETATM   11  C   UNL     1      -9.035   0.358 -32.052  1.00  0.00     0.127 C 
HETATM   12  N   UNL     1      -6.608  -0.658 -33.117  1.00  0.00    -0.339 N 
HETATM   13  O   UNL     1      -5.918   1.495 -33.435  1.00  0.00    -0.247 OA
HETATM   14  H   UNL     1      -6.938  -1.187 -32.324  1.00  0.00     0.164 HD
HETATM   15  C   UNL     1     -10.048   1.012 -32.989  1.00  0.00     0.021 C 
HETATM   16  C   UNL     1     -10.204   2.504 -32.682  1.00  0.00     0.014 C 
BRANCH  12  17
HETATM   17  C   UNL     1      -5.490  -1.238 -33.848  1.00  0.00     0.078 C 
HETATM   18  C   UNL     1      -5.970  -2.439 -34.658  1.00  0.00     0.032 C 
HETATM   19  C   UNL     1      -4.369  -1.648 -32.894  1.00  0.00     0.032 C 
ENDBRANCH  12  17
ENDBRANCH   1   7
BRANCH   6  20
HETATM   20  N   UNL     1      -6.615   5.622 -31.986  1.00  0.00    -0.320 N 
HETATM   21  C   UNL     1      -5.813   5.333 -33.079  1.00  0.00     0.256 C 
HETATM   22  O   UNL     1      -6.205   5.116 -34.221  1.00  0.00    -0.267 OA
HETATM   23  H   UNL     1      -6.312   5.153 -31.140  1.00  0.00     0.169 HD
BRANCH  21  24
HETATM   24  C   UNL     1      -4.365   5.221 -32.771  1.00  0.00     0.032 A 
HETATM   25  C   UNL     1      -3.899   5.658 -31.530  1.00  0.00     0.020 A 
HETATM   26  C   UNL     1      -2.545   5.532 -31.216  1.00  0.00     0.038 A 
HETATM   27  C   UNL     1      -1.658   4.942 -32.122  1.00  0.00     0.068 A 
HETATM   28  C   UNL     1      -2.127   4.506 -33.363  1.00  0.00     0.038 A 
HETATM   29  C   UNL     1      -3.481   4.641 -33.688  1.00  0.00     0.020 A 
BRANCH  27  30
HETATM   30  O   UNL     1      -0.364   4.856 -31.687  1.00  0.00    -0.356 OA
HETATM   31  C   UNL     1      -0.143   5.177 -30.318  1.00  0.00     0.210 C 
ENDBRANCH  27  30
ENDBRANCH  21  24
ENDBRANCH   6  20
TORSDOF 5
ENDMDL
