MODEL 1
REMARK VINA RESULT:      -8.0      0.000      0.000
REMARK  7 active torsions:
REMARK  status: ('A' for Active; 'I' for Inactive)
REMARK    1  A    between atoms: C_7  and  C_8 
REMARK    2  A    between atoms: C_8  and  N_9 
REMARK       I    between atoms: N_9  and  C_10 
REMARK       I    between atoms: C_10  and  N_11 
REMARK    3  A    between atoms: N_11  and  C_12 
REMARK    4  A    between atoms: C_12  and  C_13 
REMARK    5  A    between atoms: C_13  and  C_14 
REMARK    6  A    between atoms: C_14  and  O_15 
REMARK    7  A    between atoms: C_14  and  C_16 
ROOT
HETATM    1  N   UNL     1      -3.335   1.392 -31.542  1.00  0.00    -0.337 N 
HETATM    2  C   UNL     1      -4.199   2.366 -31.984  1.00  0.00     0.316 C 
HETATM    3  N   UNL     1      -3.538   3.290 -32.743  1.00  0.00    -0.339 N 
HETATM    4  O   UNL     1      -5.394   2.379 -31.710  1.00  0.00    -0.247 OA
HETATM    5  H   UNL     1      -2.542   1.277 -32.160  1.00  0.00     0.164 HD
HETATM    6  H   UNL     1      -2.585   3.437 -32.437  1.00  0.00     0.164 HD
ENDROOT
BRANCH   1   7
HETATM    7  C   UNL     1      -3.824   0.182 -30.910  1.00  0.00     0.183 C 
BRANCH   7   8
HETATM    8  C   UNL     1      -4.291  -0.809 -31.912  1.00  0.00     0.044 A 
HETATM    9  N   UNL     1      -5.471  -0.650 -32.623  1.00  0.00    -0.343 N 
HETATM   10  C   UNL     1      -5.661  -1.651 -33.469  1.00  0.00     0.112 A 
HETATM   11  H   UNL     1      -6.128   0.117 -32.434  1.00  0.00     0.167 HD
HETATM   12  N   UNL     1      -4.621  -2.499 -33.336  1.00  0.00    -0.311 N 
HETATM   13  C   UNL     1      -6.760  -1.905 -34.427  1.00  0.00     0.049 A 
HETATM   14  C   UNL     1      -4.515  -3.674 -34.079  1.00  0.00     0.014 A 
HETATM   15  C   UNL     1      -3.758  -1.994 -32.371  1.00  0.00     0.125 A 
HETATM   16  C   UNL     1      -3.357  -4.606 -33.890  1.00  0.00     0.068 C 
HETATM   17  C   UNL     1      -5.512  -3.915 -34.960  1.00  0.00     0.025 A 
HETATM   18  C   UNL     1      -6.655  -3.030 -35.155  1.00  0.00     0.006 A 
ENDBRANCH   7   8
ENDBRANCH   1   7
BRANCH   3  19
HETATM   19  C   UNL     1      -4.150   4.506 -33.280  1.00  0.00     0.085 C 
HETATM   20  C   UNL     1      -4.514   5.518 -32.190  1.00  0.00     0.032 C 
BRANCH  19  21
HETATM   21  C   UNL     1      -3.295   5.161 -34.380  1.00  0.00     0.063 C 
BRANCH  21  22
HETATM   22  C   UNL     1      -1.789   4.869 -34.299  1.00  0.00     0.177 C 
BRANCH  22  23
HETATM   23  O   UNL     1      -1.136   5.271 -35.508  1.00  0.00    -0.389 OA
HETATM   24  H   UNL     1      -1.767   5.859 -35.961  1.00  0.00     0.210 HD
ENDBRANCH  22  23
BRANCH  22  25
HETATM   25  C   UNL     1      -1.109   5.556 -33.164  1.00  0.00     0.081 A 
HETATM   26  O   UNL     1      -0.759   4.768 -32.106  1.00  0.00    -0.324 OA
HETATM   27  C   UNL     1      -0.174   5.572 -31.182  1.00  0.00     0.142 A 
HETATM   28  C   UNL     1      -0.134   6.870 -31.631  1.00  0.00     0.027 A 
HETATM   29  C   UNL     1      -0.736   6.863 -32.912  1.00  0.00     0.037 A 
ENDBRANCH  22  25
ENDBRANCH  21  22
ENDBRANCH  19  21
ENDBRANCH   3  19
TORSDOF 7
ENDMDL
MODEL 2
REMARK VINA RESULT:      -8.0      2.265      3.756
REMARK  7 active torsions:
REMARK  status: ('A' for Active; 'I' for Inactive)
REMARK    1  A    between atoms: C_7  and  C_8 
REMARK    2  A    between atoms: C_8  and  N_9 
REMARK       I    between atoms: N_9  and  C_10 
REMARK       I    between atoms: C_10  and  N_11 
REMARK    3  A    between atoms: N_11  and  C_12 
REMARK    4  A    between atoms: C_12  and  C_13 
REMARK    5  A    between atoms: C_13  and  C_14 
REMARK    6  A    between atoms: C_14  and  O_15 
REMARK    7  A    between atoms: C_14  and  C_16 
ROOT
HETATM    1  N   UNL     1      -4.422   4.010 -31.568  1.00  0.00    -0.337 N 
HETATM    2  C   UNL     1      -3.056   4.035 -31.724  1.00  0.00     0.316 C 
HETATM    3  N   UNL     1      -2.641   5.267 -32.146  1.00  0.00    -0.339 N 
HETATM    4  O   UNL     1      -2.338   3.065 -31.512  1.00  0.00    -0.247 OA
HETATM    5  H   UNL     1      -4.800   4.927 -31.367  1.00  0.00     0.164 HD
HETATM    6  H   UNL     1      -3.315   5.721 -32.748  1.00  0.00     0.164 HD
ENDROOT
BRANCH   1   7
HETATM    7  C   UNL     1      -5.086   2.897 -30.917  1.00  0.00     0.183 C 
BRANCH   7   8
HETATM    8  C   UNL     1      -5.292   1.761 -31.850  1.00  0.00     0.044 A 
HETATM    9  N   UNL     1      -4.480   0.638 -31.847  1.00  0.00    -0.343 N 
HETATM   10  C   UNL     1      -4.874  -0.243 -32.753  1.00  0.00     0.112 A 
HETATM   11  H   UNL     1      -3.640   0.567 -31.258  1.00  0.00     0.167 HD
HETATM   12  N   UNL     1      -5.949   0.273 -33.382  1.00  0.00    -0.311 N 
HETATM   13  C   UNL     1      -4.327  -1.573 -33.104  1.00  0.00     0.049 A 
HETATM   14  C   UNL     1      -6.609  -0.399 -34.409  1.00  0.00     0.014 A 
HETATM   15  C   UNL     1      -6.224   1.521 -32.836  1.00  0.00     0.125 A 
HETATM   16  C   UNL     1      -7.787   0.214 -35.104  1.00  0.00     0.068 C 
HETATM   17  C   UNL     1      -6.120  -1.617 -34.737  1.00  0.00     0.025 A 
HETATM   18  C   UNL     1      -4.968  -2.231 -34.085  1.00  0.00     0.006 A 
ENDBRANCH   7   8
ENDBRANCH   1   7
BRANCH   3  19
HETATM   19  C   UNL     1      -1.259   5.593 -32.500  1.00  0.00     0.085 C 
HETATM   20  C   UNL     1      -1.145   6.290 -33.859  1.00  0.00     0.032 C 
BRANCH  19  21
HETATM   21  C   UNL     1      -0.543   6.402 -31.403  1.00  0.00     0.063 C 
BRANCH  21  22
HETATM   22  C   UNL     1      -0.647   5.817 -29.986  1.00  0.00     0.177 C 
BRANCH  22  23
HETATM   23  O   UNL     1      -0.146   4.476 -29.962  1.00  0.00    -0.389 OA
HETATM   24  H   UNL     1      -0.876   3.931 -29.615  1.00  0.00     0.210 HD
ENDBRANCH  22  23
BRANCH  22  25
HETATM   25  C   UNL     1       0.100   6.600 -28.962  1.00  0.00     0.081 A 
HETATM   26  O   UNL     1       0.098   6.090 -27.696  1.00  0.00    -0.324 OA
HETATM   27  C   UNL     1       0.810   6.945 -26.917  1.00  0.00     0.142 A 
HETATM   28  C   UNL     1       1.279   7.999 -27.665  1.00  0.00     0.027 A 
HETATM   29  C   UNL     1       0.822   7.778 -28.986  1.00  0.00     0.037 A 
ENDBRANCH  22  25
ENDBRANCH  21  22
ENDBRANCH  19  21
ENDBRANCH   3  19
TORSDOF 7
ENDMDL
MODEL 3
REMARK VINA RESULT:      -7.9      2.238      3.296
REMARK  7 active torsions:
REMARK  status: ('A' for Active; 'I' for Inactive)
REMARK    1  A    between atoms: C_7  and  C_8 
REMARK    2  A    between atoms: C_8  and  N_9 
REMARK       I    between atoms: N_9  and  C_10 
REMARK       I    between atoms: C_10  and  N_11 
REMARK    3  A    between atoms: N_11  and  C_12 
REMARK    4  A    between atoms: C_12  and  C_13 
REMARK    5  A    between atoms: C_13  and  C_14 
REMARK    6  A    between atoms: C_14  and  O_15 
REMARK    7  A    between atoms: C_14  and  C_16 
ROOT
HETATM    1  N   UNL     1      -4.151   3.259 -30.663  1.00  0.00    -0.337 N 
HETATM    2  C   UNL     1      -3.529   4.051 -31.599  1.00  0.00     0.316 C 
HETATM    3  N   UNL     1      -2.241   4.316 -31.227  1.00  0.00    -0.339 N 
HETATM    4  O   UNL     1      -4.084   4.454 -32.614  1.00  0.00    -0.247 OA
HETATM    5  H   UNL     1      -3.493   2.688 -30.149  1.00  0.00     0.164 HD
HETATM    6  H   UNL     1      -2.130   4.385 -30.223  1.00  0.00     0.164 HD
ENDROOT
BRANCH   1   7
HETATM    7  C   UNL     1      -5.441   2.652 -30.928  1.00  0.00     0.183 C 
BRANCH   7   8
HETATM    8  C   UNL     1      -5.304   1.382 -31.685  1.00  0.00     0.044 A 
HETATM    9  N   UNL     1      -6.090   1.083 -32.788  1.00  0.00    -0.343 N 
HETATM   10  C   UNL     1      -5.768  -0.093 -33.303  1.00  0.00     0.112 A 
HETATM   11  H   UNL     1      -6.866   1.686 -33.090  1.00  0.00     0.167 HD
HETATM   12  N   UNL     1      -4.770  -0.605 -32.555  1.00  0.00    -0.311 N 
HETATM   13  C   UNL     1      -6.319  -0.814 -34.472  1.00  0.00     0.049 A 
HETATM   14  C   UNL     1      -4.200  -1.850 -32.821  1.00  0.00     0.014 A 
HETATM   15  C   UNL     1      -4.468   0.297 -31.542  1.00  0.00     0.125 A 
HETATM   16  C   UNL     1      -3.108  -2.401 -31.955  1.00  0.00     0.068 C 
HETATM   17  C   UNL     1      -4.695  -2.518 -33.887  1.00  0.00     0.025 A 
HETATM   18  C   UNL     1      -5.764  -2.009 -34.739  1.00  0.00     0.006 A 
ENDBRANCH   7   8
ENDBRANCH   1   7
BRANCH   3  19
HETATM   19  C   UNL     1      -1.341   5.212 -31.955  1.00  0.00     0.085 C 
HETATM   20  C   UNL     1      -1.919   6.619 -32.132  1.00  0.00     0.032 C 
BRANCH  19  21
HETATM   21  C   UNL     1       0.067   5.267 -31.333  1.00  0.00     0.063 C 
BRANCH  21  22
HETATM   22  C   UNL     1       0.124   5.015 -29.819  1.00  0.00     0.177 C 
BRANCH  22  23
HETATM   23  O   UNL     1       1.063   3.977 -29.520  1.00  0.00    -0.389 OA
HETATM   24  H   UNL     1       1.622   4.329 -28.805  1.00  0.00     0.210 HD
ENDBRANCH  22  23
BRANCH  22  25
HETATM   25  C   UNL     1       0.510   6.219 -29.029  1.00  0.00     0.081 A 
HETATM   26  O   UNL     1       0.834   6.001 -27.721  1.00  0.00    -0.324 OA
HETATM   27  C   UNL     1       1.138   7.207 -27.176  1.00  0.00     0.142 A 
HETATM   28  C   UNL     1       1.022   8.202 -28.117  1.00  0.00     0.027 A 
HETATM   29  C   UNL     1       0.617   7.566 -29.316  1.00  0.00     0.037 A 
ENDBRANCH  22  25
ENDBRANCH  21  22
ENDBRANCH  19  21
ENDBRANCH   3  19
TORSDOF 7
ENDMDL
MODEL 4
REMARK VINA RESULT:      -7.9      2.433      3.665
REMARK  7 active torsions:
REMARK  status: ('A' for Active; 'I' for Inactive)
REMARK    1  A    between atoms: C_7  and  C_8 
REMARK    2  A    between atoms: C_8  and  N_9 
REMARK       I    between atoms: N_9  and  C_10 
REMARK       I    between atoms: C_10  and  N_11 
REMARK    3  A    between atoms: N_11  and  C_12 
REMARK    4  A    between atoms: C_12  and  C_13 
REMARK    5  A    between atoms: C_13  and  C_14 
REMARK    6  A    between atoms: C_14  and  O_15 
REMARK    7  A    between atoms: C_14  and  C_16 
ROOT
HETATM    1  N   UNL     1      -4.265   4.238 -31.437  1.00  0.00    -0.337 N 
HETATM    2  C   UNL     1      -2.923   4.215 -31.736  1.00  0.00     0.316 C 
HETATM    3  N   UNL     1      -2.485   5.459 -32.091  1.00  0.00    -0.339 N 
HETATM    4  O   UNL     1      -2.242   3.197 -31.688  1.00  0.00    -0.247 OA
HETATM    5  H   UNL     1      -4.568   5.149 -31.117  1.00  0.00     0.164 HD
HETATM    6  H   UNL     1      -3.191   5.998 -32.576  1.00  0.00     0.164 HD
ENDROOT
BRANCH   1   7
HETATM    7  C   UNL     1      -4.919   3.102 -30.819  1.00  0.00     0.183 C 
BRANCH   7   8
HETATM    8  C   UNL     1      -5.346   2.100 -31.827  1.00  0.00     0.044 A 
HETATM    9  N   UNL     1      -6.405   2.320 -32.695  1.00  0.00    -0.343 N 
HETATM   10  C   UNL     1      -6.579   1.293 -33.512  1.00  0.00     0.112 A 
HETATM   11  H   UNL     1      -7.005   3.152 -32.630  1.00  0.00     0.167 HD
HETATM   12  N   UNL     1      -5.650   0.366 -33.204  1.00  0.00    -0.311 N 
HETATM   13  C   UNL     1      -7.565   1.081 -34.595  1.00  0.00     0.049 A 
HETATM   14  C   UNL     1      -5.560  -0.854 -33.872  1.00  0.00     0.014 A 
HETATM   15  C   UNL     1      -4.873   0.849 -32.157  1.00  0.00     0.125 A 
HETATM   16  C   UNL     1      -4.529  -1.872 -33.489  1.00  0.00     0.068 C 
HETATM   17  C   UNL     1      -6.455  -1.058 -34.865  1.00  0.00     0.025 A 
HETATM   18  C   UNL     1      -7.475  -0.088 -35.250  1.00  0.00     0.006 A 
ENDBRANCH   7   8
ENDBRANCH   1   7
BRANCH   3  19
HETATM   19  C   UNL     1      -1.131   5.753 -32.562  1.00  0.00     0.085 C 
HETATM   20  C   UNL     1      -1.116   6.645 -33.807  1.00  0.00     0.032 C 
BRANCH  19  21
HETATM   21  C   UNL     1      -0.234   6.336 -31.454  1.00  0.00     0.063 C 
BRANCH  21  22
HETATM   22  C   UNL     1      -0.505   5.797 -30.042  1.00  0.00     0.177 C 
BRANCH  22  23
HETATM   23  O   UNL     1      -0.023   4.454 -29.919  1.00  0.00    -0.389 OA
HETATM   24  H   UNL     1      -0.523   4.065 -29.178  1.00  0.00     0.210 HD
ENDBRANCH  22  23
BRANCH  22  25
HETATM   25  C   UNL     1       0.128   6.608 -28.963  1.00  0.00     0.081 A 
HETATM   26  O   UNL     1       0.086   6.076 -27.707  1.00  0.00    -0.324 OA
HETATM   27  C   UNL     1       0.693   6.960 -26.875  1.00  0.00     0.142 A 
HETATM   28  C   UNL     1       1.134   8.056 -27.578  1.00  0.00     0.027 A 
HETATM   29  C   UNL     1       0.772   7.831 -28.927  1.00  0.00     0.037 A 
ENDBRANCH  22  25
ENDBRANCH  21  22
ENDBRANCH  19  21
ENDBRANCH   3  19
TORSDOF 7
ENDMDL
MODEL 5
REMARK VINA RESULT:      -7.8      5.320      8.198
REMARK  7 active torsions:
REMARK  status: ('A' for Active; 'I' for Inactive)
REMARK    1  A    between atoms: C_7  and  C_8 
REMARK    2  A    between atoms: C_8  and  N_9 
REMARK       I    between atoms: N_9  and  C_10 
REMARK       I    between atoms: C_10  and  N_11 
REMARK    3  A    between atoms: N_11  and  C_12 
REMARK    4  A    between atoms: C_12  and  C_13 
REMARK    5  A    between atoms: C_13  and  C_14 
REMARK    6  A    between atoms: C_14  and  O_15 
REMARK    7  A    between atoms: C_14  and  C_16 
ROOT
HETATM    1  N   UNL     1      -7.410   1.164 -34.433  1.00  0.00    -0.337 N 
HETATM    2  C   UNL     1      -8.420   1.982 -33.985  1.00  0.00     0.316 C 
HETATM    3  N   UNL     1      -9.540   1.832 -34.753  1.00  0.00    -0.339 N 
HETATM    4  O   UNL     1      -8.298   2.738 -33.028  1.00  0.00    -0.247 OA
HETATM    5  H   UNL     1      -7.765   0.345 -34.910  1.00  0.00     0.164 HD
HETATM    6  H   UNL     1      -9.325   1.630 -35.722  1.00  0.00     0.164 HD
ENDROOT
BRANCH   1   7
HETATM    7  C   UNL     1      -6.199   0.968 -33.659  1.00  0.00     0.183 C 
BRANCH   7   8
HETATM    8  C   UNL     1      -5.735  -0.441 -33.715  1.00  0.00     0.044 A 
HETATM    9  N   UNL     1      -6.282  -1.372 -34.586  1.00  0.00    -0.343 N 
HETATM   10  C   UNL     1      -5.690  -2.549 -34.464  1.00  0.00     0.112 A 
HETATM   11  H   UNL     1      -7.095  -1.159 -35.179  1.00  0.00     0.167 HD
HETATM   12  N   UNL     1      -4.746  -2.434 -33.510  1.00  0.00    -0.311 N 
HETATM   13  C   UNL     1      -5.928  -3.823 -35.179  1.00  0.00     0.049 A 
HETATM   14  C   UNL     1      -3.939  -3.503 -33.123  1.00  0.00     0.014 A 
HETATM   15  C   UNL     1      -4.759  -1.129 -33.030  1.00  0.00     0.125 A 
HETATM   16  C   UNL     1      -2.913  -3.345 -32.042  1.00  0.00     0.068 C 
HETATM   17  C   UNL     1      -4.145  -4.671 -33.771  1.00  0.00     0.025 A 
HETATM   18  C   UNL     1      -5.144  -4.854 -34.819  1.00  0.00     0.006 A 
ENDBRANCH   7   8
ENDBRANCH   1   7
BRANCH   3  19
HETATM   19  C   UNL     1     -10.757   2.630 -34.602  1.00  0.00     0.085 C 
HETATM   20  C   UNL     1     -10.637   4.020 -35.233  1.00  0.00     0.032 C 
BRANCH  19  21
HETATM   21  C   UNL     1     -12.011   1.898 -35.113  1.00  0.00     0.063 C 
BRANCH  21  22
HETATM   22  C   UNL     1     -12.658   0.931 -34.110  1.00  0.00     0.177 C 
BRANCH  22  23
HETATM   23  O   UNL     1     -11.701   0.511 -33.132  1.00  0.00    -0.389 OA
HETATM   24  H   UNL     1     -12.094   0.734 -32.269  1.00  0.00     0.210 HD
ENDBRANCH  22  23
BRANCH  22  25
HETATM   25  C   UNL     1     -13.822   1.516 -33.385  1.00  0.00     0.081 A 
HETATM   26  O   UNL     1     -13.544   2.548 -32.535  1.00  0.00    -0.324 OA
HETATM   27  C   UNL     1     -14.717   2.928 -31.967  1.00  0.00     0.142 A 
HETATM   28  C   UNL     1     -15.752   2.160 -32.443  1.00  0.00     0.027 A 
HETATM   29  C   UNL     1     -15.177   1.248 -33.361  1.00  0.00     0.037 A 
ENDBRANCH  22  25
ENDBRANCH  21  22
ENDBRANCH  19  21
ENDBRANCH   3  19
TORSDOF 7
ENDMDL
MODEL 6
REMARK VINA RESULT:      -7.8      2.759      8.440
REMARK  7 active torsions:
REMARK  status: ('A' for Active; 'I' for Inactive)
REMARK    1  A    between atoms: C_7  and  C_8 
REMARK    2  A    between atoms: C_8  and  N_9 
REMARK       I    between atoms: N_9  and  C_10 
REMARK       I    between atoms: C_10  and  N_11 
REMARK    3  A    between atoms: N_11  and  C_12 
REMARK    4  A    between atoms: C_12  and  C_13 
REMARK    5  A    between atoms: C_13  and  C_14 
REMARK    6  A    between atoms: C_14  and  O_15 
REMARK    7  A    between atoms: C_14  and  C_16 
ROOT
HETATM    1  N   UNL     1      -6.320   3.314 -31.281  1.00  0.00    -0.337 N 
HETATM    2  C   UNL     1      -6.257   1.963 -31.526  1.00  0.00     0.316 C 
HETATM    3  N   UNL     1      -7.029   1.631 -32.603  1.00  0.00    -0.339 N 
HETATM    4  O   UNL     1      -5.593   1.187 -30.848  1.00  0.00    -0.247 OA
HETATM    5  H   UNL     1      -6.531   3.844 -32.117  1.00  0.00     0.164 HD
HETATM    6  H   UNL     1      -7.855   2.210 -32.685  1.00  0.00     0.164 HD
ENDROOT
BRANCH   1   7
HETATM    7  C   UNL     1      -5.420   3.952 -30.340  1.00  0.00     0.183 C 
BRANCH   7   8
HETATM    8  C   UNL     1      -4.309   4.651 -31.032  1.00  0.00     0.044 A 
HETATM    9  N   UNL     1      -3.462   5.535 -30.380  1.00  0.00    -0.343 N 
HETATM   10  C   UNL     1      -2.540   6.013 -31.201  1.00  0.00     0.112 A 
HETATM   11  H   UNL     1      -3.610   5.819 -29.403  1.00  0.00     0.167 HD
HETATM   12  N   UNL     1      -2.755   5.467 -32.415  1.00  0.00    -0.311 N 
HETATM   13  C   UNL     1      -1.435   6.965 -30.956  1.00  0.00     0.049 A 
HETATM   14  C   UNL     1      -1.962   5.770 -33.521  1.00  0.00     0.014 A 
HETATM   15  C   UNL     1      -3.852   4.618 -32.331  1.00  0.00     0.125 A 
HETATM   16  C   UNL     1      -2.242   5.163 -34.863  1.00  0.00     0.068 C 
HETATM   17  C   UNL     1      -0.947   6.637 -33.309  1.00  0.00     0.025 A 
HETATM   18  C   UNL     1      -0.660   7.251 -32.017  1.00  0.00     0.006 A 
ENDBRANCH   7   8
ENDBRANCH   1   7
BRANCH   3  19
HETATM   19  C   UNL     1      -7.256   0.260 -33.063  1.00  0.00     0.085 C 
HETATM   20  C   UNL     1      -8.726  -0.020 -33.391  1.00  0.00     0.032 C 
BRANCH  19  21
HETATM   21  C   UNL     1      -6.344  -0.125 -34.243  1.00  0.00     0.063 C 
BRANCH  21  22
HETATM   22  C   UNL     1      -5.260  -1.163 -33.919  1.00  0.00     0.177 C 
BRANCH  22  23
HETATM   23  O   UNL     1      -4.964  -1.156 -32.518  1.00  0.00    -0.389 OA
HETATM   24  H   UNL     1      -5.079  -0.231 -32.232  1.00  0.00     0.210 HD
ENDBRANCH  22  23
BRANCH  22  25
HETATM   25  C   UNL     1      -5.636  -2.555 -34.297  1.00  0.00     0.081 A 
HETATM   26  O   UNL     1      -4.634  -3.482 -34.252  1.00  0.00    -0.324 OA
HETATM   27  C   UNL     1      -5.167  -4.669 -34.640  1.00  0.00     0.142 A 
HETATM   28  C   UNL     1      -6.503  -4.524 -34.930  1.00  0.00     0.027 A 
HETATM   29  C   UNL     1      -6.808  -3.160 -34.708  1.00  0.00     0.037 A 
ENDBRANCH  22  25
ENDBRANCH  21  22
ENDBRANCH  19  21
ENDBRANCH   3  19
TORSDOF 7
ENDMDL
MODEL 7
REMARK VINA RESULT:      -7.8      2.372      4.261
REMARK  7 active torsions:
REMARK  status: ('A' for Active; 'I' for Inactive)
REMARK    1  A    between atoms: C_7  and  C_8 
REMARK    2  A    between atoms: C_8  and  N_9 
REMARK       I    between atoms: N_9  and  C_10 
REMARK       I    between atoms: C_10  and  N_11 
REMARK    3  A    between atoms: N_11  and  C_12 
REMARK    4  A    between atoms: C_12  and  C_13 
REMARK    5  A    between atoms: C_13  and  C_14 
REMARK    6  A    between atoms: C_14  and  O_15 
REMARK    7  A    between atoms: C_14  and  C_16 
ROOT
HETATM    1  N   UNL     1      -4.472   5.139 -29.766  1.00  0.00    -0.337 N 
HETATM    2  C   UNL     1      -3.778   6.065 -30.509  1.00  0.00     0.316 C 
HETATM    3  N   UNL     1      -2.589   6.371 -29.910  1.00  0.00    -0.339 N 
HETATM    4  O   UNL     1      -4.200   6.536 -31.559  1.00  0.00    -0.247 OA
HETATM    5  H   UNL     1      -3.858   4.561 -29.208  1.00  0.00     0.164 HD
HETATM    6  H   UNL     1      -2.641   6.340 -28.900  1.00  0.00     0.164 HD
ENDROOT
BRANCH   1   7
HETATM    7  C   UNL     1      -5.653   4.482 -30.293  1.00  0.00     0.183 C 
BRANCH   7   8
HETATM    8  C   UNL     1      -5.309   3.223 -30.999  1.00  0.00     0.044 A 
HETATM    9  N   UNL     1      -4.207   2.453 -30.657  1.00  0.00    -0.343 N 
HETATM   10  C   UNL     1      -4.123   1.371 -31.414  1.00  0.00     0.112 A 
HETATM   11  H   UNL     1      -3.522   2.755 -29.953  1.00  0.00     0.167 HD
HETATM   12  N   UNL     1      -5.157   1.398 -32.279  1.00  0.00    -0.311 N 
HETATM   13  C   UNL     1      -3.135   0.269 -31.411  1.00  0.00     0.049 A 
HETATM   14  C   UNL     1      -5.359   0.402 -33.234  1.00  0.00     0.014 A 
HETATM   15  C   UNL     1      -5.906   2.543 -32.038  1.00  0.00     0.125 A 
HETATM   16  C   UNL     1      -6.506   0.475 -34.196  1.00  0.00     0.068 C 
HETATM   17  C   UNL     1      -4.464  -0.611 -33.239  1.00  0.00     0.025 A 
HETATM   18  C   UNL     1      -3.333  -0.700 -32.321  1.00  0.00     0.006 A 
ENDBRANCH   7   8
ENDBRANCH   1   7
BRANCH   3  19
HETATM   19  C   UNL     1      -1.662   7.395 -30.395  1.00  0.00     0.085 C 
HETATM   20  C   UNL     1      -1.735   8.693 -29.585  1.00  0.00     0.032 C 
BRANCH  19  21
HETATM   21  C   UNL     1      -0.213   6.882 -30.488  1.00  0.00     0.063 C 
BRANCH  21  22
HETATM   22  C   UNL     1      -0.055   5.468 -31.067  1.00  0.00     0.177 C 
BRANCH  22  23
HETATM   23  O   UNL     1      -0.385   4.485 -30.079  1.00  0.00    -0.389 OA
HETATM   24  H   UNL     1       0.072   3.672 -30.359  1.00  0.00     0.210 HD
ENDBRANCH  22  23
BRANCH  22  25
HETATM   25  C   UNL     1      -0.909   5.215 -32.262  1.00  0.00     0.081 A 
HETATM   26  O   UNL     1      -1.781   4.170 -32.168  1.00  0.00    -0.324 OA
HETATM   27  C   UNL     1      -2.448   4.095 -33.348  1.00  0.00     0.142 A 
HETATM   28  C   UNL     1      -2.023   5.083 -34.204  1.00  0.00     0.027 A 
HETATM   29  C   UNL     1      -1.029   5.809 -33.504  1.00  0.00     0.037 A 
ENDBRANCH  22  25
ENDBRANCH  21  22
ENDBRANCH  19  21
ENDBRANCH   3  19
TORSDOF 7
ENDMDL
MODEL 8
REMARK VINA RESULT:      -7.7      1.359      2.037
REMARK  7 active torsions:
REMARK  status: ('A' for Active; 'I' for Inactive)
REMARK    1  A    between atoms: C_7  and  C_8 
REMARK    2  A    between atoms: C_8  and  N_9 
REMARK       I    between atoms: N_9  and  C_10 
REMARK       I    between atoms: C_10  and  N_11 
REMARK    3  A    between atoms: N_11  and  C_12 
REMARK    4  A    between atoms: C_12  and  C_13 
REMARK    5  A    between atoms: C_13  and  C_14 
REMARK    6  A    between atoms: C_14  and  O_15 
REMARK    7  A    between atoms: C_14  and  C_16 
ROOT
HETATM    1  N   UNL     1      -3.817   1.270 -30.803  1.00  0.00    -0.337 N 
HETATM    2  C   UNL     1      -3.542   2.501 -31.352  1.00  0.00     0.316 C 
HETATM    3  N   UNL     1      -4.277   3.477 -30.742  1.00  0.00    -0.339 N 
HETATM    4  O   UNL     1      -2.745   2.665 -32.269  1.00  0.00    -0.247 OA
HETATM    5  H   UNL     1      -4.131   1.343 -29.844  1.00  0.00     0.164 HD
HETATM    6  H   UNL     1      -5.188   3.151 -30.442  1.00  0.00     0.164 HD
ENDROOT
BRANCH   1   7
HETATM    7  C   UNL     1      -3.008   0.108 -31.116  1.00  0.00     0.183 C 
BRANCH   7   8
HETATM    8  C   UNL     1      -3.714  -0.818 -32.036  1.00  0.00     0.044 A 
HETATM    9  N   UNL     1      -4.925  -0.498 -32.632  1.00  0.00    -0.343 N 
HETATM   10  C   UNL     1      -5.344  -1.473 -33.423  1.00  0.00     0.112 A 
HETATM   11  H   UNL     1      -5.440   0.362 -32.404  1.00  0.00     0.167 HD
HETATM   12  N   UNL     1      -4.431  -2.464 -33.367  1.00  0.00    -0.311 N 
HETATM   13  C   UNL     1      -6.560  -1.577 -34.261  1.00  0.00     0.049 A 
HETATM   14  C   UNL     1      -4.574  -3.653 -34.081  1.00  0.00     0.014 A 
HETATM   15  C   UNL     1      -3.410  -2.076 -32.508  1.00  0.00     0.125 A 
HETATM   16  C   UNL     1      -3.551  -4.744 -33.978  1.00  0.00     0.068 C 
HETATM   17  C   UNL     1      -5.680  -3.758 -34.851  1.00  0.00     0.025 A 
HETATM   18  C   UNL     1      -6.696  -2.716 -34.960  1.00  0.00     0.006 A 
ENDBRANCH   7   8
ENDBRANCH   1   7
BRANCH   3  19
HETATM   19  C   UNL     1      -4.292   4.880 -31.158  1.00  0.00     0.085 C 
HETATM   20  C   UNL     1      -5.707   5.459 -31.246  1.00  0.00     0.032 C 
BRANCH  19  21
HETATM   21  C   UNL     1      -3.386   5.765 -30.282  1.00  0.00     0.063 C 
BRANCH  21  22
HETATM   22  C   UNL     1      -1.930   5.884 -30.757  1.00  0.00     0.177 C 
BRANCH  22  23
HETATM   23  O   UNL     1      -1.254   4.630 -30.613  1.00  0.00    -0.389 OA
HETATM   24  H   UNL     1      -1.855   3.965 -30.995  1.00  0.00     0.210 HD
ENDBRANCH  22  23
BRANCH  22  25
HETATM   25  C   UNL     1      -1.801   6.310 -32.179  1.00  0.00     0.081 A 
HETATM   26  O   UNL     1      -1.277   5.387 -33.038  1.00  0.00    -0.324 OA
HETATM   27  C   UNL     1      -1.228   5.964 -34.267  1.00  0.00     0.142 A 
HETATM   28  C   UNL     1      -1.719   7.246 -34.215  1.00  0.00     0.027 A 
HETATM   29  C   UNL     1      -2.091   7.472 -32.868  1.00  0.00     0.037 A 
ENDBRANCH  22  25
ENDBRANCH  21  22
ENDBRANCH  19  21
ENDBRANCH   3  19
TORSDOF 7
ENDMDL
MODEL 9
REMARK VINA RESULT:      -7.6      2.382      9.035
REMARK  7 active torsions:
REMARK  status: ('A' for Active; 'I' for Inactive)
REMARK    1  A    between atoms: C_7  and  C_8 
REMARK    2  A    between atoms: C_8  and  N_9 
REMARK       I    between atoms: N_9  and  C_10 
REMARK       I    between atoms: C_10  and  N_11 
REMARK    3  A    between atoms: N_11  and  C_12 
REMARK    4  A    between atoms: C_12  and  C_13 
REMARK    5  A    between atoms: C_13  and  C_14 
REMARK    6  A    between atoms: C_14  and  O_15 
REMARK    7  A    between atoms: C_14  and  C_16 
ROOT
HETATM    1  N   UNL     1      -4.478   3.685 -32.747  1.00  0.00    -0.337 N 
HETATM    2  C   UNL     1      -4.227   2.384 -32.376  1.00  0.00     0.316 C 
HETATM    3  N   UNL     1      -5.389   1.742 -32.051  1.00  0.00    -0.339 N 
HETATM    4  O   UNL     1      -3.102   1.900 -32.345  1.00  0.00    -0.247 OA
HETATM    5  H   UNL     1      -5.411   3.801 -33.120  1.00  0.00     0.164 HD
HETATM    6  H   UNL     1      -6.071   2.359 -31.628  1.00  0.00     0.164 HD
ENDROOT
BRANCH   1   7
HETATM    7  C   UNL     1      -3.448   4.508 -33.351  1.00  0.00     0.183 C 
BRANCH   7   8
HETATM    8  C   UNL     1      -2.656   5.234 -32.326  1.00  0.00     0.044 A 
HETATM    9  N   UNL     1      -1.585   4.654 -31.663  1.00  0.00    -0.343 N 
HETATM   10  C   UNL     1      -1.028   5.503 -30.815  1.00  0.00     0.112 A 
HETATM   11  H   UNL     1      -1.335   3.664 -31.783  1.00  0.00     0.167 HD
HETATM   12  N   UNL     1      -1.716   6.660 -30.887  1.00  0.00    -0.311 N 
HETATM   13  C   UNL     1       0.129   5.336 -29.907  1.00  0.00     0.049 A 
HETATM   14  C   UNL     1      -1.394   7.771 -30.108  1.00  0.00     0.014 A 
HETATM   15  C   UNL     1      -2.734   6.513 -31.821  1.00  0.00     0.125 A 
HETATM   16  C   UNL     1      -2.194   9.035 -30.196  1.00  0.00     0.068 C 
HETATM   17  C   UNL     1      -0.337   7.631 -29.276  1.00  0.00     0.025 A 
HETATM   18  C   UNL     1       0.451   6.408 -29.163  1.00  0.00     0.006 A 
ENDBRANCH   7   8
ENDBRANCH   1   7
BRANCH   3  19
HETATM   19  C   UNL     1      -5.457   0.380 -31.522  1.00  0.00     0.085 C 
HETATM   20  C   UNL     1      -6.034   0.322 -30.104  1.00  0.00     0.032 C 
BRANCH  19  21
HETATM   21  C   UNL     1      -6.206  -0.582 -32.463  1.00  0.00     0.063 C 
BRANCH  21  22
HETATM   22  C   UNL     1      -5.456  -0.955 -33.750  1.00  0.00     0.177 C 
BRANCH  22  23
HETATM   23  O   UNL     1      -4.043  -0.809 -33.564  1.00  0.00    -0.389 OA
HETATM   24  H   UNL     1      -3.633  -1.247 -34.332  1.00  0.00     0.210 HD
ENDBRANCH  22  23
BRANCH  22  25
HETATM   25  C   UNL     1      -5.713  -2.350 -34.207  1.00  0.00     0.081 A 
HETATM   26  O   UNL     1      -4.652  -3.207 -34.149  1.00  0.00    -0.324 OA
HETATM   27  C   UNL     1      -5.079  -4.408 -34.615  1.00  0.00     0.142 A 
HETATM   28  C   UNL     1      -6.406  -4.342 -34.969  1.00  0.00     0.027 A 
HETATM   29  C   UNL     1      -6.818  -3.014 -34.704  1.00  0.00     0.037 A 
ENDBRANCH  22  25
ENDBRANCH  21  22
ENDBRANCH  19  21
ENDBRANCH   3  19
TORSDOF 7
ENDMDL
MODEL 10
REMARK VINA RESULT:      -7.6      1.848      2.578
REMARK  7 active torsions:
REMARK  status: ('A' for Active; 'I' for Inactive)
REMARK    1  A    between atoms: C_7  and  C_8 
REMARK    2  A    between atoms: C_8  and  N_9 
REMARK       I    between atoms: N_9  and  C_10 
REMARK       I    between atoms: C_10  and  N_11 
REMARK    3  A    between atoms: N_11  and  C_12 
REMARK    4  A    between atoms: C_12  and  C_13 
REMARK    5  A    between atoms: C_13  and  C_14 
REMARK    6  A    between atoms: C_14  and  O_15 
REMARK    7  A    between atoms: C_14  and  C_16 
ROOT
HETATM    1  N   UNL     1      -6.656   1.627 -33.318  1.00  0.00    -0.337 N 
HETATM    2  C   UNL     1      -5.993   2.830 -33.373  1.00  0.00     0.316 C 
HETATM    3  N   UNL     1      -5.700   3.278 -32.116  1.00  0.00    -0.339 N 
HETATM    4  O   UNL     1      -5.722   3.401 -34.423  1.00  0.00    -0.247 OA
HETATM    5  H   UNL     1      -6.434   1.107 -32.479  1.00  0.00     0.164 HD
HETATM    6  H   UNL     1      -6.403   3.019 -31.435  1.00  0.00     0.164 HD
ENDROOT
BRANCH   1   7
HETATM    7  C   UNL     1      -6.879   0.834 -34.511  1.00  0.00     0.183 C 
BRANCH   7   8
HETATM    8  C   UNL     1      -6.255  -0.508 -34.401  1.00  0.00     0.044 A 
HETATM    9  N   UNL     1      -5.119  -0.742 -33.640  1.00  0.00    -0.343 N 
HETATM   10  C   UNL     1      -4.766  -2.017 -33.682  1.00  0.00     0.112 A 
HETATM   11  H   UNL     1      -4.599   0.016 -33.180  1.00  0.00     0.167 HD
HETATM   12  N   UNL     1      -5.649  -2.658 -34.474  1.00  0.00    -0.311 N 
HETATM   13  C   UNL     1      -3.642  -2.726 -33.031  1.00  0.00     0.049 A 
HETATM   14  C   UNL     1      -5.560  -4.023 -34.743  1.00  0.00     0.014 A 
HETATM   15  C   UNL     1      -6.583  -1.736 -34.933  1.00  0.00     0.125 A 
HETATM   16  C   UNL     1      -6.545  -4.700 -35.647  1.00  0.00     0.068 C 
HETATM   17  C   UNL     1      -4.538  -4.682 -34.151  1.00  0.00     0.025 A 
HETATM   18  C   UNL     1      -3.559  -4.045 -33.277  1.00  0.00     0.006 A 
ENDBRANCH   7   8
ENDBRANCH   1   7
BRANCH   3  19
HETATM   19  C   UNL     1      -5.087   4.575 -31.824  1.00  0.00     0.085 C 
HETATM   20  C   UNL     1      -6.005   5.498 -31.020  1.00  0.00     0.032 C 
BRANCH  19  21
HETATM   21  C   UNL     1      -3.710   4.437 -31.148  1.00  0.00     0.063 C 
BRANCH  21  22
HETATM   22  C   UNL     1      -2.528   4.231 -32.106  1.00  0.00     0.177 C 
BRANCH  22  23
HETATM   23  O   UNL     1      -2.914   4.542 -33.450  1.00  0.00    -0.389 OA
HETATM   24  H   UNL     1      -2.914   5.515 -33.502  1.00  0.00     0.210 HD
ENDBRANCH  22  23
BRANCH  22  25
HETATM   25  C   UNL     1      -1.337   5.063 -31.771  1.00  0.00     0.081 A 
HETATM   26  O   UNL     1      -0.472   4.533 -30.858  1.00  0.00    -0.324 OA
HETATM   27  C   UNL     1       0.526   5.436 -30.678  1.00  0.00     0.142 A 
HETATM   28  C   UNL     1       0.320   6.542 -31.469  1.00  0.00     0.027 A 
HETATM   29  C   UNL     1      -0.882   6.303 -32.176  1.00  0.00     0.037 A 
ENDBRANCH  22  25
ENDBRANCH  21  22
ENDBRANCH  19  21
ENDBRANCH   3  19
TORSDOF 7
ENDMDL
