MODEL 1
REMARK VINA RESULT:      -8.3      0.000      0.000
REMARK  4 active torsions:
REMARK  status: ('A' for Active; 'I' for Inactive)
REMARK    1  A    between atoms: C_9  and  C_10 
REMARK    2  A    between atoms: C_11  and  O_12 
REMARK    3  A    between atoms: C_18  and  C_19 
REMARK       I    between atoms: C_19  and  N_20 
REMARK    4  A    between atoms: N_20  and  C_21 
ROOT
HETATM    1  C   UNL     1     -10.764   0.198 -33.085  1.00  0.00     0.070 C 
HETATM    2  C   UNL     1      -9.953   1.468 -33.152  1.00  0.00     0.037 C 
HETATM    3  N   UNL     1     -10.662   2.616 -33.497  1.00  0.00    -0.192 N 
HETATM    4  C   UNL     1     -10.054   3.749 -33.901  1.00  0.00     0.725 A 
HETATM    5  N   UNL     1      -8.695   3.868 -33.774  1.00  0.00    -0.084 N 
HETATM    6  N   UNL     1      -8.255   5.032 -34.297  1.00  0.00    -0.149 NA
HETATM    7  C   UNL     1      -9.412   5.578 -34.690  1.00  0.00     0.275 A 
HETATM    8  N   UNL     1     -10.537   4.830 -34.460  1.00  0.00    -0.054 NA
HETATM    9  C   UNL     1      -7.835   2.840 -33.165  1.00  0.00     0.205 C 
HETATM   10  C   UNL     1      -8.608   1.537 -32.978  1.00  0.00     0.063 C 
HETATM   11  H   UNL     1     -11.647   2.505 -33.727  1.00  0.00     0.184 HD
ENDROOT
BRANCH  10  12
HETATM   12  C   UNL     1      -7.756   0.343 -32.752  1.00  0.00     0.256 C 
HETATM   13  N   UNL     1      -7.336  -0.258 -33.920  1.00  0.00    -0.323 N 
HETATM   14  H   UNL     1      -7.672   0.143 -34.787  1.00  0.00     0.169 HD
HETATM   15  O   UNL     1      -7.496   0.009 -31.604  1.00  0.00    -0.267 OA
BRANCH  13  16
HETATM   16  C   UNL     1      -6.427  -1.329 -34.042  1.00  0.00     0.035 A 
HETATM   17  C   UNL     1      -6.755  -2.572 -34.591  1.00  0.00     0.031 A 
HETATM   18  C   UNL     1      -5.806  -3.599 -34.648  1.00  0.00     0.026 A 
HETATM   19  C   UNL     1      -4.524  -3.389 -34.151  1.00  0.00     0.034 A 
HETATM   20 CL   UNL     1      -3.363  -4.656 -34.206  1.00  0.00    -0.084 Cl
HETATM   21  C   UNL     1      -4.179  -2.155 -33.607  1.00  0.00     0.026 A 
HETATM   22  C   UNL     1      -5.128  -1.126 -33.559  1.00  0.00     0.031 A 
ENDBRANCH  13  16
ENDBRANCH  10  12
BRANCH   9  23
HETATM   23  C   UNL     1      -7.261   3.352 -31.840  1.00  0.00     0.005 A 
HETATM   24  C   UNL     1      -5.871   3.344 -31.612  1.00  0.00     0.076 A 
HETATM   25  C   UNL     1      -5.360   3.830 -30.403  1.00  0.00     0.037 A 
HETATM   26  C   UNL     1      -6.219   4.302 -29.407  1.00  0.00     0.003 A 
HETATM   27  C   UNL     1      -7.594   4.286 -29.609  1.00  0.00     0.001 A 
HETATM   28  C   UNL     1      -8.113   3.810 -30.812  1.00  0.00     0.012 A 
BRANCH  24  29
HETATM   29  O   UNL     1      -5.099   2.859 -32.632  1.00  0.00    -0.355 OA
HETATM   30  C   UNL     1      -3.900   2.178 -32.282  1.00  0.00     0.210 C 
ENDBRANCH  24  29
ENDBRANCH   9  23
TORSDOF 4
ENDMDL
MODEL 2
REMARK VINA RESULT:      -8.2      2.417      4.429
REMARK  4 active torsions:
REMARK  status: ('A' for Active; 'I' for Inactive)
REMARK    1  A    between atoms: C_9  and  C_10 
REMARK    2  A    between atoms: C_11  and  O_12 
REMARK    3  A    between atoms: C_18  and  C_19 
REMARK       I    between atoms: C_19  and  N_20 
REMARK    4  A    between atoms: N_20  and  C_21 
ROOT
HETATM    1  C   UNL     1      -3.231   1.921 -31.178  1.00  0.00     0.070 C 
HETATM    2  C   UNL     1      -4.521   2.662 -30.928  1.00  0.00     0.037 C 
HETATM    3  N   UNL     1      -4.383   3.952 -30.423  1.00  0.00    -0.192 N 
HETATM    4  C   UNL     1      -5.408   4.623 -29.859  1.00  0.00     0.725 A 
HETATM    5  N   UNL     1      -6.680   4.125 -29.967  1.00  0.00    -0.084 N 
HETATM    6  N   UNL     1      -7.561   4.884 -29.281  1.00  0.00    -0.149 NA
HETATM    7  C   UNL     1      -6.751   5.842 -28.816  1.00  0.00     0.275 A 
HETATM    8  N   UNL     1      -5.428   5.724 -29.152  1.00  0.00    -0.054 NA
HETATM    9  C   UNL     1      -7.023   2.906 -30.716  1.00  0.00     0.205 C 
HETATM   10  C   UNL     1      -5.761   2.133 -31.089  1.00  0.00     0.063 C 
HETATM   11  H   UNL     1      -3.441   4.273 -30.213  1.00  0.00     0.184 HD
ENDROOT
BRANCH  10  12
HETATM   12  C   UNL     1      -5.997   0.722 -31.484  1.00  0.00     0.256 C 
HETATM   13  N   UNL     1      -5.731   0.476 -32.815  1.00  0.00    -0.323 N 
HETATM   14  H   UNL     1      -5.446   1.267 -33.378  1.00  0.00     0.169 HD
HETATM   15  O   UNL     1      -6.376  -0.076 -30.638  1.00  0.00    -0.267 OA
BRANCH  13  16
HETATM   16  C   UNL     1      -5.741  -0.777 -33.463  1.00  0.00     0.035 A 
HETATM   17  C   UNL     1      -4.592  -1.527 -33.729  1.00  0.00     0.031 A 
HETATM   18  C   UNL     1      -4.678  -2.748 -34.407  1.00  0.00     0.026 A 
HETATM   19  C   UNL     1      -5.916  -3.223 -34.826  1.00  0.00     0.034 A 
HETATM   20 CL   UNL     1      -6.021  -4.716 -35.673  1.00  0.00    -0.084 Cl
HETATM   21  C   UNL     1      -7.071  -2.492 -34.564  1.00  0.00     0.026 A 
HETATM   22  C   UNL     1      -6.983  -1.275 -33.878  1.00  0.00     0.031 A 
ENDBRANCH  13  16
ENDBRANCH  10  12
BRANCH   9  23
HETATM   23  C   UNL     1      -7.853   3.264 -31.953  1.00  0.00     0.005 A 
HETATM   24  C   UNL     1      -8.983   2.501 -32.303  1.00  0.00     0.076 A 
HETATM   25  C   UNL     1      -9.741   2.850 -33.427  1.00  0.00     0.037 A 
HETATM   26  C   UNL     1      -9.372   3.938 -34.221  1.00  0.00     0.003 A 
HETATM   27  C   UNL     1      -8.242   4.680 -33.904  1.00  0.00     0.001 A 
HETATM   28  C   UNL     1      -7.483   4.345 -32.783  1.00  0.00     0.012 A 
BRANCH  24  29
HETATM   29  O   UNL     1      -9.273   1.447 -31.479  1.00  0.00    -0.355 OA
HETATM   30  C   UNL     1      -9.667   0.224 -32.090  1.00  0.00     0.210 C 
ENDBRANCH  24  29
ENDBRANCH   9  23
TORSDOF 4
ENDMDL
MODEL 3
REMARK VINA RESULT:      -8.0      2.758      5.489
REMARK  4 active torsions:
REMARK  status: ('A' for Active; 'I' for Inactive)
REMARK    1  A    between atoms: C_9  and  C_10 
REMARK    2  A    between atoms: C_11  and  O_12 
REMARK    3  A    between atoms: C_18  and  C_19 
REMARK       I    between atoms: C_19  and  N_20 
REMARK    4  A    between atoms: N_20  and  C_21 
ROOT
HETATM    1  C   UNL     1      -9.150   5.238 -34.581  1.00  0.00     0.070 C 
HETATM    2  C   UNL     1      -9.438   3.798 -34.234  1.00  0.00     0.037 C 
HETATM    3  N   UNL     1     -10.581   3.257 -34.819  1.00  0.00    -0.192 N 
HETATM    4  C   UNL     1     -11.147   2.114 -34.381  1.00  0.00     0.725 A 
HETATM    5  N   UNL     1     -10.478   1.334 -33.476  1.00  0.00    -0.084 N 
HETATM    6  N   UNL     1     -11.225   0.276 -33.096  1.00  0.00    -0.149 NA
HETATM    7  C   UNL     1     -12.319   0.467 -33.842  1.00  0.00     0.275 A 
HETATM    8  N   UNL     1     -12.309   1.576 -34.648  1.00  0.00    -0.054 NA
HETATM    9  C   UNL     1      -9.129   1.635 -32.971  1.00  0.00     0.205 C 
HETATM   10  C   UNL     1      -8.717   3.054 -33.356  1.00  0.00     0.063 C 
HETATM   11  H   UNL     1     -11.155   3.878 -35.384  1.00  0.00     0.184 HD
ENDROOT
BRANCH  10  12
HETATM   12  C   UNL     1      -7.574   3.596 -32.581  1.00  0.00     0.256 C 
HETATM   13  N   UNL     1      -6.354   3.389 -33.191  1.00  0.00    -0.323 N 
HETATM   14  H   UNL     1      -6.359   2.872 -34.061  1.00  0.00     0.169 HD
HETATM   15  O   UNL     1      -7.792   4.167 -31.521  1.00  0.00    -0.267 OA
BRANCH  13  16
HETATM   16  C   UNL     1      -5.102   3.885 -32.771  1.00  0.00     0.035 A 
HETATM   17  C   UNL     1      -4.651   5.182 -33.030  1.00  0.00     0.031 A 
HETATM   18  C   UNL     1      -3.381   5.593 -32.609  1.00  0.00     0.026 A 
HETATM   19  C   UNL     1      -2.554   4.705 -31.929  1.00  0.00     0.034 A 
HETATM   20 CL   UNL     1      -0.988   5.204 -31.426  1.00  0.00    -0.084 Cl
HETATM   21  C   UNL     1      -2.991   3.412 -31.657  1.00  0.00     0.026 A 
HETATM   22  C   UNL     1      -4.265   3.007 -32.071  1.00  0.00     0.031 A 
ENDBRANCH  13  16
ENDBRANCH  10  12
BRANCH   9  23
HETATM   23  C   UNL     1      -8.129   0.597 -33.490  1.00  0.00     0.005 A 
HETATM   24  C   UNL     1      -7.278  -0.085 -32.599  1.00  0.00     0.076 A 
HETATM   25  C   UNL     1      -6.381  -1.043 -33.085  1.00  0.00     0.037 A 
HETATM   26  C   UNL     1      -6.304  -1.313 -34.453  1.00  0.00     0.003 A 
HETATM   27  C   UNL     1      -7.116  -0.625 -35.346  1.00  0.00     0.001 A 
HETATM   28  C   UNL     1      -8.018   0.327 -34.871  1.00  0.00     0.012 A 
BRANCH  24  29
HETATM   29  O   UNL     1      -7.409   0.242 -31.276  1.00  0.00    -0.355 OA
HETATM   30  C   UNL     1      -6.229   0.255 -30.483  1.00  0.00     0.210 C 
ENDBRANCH  24  29
ENDBRANCH   9  23
TORSDOF 4
ENDMDL
MODEL 4
REMARK VINA RESULT:      -7.9      3.404      6.118
REMARK  4 active torsions:
REMARK  status: ('A' for Active; 'I' for Inactive)
REMARK    1  A    between atoms: C_9  and  C_10 
REMARK    2  A    between atoms: C_11  and  O_12 
REMARK    3  A    between atoms: C_18  and  C_19 
REMARK       I    between atoms: C_19  and  N_20 
REMARK    4  A    between atoms: N_20  and  C_21 
ROOT
HETATM    1  C   UNL     1      -6.297   4.781 -29.235  1.00  0.00     0.070 C 
HETATM    2  C   UNL     1      -5.392   4.234 -30.311  1.00  0.00     0.037 C 
HETATM    3  N   UNL     1      -4.102   4.759 -30.335  1.00  0.00    -0.192 N 
HETATM    4  C   UNL     1      -3.283   4.620 -31.397  1.00  0.00     0.725 A 
HETATM    5  N   UNL     1      -3.628   3.761 -32.406  1.00  0.00    -0.084 N 
HETATM    6  N   UNL     1      -2.732   3.808 -33.415  1.00  0.00    -0.149 NA
HETATM    7  C   UNL     1      -1.855   4.693 -32.925  1.00  0.00     0.275 A 
HETATM    8  N   UNL     1      -2.151   5.208 -31.690  1.00  0.00    -0.054 NA
HETATM    9  C   UNL     1      -4.835   2.920 -32.392  1.00  0.00     0.205 C 
HETATM   10  C   UNL     1      -5.774   3.350 -31.268  1.00  0.00     0.063 C 
HETATM   11  H   UNL     1      -3.887   5.499 -29.670  1.00  0.00     0.184 HD
ENDROOT
BRANCH  10  12
HETATM   12  C   UNL     1      -7.166   2.852 -31.404  1.00  0.00     0.256 C 
HETATM   13  N   UNL     1      -7.676   2.995 -32.678  1.00  0.00    -0.323 N 
HETATM   14  H   UNL     1      -7.080   3.445 -33.361  1.00  0.00     0.169 HD
HETATM   15  O   UNL     1      -7.720   2.366 -30.427  1.00  0.00    -0.267 OA
BRANCH  13  16
HETATM   16  C   UNL     1      -8.913   2.513 -33.153  1.00  0.00     0.035 A 
HETATM   17  C   UNL     1      -9.394   1.224 -32.908  1.00  0.00     0.031 A 
HETATM   18  C   UNL     1     -10.618   0.807 -33.442  1.00  0.00     0.026 A 
HETATM   19  C   UNL     1     -11.366   1.677 -34.229  1.00  0.00     0.034 A 
HETATM   20 CL   UNL     1     -12.862   1.158 -34.898  1.00  0.00    -0.084 Cl
HETATM   21  C   UNL     1     -10.904   2.966 -34.477  1.00  0.00     0.026 A 
HETATM   22  C   UNL     1      -9.683   3.384 -33.934  1.00  0.00     0.031 A 
ENDBRANCH  13  16
ENDBRANCH  10  12
BRANCH   9  23
HETATM   23  C   UNL     1      -4.446   1.443 -32.269  1.00  0.00     0.005 A 
HETATM   24  C   UNL     1      -5.041   0.475 -33.100  1.00  0.00     0.076 A 
HETATM   25  C   UNL     1      -4.664  -0.869 -32.988  1.00  0.00     0.037 A 
HETATM   26  C   UNL     1      -3.717  -1.263 -32.039  1.00  0.00     0.003 A 
HETATM   27  C   UNL     1      -3.146  -0.321 -31.193  1.00  0.00     0.001 A 
HETATM   28  C   UNL     1      -3.510   1.020 -31.300  1.00  0.00     0.012 A 
BRANCH  24  29
HETATM   29  O   UNL     1      -5.964   0.940 -33.997  1.00  0.00    -0.355 OA
HETATM   30  C   UNL     1      -6.570  -0.008 -34.868  1.00  0.00     0.210 C 
ENDBRANCH  24  29
ENDBRANCH   9  23
TORSDOF 4
ENDMDL
MODEL 5
REMARK VINA RESULT:      -7.7      3.392      6.039
REMARK  4 active torsions:
REMARK  status: ('A' for Active; 'I' for Inactive)
REMARK    1  A    between atoms: C_9  and  C_10 
REMARK    2  A    between atoms: C_11  and  O_12 
REMARK    3  A    between atoms: C_18  and  C_19 
REMARK       I    between atoms: C_19  and  N_20 
REMARK    4  A    between atoms: N_20  and  C_21 
ROOT
HETATM    1  C   UNL     1      -7.446  -1.765 -34.208  1.00  0.00     0.070 C 
HETATM    2  C   UNL     1      -6.725  -0.696 -33.424  1.00  0.00     0.037 C 
HETATM    3  N   UNL     1      -5.337  -0.801 -33.402  1.00  0.00    -0.192 N 
HETATM    4  C   UNL     1      -4.573  -0.133 -32.514  1.00  0.00     0.725 A 
HETATM    5  N   UNL     1      -5.139   0.844 -31.740  1.00  0.00    -0.084 N 
HETATM    6  N   UNL     1      -4.248   1.349 -30.860  1.00  0.00    -0.149 NA
HETATM    7  C   UNL     1      -3.155   0.649 -31.189  1.00  0.00     0.275 A 
HETATM    8  N   UNL     1      -3.310  -0.263 -32.200  1.00  0.00    -0.054 NA
HETATM    9  C   UNL     1      -6.546   1.264 -31.846  1.00  0.00     0.205 C 
HETATM   10  C   UNL     1      -7.336   0.278 -32.703  1.00  0.00     0.063 C 
HETATM   11  H   UNL     1      -4.922  -1.608 -33.864  1.00  0.00     0.184 HD
ENDROOT
BRANCH  10  12
HETATM   12  C   UNL     1      -8.810   0.376 -32.554  1.00  0.00     0.256 C 
HETATM   13  N   UNL     1      -9.454   0.730 -33.721  1.00  0.00    -0.323 N 
HETATM   14  H   UNL     1      -8.870   0.918 -34.527  1.00  0.00     0.169 HD
HETATM   15  O   UNL     1      -9.314   0.134 -31.466  1.00  0.00    -0.267 OA
BRANCH  13  16
HETATM   16  C   UNL     1     -10.847   0.788 -33.935  1.00  0.00     0.035 A 
HETATM   17  C   UNL     1     -11.485   1.807 -34.647  1.00  0.00     0.031 A 
HETATM   18  C   UNL     1     -12.877   1.814 -34.790  1.00  0.00     0.026 A 
HETATM   19  C   UNL     1     -13.638   0.801 -34.217  1.00  0.00     0.034 A 
HETATM   20 CL   UNL     1     -15.350   0.817 -34.379  1.00  0.00    -0.084 Cl
HETATM   21  C   UNL     1     -13.018  -0.226 -33.511  1.00  0.00     0.026 A 
HETATM   22  C   UNL     1     -11.625  -0.234 -33.377  1.00  0.00     0.031 A 
ENDBRANCH  13  16
ENDBRANCH  10  12
BRANCH   9  23
HETATM   23  C   UNL     1      -6.629   2.689 -32.403  1.00  0.00     0.005 A 
HETATM   24  C   UNL     1      -7.352   3.685 -31.717  1.00  0.00     0.076 A 
HETATM   25  C   UNL     1      -7.405   4.986 -32.230  1.00  0.00     0.037 A 
HETATM   26  C   UNL     1      -6.767   5.303 -33.431  1.00  0.00     0.003 A 
HETATM   27  C   UNL     1      -6.076   4.322 -34.132  1.00  0.00     0.001 A 
HETATM   28  C   UNL     1      -6.011   3.024 -33.628  1.00  0.00     0.012 A 
BRANCH  24  29
HETATM   29  O   UNL     1      -7.955   3.293 -30.553  1.00  0.00    -0.355 OA
HETATM   30  C   UNL     1      -9.360   3.489 -30.443  1.00  0.00     0.210 C 
ENDBRANCH  24  29
ENDBRANCH   9  23
TORSDOF 4
ENDMDL
MODEL 6
REMARK VINA RESULT:      -7.5      3.392      5.909
REMARK  4 active torsions:
REMARK  status: ('A' for Active; 'I' for Inactive)
REMARK    1  A    between atoms: C_9  and  C_10 
REMARK    2  A    between atoms: C_11  and  O_12 
REMARK    3  A    between atoms: C_18  and  C_19 
REMARK       I    between atoms: C_19  and  N_20 
REMARK    4  A    between atoms: N_20  and  C_21 
ROOT
HETATM    1  C   UNL     1      -8.612   5.509 -30.522  1.00  0.00     0.070 C 
HETATM    2  C   UNL     1      -7.636   4.899 -31.497  1.00  0.00     0.037 C 
HETATM    3  N   UNL     1      -6.486   5.646 -31.740  1.00  0.00    -0.192 N 
HETATM    4  C   UNL     1      -5.678   5.409 -32.794  1.00  0.00     0.725 A 
HETATM    5  N   UNL     1      -5.856   4.273 -33.538  1.00  0.00    -0.084 N 
HETATM    6  N   UNL     1      -5.011   4.241 -34.591  1.00  0.00    -0.149 NA
HETATM    7  C   UNL     1      -4.329   5.376 -34.394  1.00  0.00     0.275 A 
HETATM    8  N   UNL     1      -4.701   6.116 -33.302  1.00  0.00    -0.054 NA
HETATM    9  C   UNL     1      -6.860   3.241 -33.234  1.00  0.00     0.205 C 
HETATM   10  C   UNL     1      -7.845   3.746 -32.182  1.00  0.00     0.063 C 
HETATM   11  H   UNL     1      -6.416   6.556 -31.291  1.00  0.00     0.184 HD
ENDROOT
BRANCH  10  12
HETATM   12  C   UNL     1      -9.104   2.964 -32.092  1.00  0.00     0.256 C 
HETATM   13  N   UNL     1      -9.975   3.210 -33.133  1.00  0.00    -0.323 N 
HETATM   14  H   UNL     1      -9.690   3.904 -33.813  1.00  0.00     0.169 HD
HETATM   15  O   UNL     1      -9.258   2.193 -31.155  1.00  0.00    -0.267 OA
BRANCH  13  16
HETATM   16  C   UNL     1     -11.189   2.542 -33.396  1.00  0.00     0.035 A 
HETATM   17  C   UNL     1     -11.279   1.185 -33.719  1.00  0.00     0.031 A 
HETATM   18  C   UNL     1     -12.519   0.600 -34.000  1.00  0.00     0.026 A 
HETATM   19  C   UNL     1     -13.675   1.372 -33.963  1.00  0.00     0.034 A 
HETATM   20 CL   UNL     1     -15.197   0.657 -34.324  1.00  0.00    -0.084 Cl
HETATM   21  C   UNL     1     -13.604   2.723 -33.637  1.00  0.00     0.026 A 
HETATM   22  C   UNL     1     -12.363   3.304 -33.348  1.00  0.00     0.031 A 
ENDBRANCH  13  16
ENDBRANCH  10  12
BRANCH   9  23
HETATM   23  C   UNL     1      -6.168   1.950 -32.786  1.00  0.00     0.005 A 
HETATM   24  C   UNL     1      -6.156   0.817 -33.622  1.00  0.00     0.076 A 
HETATM   25  C   UNL     1      -5.506  -0.351 -33.207  1.00  0.00     0.037 A 
HETATM   26  C   UNL     1      -4.886  -0.412 -31.957  1.00  0.00     0.003 A 
HETATM   27  C   UNL     1      -4.918   0.689 -31.110  1.00  0.00     0.001 A 
HETATM   28  C   UNL     1      -5.558   1.859 -31.516  1.00  0.00     0.012 A 
BRANCH  24  29
HETATM   29  O   UNL     1      -6.792   0.955 -34.827  1.00  0.00    -0.355 OA
HETATM   30  C   UNL     1      -7.677  -0.085 -35.225  1.00  0.00     0.210 C 
ENDBRANCH  24  29
ENDBRANCH   9  23
TORSDOF 4
ENDMDL
MODEL 7
REMARK VINA RESULT:      -7.2      6.160      9.484
REMARK  4 active torsions:
REMARK  status: ('A' for Active; 'I' for Inactive)
REMARK    1  A    between atoms: C_9  and  C_10 
REMARK    2  A    between atoms: C_11  and  O_12 
REMARK    3  A    between atoms: C_18  and  C_19 
REMARK       I    between atoms: C_19  and  N_20 
REMARK    4  A    between atoms: N_20  and  C_21 
ROOT
HETATM    1  C   UNL     1       0.380   6.463 -31.148  1.00  0.00     0.070 C 
HETATM    2  C   UNL     1      -0.967   6.167 -31.758  1.00  0.00     0.037 C 
HETATM    3  N   UNL     1      -0.940   5.460 -32.958  1.00  0.00    -0.192 N 
HETATM    4  C   UNL     1      -2.007   5.388 -33.780  1.00  0.00     0.725 A 
HETATM    5  N   UNL     1      -3.225   5.836 -33.345  1.00  0.00    -0.084 N 
HETATM    6  N   UNL     1      -4.153   5.756 -34.323  1.00  0.00    -0.149 NA
HETATM    7  C   UNL     1      -3.426   5.216 -35.308  1.00  0.00     0.275 A 
HETATM    8  N   UNL     1      -2.110   4.969 -35.016  1.00  0.00    -0.054 NA
HETATM    9  C   UNL     1      -3.473   6.357 -31.992  1.00  0.00     0.205 C 
HETATM   10  C   UNL     1      -2.154   6.604 -31.263  1.00  0.00     0.063 C 
HETATM   11  H   UNL     1      -0.028   5.246 -33.353  1.00  0.00     0.184 HD
ENDROOT
BRANCH  10  12
HETATM   12  C   UNL     1      -2.263   7.483 -30.072  1.00  0.00     0.256 C 
HETATM   13  N   UNL     1      -2.185   6.797 -28.878  1.00  0.00    -0.323 N 
HETATM   14  H   UNL     1      -2.102   5.790 -28.934  1.00  0.00     0.169 HD
HETATM   15  O   UNL     1      -2.392   8.689 -30.235  1.00  0.00    -0.267 OA
BRANCH  13  16
HETATM   16  C   UNL     1      -2.135   7.354 -27.583  1.00  0.00     0.035 A 
HETATM   17  C   UNL     1      -0.975   7.873 -27.002  1.00  0.00     0.031 A 
HETATM   18  C   UNL     1      -0.996   8.379 -25.698  1.00  0.00     0.026 A 
HETATM   19  C   UNL     1      -2.179   8.366 -24.967  1.00  0.00     0.034 A 
HETATM   20 CL   UNL     1      -2.201   8.974 -23.359  1.00  0.00    -0.084 Cl
HETATM   21  C   UNL     1      -3.344   7.859 -25.533  1.00  0.00     0.026 A 
HETATM   22  C   UNL     1      -3.323   7.360 -26.841  1.00  0.00     0.031 A 
ENDBRANCH  13  16
ENDBRANCH  10  12
BRANCH   9  23
HETATM   23  C   UNL     1      -4.377   5.395 -31.214  1.00  0.00     0.005 A 
HETATM   24  C   UNL     1      -5.508   5.875 -30.525  1.00  0.00     0.076 A 
HETATM   25  C   UNL     1      -6.334   4.982 -29.833  1.00  0.00     0.037 A 
HETATM   26  C   UNL     1      -6.033   3.619 -29.797  1.00  0.00     0.003 A 
HETATM   27  C   UNL     1      -4.903   3.138 -30.447  1.00  0.00     0.001 A 
HETATM   28  C   UNL     1      -4.077   4.018 -31.145  1.00  0.00     0.012 A 
BRANCH  24  29
HETATM   29  O   UNL     1      -5.729   7.224 -30.602  1.00  0.00    -0.355 OA
HETATM   30  C   UNL     1      -5.964   7.921 -29.385  1.00  0.00     0.210 C 
ENDBRANCH  24  29
ENDBRANCH   9  23
TORSDOF 4
ENDMDL
MODEL 8
REMARK VINA RESULT:      -7.2     15.689     17.714
REMARK  4 active torsions:
REMARK  status: ('A' for Active; 'I' for Inactive)
REMARK    1  A    between atoms: C_9  and  C_10 
REMARK    2  A    between atoms: C_11  and  O_12 
REMARK    3  A    between atoms: C_18  and  C_19 
REMARK       I    between atoms: C_19  and  N_20 
REMARK    4  A    between atoms: N_20  and  C_21 
ROOT
HETATM    1  C   UNL     1      -2.518 -13.076 -37.749  1.00  0.00     0.070 C 
HETATM    2  C   UNL     1      -3.902 -13.363 -37.221  1.00  0.00     0.037 C 
HETATM    3  N   UNL     1      -4.211 -12.777 -35.996  1.00  0.00    -0.192 N 
HETATM    4  C   UNL     1      -5.259 -13.174 -35.247  1.00  0.00     0.725 A 
HETATM    5  N   UNL     1      -6.185 -14.030 -35.782  1.00  0.00    -0.084 N 
HETATM    6  N   UNL     1      -7.116 -14.376 -34.869  1.00  0.00    -0.149 NA
HETATM    7  C   UNL     1      -6.706 -13.660 -33.815  1.00  0.00     0.275 A 
HETATM    8  N   UNL     1      -5.577 -12.906 -34.006  1.00  0.00    -0.054 NA
HETATM    9  C   UNL     1      -6.144 -14.520 -37.169  1.00  0.00     0.205 C 
HETATM   10  C   UNL     1      -4.799 -14.192 -37.814  1.00  0.00     0.063 C 
HETATM   11  H   UNL     1      -3.474 -12.252 -35.531  1.00  0.00     0.184 HD
ENDROOT
BRANCH  10  12
HETATM   12  C   UNL     1      -4.499 -14.968 -39.043  1.00  0.00     0.256 C 
HETATM   13  N   UNL     1      -4.523 -14.203 -40.191  1.00  0.00    -0.323 N 
HETATM   14  H   UNL     1      -4.772 -13.228 -40.086  1.00  0.00     0.169 HD
HETATM   15  O   UNL     1      -4.254 -16.162 -38.946  1.00  0.00    -0.267 OA
BRANCH  13  16
HETATM   16  C   UNL     1      -4.166 -14.617 -41.491  1.00  0.00     0.035 A 
HETATM   17  C   UNL     1      -4.901 -14.306 -42.638  1.00  0.00     0.031 A 
HETATM   18  C   UNL     1      -4.501 -14.781 -43.892  1.00  0.00     0.026 A 
HETATM   19  C   UNL     1      -3.363 -15.573 -44.004  1.00  0.00     0.034 A 
HETATM   20 CL   UNL     1      -2.880 -16.170 -45.543  1.00  0.00    -0.084 Cl
HETATM   21  C   UNL     1      -2.616 -15.886 -42.872  1.00  0.00     0.026 A 
HETATM   22  C   UNL     1      -3.014 -15.403 -41.621  1.00  0.00     0.031 A 
ENDBRANCH  13  16
ENDBRANCH  10  12
BRANCH   9  23
HETATM   23  C   UNL     1      -7.312 -13.935 -37.970  1.00  0.00     0.005 A 
HETATM   24  C   UNL     1      -8.402 -14.746 -38.341  1.00  0.00     0.076 A 
HETATM   25  C   UNL     1      -9.470 -14.194 -39.058  1.00  0.00     0.037 A 
HETATM   26  C   UNL     1      -9.455 -12.848 -39.430  1.00  0.00     0.003 A 
HETATM   27  C   UNL     1      -8.371 -12.045 -39.096  1.00  0.00     0.001 A 
HETATM   28  C   UNL     1      -7.304 -12.583 -38.377  1.00  0.00     0.012 A 
BRANCH  24  29
HETATM   29  O   UNL     1      -8.338 -16.054 -37.946  1.00  0.00    -0.355 OA
HETATM   30  C   UNL     1      -9.104 -17.001 -38.681  1.00  0.00     0.210 C 
ENDBRANCH  24  29
ENDBRANCH   9  23
TORSDOF 4
ENDMDL
MODEL 9
REMARK VINA RESULT:      -7.2      4.900      6.969
REMARK  4 active torsions:
REMARK  status: ('A' for Active; 'I' for Inactive)
REMARK    1  A    between atoms: C_9  and  C_10 
REMARK    2  A    between atoms: C_11  and  O_12 
REMARK    3  A    between atoms: C_18  and  C_19 
REMARK       I    between atoms: C_19  and  N_20 
REMARK    4  A    between atoms: N_20  and  C_21 
ROOT
HETATM    1  C   UNL     1      -6.120   6.087 -28.306  1.00  0.00     0.070 C 
HETATM    2  C   UNL     1      -5.221   7.039 -29.054  1.00  0.00     0.037 C 
HETATM    3  N   UNL     1      -5.062   8.295 -28.473  1.00  0.00    -0.192 N 
HETATM    4  C   UNL     1      -4.561   9.348 -29.150  1.00  0.00     0.725 A 
HETATM    5  N   UNL     1      -3.988   9.150 -30.378  1.00  0.00    -0.084 N 
HETATM    6  N   UNL     1      -3.613  10.319 -30.937  1.00  0.00    -0.149 NA
HETATM    7  C   UNL     1      -3.960  11.177 -29.970  1.00  0.00     0.275 A 
HETATM    8  N   UNL     1      -4.536  10.623 -28.857  1.00  0.00    -0.054 NA
HETATM    9  C   UNL     1      -3.831   7.828 -31.006  1.00  0.00     0.205 C 
HETATM   10  C   UNL     1      -4.644   6.778 -30.255  1.00  0.00     0.063 C 
HETATM   11  H   UNL     1      -5.597   8.491 -27.630  1.00  0.00     0.184 HD
ENDROOT
BRANCH  10  12
HETATM   12  C   UNL     1      -4.878   5.522 -31.011  1.00  0.00     0.256 C 
HETATM   13  N   UNL     1      -4.138   4.456 -30.542  1.00  0.00    -0.323 N 
HETATM   14  H   UNL     1      -3.503   4.642 -29.776  1.00  0.00     0.169 HD
HETATM   15  O   UNL     1      -5.678   5.527 -31.936  1.00  0.00    -0.267 OA
BRANCH  13  16
HETATM   16  C   UNL     1      -4.225   3.114 -30.966  1.00  0.00     0.035 A 
HETATM   17  C   UNL     1      -3.392   2.546 -31.934  1.00  0.00     0.031 A 
HETATM   18  C   UNL     1      -3.560   1.214 -32.327  1.00  0.00     0.026 A 
HETATM   19  C   UNL     1      -4.567   0.443 -31.755  1.00  0.00     0.034 A 
HETATM   20 CL   UNL     1      -4.784  -1.189 -32.250  1.00  0.00    -0.084 Cl
HETATM   21  C   UNL     1      -5.401   0.991 -30.785  1.00  0.00     0.026 A 
HETATM   22  C   UNL     1      -5.224   2.321 -30.387  1.00  0.00     0.031 A 
ENDBRANCH  13  16
ENDBRANCH  10  12
BRANCH   9  23
HETATM   23  C   UNL     1      -2.347   7.451 -31.075  1.00  0.00     0.005 A 
HETATM   24  C   UNL     1      -1.758   7.087 -32.302  1.00  0.00     0.076 A 
HETATM   25  C   UNL     1      -0.398   6.761 -32.353  1.00  0.00     0.037 A 
HETATM   26  C   UNL     1       0.378   6.771 -31.191  1.00  0.00     0.003 A 
HETATM   27  C   UNL     1      -0.199   7.098 -29.971  1.00  0.00     0.001 A 
HETATM   28  C   UNL     1      -1.552   7.431 -29.910  1.00  0.00     0.012 A 
BRANCH  24  29
HETATM   29  O   UNL     1      -2.587   7.095 -33.391  1.00  0.00    -0.355 OA
HETATM   30  C   UNL     1      -2.588   5.942 -34.223  1.00  0.00     0.210 C 
ENDBRANCH  24  29
ENDBRANCH   9  23
TORSDOF 4
ENDMDL
MODEL 10
REMARK VINA RESULT:      -7.1      3.541      6.608
REMARK  4 active torsions:
REMARK  status: ('A' for Active; 'I' for Inactive)
REMARK    1  A    between atoms: C_9  and  C_10 
REMARK    2  A    between atoms: C_11  and  O_12 
REMARK    3  A    between atoms: C_18  and  C_19 
REMARK       I    between atoms: C_19  and  N_20 
REMARK    4  A    between atoms: N_20  and  C_21 
ROOT
HETATM    1  C   UNL     1      -7.345   0.459 -35.346  1.00  0.00     0.070 C 
HETATM    2  C   UNL     1      -6.340   0.548 -34.224  1.00  0.00     0.037 C 
HETATM    3  N   UNL     1      -5.362  -0.443 -34.216  1.00  0.00    -0.192 N 
HETATM    4  C   UNL     1      -4.595  -0.695 -33.136  1.00  0.00     0.725 A 
HETATM    5  N   UNL     1      -4.613   0.175 -32.079  1.00  0.00    -0.084 N 
HETATM    6  N   UNL     1      -3.847  -0.274 -31.062  1.00  0.00    -0.149 NA
HETATM    7  C   UNL     1      -3.369  -1.405 -31.596  1.00  0.00     0.275 A 
HETATM    8  N   UNL     1      -3.796  -1.696 -32.865  1.00  0.00    -0.054 NA
HETATM    9  C   UNL     1      -5.392   1.424 -32.056  1.00  0.00     0.205 C 
HETATM   10  C   UNL     1      -6.382   1.458 -33.218  1.00  0.00     0.063 C 
HETATM   11  H   UNL     1      -5.429  -1.172 -34.923  1.00  0.00     0.184 HD
ENDROOT
BRANCH  10  12
HETATM   12  C   UNL     1      -7.470   2.457 -33.071  1.00  0.00     0.256 C 
HETATM   13  N   UNL     1      -8.581   1.962 -32.419  1.00  0.00    -0.323 N 
HETATM   14  H   UNL     1      -8.555   0.987 -32.148  1.00  0.00     0.169 HD
HETATM   15  O   UNL     1      -7.301   3.587 -33.506  1.00  0.00    -0.267 OA
BRANCH  13  16
HETATM   16  C   UNL     1      -9.722   2.688 -32.021  1.00  0.00     0.035 A 
HETATM   17  C   UNL     1      -9.822   3.383 -30.812  1.00  0.00     0.031 A 
HETATM   18  C   UNL     1     -11.002   4.054 -30.471  1.00  0.00     0.026 A 
HETATM   19  C   UNL     1     -12.090   4.030 -31.337  1.00  0.00     0.034 A 
HETATM   20 CL   UNL     1     -13.545   4.841 -30.911  1.00  0.00    -0.084 Cl
HETATM   21  C   UNL     1     -12.005   3.348 -32.547  1.00  0.00     0.026 A 
HETATM   22  C   UNL     1     -10.820   2.685 -32.890  1.00  0.00     0.031 A 
ENDBRANCH  13  16
ENDBRANCH  10  12
BRANCH   9  23
HETATM   23  C   UNL     1      -4.451   2.632 -32.080  1.00  0.00     0.005 A 
HETATM   24  C   UNL     1      -4.558   3.642 -31.103  1.00  0.00     0.076 A 
HETATM   25  C   UNL     1      -3.680   4.732 -31.128  1.00  0.00     0.037 A 
HETATM   26  C   UNL     1      -2.711   4.841 -32.128  1.00  0.00     0.003 A 
HETATM   27  C   UNL     1      -2.616   3.867 -33.114  1.00  0.00     0.001 A 
HETATM   28  C   UNL     1      -3.481   2.774 -33.096  1.00  0.00     0.012 A 
BRANCH  24  29
HETATM   29  O   UNL     1      -5.536   3.465 -30.163  1.00  0.00    -0.355 OA
HETATM   30  C   UNL     1      -6.488   4.510 -30.001  1.00  0.00     0.210 C 
ENDBRANCH  24  29
ENDBRANCH   9  23
TORSDOF 4
ENDMDL
