MODEL 1
REMARK VINA RESULT:      -9.2      0.000      0.000
REMARK  7 active torsions:
REMARK  status: ('A' for Active; 'I' for Inactive)
REMARK    1  A    between atoms: C_2  and  C_3 
REMARK    2  A    between atoms: C_4  and  O_5 
REMARK    3  A    between atoms: C_7  and  O_8 
REMARK    4  A    between atoms: C_9  and  C_10 
REMARK    5  A    between atoms: C_14  and  C_15 
REMARK    6  A    between atoms: C_19  and  C_20 
REMARK    7  A    between atoms: N_22  and  C_23 
ROOT
HETATM    1  C   UNL     1      -8.434   2.800 -32.068  1.00  0.00     0.103 A 
HETATM    2  N   UNL     1      -9.489   3.498 -31.602  1.00  0.00    -0.173 NA
HETATM    3  N   UNL     1     -10.562   2.845 -32.062  1.00  0.00    -0.272 N 
HETATM    4  H   UNL     1     -11.481   3.193 -31.805  1.00  0.00     0.189 HD
HETATM    5  C   UNL     1     -10.263   1.785 -32.860  1.00  0.00     0.147 A 
HETATM    6  C   UNL     1      -8.886   1.730 -32.907  1.00  0.00     0.042 A 
ENDROOT
BRANCH   1   7
HETATM    7  C   UNL     1      -7.076   3.218 -31.710  1.00  0.00     0.029 A 
HETATM    8  C   UNL     1      -6.452   2.840 -30.516  1.00  0.00     0.081 A 
HETATM    9  C   UNL     1      -5.141   3.237 -30.242  1.00  0.00     0.074 A 
HETATM   10  C   UNL     1      -4.453   4.045 -31.147  1.00  0.00     0.074 A 
HETATM   11  C   UNL     1      -5.061   4.492 -32.324  1.00  0.00    -0.024 A 
HETATM   12  C   UNL     1      -6.371   4.055 -32.595  1.00  0.00     0.026 A 
BRANCH   8  13
HETATM   13  O   UNL     1      -7.125   2.091 -29.589  1.00  0.00    -0.360 OA
HETATM   14  H   UNL     1      -8.012   2.466 -29.463  1.00  0.00     0.217 HD
ENDBRANCH   8  13
BRANCH  10  15
HETATM   15  O   UNL     1      -3.172   4.366 -30.798  1.00  0.00    -0.360 OA
HETATM   16  H   UNL     1      -2.690   3.559 -30.558  1.00  0.00     0.217 HD
ENDBRANCH  10  15
BRANCH  11  17
HETATM   17  C   UNL     1      -4.389   5.412 -33.312  1.00  0.00     0.037 C 
HETATM   18  C   UNL     1      -4.529   4.914 -34.743  1.00  0.00     0.010 C 
ENDBRANCH  11  17
ENDBRANCH   1   7
BRANCH   6  19
HETATM   19  C   UNL     1      -8.078   0.784 -33.661  1.00  0.00     0.016 A 
HETATM   20  C   UNL     1      -7.680  -0.478 -33.290  1.00  0.00     0.132 A 
HETATM   21  N   UNL     1      -6.896  -0.971 -34.313  1.00  0.00    -0.245 N 
HETATM   22  N   UNL     1      -6.823  -0.089 -35.347  1.00  0.00    -0.179 NA
HETATM   23  C   UNL     1      -7.534   0.965 -34.942  1.00  0.00     0.153 A 
BRANCH  21  24
HETATM   24  C   UNL     1      -6.204  -2.215 -34.361  1.00  0.00     0.058 A 
HETATM   25  C   UNL     1      -4.848  -2.309 -34.019  1.00  0.00     0.031 A 
HETATM   26  C   UNL     1      -4.190  -3.541 -34.089  1.00  0.00     0.002 A 
HETATM   27  C   UNL     1      -4.877  -4.681 -34.501  1.00  0.00     0.000 A 
HETATM   28  C   UNL     1      -6.225  -4.597 -34.842  1.00  0.00     0.002 A 
HETATM   29  C   UNL     1      -6.889  -3.370 -34.771  1.00  0.00     0.031 A 
ENDBRANCH  21  24
ENDBRANCH   6  19
BRANCH   5  30
HETATM   30  C   UNL     1     -11.334   1.001 -33.478  1.00  0.00     0.435 C 
HETATM   31  F   UNL     1     -11.248   1.030 -34.834  1.00  0.00    -0.165 F 
HETATM   32  F   UNL     1     -11.296  -0.303 -33.114  1.00  0.00    -0.165 F 
HETATM   33  F   UNL     1     -12.564   1.473 -33.160  1.00  0.00    -0.165 F 
ENDBRANCH   5  30
TORSDOF 7
ENDMDL
MODEL 2
REMARK VINA RESULT:      -9.0      3.465      4.962
REMARK  7 active torsions:
REMARK  status: ('A' for Active; 'I' for Inactive)
REMARK    1  A    between atoms: C_2  and  C_3 
REMARK    2  A    between atoms: C_4  and  O_5 
REMARK    3  A    between atoms: C_7  and  O_8 
REMARK    4  A    between atoms: C_9  and  C_10 
REMARK    5  A    between atoms: C_14  and  C_15 
REMARK    6  A    between atoms: C_19  and  C_20 
REMARK    7  A    between atoms: N_22  and  C_23 
ROOT
HETATM    1  C   UNL     1      -8.950   2.263 -31.882  1.00  0.00     0.103 A 
HETATM    2  N   UNL     1      -9.139   2.984 -30.758  1.00  0.00    -0.173 NA
HETATM    3  N   UNL     1      -7.996   2.857 -30.075  1.00  0.00    -0.272 N 
HETATM    4  H   UNL     1      -7.910   3.349 -29.190  1.00  0.00     0.189 HD
HETATM    5  C   UNL     1      -7.087   2.037 -30.666  1.00  0.00     0.147 A 
HETATM    6  C   UNL     1      -7.675   1.613 -31.839  1.00  0.00     0.042 A 
ENDROOT
BRANCH   1   7
HETATM    7  C   UNL     1     -10.006   2.220 -32.898  1.00  0.00     0.029 A 
HETATM    8  C   UNL     1     -10.763   1.073 -33.163  1.00  0.00     0.081 A 
HETATM    9  C   UNL     1     -11.783   1.099 -34.115  1.00  0.00     0.074 A 
HETATM   10  C   UNL     1     -12.035   2.265 -34.837  1.00  0.00     0.074 A 
HETATM   11  C   UNL     1     -11.265   3.415 -34.642  1.00  0.00    -0.024 A 
HETATM   12  C   UNL     1     -10.262   3.378 -33.656  1.00  0.00     0.026 A 
BRANCH   8  13
HETATM   13  O   UNL     1     -10.499  -0.098 -32.504  1.00  0.00    -0.360 OA
HETATM   14  H   UNL     1     -10.035  -0.702 -33.106  1.00  0.00     0.217 HD
ENDBRANCH   8  13
BRANCH  10  15
HETATM   15  O   UNL     1     -13.064   2.196 -35.733  1.00  0.00    -0.360 OA
HETATM   16  H   UNL     1     -13.065   1.325 -36.158  1.00  0.00     0.217 HD
ENDBRANCH  10  15
BRANCH  11  17
HETATM   17  C   UNL     1     -11.453   4.688 -35.431  1.00  0.00     0.037 C 
HETATM   18  C   UNL     1     -10.252   5.614 -35.316  1.00  0.00     0.010 C 
ENDBRANCH  11  17
ENDBRANCH   1   7
BRANCH   6  19
HETATM   19  C   UNL     1      -7.109   0.691 -32.813  1.00  0.00     0.016 A 
HETATM   20  C   UNL     1      -6.911  -0.663 -32.684  1.00  0.00     0.132 A 
HETATM   21  N   UNL     1      -6.311  -1.096 -33.849  1.00  0.00    -0.245 N 
HETATM   22  N   UNL     1      -6.167  -0.075 -34.737  1.00  0.00    -0.179 NA
HETATM   23  C   UNL     1      -6.646   0.996 -34.101  1.00  0.00     0.153 A 
BRANCH  21  24
HETATM   24  C   UNL     1      -5.856  -2.409 -34.161  1.00  0.00     0.058 A 
HETATM   25  C   UNL     1      -4.525  -2.791 -33.937  1.00  0.00     0.031 A 
HETATM   26  C   UNL     1      -4.102  -4.083 -34.267  1.00  0.00     0.002 A 
HETATM   27  C   UNL     1      -4.998  -4.996 -34.821  1.00  0.00     0.000 A 
HETATM   28  C   UNL     1      -6.322  -4.624 -35.045  1.00  0.00     0.002 A 
HETATM   29  C   UNL     1      -6.752  -3.336 -34.715  1.00  0.00     0.031 A 
ENDBRANCH  21  24
ENDBRANCH   6  19
BRANCH   5  30
HETATM   30  C   UNL     1      -5.805   1.762 -30.013  1.00  0.00     0.435 C 
HETATM   31  F   UNL     1      -5.912   0.735 -29.129  1.00  0.00    -0.165 F 
HETATM   32  F   UNL     1      -4.838   1.415 -30.897  1.00  0.00    -0.165 F 
HETATM   33  F   UNL     1      -5.348   2.828 -29.312  1.00  0.00    -0.165 F 
ENDBRANCH   5  30
TORSDOF 7
ENDMDL
MODEL 3
REMARK VINA RESULT:      -9.0      3.272      5.461
REMARK  7 active torsions:
REMARK  status: ('A' for Active; 'I' for Inactive)
REMARK    1  A    between atoms: C_2  and  C_3 
REMARK    2  A    between atoms: C_4  and  O_5 
REMARK    3  A    between atoms: C_7  and  O_8 
REMARK    4  A    between atoms: C_9  and  C_10 
REMARK    5  A    between atoms: C_14  and  C_15 
REMARK    6  A    between atoms: C_19  and  C_20 
REMARK    7  A    between atoms: N_22  and  C_23 
ROOT
HETATM    1  C   UNL     1      -8.848   2.589 -32.126  1.00  0.00     0.103 A 
HETATM    2  N   UNL     1      -8.983   3.354 -31.023  1.00  0.00    -0.173 NA
HETATM    3  N   UNL     1      -7.859   3.152 -30.327  1.00  0.00    -0.272 N 
HETATM    4  H   UNL     1      -7.737   3.659 -29.455  1.00  0.00     0.189 HD
HETATM    5  C   UNL     1      -7.017   2.243 -30.889  1.00  0.00     0.147 A 
HETATM    6  C   UNL     1      -7.632   1.837 -32.055  1.00  0.00     0.042 A 
ENDROOT
BRANCH   1   7
HETATM    7  C   UNL     1      -9.898   2.606 -33.149  1.00  0.00     0.029 A 
HETATM    8  C   UNL     1      -9.994   3.603 -34.126  1.00  0.00     0.081 A 
HETATM    9  C   UNL     1     -10.992   3.549 -35.101  1.00  0.00     0.074 A 
HETATM   10  C   UNL     1     -11.927   2.514 -35.086  1.00  0.00     0.074 A 
HETATM   11  C   UNL     1     -11.900   1.530 -34.092  1.00  0.00    -0.024 A 
HETATM   12  C   UNL     1     -10.867   1.586 -33.138  1.00  0.00     0.026 A 
BRANCH   8  13
HETATM   13  O   UNL     1      -9.120   4.656 -34.130  1.00  0.00    -0.360 OA
HETATM   14  H   UNL     1      -9.483   5.367 -34.684  1.00  0.00     0.217 HD
ENDBRANCH   8  13
BRANCH  10  15
HETATM   15  O   UNL     1     -12.854   2.538 -36.089  1.00  0.00    -0.360 OA
HETATM   16  H   UNL     1     -13.477   1.804 -35.972  1.00  0.00     0.217 HD
ENDBRANCH  10  15
BRANCH  11  17
HETATM   17  C   UNL     1     -12.916   0.419 -33.991  1.00  0.00     0.037 C 
HETATM   18  C   UNL     1     -14.231   0.899 -33.399  1.00  0.00     0.010 C 
ENDBRANCH  11  17
ENDBRANCH   1   7
BRANCH   6  19
HETATM   19  C   UNL     1      -7.139   0.844 -32.998  1.00  0.00     0.016 A 
HETATM   20  C   UNL     1      -6.879  -0.486 -32.772  1.00  0.00     0.132 A 
HETATM   21  N   UNL     1      -6.390  -1.009 -33.952  1.00  0.00    -0.245 N 
HETATM   22  N   UNL     1      -6.378  -0.070 -34.938  1.00  0.00    -0.179 NA
HETATM   23  C   UNL     1      -6.826   1.041 -34.351  1.00  0.00     0.153 A 
BRANCH  21  24
HETATM   24  C   UNL     1      -5.924  -2.332 -34.194  1.00  0.00     0.058 A 
HETATM   25  C   UNL     1      -6.768  -3.317 -34.726  1.00  0.00     0.031 A 
HETATM   26  C   UNL     1      -6.287  -4.613 -34.940  1.00  0.00     0.002 A 
HETATM   27  C   UNL     1      -4.968  -4.933 -34.624  1.00  0.00     0.000 A 
HETATM   28  C   UNL     1      -4.122  -3.960 -34.096  1.00  0.00     0.002 A 
HETATM   29  C   UNL     1      -4.595  -2.663 -33.883  1.00  0.00     0.031 A 
ENDBRANCH  21  24
ENDBRANCH   6  19
BRANCH   5  30
HETATM   30  C   UNL     1      -5.767   1.880 -30.218  1.00  0.00     0.435 C 
HETATM   31  F   UNL     1      -5.287   2.913 -29.476  1.00  0.00    -0.165 F 
HETATM   32  F   UNL     1      -5.918   0.832 -29.372  1.00  0.00    -0.165 F 
HETATM   33  F   UNL     1      -4.790   1.550 -31.098  1.00  0.00    -0.165 F 
ENDBRANCH   5  30
TORSDOF 7
ENDMDL
MODEL 4
REMARK VINA RESULT:      -8.9      1.326      2.234
REMARK  7 active torsions:
REMARK  status: ('A' for Active; 'I' for Inactive)
REMARK    1  A    between atoms: C_2  and  C_3 
REMARK    2  A    between atoms: C_4  and  O_5 
REMARK    3  A    between atoms: C_7  and  O_8 
REMARK    4  A    between atoms: C_9  and  C_10 
REMARK    5  A    between atoms: C_14  and  C_15 
REMARK    6  A    between atoms: C_19  and  C_20 
REMARK    7  A    between atoms: N_22  and  C_23 
ROOT
HETATM    1  C   UNL     1      -7.707   2.714 -32.238  1.00  0.00     0.103 A 
HETATM    2  N   UNL     1      -8.624   3.558 -31.724  1.00  0.00    -0.173 NA
HETATM    3  N   UNL     1      -9.804   3.046 -32.093  1.00  0.00    -0.272 N 
HETATM    4  H   UNL     1     -10.649   3.520 -31.785  1.00  0.00     0.189 HD
HETATM    5  C   UNL     1      -9.705   1.940 -32.878  1.00  0.00     0.147 A 
HETATM    6  C   UNL     1      -8.354   1.699 -33.013  1.00  0.00     0.042 A 
ENDROOT
BRANCH   1   7
HETATM    7  C   UNL     1      -6.283   2.953 -31.982  1.00  0.00     0.029 A 
HETATM    8  C   UNL     1      -5.699   4.223 -32.049  1.00  0.00     0.081 A 
HETATM    9  C   UNL     1      -4.345   4.399 -31.758  1.00  0.00     0.074 A 
HETATM   10  C   UNL     1      -3.553   3.299 -31.430  1.00  0.00     0.074 A 
HETATM   11  C   UNL     1      -4.085   2.006 -31.408  1.00  0.00    -0.024 A 
HETATM   12  C   UNL     1      -5.459   1.855 -31.674  1.00  0.00     0.026 A 
BRANCH   8  13
HETATM   13  O   UNL     1      -6.445   5.309 -32.420  1.00  0.00    -0.360 OA
HETATM   14  H   UNL     1      -6.313   5.476 -33.368  1.00  0.00     0.217 HD
ENDBRANCH   8  13
BRANCH  10  15
HETATM   15  O   UNL     1      -2.246   3.575 -31.146  1.00  0.00    -0.360 OA
HETATM   16  H   UNL     1      -2.102   3.511 -30.189  1.00  0.00     0.217 HD
ENDBRANCH  10  15
BRANCH  11  17
HETATM   17  C   UNL     1      -3.267   0.773 -31.115  1.00  0.00     0.037 C 
HETATM   18  C   UNL     1      -3.063  -0.085 -32.354  1.00  0.00     0.010 C 
ENDBRANCH  11  17
ENDBRANCH   1   7
BRANCH   6  19
HETATM   19  C   UNL     1      -7.733   0.637 -33.792  1.00  0.00     0.016 A 
HETATM   20  C   UNL     1      -7.300  -0.592 -33.357  1.00  0.00     0.132 A 
HETATM   21  N   UNL     1      -6.745  -1.233 -34.446  1.00  0.00    -0.245 N 
HETATM   22  N   UNL     1      -6.857  -0.477 -35.572  1.00  0.00    -0.179 NA
HETATM   23  C   UNL     1      -7.449   0.648 -35.166  1.00  0.00     0.153 A 
BRANCH  21  24
HETATM   24  C   UNL     1      -6.106  -2.505 -34.478  1.00  0.00     0.058 A 
HETATM   25  C   UNL     1      -6.783  -3.650 -34.925  1.00  0.00     0.031 A 
HETATM   26  C   UNL     1      -6.136  -4.889 -34.932  1.00  0.00     0.002 A 
HETATM   27  C   UNL     1      -4.817  -4.996 -34.494  1.00  0.00     0.000 A 
HETATM   28  C   UNL     1      -4.137  -3.864 -34.051  1.00  0.00     0.002 A 
HETATM   29  C   UNL     1      -4.777  -2.622 -34.044  1.00  0.00     0.031 A 
ENDBRANCH  21  24
ENDBRANCH   6  19
BRANCH   5  30
HETATM   30  C   UNL     1     -10.911   1.295 -33.400  1.00  0.00     0.435 C 
HETATM   31  F   UNL     1     -11.009   0.009 -32.970  1.00  0.00    -0.165 F 
HETATM   32  F   UNL     1     -12.046   1.923 -33.008  1.00  0.00    -0.165 F 
HETATM   33  F   UNL     1     -10.923   1.251 -34.755  1.00  0.00    -0.165 F 
ENDBRANCH   5  30
TORSDOF 7
ENDMDL
MODEL 5
REMARK VINA RESULT:      -8.8      3.556      6.416
REMARK  7 active torsions:
REMARK  status: ('A' for Active; 'I' for Inactive)
REMARK    1  A    between atoms: C_2  and  C_3 
REMARK    2  A    between atoms: C_4  and  O_5 
REMARK    3  A    between atoms: C_7  and  O_8 
REMARK    4  A    between atoms: C_9  and  C_10 
REMARK    5  A    between atoms: C_14  and  C_15 
REMARK    6  A    between atoms: C_19  and  C_20 
REMARK    7  A    between atoms: N_22  and  C_23 
ROOT
HETATM    1  C   UNL     1      -4.394   1.390 -32.453  1.00  0.00     0.103 A 
HETATM    2  N   UNL     1      -3.349   2.241 -32.428  1.00  0.00    -0.173 NA
HETATM    3  N   UNL     1      -3.892   3.445 -32.219  1.00  0.00    -0.272 N 
HETATM    4  H   UNL     1      -3.269   4.244 -32.139  1.00  0.00     0.189 HD
HETATM    5  C   UNL     1      -5.251   3.436 -32.166  1.00  0.00     0.147 A 
HETATM    6  C   UNL     1      -5.622   2.118 -32.333  1.00  0.00     0.042 A 
ENDROOT
BRANCH   1   7
HETATM    7  C   UNL     1      -4.153  -0.046 -32.622  1.00  0.00     0.029 A 
HETATM    8  C   UNL     1      -3.243  -0.763 -31.837  1.00  0.00     0.081 A 
HETATM    9  C   UNL     1      -3.080  -2.138 -32.014  1.00  0.00     0.074 A 
HETATM   10  C   UNL     1      -3.802  -2.805 -33.004  1.00  0.00     0.074 A 
HETATM   11  C   UNL     1      -4.679  -2.114 -33.847  1.00  0.00    -0.024 A 
HETATM   12  C   UNL     1      -4.852  -0.735 -33.630  1.00  0.00     0.026 A 
BRANCH   8  13
HETATM   13  O   UNL     1      -2.484  -0.121 -30.895  1.00  0.00    -0.360 OA
HETATM   14  H   UNL     1      -1.552  -0.364 -31.020  1.00  0.00     0.217 HD
ENDBRANCH   8  13
BRANCH  10  15
HETATM   15  O   UNL     1      -3.587  -4.150 -33.089  1.00  0.00    -0.360 OA
HETATM   16  H   UNL     1      -2.898  -4.409 -32.457  1.00  0.00     0.217 HD
ENDBRANCH  10  15
BRANCH  11  17
HETATM   17  C   UNL     1      -5.445  -2.769 -34.969  1.00  0.00     0.037 C 
HETATM   18  C   UNL     1      -6.842  -3.188 -34.539  1.00  0.00     0.010 C 
ENDBRANCH  11  17
ENDBRANCH   1   7
BRANCH   6  19
HETATM   19  C   UNL     1      -6.979   1.596 -32.384  1.00  0.00     0.016 A 
HETATM   20  C   UNL     1      -7.954   1.855 -33.316  1.00  0.00     0.132 A 
HETATM   21  N   UNL     1      -9.084   1.167 -32.922  1.00  0.00    -0.245 N 
HETATM   22  N   UNL     1      -8.847   0.436 -31.798  1.00  0.00    -0.179 NA
HETATM   23  C   UNL     1      -7.580   0.705 -31.481  1.00  0.00     0.153 A 
BRANCH  21  24
HETATM   24  C   UNL     1     -10.369   1.174 -33.535  1.00  0.00     0.058 A 
HETATM   25  C   UNL     1     -10.719   2.146 -34.483  1.00  0.00     0.031 A 
HETATM   26  C   UNL     1     -11.994   2.137 -35.059  1.00  0.00     0.002 A 
HETATM   27  C   UNL     1     -12.923   1.165 -34.692  1.00  0.00     0.000 A 
HETATM   28  C   UNL     1     -12.583   0.195 -33.753  1.00  0.00     0.002 A 
HETATM   29  C   UNL     1     -11.310   0.196 -33.176  1.00  0.00     0.031 A 
ENDBRANCH  21  24
ENDBRANCH   6  19
BRANCH   5  30
HETATM   30  C   UNL     1      -5.992   4.687 -31.990  1.00  0.00     0.435 C 
HETATM   31  F   UNL     1      -6.870   4.599 -30.957  1.00  0.00    -0.165 F 
HETATM   32  F   UNL     1      -5.178   5.736 -31.720  1.00  0.00    -0.165 F 
HETATM   33  F   UNL     1      -6.718   5.011 -33.088  1.00  0.00    -0.165 F 
ENDBRANCH   5  30
TORSDOF 7
ENDMDL
MODEL 6
REMARK VINA RESULT:      -8.7      1.881      2.360
REMARK  7 active torsions:
REMARK  status: ('A' for Active; 'I' for Inactive)
REMARK    1  A    between atoms: C_2  and  C_3 
REMARK    2  A    between atoms: C_4  and  O_5 
REMARK    3  A    between atoms: C_7  and  O_8 
REMARK    4  A    between atoms: C_9  and  C_10 
REMARK    5  A    between atoms: C_14  and  C_15 
REMARK    6  A    between atoms: C_19  and  C_20 
REMARK    7  A    between atoms: N_22  and  C_23 
ROOT
HETATM    1  C   UNL     1      -6.471   3.999 -33.400  1.00  0.00     0.103 A 
HETATM    2  N   UNL     1      -7.160   5.080 -33.817  1.00  0.00    -0.173 NA
HETATM    3  N   UNL     1      -8.383   4.618 -34.099  1.00  0.00    -0.272 N 
HETATM    4  H   UNL     1      -9.086   5.282 -34.413  1.00  0.00     0.189 HD
HETATM    5  C   UNL     1      -8.514   3.273 -33.946  1.00  0.00     0.147 A 
HETATM    6  C   UNL     1      -7.285   2.826 -33.509  1.00  0.00     0.042 A 
ENDROOT
BRANCH   1   7
HETATM    7  C   UNL     1      -5.081   4.155 -32.961  1.00  0.00     0.029 A 
HETATM    8  C   UNL     1      -4.680   3.997 -31.629  1.00  0.00     0.081 A 
HETATM    9  C   UNL     1      -3.336   4.120 -31.272  1.00  0.00     0.074 A 
HETATM   10  C   UNL     1      -2.383   4.436 -32.239  1.00  0.00     0.074 A 
HETATM   11  C   UNL     1      -2.750   4.658 -33.570  1.00  0.00    -0.024 A 
HETATM   12  C   UNL     1      -4.105   4.499 -33.915  1.00  0.00     0.026 A 
BRANCH   8  13
HETATM   13  O   UNL     1      -5.605   3.738 -30.654  1.00  0.00    -0.360 OA
HETATM   14  H   UNL     1      -6.137   2.969 -30.918  1.00  0.00     0.217 HD
ENDBRANCH   8  13
BRANCH  10  15
HETATM   15  O   UNL     1      -1.094   4.517 -31.796  1.00  0.00    -0.360 OA
HETATM   16  H   UNL     1      -1.090   4.717 -30.847  1.00  0.00     0.217 HD
ENDBRANCH  10  15
BRANCH  11  17
HETATM   17  C   UNL     1      -1.774   5.057 -34.649  1.00  0.00     0.037 C 
HETATM   18  C   UNL     1      -1.171   6.429 -34.395  1.00  0.00     0.010 C 
ENDBRANCH  11  17
ENDBRANCH   1   7
BRANCH   6  19
HETATM   19  C   UNL     1      -6.908   1.448 -33.232  1.00  0.00     0.016 A 
HETATM   20  C   UNL     1      -6.546   0.470 -34.127  1.00  0.00     0.132 A 
HETATM   21  N   UNL     1      -6.320  -0.680 -33.399  1.00  0.00    -0.245 N 
HETATM   22  N   UNL     1      -6.473  -0.456 -32.065  1.00  0.00    -0.179 NA
HETATM   23  C   UNL     1      -6.832   0.826 -31.977  1.00  0.00     0.153 A 
BRANCH  21  24
HETATM   24  C   UNL     1      -5.983  -1.973 -33.891  1.00  0.00     0.058 A 
HETATM   25  C   UNL     1      -4.670  -2.460 -33.822  1.00  0.00     0.031 A 
HETATM   26  C   UNL     1      -4.365  -3.728 -34.327  1.00  0.00     0.002 A 
HETATM   27  C   UNL     1      -5.362  -4.513 -34.903  1.00  0.00     0.000 A 
HETATM   28  C   UNL     1      -6.669  -4.037 -34.974  1.00  0.00     0.002 A 
HETATM   29  C   UNL     1      -6.981  -2.773 -34.469  1.00  0.00     0.031 A 
ENDBRANCH  21  24
ENDBRANCH   6  19
BRANCH   5  30
HETATM   30  C   UNL     1      -9.783   2.614 -34.263  1.00  0.00     0.435 C 
HETATM   31  F   UNL     1     -10.517   3.350 -35.138  1.00  0.00    -0.165 F 
HETATM   32  F   UNL     1      -9.605   1.397 -34.832  1.00  0.00    -0.165 F 
HETATM   33  F   UNL     1     -10.556   2.436 -33.164  1.00  0.00    -0.165 F 
ENDBRANCH   5  30
TORSDOF 7
ENDMDL
MODEL 7
REMARK VINA RESULT:      -8.7      3.199      6.222
REMARK  7 active torsions:
REMARK  status: ('A' for Active; 'I' for Inactive)
REMARK    1  A    between atoms: C_2  and  C_3 
REMARK    2  A    between atoms: C_4  and  O_5 
REMARK    3  A    between atoms: C_7  and  O_8 
REMARK    4  A    between atoms: C_9  and  C_10 
REMARK    5  A    between atoms: C_14  and  C_15 
REMARK    6  A    between atoms: C_19  and  C_20 
REMARK    7  A    between atoms: N_22  and  C_23 
ROOT
HETATM    1  C   UNL     1      -7.748   0.813 -32.247  1.00  0.00     0.103 A 
HETATM    2  N   UNL     1      -8.764   0.368 -31.480  1.00  0.00    -0.173 NA
HETATM    3  N   UNL     1      -9.374   1.475 -31.043  1.00  0.00    -0.272 N 
HETATM    4  H   UNL     1     -10.197   1.368 -30.457  1.00  0.00     0.189 HD
HETATM    5  C   UNL     1      -8.771   2.629 -31.435  1.00  0.00     0.147 A 
HETATM    6  C   UNL     1      -7.695   2.244 -32.207  1.00  0.00     0.042 A 
ENDROOT
BRANCH   1   7
HETATM    7  C   UNL     1      -6.884  -0.152 -32.933  1.00  0.00     0.029 A 
HETATM    8  C   UNL     1      -7.166  -0.656 -34.208  1.00  0.00     0.081 A 
HETATM    9  C   UNL     1      -6.289  -1.544 -34.831  1.00  0.00     0.074 A 
HETATM   10  C   UNL     1      -5.135  -1.965 -34.170  1.00  0.00     0.074 A 
HETATM   11  C   UNL     1      -4.846  -1.530 -32.873  1.00  0.00    -0.024 A 
HETATM   12  C   UNL     1      -5.728  -0.610 -32.276  1.00  0.00     0.026 A 
BRANCH   8  13
HETATM   13  O   UNL     1      -8.318  -0.298 -34.855  1.00  0.00    -0.360 OA
HETATM   14  H   UNL     1      -9.028  -0.189 -34.200  1.00  0.00     0.217 HD
ENDBRANCH   8  13
BRANCH  10  15
HETATM   15  O   UNL     1      -4.331  -2.821 -34.868  1.00  0.00    -0.360 OA
HETATM   16  H   UNL     1      -4.851  -3.585 -35.163  1.00  0.00     0.217 HD
ENDBRANCH  10  15
BRANCH  11  17
HETATM   17  C   UNL     1      -3.644  -1.992 -32.087  1.00  0.00     0.037 C 
HETATM   18  C   UNL     1      -2.692  -0.849 -31.775  1.00  0.00     0.010 C 
ENDBRANCH  11  17
ENDBRANCH   1   7
BRANCH   6  19
HETATM   19  C   UNL     1      -6.717   3.120 -32.834  1.00  0.00     0.016 A 
HETATM   20  C   UNL     1      -5.363   3.181 -32.606  1.00  0.00     0.132 A 
HETATM   21  N   UNL     1      -4.864   4.192 -33.403  1.00  0.00    -0.245 N 
HETATM   22  N   UNL     1      -5.844   4.742 -34.171  1.00  0.00    -0.179 NA
HETATM   23  C   UNL     1      -6.955   4.093 -33.817  1.00  0.00     0.153 A 
BRANCH  21  24
HETATM   24  C   UNL     1      -3.525   4.672 -33.468  1.00  0.00     0.058 A 
HETATM   25  C   UNL     1      -2.671   4.601 -32.358  1.00  0.00     0.031 A 
HETATM   26  C   UNL     1      -1.365   5.095 -32.446  1.00  0.00     0.002 A 
HETATM   27  C   UNL     1      -0.906   5.660 -33.634  1.00  0.00     0.000 A 
HETATM   28  C   UNL     1      -1.748   5.733 -34.741  1.00  0.00     0.002 A 
HETATM   29  C   UNL     1      -3.053   5.239 -34.662  1.00  0.00     0.031 A 
ENDBRANCH  21  24
ENDBRANCH   6  19
BRANCH   5  30
HETATM   30  C   UNL     1      -9.296   3.923 -30.995  1.00  0.00     0.435 C 
HETATM   31  F   UNL     1      -8.338   4.659 -30.373  1.00  0.00    -0.165 F 
HETATM   32  F   UNL     1      -9.755   4.673 -32.026  1.00  0.00    -0.165 F 
HETATM   33  F   UNL     1     -10.314   3.789 -30.110  1.00  0.00    -0.165 F 
ENDBRANCH   5  30
TORSDOF 7
ENDMDL
MODEL 8
REMARK VINA RESULT:      -8.7      2.970      6.331
REMARK  7 active torsions:
REMARK  status: ('A' for Active; 'I' for Inactive)
REMARK    1  A    between atoms: C_2  and  C_3 
REMARK    2  A    between atoms: C_4  and  O_5 
REMARK    3  A    between atoms: C_7  and  O_8 
REMARK    4  A    between atoms: C_9  and  C_10 
REMARK    5  A    between atoms: C_14  and  C_15 
REMARK    6  A    between atoms: C_19  and  C_20 
REMARK    7  A    between atoms: N_22  and  C_23 
ROOT
HETATM    1  C   UNL     1      -7.431   0.690 -31.982  1.00  0.00     0.103 A 
HETATM    2  N   UNL     1      -8.485   0.276 -31.249  1.00  0.00    -0.173 NA
HETATM    3  N   UNL     1      -9.223   1.376 -31.061  1.00  0.00    -0.272 N 
HETATM    4  H   UNL     1     -10.093   1.286 -30.544  1.00  0.00     0.189 HD
HETATM    5  C   UNL     1      -8.674   2.505 -31.582  1.00  0.00     0.147 A 
HETATM    6  C   UNL     1      -7.495   2.107 -32.177  1.00  0.00     0.042 A 
ENDROOT
BRANCH   1   7
HETATM    7  C   UNL     1      -6.427  -0.286 -32.415  1.00  0.00     0.029 A 
HETATM    8  C   UNL     1      -5.199  -0.456 -31.764  1.00  0.00     0.081 A 
HETATM    9  C   UNL     1      -4.295  -1.428 -32.196  1.00  0.00     0.074 A 
HETATM   10  C   UNL     1      -4.594  -2.217 -33.307  1.00  0.00     0.074 A 
HETATM   11  C   UNL     1      -5.784  -2.038 -34.019  1.00  0.00    -0.024 A 
HETATM   12  C   UNL     1      -6.696  -1.076 -33.548  1.00  0.00     0.026 A 
BRANCH   8  13
HETATM   13  O   UNL     1      -4.861   0.341 -30.705  1.00  0.00    -0.360 OA
HETATM   14  H   UNL     1      -4.679  -0.219 -29.932  1.00  0.00     0.217 HD
ENDBRANCH   8  13
BRANCH  10  15
HETATM   15  O   UNL     1      -3.655  -3.149 -33.641  1.00  0.00    -0.360 OA
HETATM   16  H   UNL     1      -4.074  -3.866 -34.143  1.00  0.00     0.217 HD
ENDBRANCH  10  15
BRANCH  11  17
HETATM   17  C   UNL     1      -6.139  -2.822 -35.258  1.00  0.00     0.037 C 
HETATM   18  C   UNL     1      -6.708  -4.193 -34.925  1.00  0.00     0.010 C 
ENDBRANCH  11  17
ENDBRANCH   1   7
BRANCH   6  19
HETATM   19  C   UNL     1      -6.526   2.961 -32.847  1.00  0.00     0.016 A 
HETATM   20  C   UNL     1      -5.269   3.316 -32.422  1.00  0.00     0.132 A 
HETATM   21  N   UNL     1      -4.747   4.172 -33.371  1.00  0.00    -0.245 N 
HETATM   22  N   UNL     1      -5.608   4.334 -34.413  1.00  0.00    -0.179 NA
HETATM   23  C   UNL     1      -6.676   3.605 -34.085  1.00  0.00     0.153 A 
BRANCH  21  24
HETATM   24  C   UNL     1      -3.497   4.851 -33.340  1.00  0.00     0.058 A 
HETATM   25  C   UNL     1      -3.256   5.972 -34.149  1.00  0.00     0.031 A 
HETATM   26  C   UNL     1      -2.012   6.611 -34.109  1.00  0.00     0.002 A 
HETATM   27  C   UNL     1      -1.006   6.138 -33.269  1.00  0.00     0.000 A 
HETATM   28  C   UNL     1      -1.238   5.027 -32.461  1.00  0.00     0.002 A 
HETATM   29  C   UNL     1      -2.478   4.385 -32.493  1.00  0.00     0.031 A 
ENDBRANCH  21  24
ENDBRANCH   6  19
BRANCH   5  30
HETATM   30  C   UNL     1      -9.343   3.797 -31.414  1.00  0.00     0.435 C 
HETATM   31  F   UNL     1     -10.383   3.705 -30.545  1.00  0.00    -0.165 F 
HETATM   32  F   UNL     1      -8.512   4.751 -30.927  1.00  0.00    -0.165 F 
HETATM   33  F   UNL     1      -9.854   4.265 -32.579  1.00  0.00    -0.165 F 
ENDBRANCH   5  30
TORSDOF 7
ENDMDL
MODEL 9
REMARK VINA RESULT:      -8.7      2.920      4.111
REMARK  7 active torsions:
REMARK  status: ('A' for Active; 'I' for Inactive)
REMARK    1  A    between atoms: C_2  and  C_3 
REMARK    2  A    between atoms: C_4  and  O_5 
REMARK    3  A    between atoms: C_7  and  O_8 
REMARK    4  A    between atoms: C_9  and  C_10 
REMARK    5  A    between atoms: C_14  and  C_15 
REMARK    6  A    between atoms: C_19  and  C_20 
REMARK    7  A    between atoms: N_22  and  C_23 
ROOT
HETATM    1  C   UNL     1      -5.166   4.413 -32.353  1.00  0.00     0.103 A 
HETATM    2  N   UNL     1      -5.968   5.386 -31.875  1.00  0.00    -0.173 NA
HETATM    3  N   UNL     1      -6.962   4.737 -31.258  1.00  0.00    -0.272 N 
HETATM    4  H   UNL     1      -7.681   5.289 -30.797  1.00  0.00     0.189 HD
HETATM    5  C   UNL     1      -6.886   3.384 -31.360  1.00  0.00     0.147 A 
HETATM    6  C   UNL     1      -5.739   3.128 -32.083  1.00  0.00     0.042 A 
ENDROOT
BRANCH   1   7
HETATM    7  C   UNL     1      -3.934   4.775 -33.059  1.00  0.00     0.029 A 
HETATM    8  C   UNL     1      -3.870   4.937 -34.447  1.00  0.00     0.081 A 
HETATM    9  C   UNL     1      -2.677   5.321 -35.064  1.00  0.00     0.074 A 
HETATM   10  C   UNL     1      -1.527   5.514 -34.300  1.00  0.00     0.074 A 
HETATM   11  C   UNL     1      -1.535   5.307 -32.917  1.00  0.00    -0.024 A 
HETATM   12  C   UNL     1      -2.755   4.951 -32.311  1.00  0.00     0.026 A 
BRANCH   8  13
HETATM   13  O   UNL     1      -4.972   4.702 -35.224  1.00  0.00    -0.360 OA
HETATM   14  H   UNL     1      -4.696   4.627 -36.152  1.00  0.00     0.217 HD
ENDBRANCH   8  13
BRANCH  10  15
HETATM   15  O   UNL     1      -0.415   5.904 -34.991  1.00  0.00    -0.360 OA
HETATM   16  H   UNL     1       0.345   5.373 -34.707  1.00  0.00     0.217 HD
ENDBRANCH  10  15
BRANCH  11  17
HETATM   17  C   UNL     1      -0.311   5.446 -32.046  1.00  0.00     0.037 C 
HETATM   18  C   UNL     1      -0.238   6.809 -31.376  1.00  0.00     0.010 C 
ENDBRANCH  11  17
ENDBRANCH   1   7
BRANCH   6  19
HETATM   19  C   UNL     1      -5.237   1.823 -32.485  1.00  0.00     0.016 A 
HETATM   20  C   UNL     1      -5.912   0.816 -33.131  1.00  0.00     0.132 A 
HETATM   21  N   UNL     1      -5.034  -0.242 -33.260  1.00  0.00    -0.245 N 
HETATM   22  N   UNL     1      -3.806   0.076 -32.765  1.00  0.00    -0.179 NA
HETATM   23  C   UNL     1      -3.941   1.318 -32.298  1.00  0.00     0.153 A 
BRANCH  21  24
HETATM   24  C   UNL     1      -5.293  -1.530 -33.807  1.00  0.00     0.058 A 
HETATM   25  C   UNL     1      -6.569  -1.882 -34.270  1.00  0.00     0.031 A 
HETATM   26  C   UNL     1      -6.799  -3.161 -34.789  1.00  0.00     0.002 A 
HETATM   27  C   UNL     1      -5.763  -4.091 -34.847  1.00  0.00     0.000 A 
HETATM   28  C   UNL     1      -4.493  -3.749 -34.391  1.00  0.00     0.002 A 
HETATM   29  C   UNL     1      -4.255  -2.473 -33.874  1.00  0.00     0.031 A 
ENDBRANCH  21  24
ENDBRANCH   6  19
BRANCH   5  30
HETATM   30  C   UNL     1      -7.929   2.539 -30.776  1.00  0.00     0.435 C 
HETATM   31  F   UNL     1      -7.395   1.466 -30.136  1.00  0.00    -0.165 F 
HETATM   32  F   UNL     1      -8.681   3.201 -29.864  1.00  0.00    -0.165 F 
HETATM   33  F   UNL     1      -8.775   2.046 -31.714  1.00  0.00    -0.165 F 
ENDBRANCH   5  30
TORSDOF 7
ENDMDL
MODEL 10
REMARK VINA RESULT:      -8.5      2.544      5.199
REMARK  7 active torsions:
REMARK  status: ('A' for Active; 'I' for Inactive)
REMARK    1  A    between atoms: C_2  and  C_3 
REMARK    2  A    between atoms: C_4  and  O_5 
REMARK    3  A    between atoms: C_7  and  O_8 
REMARK    4  A    between atoms: C_9  and  C_10 
REMARK    5  A    between atoms: C_14  and  C_15 
REMARK    6  A    between atoms: C_19  and  C_20 
REMARK    7  A    between atoms: N_22  and  C_23 
ROOT
HETATM    1  C   UNL     1      -5.391   0.502 -32.371  1.00  0.00     0.103 A 
HETATM    2  N   UNL     1      -4.424  -0.432 -32.265  1.00  0.00    -0.173 NA
HETATM    3  N   UNL     1      -4.813  -1.420 -33.078  1.00  0.00    -0.272 N 
HETATM    4  H   UNL     1      -4.208  -2.231 -33.170  1.00  0.00     0.189 HD
HETATM    5  C   UNL     1      -6.020  -1.208 -33.667  1.00  0.00     0.147 A 
HETATM    6  C   UNL     1      -6.441   0.027 -33.220  1.00  0.00     0.042 A 
ENDROOT
BRANCH   1   7
HETATM    7  C   UNL     1      -5.259   1.763 -31.635  1.00  0.00     0.029 A 
HETATM    8  C   UNL     1      -6.010   2.059 -30.491  1.00  0.00     0.081 A 
HETATM    9  C   UNL     1      -5.817   3.260 -29.806  1.00  0.00     0.074 A 
HETATM   10  C   UNL     1      -4.894   4.193 -30.278  1.00  0.00     0.074 A 
HETATM   11  C   UNL     1      -4.166   3.960 -31.449  1.00  0.00    -0.024 A 
HETATM   12  C   UNL     1      -4.353   2.730 -32.107  1.00  0.00     0.026 A 
BRANCH   8  13
HETATM   13  O   UNL     1      -6.958   1.182 -30.038  1.00  0.00    -0.360 OA
HETATM   14  H   UNL     1      -7.615   1.037 -30.739  1.00  0.00     0.217 HD
ENDBRANCH   8  13
BRANCH  10  15
HETATM   15  O   UNL     1      -4.765   5.329 -29.531  1.00  0.00    -0.360 OA
HETATM   16  H   UNL     1      -3.833   5.455 -29.292  1.00  0.00     0.217 HD
ENDBRANCH  10  15
BRANCH  11  17
HETATM   17  C   UNL     1      -3.196   4.953 -32.039  1.00  0.00     0.037 C 
HETATM   18  C   UNL     1      -2.282   4.314 -33.073  1.00  0.00     0.010 C 
ENDBRANCH  11  17
ENDBRANCH   1   7
BRANCH   6  19
HETATM   19  C   UNL     1      -7.697   0.688 -33.544  1.00  0.00     0.016 A 
HETATM   20  C   UNL     1      -8.973   0.197 -33.414  1.00  0.00     0.132 A 
HETATM   21  N   UNL     1      -9.831   1.169 -33.887  1.00  0.00    -0.245 N 
HETATM   22  N   UNL     1      -9.148   2.284 -34.266  1.00  0.00    -0.179 NA
HETATM   23  C   UNL     1      -7.865   1.982 -34.060  1.00  0.00     0.153 A 
BRANCH  21  24
HETATM   24  C   UNL     1     -11.247   1.098 -34.014  1.00  0.00     0.058 A 
HETATM   25  C   UNL     1     -11.974   0.026 -33.476  1.00  0.00     0.031 A 
HETATM   26  C   UNL     1     -13.363  -0.026 -33.628  1.00  0.00     0.002 A 
HETATM   27  C   UNL     1     -14.033   0.985 -34.316  1.00  0.00     0.000 A 
HETATM   28  C   UNL     1     -13.318   2.054 -34.851  1.00  0.00     0.002 A 
HETATM   29  C   UNL     1     -11.931   2.114 -34.701  1.00  0.00     0.031 A 
ENDBRANCH  21  24
ENDBRANCH   6  19
BRANCH   5  30
HETATM   30  C   UNL     1      -6.601  -2.224 -34.547  1.00  0.00     0.435 C 
HETATM   31  F   UNL     1      -7.272  -1.654 -35.583  1.00  0.00    -0.165 F 
HETATM   32  F   UNL     1      -5.663  -3.035 -35.092  1.00  0.00    -0.165 F 
HETATM   33  F   UNL     1      -7.491  -3.015 -33.900  1.00  0.00    -0.165 F 
ENDBRANCH   5  30
TORSDOF 7
ENDMDL
