MODEL 1
REMARK VINA RESULT:     -10.0      0.000      0.000
REMARK  6 active torsions:
REMARK  status: ('A' for Active; 'I' for Inactive)
REMARK    1  A    between atoms: C_9  and  C_10 
REMARK       I    between atoms: C_10  and  N_11 
REMARK    2  A    between atoms: N_11  and  N_12 
REMARK       I    between atoms: N_12  and  C_13 
REMARK    3  A    between atoms: C_13  and  C_14 
REMARK    4  A    between atoms: C_14  and  O_15 
REMARK    5  A    between atoms: O_15  and  C_16 
REMARK    6  A    between atoms: C_17  and  C_18 
ROOT
HETATM    1  N   UNL     1      -3.869   1.021 -32.591  1.00  0.00    -0.265 N 
HETATM    2  C   UNL     1      -3.230   0.062 -31.825  1.00  0.00     0.260 C 
HETATM    3  O   UNL     1      -2.446   0.325 -30.915  1.00  0.00    -0.269 OA
HETATM    4  H   UNL     1      -4.348   0.785 -33.456  1.00  0.00     0.190 HD
ENDROOT
BRANCH   1   5
HETATM    5  N   UNL     1      -3.531   2.363 -32.398  1.00  0.00    -0.262 N 
HETATM    6  C   UNL     1      -4.396   3.208 -31.719  1.00  0.00     0.291 C 
HETATM    7  O   UNL     1      -5.368   2.811 -31.080  1.00  0.00    -0.264 OA
HETATM    8  H   UNL     1      -2.896   2.799 -33.068  1.00  0.00     0.190 HD
BRANCH   6   9
HETATM    9  C   UNL     1      -4.010   4.622 -31.843  1.00  0.00     0.158 A 
HETATM   10  C   UNL     1      -2.721   5.204 -31.650  1.00  0.00     0.029 A 
HETATM   11  C   UNL     1      -1.438   4.744 -31.287  1.00  0.00     0.023 A 
HETATM   12  C   UNL     1      -2.894   6.559 -31.910  1.00  0.00     0.063 A 
HETATM   13  C   UNL     1      -0.372   5.658 -31.205  1.00  0.00    -0.061 A 
HETATM   14  C   UNL     1       0.996   5.199 -30.791  1.00  0.00     0.048 C 
HETATM   15  C   UNL     1      -0.593   7.014 -31.477  1.00  0.00     0.009 A 
HETATM   16  C   UNL     1      -1.857   7.492 -31.838  1.00  0.00     0.032 A 
HETATM   17  N   UNL     1      -4.217   6.703 -32.218  1.00  0.00    -0.277 N 
HETATM   18  H   UNL     1      -4.701   7.559 -32.462  1.00  0.00     0.189 HD
HETATM   19  N   UNL     1      -4.923   5.561 -32.184  1.00  0.00    -0.168 NA
ENDBRANCH   6   9
ENDBRANCH   1   5
BRANCH   2  20
HETATM   20  C   UNL     1      -3.603  -1.367 -32.208  1.00  0.00     0.280 C 
BRANCH  20  21
HETATM   21  O   UNL     1      -3.930  -1.501 -33.581  1.00  0.00    -0.341 OA
BRANCH  21  22
HETATM   22  C   UNL     1      -4.670  -2.583 -33.992  1.00  0.00     0.080 A 
HETATM   23  C   UNL     1      -6.035  -2.339 -34.272  1.00  0.00     0.007 A 
HETATM   24  C   UNL     1      -6.835  -3.413 -34.714  1.00  0.00     0.015 A 
HETATM   25  C   UNL     1      -6.309  -4.695 -34.867  1.00  0.00     0.001 A 
HETATM   26  C   UNL     1      -4.972  -4.926 -34.576  1.00  0.00     0.003 A 
HETATM   27  C   UNL     1      -4.156  -3.879 -34.142  1.00  0.00     0.037 A 
BRANCH  23  28
HETATM   28  C   UNL     1      -6.661  -1.011 -34.105  1.00  0.00    -0.023 A 
HETATM   29  C   UNL     1      -6.839  -0.144 -35.194  1.00  0.00     0.012 A 
HETATM   30  C   UNL     1      -7.450   1.102 -35.028  1.00  0.00     0.001 A 
HETATM   31  C   UNL     1      -7.898   1.500 -33.771  1.00  0.00     0.000 A 
HETATM   32  C   UNL     1      -7.732   0.653 -32.677  1.00  0.00     0.001 A 
HETATM   33  C   UNL     1      -7.119  -0.590 -32.844  1.00  0.00     0.012 A 
ENDBRANCH  23  28
ENDBRANCH  21  22
ENDBRANCH  20  21
ENDBRANCH   2  20
TORSDOF 6
ENDMDL
MODEL 2
REMARK VINA RESULT:      -9.5      2.599      3.551
REMARK  6 active torsions:
REMARK  status: ('A' for Active; 'I' for Inactive)
REMARK    1  A    between atoms: C_9  and  C_10 
REMARK       I    between atoms: C_10  and  N_11 
REMARK    2  A    between atoms: N_11  and  N_12 
REMARK       I    between atoms: N_12  and  C_13 
REMARK    3  A    between atoms: C_13  and  C_14 
REMARK    4  A    between atoms: C_14  and  O_15 
REMARK    5  A    between atoms: O_15  and  C_16 
REMARK    6  A    between atoms: C_17  and  C_18 
ROOT
HETATM    1  N   UNL     1      -3.754   3.837 -31.809  1.00  0.00    -0.265 N 
HETATM    2  C   UNL     1      -3.785   2.459 -31.927  1.00  0.00     0.260 C 
HETATM    3  O   UNL     1      -3.082   1.700 -31.261  1.00  0.00    -0.269 OA
HETATM    4  H   UNL     1      -4.187   4.444 -32.499  1.00  0.00     0.190 HD
ENDROOT
BRANCH   1   5
HETATM    5  N   UNL     1      -2.800   4.414 -30.966  1.00  0.00    -0.262 N 
HETATM    6  C   UNL     1      -1.588   4.847 -31.479  1.00  0.00     0.291 C 
HETATM    7  O   UNL     1      -1.360   4.953 -32.683  1.00  0.00    -0.264 OA
HETATM    8  H   UNL     1      -2.814   4.154 -29.978  1.00  0.00     0.190 HD
BRANCH   6   9
HETATM    9  C   UNL     1      -0.617   5.173 -30.423  1.00  0.00     0.158 A 
HETATM   10  C   UNL     1      -0.541   6.359 -29.632  1.00  0.00     0.029 A 
HETATM   11  C   UNL     1      -1.252   7.573 -29.543  1.00  0.00     0.023 A 
HETATM   12  C   UNL     1       0.535   6.152 -28.775  1.00  0.00     0.063 A 
HETATM   13  C   UNL     1      -0.865   8.535 -28.592  1.00  0.00    -0.061 A 
HETATM   14  C   UNL     1      -1.586   9.848 -28.498  1.00  0.00     0.048 C 
HETATM   15  C   UNL     1       0.225   8.283 -27.749  1.00  0.00     0.009 A 
HETATM   16  C   UNL     1       0.945   7.086 -27.821  1.00  0.00     0.032 A 
HETATM   17  N   UNL     1       1.023   4.918 -29.098  1.00  0.00    -0.277 N 
HETATM   18  H   UNL     1       1.811   4.440 -28.675  1.00  0.00     0.189 HD
HETATM   19  N   UNL     1       0.360   4.299 -30.088  1.00  0.00    -0.168 NA
ENDBRANCH   6   9
ENDBRANCH   1   5
BRANCH   2  20
HETATM   20  C   UNL     1      -4.792   1.961 -32.960  1.00  0.00     0.280 C 
BRANCH  20  21
HETATM   21  O   UNL     1      -5.541   0.847 -32.504  1.00  0.00    -0.341 OA
BRANCH  21  22
HETATM   22  C   UNL     1      -5.497  -0.327 -33.217  1.00  0.00     0.080 A 
HETATM   23  C   UNL     1      -6.698  -0.716 -33.857  1.00  0.00     0.007 A 
HETATM   24  C   UNL     1      -6.701  -1.905 -34.616  1.00  0.00     0.015 A 
HETATM   25  C   UNL     1      -5.558  -2.694 -34.735  1.00  0.00     0.001 A 
HETATM   26  C   UNL     1      -4.390  -2.310 -34.091  1.00  0.00     0.003 A 
HETATM   27  C   UNL     1      -4.358  -1.135 -33.337  1.00  0.00     0.037 A 
BRANCH  23  28
HETATM   28  C   UNL     1      -7.949   0.060 -33.750  1.00  0.00    -0.023 A 
HETATM   29  C   UNL     1      -8.989  -0.342 -32.897  1.00  0.00     0.012 A 
HETATM   30  C   UNL     1     -10.161   0.412 -32.788  1.00  0.00     0.001 A 
HETATM   31  C   UNL     1     -10.311   1.583 -33.526  1.00  0.00     0.000 A 
HETATM   32  C   UNL     1      -9.290   2.001 -34.376  1.00  0.00     0.001 A 
HETATM   33  C   UNL     1      -8.121   1.246 -34.486  1.00  0.00     0.012 A 
ENDBRANCH  23  28
ENDBRANCH  21  22
ENDBRANCH  20  21
ENDBRANCH   2  20
TORSDOF 6
ENDMDL
MODEL 3
REMARK VINA RESULT:      -9.3      1.887      3.700
REMARK  6 active torsions:
REMARK  status: ('A' for Active; 'I' for Inactive)
REMARK    1  A    between atoms: C_9  and  C_10 
REMARK       I    between atoms: C_10  and  N_11 
REMARK    2  A    between atoms: N_11  and  N_12 
REMARK       I    between atoms: N_12  and  C_13 
REMARK    3  A    between atoms: C_13  and  C_14 
REMARK    4  A    between atoms: C_14  and  O_15 
REMARK    5  A    between atoms: O_15  and  C_16 
REMARK    6  A    between atoms: C_17  and  C_18 
ROOT
HETATM    1  N   UNL     1      -5.910   2.254 -29.695  1.00  0.00    -0.265 N 
HETATM    2  C   UNL     1      -5.381   1.183 -30.393  1.00  0.00     0.260 C 
HETATM    3  O   UNL     1      -4.258   1.181 -30.894  1.00  0.00    -0.269 OA
HETATM    4  H   UNL     1      -6.899   2.310 -29.468  1.00  0.00     0.190 HD
ENDROOT
BRANCH   1   5
HETATM    5  N   UNL     1      -5.177   3.443 -29.641  1.00  0.00    -0.262 N 
HETATM    6  C   UNL     1      -5.389   4.434 -30.586  1.00  0.00     0.291 C 
HETATM    7  O   UNL     1      -6.337   4.434 -31.368  1.00  0.00    -0.264 OA
HETATM    8  H   UNL     1      -4.258   3.420 -29.197  1.00  0.00     0.190 HD
BRANCH   6   9
HETATM    9  C   UNL     1      -4.358   5.484 -30.537  1.00  0.00     0.158 A 
HETATM   10  C   UNL     1      -3.354   5.778 -31.507  1.00  0.00     0.029 A 
HETATM   11  C   UNL     1      -2.953   5.251 -32.753  1.00  0.00     0.023 A 
HETATM   12  C   UNL     1      -2.661   6.867 -30.991  1.00  0.00     0.063 A 
HETATM   13  C   UNL     1      -1.877   5.841 -33.440  1.00  0.00    -0.061 A 
HETATM   14  C   UNL     1      -1.411   5.280 -34.753  1.00  0.00     0.048 C 
HETATM   15  C   UNL     1      -1.209   6.938 -32.881  1.00  0.00     0.009 A 
HETATM   16  C   UNL     1      -1.589   7.476 -31.647  1.00  0.00     0.032 A 
HETATM   17  N   UNL     1      -3.257   7.140 -29.792  1.00  0.00    -0.277 N 
HETATM   18  H   UNL     1      -3.011   7.873 -29.137  1.00  0.00     0.189 HD
HETATM   19  N   UNL     1      -4.280   6.327 -29.481  1.00  0.00    -0.168 NA
ENDBRANCH   6   9
ENDBRANCH   1   5
BRANCH   2  20
HETATM   20  C   UNL     1      -6.324  -0.014 -30.473  1.00  0.00     0.280 C 
BRANCH  20  21
HETATM   21  O   UNL     1      -6.317  -0.636 -31.748  1.00  0.00    -0.341 OA
BRANCH  21  22
HETATM   22  C   UNL     1      -7.043  -0.075 -32.770  1.00  0.00     0.080 A 
HETATM   23  C   UNL     1      -7.049  -0.783 -33.996  1.00  0.00     0.007 A 
HETATM   24  C   UNL     1      -7.793  -0.259 -35.073  1.00  0.00     0.015 A 
HETATM   25  C   UNL     1      -8.507   0.932 -34.951  1.00  0.00     0.001 A 
HETATM   26  C   UNL     1      -8.484   1.625 -33.748  1.00  0.00     0.003 A 
HETATM   27  C   UNL     1      -7.758   1.126 -32.664  1.00  0.00     0.037 A 
BRANCH  23  28
HETATM   28  C   UNL     1      -6.293  -2.036 -34.199  1.00  0.00    -0.023 A 
HETATM   29  C   UNL     1      -4.901  -2.087 -34.026  1.00  0.00     0.012 A 
HETATM   30  C   UNL     1      -4.199  -3.283 -34.201  1.00  0.00     0.001 A 
HETATM   31  C   UNL     1      -4.877  -4.448 -34.547  1.00  0.00     0.000 A 
HETATM   32  C   UNL     1      -6.259  -4.420 -34.721  1.00  0.00     0.001 A 
HETATM   33  C   UNL     1      -6.959  -3.224 -34.549  1.00  0.00     0.012 A 
ENDBRANCH  23  28
ENDBRANCH  21  22
ENDBRANCH  20  21
ENDBRANCH   2  20
TORSDOF 6
ENDMDL
MODEL 4
REMARK VINA RESULT:      -9.1      2.283      8.847
REMARK  6 active torsions:
REMARK  status: ('A' for Active; 'I' for Inactive)
REMARK    1  A    between atoms: C_9  and  C_10 
REMARK       I    between atoms: C_10  and  N_11 
REMARK    2  A    between atoms: N_11  and  N_12 
REMARK       I    between atoms: N_12  and  C_13 
REMARK    3  A    between atoms: C_13  and  C_14 
REMARK    4  A    between atoms: C_14  and  O_15 
REMARK    5  A    between atoms: O_15  and  C_16 
REMARK    6  A    between atoms: C_17  and  C_18 
ROOT
HETATM    1  N   UNL     1      -4.847   3.998 -30.047  1.00  0.00    -0.265 N 
HETATM    2  C   UNL     1      -4.884   5.316 -30.469  1.00  0.00     0.260 C 
HETATM    3  O   UNL     1      -5.399   5.682 -31.524  1.00  0.00    -0.269 OA
HETATM    4  H   UNL     1      -4.248   3.697 -29.283  1.00  0.00     0.190 HD
ENDROOT
BRANCH   1   5
HETATM    5  N   UNL     1      -5.323   3.008 -30.910  1.00  0.00    -0.262 N 
HETATM    6  C   UNL     1      -4.439   2.135 -31.523  1.00  0.00     0.291 C 
HETATM    7  O   UNL     1      -3.256   2.030 -31.202  1.00  0.00    -0.264 OA
HETATM    8  H   UNL     1      -6.210   3.175 -31.388  1.00  0.00     0.190 HD
BRANCH   6   9
HETATM    9  C   UNL     1      -5.078   1.346 -32.588  1.00  0.00     0.158 A 
HETATM   10  C   UNL     1      -4.883  -0.033 -32.901  1.00  0.00     0.029 A 
HETATM   11  C   UNL     1      -4.088  -1.088 -32.408  1.00  0.00     0.023 A 
HETATM   12  C   UNL     1      -5.736  -0.285 -33.970  1.00  0.00     0.063 A 
HETATM   13  C   UNL     1      -4.183  -2.361 -32.999  1.00  0.00    -0.061 A 
HETATM   14  C   UNL     1      -3.325  -3.494 -32.512  1.00  0.00     0.048 C 
HETATM   15  C   UNL     1      -5.057  -2.569 -34.073  1.00  0.00     0.009 A 
HETATM   16  C   UNL     1      -5.854  -1.536 -34.579  1.00  0.00     0.032 A 
HETATM   17  N   UNL     1      -6.354   0.906 -34.228  1.00  0.00    -0.277 N 
HETATM   18  H   UNL     1      -7.044   1.096 -34.946  1.00  0.00     0.189 HD
HETATM   19  N   UNL     1      -5.981   1.913 -33.421  1.00  0.00    -0.168 NA
ENDBRANCH   6   9
ENDBRANCH   1   5
BRANCH   2  20
HETATM   20  C   UNL     1      -4.234   6.286 -29.486  1.00  0.00     0.280 C 
BRANCH  20  21
HETATM   21  O   UNL     1      -3.363   7.208 -30.119  1.00  0.00    -0.341 OA
BRANCH  21  22
HETATM   22  C   UNL     1      -2.072   7.331 -29.665  1.00  0.00     0.080 A 
HETATM   23  C   UNL     1      -1.051   6.936 -30.562  1.00  0.00     0.007 A 
HETATM   24  C   UNL     1       0.292   7.058 -30.150  1.00  0.00     0.015 A 
HETATM   25  C   UNL     1       0.623   7.548 -28.888  1.00  0.00     0.001 A 
HETATM   26  C   UNL     1      -0.386   7.920 -28.011  1.00  0.00     0.003 A 
HETATM   27  C   UNL     1      -1.725   7.814 -28.395  1.00  0.00     0.037 A 
BRANCH  23  28
HETATM   28  C   UNL     1      -1.335   6.384 -31.903  1.00  0.00    -0.023 A 
HETATM   29  C   UNL     1      -1.664   5.032 -32.083  1.00  0.00     0.012 A 
HETATM   30  C   UNL     1      -1.951   4.525 -33.354  1.00  0.00     0.001 A 
HETATM   31  C   UNL     1      -1.918   5.363 -34.465  1.00  0.00     0.000 A 
HETATM   32  C   UNL     1      -1.596   6.709 -34.308  1.00  0.00     0.001 A 
HETATM   33  C   UNL     1      -1.307   7.214 -33.038  1.00  0.00     0.012 A 
ENDBRANCH  23  28
ENDBRANCH  21  22
ENDBRANCH  20  21
ENDBRANCH   2  20
TORSDOF 6
ENDMDL
MODEL 5
REMARK VINA RESULT:      -9.1      2.701      4.768
REMARK  6 active torsions:
REMARK  status: ('A' for Active; 'I' for Inactive)
REMARK    1  A    between atoms: C_9  and  C_10 
REMARK       I    between atoms: C_10  and  N_11 
REMARK    2  A    between atoms: N_11  and  N_12 
REMARK       I    between atoms: N_12  and  C_13 
REMARK    3  A    between atoms: C_13  and  C_14 
REMARK    4  A    between atoms: C_14  and  O_15 
REMARK    5  A    between atoms: O_15  and  C_16 
REMARK    6  A    between atoms: C_17  and  C_18 
ROOT
HETATM    1  N   UNL     1      -3.475   4.511 -32.187  1.00  0.00    -0.265 N 
HETATM    2  C   UNL     1      -4.394   3.510 -31.926  1.00  0.00     0.260 C 
HETATM    3  O   UNL     1      -4.533   2.980 -30.824  1.00  0.00    -0.269 OA
HETATM    4  H   UNL     1      -3.241   4.789 -33.137  1.00  0.00     0.190 HD
ENDROOT
BRANCH   1   5
HETATM    5  N   UNL     1      -2.578   4.874 -31.179  1.00  0.00    -0.262 N 
HETATM    6  C   UNL     1      -1.310   5.327 -31.506  1.00  0.00     0.291 C 
HETATM    7  O   UNL     1      -0.974   5.635 -32.648  1.00  0.00    -0.264 OA
HETATM    8  H   UNL     1      -2.689   4.442 -30.261  1.00  0.00     0.190 HD
BRANCH   6   9
HETATM    9  C   UNL     1      -0.423   5.404 -30.335  1.00  0.00     0.158 A 
HETATM   10  C   UNL     1      -0.299   6.469 -29.393  1.00  0.00     0.029 A 
HETATM   11  C   UNL     1      -0.877   7.743 -29.211  1.00  0.00     0.023 A 
HETATM   12  C   UNL     1       0.652   6.033 -28.478  1.00  0.00     0.063 A 
HETATM   13  C   UNL     1      -0.486   8.531 -28.114  1.00  0.00    -0.061 A 
HETATM   14  C   UNL     1      -1.063   9.903 -27.915  1.00  0.00     0.048 C 
HETATM   15  C   UNL     1       0.476   8.049 -27.217  1.00  0.00     0.009 A 
HETATM   16  C   UNL     1       1.063   6.790 -27.378  1.00  0.00     0.032 A 
HETATM   17  N   UNL     1       1.032   4.795 -28.913  1.00  0.00    -0.277 N 
HETATM   18  H   UNL     1       1.715   4.177 -28.487  1.00  0.00     0.189 HD
HETATM   19  N   UNL     1       0.411   4.383 -30.030  1.00  0.00    -0.168 NA
ENDBRANCH   6   9
ENDBRANCH   1   5
BRANCH   2  20
HETATM   20  C   UNL     1      -5.239   3.131 -33.139  1.00  0.00     0.280 C 
BRANCH  20  21
HETATM   21  O   UNL     1      -5.618   1.764 -33.138  1.00  0.00    -0.341 OA
BRANCH  21  22
HETATM   22  C   UNL     1      -6.939   1.435 -32.954  1.00  0.00     0.080 A 
HETATM   23  C   UNL     1      -7.277   0.073 -33.137  1.00  0.00     0.007 A 
HETATM   24  C   UNL     1      -8.617  -0.321 -32.943  1.00  0.00     0.015 A 
HETATM   25  C   UNL     1      -9.600   0.601 -32.587  1.00  0.00     0.001 A 
HETATM   26  C   UNL     1      -9.261   1.936 -32.424  1.00  0.00     0.003 A 
HETATM   27  C   UNL     1      -7.939   2.352 -32.605  1.00  0.00     0.037 A 
BRANCH  23  28
HETATM   28  C   UNL     1      -6.289  -0.949 -33.539  1.00  0.00    -0.023 A 
HETATM   29  C   UNL     1      -5.117  -1.167 -32.797  1.00  0.00     0.012 A 
HETATM   30  C   UNL     1      -4.199  -2.150 -33.176  1.00  0.00     0.001 A 
HETATM   31  C   UNL     1      -4.439  -2.935 -34.301  1.00  0.00     0.000 A 
HETATM   32  C   UNL     1      -5.596  -2.737 -35.050  1.00  0.00     0.001 A 
HETATM   33  C   UNL     1      -6.511  -1.752 -34.672  1.00  0.00     0.012 A 
ENDBRANCH  23  28
ENDBRANCH  21  22
ENDBRANCH  20  21
ENDBRANCH   2  20
TORSDOF 6
ENDMDL
MODEL 6
REMARK VINA RESULT:      -9.1      1.917      8.509
REMARK  6 active torsions:
REMARK  status: ('A' for Active; 'I' for Inactive)
REMARK    1  A    between atoms: C_9  and  C_10 
REMARK       I    between atoms: C_10  and  N_11 
REMARK    2  A    between atoms: N_11  and  N_12 
REMARK       I    between atoms: N_12  and  C_13 
REMARK    3  A    between atoms: C_13  and  C_14 
REMARK    4  A    between atoms: C_14  and  O_15 
REMARK    5  A    between atoms: O_15  and  C_16 
REMARK    6  A    between atoms: C_17  and  C_18 
ROOT
HETATM    1  N   UNL     1      -4.284   3.487 -30.617  1.00  0.00    -0.265 N 
HETATM    2  C   UNL     1      -5.246   4.270 -31.231  1.00  0.00     0.260 C 
HETATM    3  O   UNL     1      -6.122   3.823 -31.970  1.00  0.00    -0.269 OA
HETATM    4  H   UNL     1      -3.462   3.894 -30.180  1.00  0.00     0.190 HD
ENDROOT
BRANCH   1   5
HETATM    5  N   UNL     1      -4.231   2.127 -30.930  1.00  0.00    -0.262 N 
HETATM    6  C   UNL     1      -3.455   1.687 -31.991  1.00  0.00     0.291 C 
HETATM    7  O   UNL     1      -2.630   2.394 -32.566  1.00  0.00    -0.264 OA
HETATM    8  H   UNL     1      -5.028   1.544 -30.671  1.00  0.00     0.190 HD
BRANCH   6   9
HETATM    9  C   UNL     1      -3.726   0.283 -32.339  1.00  0.00     0.158 A 
HETATM   10  C   UNL     1      -4.773  -0.235 -33.159  1.00  0.00     0.029 A 
HETATM   11  C   UNL     1      -5.864   0.296 -33.876  1.00  0.00     0.023 A 
HETATM   12  C   UNL     1      -4.565  -1.610 -33.183  1.00  0.00     0.063 A 
HETATM   13  C   UNL     1      -6.705  -0.570 -34.600  1.00  0.00    -0.061 A 
HETATM   14  C   UNL     1      -7.892  -0.033 -35.347  1.00  0.00     0.048 C 
HETATM   15  C   UNL     1      -6.456  -1.948 -34.597  1.00  0.00     0.009 A 
HETATM   16  C   UNL     1      -5.380  -2.496 -33.891  1.00  0.00     0.032 A 
HETATM   17  N   UNL     1      -3.464  -1.824 -32.403  1.00  0.00    -0.277 N 
HETATM   18  H   UNL     1      -3.024  -2.713 -32.193  1.00  0.00     0.189 HD
HETATM   19  N   UNL     1      -2.933  -0.710 -31.873  1.00  0.00    -0.168 NA
ENDBRANCH   6   9
ENDBRANCH   1   5
BRANCH   2  20
HETATM   20  C   UNL     1      -5.128   5.753 -30.892  1.00  0.00     0.280 C 
BRANCH  20  21
HETATM   21  O   UNL     1      -3.859   6.293 -31.221  1.00  0.00    -0.341 OA
BRANCH  21  22
HETATM   22  C   UNL     1      -3.289   5.977 -32.430  1.00  0.00     0.080 A 
HETATM   23  C   UNL     1      -1.881   5.831 -32.440  1.00  0.00     0.007 A 
HETATM   24  C   UNL     1      -1.248   5.490 -33.653  1.00  0.00     0.015 A 
HETATM   25  C   UNL     1      -1.978   5.306 -34.826  1.00  0.00     0.001 A 
HETATM   26  C   UNL     1      -3.357   5.465 -34.808  1.00  0.00     0.003 A 
HETATM   27  C   UNL     1      -4.009   5.798 -33.619  1.00  0.00     0.037 A 
BRANCH  23  28
HETATM   28  C   UNL     1      -1.047   6.038 -31.238  1.00  0.00    -0.023 A 
HETATM   29  C   UNL     1      -0.388   4.969 -30.612  1.00  0.00     0.012 A 
HETATM   30  C   UNL     1       0.415   5.179 -29.488  1.00  0.00     0.001 A 
HETATM   31  C   UNL     1       0.576   6.463 -28.973  1.00  0.00     0.000 A 
HETATM   32  C   UNL     1      -0.069   7.539 -29.581  1.00  0.00     0.001 A 
HETATM   33  C   UNL     1      -0.872   7.326 -30.703  1.00  0.00     0.012 A 
ENDBRANCH  23  28
ENDBRANCH  21  22
ENDBRANCH  20  21
ENDBRANCH   2  20
TORSDOF 6
ENDMDL
MODEL 7
REMARK VINA RESULT:      -9.1      2.121      2.591
REMARK  6 active torsions:
REMARK  status: ('A' for Active; 'I' for Inactive)
REMARK    1  A    between atoms: C_9  and  C_10 
REMARK       I    between atoms: C_10  and  N_11 
REMARK    2  A    between atoms: N_11  and  N_12 
REMARK       I    between atoms: N_12  and  C_13 
REMARK    3  A    between atoms: C_13  and  C_14 
REMARK    4  A    between atoms: C_14  and  O_15 
REMARK    5  A    between atoms: O_15  and  C_16 
REMARK    6  A    between atoms: C_17  and  C_18 
ROOT
HETATM    1  N   UNL     1      -3.120   2.727 -31.140  1.00  0.00    -0.265 N 
HETATM    2  C   UNL     1      -3.952   2.133 -32.073  1.00  0.00     0.260 C 
HETATM    3  O   UNL     1      -4.693   2.761 -32.827  1.00  0.00    -0.269 OA
HETATM    4  H   UNL     1      -2.674   2.191 -30.401  1.00  0.00     0.190 HD
ENDROOT
BRANCH   1   5
HETATM    5  N   UNL     1      -3.197   4.111 -30.963  1.00  0.00    -0.262 N 
HETATM    6  C   UNL     1      -2.155   4.925 -31.379  1.00  0.00     0.291 C 
HETATM    7  O   UNL     1      -1.233   4.534 -32.093  1.00  0.00    -0.264 OA
HETATM    8  H   UNL     1      -3.783   4.466 -30.206  1.00  0.00     0.190 HD
BRANCH   6   9
HETATM    9  C   UNL     1      -2.285   6.302 -30.878  1.00  0.00     0.158 A 
HETATM   10  C   UNL     1      -1.496   6.956 -29.884  1.00  0.00     0.029 A 
HETATM   11  C   UNL     1      -0.412   6.610 -29.051  1.00  0.00     0.023 A 
HETATM   12  C   UNL     1      -2.015   8.244 -29.802  1.00  0.00     0.063 A 
HETATM   13  C   UNL     1       0.119   7.570 -28.170  1.00  0.00    -0.061 A 
HETATM   14  C   UNL     1       1.252   7.217 -27.251  1.00  0.00     0.048 C 
HETATM   15  C   UNL     1      -0.436   8.855 -28.122  1.00  0.00     0.009 A 
HETATM   16  C   UNL     1      -1.511   9.219 -28.939  1.00  0.00     0.032 A 
HETATM   17  N   UNL     1      -3.043   8.278 -30.700  1.00  0.00    -0.277 N 
HETATM   18  H   UNL     1      -3.651   9.062 -30.908  1.00  0.00     0.189 HD
HETATM   19  N   UNL     1      -3.240   7.127 -31.365  1.00  0.00    -0.168 NA
ENDBRANCH   6   9
ENDBRANCH   1   5
BRANCH   2  20
HETATM   20  C   UNL     1      -3.852   0.610 -32.091  1.00  0.00     0.280 C 
BRANCH  20  21
HETATM   21  O   UNL     1      -5.109  -0.021 -32.281  1.00  0.00    -0.341 OA
BRANCH  21  22
HETATM   22  C   UNL     1      -5.203  -1.076 -33.154  1.00  0.00     0.080 A 
HETATM   23  C   UNL     1      -6.393  -1.153 -33.917  1.00  0.00     0.007 A 
HETATM   24  C   UNL     1      -6.533  -2.209 -34.842  1.00  0.00     0.015 A 
HETATM   25  C   UNL     1      -5.535  -3.168 -35.006  1.00  0.00     0.001 A 
HETATM   26  C   UNL     1      -4.378  -3.091 -34.243  1.00  0.00     0.003 A 
HETATM   27  C   UNL     1      -4.211  -2.052 -33.323  1.00  0.00     0.037 A 
BRANCH  23  28
HETATM   28  C   UNL     1      -7.500  -0.186 -33.772  1.00  0.00    -0.023 A 
HETATM   29  C   UNL     1      -7.510   1.026 -34.481  1.00  0.00     0.012 A 
HETATM   30  C   UNL     1      -8.572   1.925 -34.352  1.00  0.00     0.001 A 
HETATM   31  C   UNL     1      -9.644   1.626 -33.516  1.00  0.00     0.000 A 
HETATM   32  C   UNL     1      -9.655   0.428 -32.805  1.00  0.00     0.001 A 
HETATM   33  C   UNL     1      -8.592  -0.469 -32.933  1.00  0.00     0.012 A 
ENDBRANCH  23  28
ENDBRANCH  21  22
ENDBRANCH  20  21
ENDBRANCH   2  20
TORSDOF 6
ENDMDL
MODEL 8
REMARK VINA RESULT:      -9.0      2.246      9.076
REMARK  6 active torsions:
REMARK  status: ('A' for Active; 'I' for Inactive)
REMARK    1  A    between atoms: C_9  and  C_10 
REMARK       I    between atoms: C_10  and  N_11 
REMARK    2  A    between atoms: N_11  and  N_12 
REMARK       I    between atoms: N_12  and  C_13 
REMARK    3  A    between atoms: C_13  and  C_14 
REMARK    4  A    between atoms: C_14  and  O_15 
REMARK    5  A    between atoms: O_15  and  C_16 
REMARK    6  A    between atoms: C_17  and  C_18 
ROOT
HETATM    1  N   UNL     1      -4.119   4.572 -30.131  1.00  0.00    -0.265 N 
HETATM    2  C   UNL     1      -4.423   5.727 -30.829  1.00  0.00     0.260 C 
HETATM    3  O   UNL     1      -4.729   5.746 -32.020  1.00  0.00    -0.269 OA
HETATM    4  H   UNL     1      -3.680   4.599 -29.215  1.00  0.00     0.190 HD
ENDROOT
BRANCH   1   5
HETATM    5  N   UNL     1      -4.048   3.366 -30.834  1.00  0.00    -0.262 N 
HETATM    6  C   UNL     1      -5.081   2.447 -30.746  1.00  0.00     0.291 C 
HETATM    7  O   UNL     1      -6.175   2.703 -30.246  1.00  0.00    -0.264 OA
HETATM    8  H   UNL     1      -3.123   2.998 -31.061  1.00  0.00     0.190 HD
BRANCH   6   9
HETATM    9  C   UNL     1      -4.722   1.143 -31.325  1.00  0.00     0.158 A 
HETATM   10  C   UNL     1      -5.318   0.480 -32.440  1.00  0.00     0.029 A 
HETATM   11  C   UNL     1      -6.376   0.740 -33.335  1.00  0.00     0.023 A 
HETATM   12  C   UNL     1      -4.597  -0.700 -32.585  1.00  0.00     0.063 A 
HETATM   13  C   UNL     1      -6.670  -0.189 -34.349  1.00  0.00    -0.061 A 
HETATM   14  C   UNL     1      -7.811   0.050 -35.296  1.00  0.00     0.048 C 
HETATM   15  C   UNL     1      -5.916  -1.364 -34.458  1.00  0.00     0.009 A 
HETATM   16  C   UNL     1      -4.863  -1.643 -33.581  1.00  0.00     0.032 A 
HETATM   17  N   UNL     1      -3.664  -0.680 -31.588  1.00  0.00    -0.277 N 
HETATM   18  H   UNL     1      -2.963  -1.385 -31.389  1.00  0.00     0.189 HD
HETATM   19  N   UNL     1      -3.710   0.411 -30.805  1.00  0.00    -0.168 NA
ENDBRANCH   6   9
ENDBRANCH   1   5
BRANCH   2  20
HETATM   20  C   UNL     1      -4.360   6.988 -29.972  1.00  0.00     0.280 C 
BRANCH  20  21
HETATM   21  O   UNL     1      -3.350   7.890 -30.394  1.00  0.00    -0.341 OA
BRANCH  21  22
HETATM   22  C   UNL     1      -2.119   7.848 -29.786  1.00  0.00     0.080 A 
HETATM   23  C   UNL     1      -1.066   7.280 -30.543  1.00  0.00     0.007 A 
HETATM   24  C   UNL     1       0.222   7.229 -29.971  1.00  0.00     0.015 A 
HETATM   25  C   UNL     1       0.468   7.716 -28.689  1.00  0.00     0.001 A 
HETATM   26  C   UNL     1      -0.575   8.259 -27.951  1.00  0.00     0.003 A 
HETATM   27  C   UNL     1      -1.860   8.326 -28.494  1.00  0.00     0.037 A 
BRANCH  23  28
HETATM   28  C   UNL     1      -1.265   6.723 -31.896  1.00  0.00    -0.023 A 
HETATM   29  C   UNL     1      -1.134   5.348 -32.148  1.00  0.00     0.012 A 
HETATM   30  C   UNL     1      -1.344   4.828 -33.428  1.00  0.00     0.001 A 
HETATM   31  C   UNL     1      -1.693   5.675 -34.478  1.00  0.00     0.000 A 
HETATM   32  C   UNL     1      -1.830   7.042 -34.249  1.00  0.00     0.001 A 
HETATM   33  C   UNL     1      -1.617   7.560 -32.970  1.00  0.00     0.012 A 
ENDBRANCH  23  28
ENDBRANCH  21  22
ENDBRANCH  20  21
ENDBRANCH   2  20
TORSDOF 6
ENDMDL
MODEL 9
REMARK VINA RESULT:      -8.9      2.639      9.016
REMARK  6 active torsions:
REMARK  status: ('A' for Active; 'I' for Inactive)
REMARK    1  A    between atoms: C_9  and  C_10 
REMARK       I    between atoms: C_10  and  N_11 
REMARK    2  A    between atoms: N_11  and  N_12 
REMARK       I    between atoms: N_12  and  C_13 
REMARK    3  A    between atoms: C_13  and  C_14 
REMARK    4  A    between atoms: C_14  and  O_15 
REMARK    5  A    between atoms: O_15  and  C_16 
REMARK    6  A    between atoms: C_17  and  C_18 
ROOT
HETATM    1  N   UNL     1      -5.213   4.333 -28.984  1.00  0.00    -0.265 N 
HETATM    2  C   UNL     1      -5.241   5.637 -29.446  1.00  0.00     0.260 C 
HETATM    3  O   UNL     1      -6.000   6.034 -30.328  1.00  0.00    -0.269 OA
HETATM    4  H   UNL     1      -4.452   3.985 -28.407  1.00  0.00     0.190 HD
ENDROOT
BRANCH   1   5
HETATM    5  N   UNL     1      -6.013   3.382 -29.622  1.00  0.00    -0.262 N 
HETATM    6  C   UNL     1      -5.489   2.601 -30.640  1.00  0.00     0.291 C 
HETATM    7  O   UNL     1      -4.287   2.536 -30.894  1.00  0.00    -0.264 OA
HETATM    8  H   UNL     1      -7.022   3.535 -29.634  1.00  0.00     0.190 HD
BRANCH   6   9
HETATM    9  C   UNL     1      -6.528   1.856 -31.368  1.00  0.00     0.158 A 
HETATM   10  C   UNL     1      -6.373   0.694 -32.181  1.00  0.00     0.029 A 
HETATM   11  C   UNL     1      -5.302  -0.122 -32.600  1.00  0.00     0.023 A 
HETATM   12  C   UNL     1      -7.658   0.380 -32.611  1.00  0.00     0.063 A 
HETATM   13  C   UNL     1      -5.558  -1.229 -33.430  1.00  0.00    -0.061 A 
HETATM   14  C   UNL     1      -4.432  -2.095 -33.915  1.00  0.00     0.048 C 
HETATM   15  C   UNL     1      -6.869  -1.507 -33.838  1.00  0.00     0.009 A 
HETATM   16  C   UNL     1      -7.946  -0.710 -33.435  1.00  0.00     0.032 A 
HETATM   17  N   UNL     1      -8.466   1.336 -32.065  1.00  0.00    -0.277 N 
HETATM   18  H   UNL     1      -9.471   1.422 -32.168  1.00  0.00     0.189 HD
HETATM   19  N   UNL     1      -7.823   2.245 -31.313  1.00  0.00    -0.168 NA
ENDBRANCH   6   9
ENDBRANCH   1   5
BRANCH   2  20
HETATM   20  C   UNL     1      -4.243   6.552 -28.741  1.00  0.00     0.280 C 
BRANCH  20  21
HETATM   21  O   UNL     1      -3.294   7.118 -29.630  1.00  0.00    -0.341 OA
BRANCH  21  22
HETATM   22  C   UNL     1      -1.991   7.262 -29.218  1.00  0.00     0.080 A 
HETATM   23  C   UNL     1      -0.996   7.035 -30.198  1.00  0.00     0.007 A 
HETATM   24  C   UNL     1       0.358   7.186 -29.830  1.00  0.00     0.015 A 
HETATM   25  C   UNL     1       0.722   7.542 -28.532  1.00  0.00     0.001 A 
HETATM   26  C   UNL     1      -0.262   7.749 -27.576  1.00  0.00     0.003 A 
HETATM   27  C   UNL     1      -1.611   7.611 -27.915  1.00  0.00     0.037 A 
BRANCH  23  28
HETATM   28  C   UNL     1      -1.313   6.630 -31.582  1.00  0.00    -0.023 A 
HETATM   29  C   UNL     1      -1.448   7.577 -32.609  1.00  0.00     0.012 A 
HETATM   30  C   UNL     1      -1.729   7.181 -33.920  1.00  0.00     0.001 A 
HETATM   31  C   UNL     1      -1.875   5.830 -34.226  1.00  0.00     0.000 A 
HETATM   32  C   UNL     1      -1.744   4.874 -33.222  1.00  0.00     0.001 A 
HETATM   33  C   UNL     1      -1.465   5.272 -31.912  1.00  0.00     0.012 A 
ENDBRANCH  23  28
ENDBRANCH  21  22
ENDBRANCH  20  21
ENDBRANCH   2  20
TORSDOF 6
ENDMDL
MODEL 10
REMARK VINA RESULT:      -8.9      1.619      3.558
REMARK  6 active torsions:
REMARK  status: ('A' for Active; 'I' for Inactive)
REMARK    1  A    between atoms: C_9  and  C_10 
REMARK       I    between atoms: C_10  and  N_11 
REMARK    2  A    between atoms: N_11  and  N_12 
REMARK       I    between atoms: N_12  and  C_13 
REMARK    3  A    between atoms: C_13  and  C_14 
REMARK    4  A    between atoms: C_14  and  O_15 
REMARK    5  A    between atoms: O_15  and  C_16 
REMARK    6  A    between atoms: C_17  and  C_18 
ROOT
HETATM    1  N   UNL     1      -5.159   2.686 -30.333  1.00  0.00    -0.265 N 
HETATM    2  C   UNL     1      -5.001   1.359 -30.689  1.00  0.00     0.260 C 
HETATM    3  O   UNL     1      -4.025   0.926 -31.301  1.00  0.00    -0.269 OA
HETATM    4  H   UNL     1      -6.051   3.052 -30.012  1.00  0.00     0.190 HD
ENDROOT
BRANCH   1   5
HETATM    5  N   UNL     1      -4.215   3.614 -30.780  1.00  0.00    -0.262 N 
HETATM    6  C   UNL     1      -4.611   4.894 -31.136  1.00  0.00     0.291 C 
HETATM    7  O   UNL     1      -5.725   5.352 -30.890  1.00  0.00    -0.264 OA
HETATM    8  H   UNL     1      -3.363   3.259 -31.217  1.00  0.00     0.190 HD
BRANCH   6   9
HETATM    9  C   UNL     1      -3.546   5.638 -31.827  1.00  0.00     0.158 A 
HETATM   10  C   UNL     1      -2.233   5.939 -31.356  1.00  0.00     0.029 A 
HETATM   11  C   UNL     1      -1.493   5.705 -30.179  1.00  0.00     0.023 A 
HETATM   12  C   UNL     1      -1.628   6.636 -32.396  1.00  0.00     0.063 A 
HETATM   13  C   UNL     1      -0.169   6.171 -30.089  1.00  0.00    -0.061 A 
HETATM   14  C   UNL     1       0.630   5.962 -28.835  1.00  0.00     0.048 C 
HETATM   15  C   UNL     1       0.400   6.868 -31.162  1.00  0.00     0.009 A 
HETATM   16  C   UNL     1      -0.316   7.112 -32.339  1.00  0.00     0.032 A 
HETATM   17  N   UNL     1      -2.575   6.717 -33.377  1.00  0.00    -0.277 N 
HETATM   18  H   UNL     1      -2.483   7.161 -34.284  1.00  0.00     0.189 HD
HETATM   19  N   UNL     1      -3.745   6.133 -33.071  1.00  0.00    -0.168 NA
ENDBRANCH   6   9
ENDBRANCH   1   5
BRANCH   2  20
HETATM   20  C   UNL     1      -6.154   0.467 -30.236  1.00  0.00     0.280 C 
BRANCH  20  21
HETATM   21  O   UNL     1      -6.679  -0.329 -31.285  1.00  0.00    -0.341 OA
BRANCH  21  22
HETATM   22  C   UNL     1      -7.504   0.252 -32.218  1.00  0.00     0.080 A 
HETATM   23  C   UNL     1      -7.453  -0.292 -33.524  1.00  0.00     0.007 A 
HETATM   24  C   UNL     1      -8.293   0.257 -34.515  1.00  0.00     0.015 A 
HETATM   25  C   UNL     1      -9.153   1.317 -34.232  1.00  0.00     0.001 A 
HETATM   26  C   UNL     1      -9.185   1.851 -32.951  1.00  0.00     0.003 A 
HETATM   27  C   UNL     1      -8.367   1.323 -31.950  1.00  0.00     0.037 A 
BRANCH  23  28
HETATM   28  C   UNL     1      -6.545  -1.396 -33.895  1.00  0.00    -0.023 A 
HETATM   29  C   UNL     1      -7.036  -2.602 -34.418  1.00  0.00     0.012 A 
HETATM   30  C   UNL     1      -6.166  -3.633 -34.785  1.00  0.00     0.001 A 
HETATM   31  C   UNL     1      -4.790  -3.472 -34.641  1.00  0.00     0.000 A 
HETATM   32  C   UNL     1      -4.282  -2.282 -34.126  1.00  0.00     0.001 A 
HETATM   33  C   UNL     1      -5.153  -1.254 -33.757  1.00  0.00     0.012 A 
ENDBRANCH  23  28
ENDBRANCH  21  22
ENDBRANCH  20  21
ENDBRANCH   2  20
TORSDOF 6
ENDMDL
