MODEL 1
REMARK VINA RESULT:     -10.3      0.000      0.000
REMARK  6 active torsions:
REMARK  status: ('A' for Active; 'I' for Inactive)
REMARK    1  A    between atoms: C_2  and  O_3 
REMARK    2  A    between atoms: C_2  and  C_4 
REMARK    3  A    between atoms: C_6  and  N_7 
REMARK       I    between atoms: N_7  and  C_8 
REMARK    4  A    between atoms: C_8  and  C_9 
REMARK    5  A    between atoms: C_14  and  C_15 
REMARK    6  A    between atoms: C_23  and  C_24 
ROOT
HETATM    1  C   UNL     1      -5.271   3.341 -33.223  1.00  0.00     0.148 A 
HETATM    2  N   UNL     1      -6.258   3.260 -34.149  1.00  0.00    -0.165 NA
HETATM    3  N   UNL     1      -6.742   2.016 -33.971  1.00  0.00    -0.240 N 
HETATM    4  C   UNL     1      -6.064   1.281 -33.040  1.00  0.00     0.123 A 
HETATM    5  N   UNL     1      -6.346  -0.023 -32.841  1.00  0.00    -0.366 N 
HETATM    6  C   UNL     1      -7.148  -0.803 -33.784  1.00  0.00     0.118 C 
HETATM    7  C   UNL     1      -7.438  -0.022 -35.084  1.00  0.00     0.066 C 
HETATM    8  C   UNL     1      -7.777   1.453 -34.814  1.00  0.00     0.221 C 
HETATM    9  C   UNL     1      -5.148   2.131 -32.485  1.00  0.00     0.089 A 
HETATM   10  H   UNL     1      -5.847  -0.566 -32.137  1.00  0.00     0.161 HD
ENDROOT
BRANCH   1  11
HETATM   11  C   UNL     1      -4.427   4.541 -33.076  1.00  0.00     0.276 C 
HETATM   12  N   UNL     1      -3.212   4.249 -32.486  1.00  0.00    -0.322 N 
HETATM   13  H   UNL     1      -3.083   3.258 -32.297  1.00  0.00     0.169 HD
HETATM   14  O   UNL     1      -4.820   5.643 -33.443  1.00  0.00    -0.266 OA
BRANCH  12  15
HETATM   15  C   UNL     1      -2.182   5.135 -32.133  1.00  0.00     0.035 A 
HETATM   16  C   UNL     1      -1.783   5.375 -30.815  1.00  0.00     0.039 A 
HETATM   17  C   UNL     1      -0.740   6.272 -30.523  1.00  0.00    -0.028 A 
HETATM   18  C   UNL     1      -0.112   6.946 -31.579  1.00  0.00     0.010 A 
HETATM   19  C   UNL     1      -0.497   6.706 -32.897  1.00  0.00     0.003 A 
HETATM   20  C   UNL     1      -1.523   5.801 -33.171  1.00  0.00     0.029 A 
BRANCH  17  21
HETATM   21  C   UNL     1      -0.350   6.517 -29.081  1.00  0.00     0.147 C 
HETATM   22  C   UNL     1       0.670   7.639 -28.951  1.00  0.00     0.044 C 
BRANCH  21  23
HETATM   23  O   UNL     1       0.187   5.332 -28.495  1.00  0.00    -0.391 OA
HETATM   24  H   UNL     1       0.705   4.890 -29.190  1.00  0.00     0.210 HD
ENDBRANCH  21  23
ENDBRANCH  17  21
ENDBRANCH  12  15
ENDBRANCH   1  11
BRANCH   8  25
HETATM   25  C   UNL     1      -9.132   1.636 -34.172  1.00  0.00     0.409 C 
HETATM   26  F   UNL     1      -9.041   1.891 -32.848  1.00  0.00    -0.169 F 
HETATM   27  F   UNL     1      -9.757   2.708 -34.729  1.00  0.00    -0.169 F 
HETATM   28  F   UNL     1      -9.957   0.583 -34.335  1.00  0.00    -0.169 F 
ENDBRANCH   8  25
BRANCH   6  29
HETATM   29  C   UNL     1      -6.421  -2.103 -34.096  1.00  0.00    -0.035 A 
HETATM   30  C   UNL     1      -5.032  -2.202 -33.913  1.00  0.00     0.012 A 
HETATM   31  C   UNL     1      -4.365  -3.397 -34.194  1.00  0.00     0.043 A 
HETATM   32  C   UNL     1      -5.082  -4.496 -34.656  1.00  0.00     0.116 A 
HETATM   33  F   UNL     1      -4.438  -5.638 -34.925  1.00  0.00    -0.206 F 
HETATM   34  C   UNL     1      -6.456  -4.425 -34.843  1.00  0.00     0.043 A 
HETATM   35  C   UNL     1      -7.124  -3.233 -34.561  1.00  0.00     0.012 A 
ENDBRANCH   6  29
TORSDOF 6
ENDMDL
MODEL 2
REMARK VINA RESULT:      -9.7      1.385      1.714
REMARK  6 active torsions:
REMARK  status: ('A' for Active; 'I' for Inactive)
REMARK    1  A    between atoms: C_2  and  O_3 
REMARK    2  A    between atoms: C_2  and  C_4 
REMARK    3  A    between atoms: C_6  and  N_7 
REMARK       I    between atoms: N_7  and  C_8 
REMARK    4  A    between atoms: C_8  and  C_9 
REMARK    5  A    between atoms: C_14  and  C_15 
REMARK    6  A    between atoms: C_23  and  C_24 
ROOT
HETATM    1  C   UNL     1      -5.179   3.442 -33.449  1.00  0.00     0.148 A 
HETATM    2  N   UNL     1      -6.235   3.337 -34.292  1.00  0.00    -0.165 NA
HETATM    3  N   UNL     1      -6.707   2.102 -34.038  1.00  0.00    -0.240 N 
HETATM    4  C   UNL     1      -5.961   1.392 -33.141  1.00  0.00     0.123 A 
HETATM    5  N   UNL     1      -6.229   0.097 -32.881  1.00  0.00    -0.366 N 
HETATM    6  C   UNL     1      -7.105  -0.708 -33.733  1.00  0.00     0.118 C 
HETATM    7  C   UNL     1      -7.495   0.035 -35.030  1.00  0.00     0.066 C 
HETATM    8  C   UNL     1      -7.807   1.519 -34.780  1.00  0.00     0.221 C 
HETATM    9  C   UNL     1      -5.001   2.254 -32.686  1.00  0.00     0.089 A 
HETATM   10  H   UNL     1      -5.678  -0.427 -32.201  1.00  0.00     0.161 HD
ENDROOT
BRANCH   1  11
HETATM   11  C   UNL     1      -4.323   4.641 -33.406  1.00  0.00     0.276 C 
HETATM   12  N   UNL     1      -3.394   4.577 -32.384  1.00  0.00    -0.322 N 
HETATM   13  H   UNL     1      -3.422   3.701 -31.867  1.00  0.00     0.169 HD
HETATM   14  O   UNL     1      -4.475   5.560 -34.204  1.00  0.00    -0.266 OA
BRANCH  12  15
HETATM   15  C   UNL     1      -2.457   5.549 -31.999  1.00  0.00     0.035 A 
HETATM   16  C   UNL     1      -2.794   6.865 -31.673  1.00  0.00     0.039 A 
HETATM   17  C   UNL     1      -1.810   7.793 -31.290  1.00  0.00    -0.028 A 
HETATM   18  C   UNL     1      -0.470   7.386 -31.257  1.00  0.00     0.010 A 
HETATM   19  C   UNL     1      -0.126   6.072 -31.571  1.00  0.00     0.003 A 
HETATM   20  C   UNL     1      -1.116   5.158 -31.934  1.00  0.00     0.029 A 
BRANCH  17  21
HETATM   21  C   UNL     1      -2.215   9.215 -30.961  1.00  0.00     0.147 C 
HETATM   22  C   UNL     1      -2.095   9.511 -29.473  1.00  0.00     0.044 C 
BRANCH  21  23
HETATM   23  O   UNL     1      -3.557   9.467 -31.377  1.00  0.00    -0.391 OA
HETATM   24  H   UNL     1      -3.994   8.600 -31.438  1.00  0.00     0.210 HD
ENDBRANCH  21  23
ENDBRANCH  17  21
ENDBRANCH  12  15
ENDBRANCH   1  11
BRANCH   8  25
HETATM   25  C   UNL     1      -9.107   1.729 -34.039  1.00  0.00     0.409 C 
HETATM   26  F   UNL     1      -9.825   2.756 -34.546  1.00  0.00    -0.169 F 
HETATM   27  F   UNL     1      -9.883   0.619 -34.158  1.00  0.00    -0.169 F 
HETATM   28  F   UNL     1      -8.950   1.947 -32.718  1.00  0.00    -0.169 F 
ENDBRANCH   8  25
BRANCH   6  29
HETATM   29  C   UNL     1      -6.408  -2.020 -34.062  1.00  0.00    -0.035 A 
HETATM   30  C   UNL     1      -5.022  -2.154 -33.879  1.00  0.00     0.012 A 
HETATM   31  C   UNL     1      -4.384  -3.361 -34.175  1.00  0.00     0.043 A 
HETATM   32  C   UNL     1      -5.126  -4.436 -34.651  1.00  0.00     0.116 A 
HETATM   33  F   UNL     1      -4.508  -5.590 -34.935  1.00  0.00    -0.206 F 
HETATM   34  C   UNL     1      -6.497  -4.331 -34.837  1.00  0.00     0.043 A 
HETATM   35  C   UNL     1      -7.138  -3.127 -34.541  1.00  0.00     0.012 A 
ENDBRANCH   6  29
TORSDOF 6
ENDMDL
MODEL 3
REMARK VINA RESULT:      -9.7      3.943      9.424
REMARK  6 active torsions:
REMARK  status: ('A' for Active; 'I' for Inactive)
REMARK    1  A    between atoms: C_2  and  O_3 
REMARK    2  A    between atoms: C_2  and  C_4 
REMARK    3  A    between atoms: C_6  and  N_7 
REMARK       I    between atoms: N_7  and  C_8 
REMARK    4  A    between atoms: C_8  and  C_9 
REMARK    5  A    between atoms: C_14  and  C_15 
REMARK    6  A    between atoms: C_23  and  C_24 
ROOT
HETATM    1  C   UNL     1      -4.600   2.025 -31.984  1.00  0.00     0.148 A 
HETATM    2  N   UNL     1      -5.503   2.954 -31.584  1.00  0.00    -0.165 NA
HETATM    3  N   UNL     1      -4.833   4.113 -31.729  1.00  0.00    -0.240 N 
HETATM    4  C   UNL     1      -3.533   3.962 -32.121  1.00  0.00     0.123 A 
HETATM    5  N   UNL     1      -2.697   5.017 -32.183  1.00  0.00    -0.366 N 
HETATM    6  C   UNL     1      -3.012   6.305 -31.562  1.00  0.00     0.118 C 
HETATM    7  C   UNL     1      -4.280   6.230 -30.685  1.00  0.00     0.066 C 
HETATM    8  C   UNL     1      -5.391   5.391 -31.336  1.00  0.00     0.221 C 
HETATM    9  C   UNL     1      -3.368   2.626 -32.362  1.00  0.00     0.089 A 
HETATM   10  H   UNL     1      -1.730   4.904 -32.488  1.00  0.00     0.161 HD
ENDROOT
BRANCH   1  11
HETATM   11  C   UNL     1      -4.894   0.581 -31.961  1.00  0.00     0.276 C 
HETATM   12  N   UNL     1      -3.862  -0.166 -32.496  1.00  0.00    -0.322 N 
HETATM   13  H   UNL     1      -3.058   0.395 -32.769  1.00  0.00     0.169 HD
HETATM   14  O   UNL     1      -5.955   0.156 -31.517  1.00  0.00    -0.266 OA
BRANCH  12  15
HETATM   15  C   UNL     1      -3.805  -1.554 -32.695  1.00  0.00     0.035 A 
HETATM   16  C   UNL     1      -4.502  -2.222 -33.706  1.00  0.00     0.039 A 
HETATM   17  C   UNL     1      -4.403  -3.616 -33.859  1.00  0.00    -0.028 A 
HETATM   18  C   UNL     1      -3.605  -4.339 -32.963  1.00  0.00     0.010 A 
HETATM   19  C   UNL     1      -2.898  -3.681 -31.959  1.00  0.00     0.003 A 
HETATM   20  C   UNL     1      -2.994  -2.295 -31.829  1.00  0.00     0.029 A 
BRANCH  17  21
HETATM   21  C   UNL     1      -5.189  -4.303 -34.956  1.00  0.00     0.147 C 
HETATM   22  C   UNL     1      -6.670  -3.962 -34.892  1.00  0.00     0.044 C 
BRANCH  21  23
HETATM   23  O   UNL     1      -5.035  -5.719 -34.875  1.00  0.00    -0.391 OA
HETATM   24  H   UNL     1      -4.936  -5.933 -33.932  1.00  0.00     0.210 HD
ENDBRANCH  21  23
ENDBRANCH  17  21
ENDBRANCH  12  15
ENDBRANCH   1  11
BRANCH   8  25
HETATM   25  C   UNL     1      -6.021   6.075 -32.527  1.00  0.00     0.409 C 
HETATM   26  F   UNL     1      -7.331   5.770 -32.659  1.00  0.00    -0.169 F 
HETATM   27  F   UNL     1      -5.953   7.423 -32.367  1.00  0.00    -0.169 F 
HETATM   28  F   UNL     1      -5.412   5.796 -33.697  1.00  0.00    -0.169 F 
ENDBRANCH   8  25
BRANCH   6  29
HETATM   29  C   UNL     1      -1.819   6.761 -30.735  1.00  0.00    -0.035 A 
HETATM   30  C   UNL     1      -2.011   7.328 -29.464  1.00  0.00     0.012 A 
HETATM   31  C   UNL     1      -0.915   7.741 -28.702  1.00  0.00     0.043 A 
HETATM   32  C   UNL     1       0.373   7.588 -29.205  1.00  0.00     0.116 A 
HETATM   33  F   UNL     1       1.419   7.988 -28.471  1.00  0.00    -0.206 F 
HETATM   34  C   UNL     1       0.589   7.029 -30.457  1.00  0.00     0.043 A 
HETATM   35  C   UNL     1      -0.504   6.613 -31.219  1.00  0.00     0.012 A 
ENDBRANCH   6  29
TORSDOF 6
ENDMDL
MODEL 4
REMARK VINA RESULT:      -9.4      4.309      9.905
REMARK  6 active torsions:
REMARK  status: ('A' for Active; 'I' for Inactive)
REMARK    1  A    between atoms: C_2  and  O_3 
REMARK    2  A    between atoms: C_2  and  C_4 
REMARK    3  A    between atoms: C_6  and  N_7 
REMARK       I    between atoms: N_7  and  C_8 
REMARK    4  A    between atoms: C_8  and  C_9 
REMARK    5  A    between atoms: C_14  and  C_15 
REMARK    6  A    between atoms: C_23  and  C_24 
ROOT
HETATM    1  C   UNL     1      -5.458   3.703 -31.937  1.00  0.00     0.148 A 
HETATM    2  N   UNL     1      -5.166   4.687 -32.822  1.00  0.00    -0.165 NA
HETATM    3  N   UNL     1      -3.849   4.889 -32.630  1.00  0.00    -0.240 N 
HETATM    4  C   UNL     1      -3.311   4.144 -31.619  1.00  0.00     0.123 A 
HETATM    5  N   UNL     1      -2.036   4.328 -31.219  1.00  0.00    -0.366 N 
HETATM    6  C   UNL     1      -1.256   5.505 -31.606  1.00  0.00     0.118 C 
HETATM    7  C   UNL     1      -2.120   6.561 -32.327  1.00  0.00     0.066 C 
HETATM    8  C   UNL     1      -3.110   5.929 -33.318  1.00  0.00     0.221 C 
HETATM    9  C   UNL     1      -4.310   3.313 -31.193  1.00  0.00     0.089 A 
HETATM   10  H   UNL     1      -1.633   3.762 -30.473  1.00  0.00     0.161 HD
ENDROOT
BRANCH   1  11
HETATM   11  C   UNL     1      -6.824   3.173 -31.772  1.00  0.00     0.276 C 
HETATM   12  N   UNL     1      -7.244   2.469 -32.884  1.00  0.00    -0.322 N 
HETATM   13  H   UNL     1      -6.531   2.391 -33.605  1.00  0.00     0.169 HD
HETATM   14  O   UNL     1      -7.465   3.379 -30.747  1.00  0.00    -0.266 OA
BRANCH  12  15
HETATM   15  C   UNL     1      -8.495   1.874 -33.115  1.00  0.00     0.035 A 
HETATM   16  C   UNL     1      -9.498   2.458 -33.895  1.00  0.00     0.039 A 
HETATM   17  C   UNL     1     -10.730   1.812 -34.094  1.00  0.00    -0.028 A 
HETATM   18  C   UNL     1     -10.953   0.573 -33.480  1.00  0.00     0.010 A 
HETATM   19  C   UNL     1      -9.955  -0.021 -32.710  1.00  0.00     0.003 A 
HETATM   20  C   UNL     1      -8.730   0.625 -32.533  1.00  0.00     0.029 A 
BRANCH  17  21
HETATM   21  C   UNL     1     -11.798   2.486 -34.931  1.00  0.00     0.147 C 
HETATM   22  C   UNL     1     -13.059   2.766 -34.126  1.00  0.00     0.044 C 
BRANCH  21  23
HETATM   23  O   UNL     1     -12.137   1.682 -36.059  1.00  0.00    -0.391 OA
HETATM   24  H   UNL     1     -12.802   2.181 -36.565  1.00  0.00     0.210 HD
ENDBRANCH  21  23
ENDBRANCH  17  21
ENDBRANCH  12  15
ENDBRANCH   1  11
BRANCH   8  25
HETATM   25  C   UNL     1      -2.432   5.364 -34.544  1.00  0.00     0.409 C 
HETATM   26  F   UNL     1      -2.057   4.076 -34.375  1.00  0.00    -0.169 F 
HETATM   27  F   UNL     1      -3.301   5.378 -35.590  1.00  0.00    -0.169 F 
HETATM   28  F   UNL     1      -1.348   6.062 -34.936  1.00  0.00    -0.169 F 
ENDBRANCH   8  25
BRANCH   6  29
HETATM   29  C   UNL     1      -0.611   6.102 -30.364  1.00  0.00    -0.035 A 
HETATM   30  C   UNL     1      -0.829   7.448 -30.028  1.00  0.00     0.012 A 
HETATM   31  C   UNL     1      -0.242   7.995 -28.884  1.00  0.00     0.043 A 
HETATM   32  C   UNL     1       0.560   7.200 -28.072  1.00  0.00     0.116 A 
HETATM   33  F   UNL     1       1.121   7.730 -26.978  1.00  0.00    -0.206 F 
HETATM   34  C   UNL     1       0.788   5.866 -28.380  1.00  0.00     0.043 A 
HETATM   35  C   UNL     1       0.201   5.317 -29.521  1.00  0.00     0.012 A 
ENDBRANCH   6  29
TORSDOF 6
ENDMDL
MODEL 5
REMARK VINA RESULT:      -9.4      2.507      4.897
REMARK  6 active torsions:
REMARK  status: ('A' for Active; 'I' for Inactive)
REMARK    1  A    between atoms: C_2  and  O_3 
REMARK    2  A    between atoms: C_2  and  C_4 
REMARK    3  A    between atoms: C_6  and  N_7 
REMARK       I    between atoms: N_7  and  C_8 
REMARK    4  A    between atoms: C_8  and  C_9 
REMARK    5  A    between atoms: C_14  and  C_15 
REMARK    6  A    between atoms: C_23  and  C_24 
ROOT
HETATM    1  C   UNL     1      -6.181   3.470 -32.979  1.00  0.00     0.148 A 
HETATM    2  N   UNL     1      -6.171   2.255 -32.377  1.00  0.00    -0.165 NA
HETATM    3  N   UNL     1      -7.217   1.625 -32.946  1.00  0.00    -0.240 N 
HETATM    4  C   UNL     1      -7.933   2.401 -33.813  1.00  0.00     0.123 A 
HETATM    5  N   UNL     1      -9.081   1.956 -34.362  1.00  0.00    -0.366 N 
HETATM    6  C   UNL     1      -9.788   0.779 -33.854  1.00  0.00     0.118 C 
HETATM    7  C   UNL     1      -9.180   0.265 -32.531  1.00  0.00     0.066 C 
HETATM    8  C   UNL     1      -7.644   0.300 -32.543  1.00  0.00     0.221 C 
HETATM    9  C   UNL     1      -7.249   3.581 -33.911  1.00  0.00     0.089 A 
HETATM   10  H   UNL     1      -9.606   2.532 -35.019  1.00  0.00     0.161 HD
ENDROOT
BRANCH   1  11
HETATM   11  C   UNL     1      -5.212   4.525 -32.634  1.00  0.00     0.276 C 
HETATM   12  N   UNL     1      -3.906   4.105 -32.804  1.00  0.00    -0.322 N 
HETATM   13  H   UNL     1      -3.831   3.163 -33.181  1.00  0.00     0.169 HD
HETATM   14  O   UNL     1      -5.584   5.625 -32.238  1.00  0.00    -0.266 OA
BRANCH  12  15
HETATM   15  C   UNL     1      -2.723   4.807 -32.524  1.00  0.00     0.035 A 
HETATM   16  C   UNL     1      -2.014   4.685 -31.325  1.00  0.00     0.039 A 
HETATM   17  C   UNL     1      -0.832   5.412 -31.103  1.00  0.00    -0.028 A 
HETATM   18  C   UNL     1      -0.377   6.286 -32.099  1.00  0.00     0.010 A 
HETATM   19  C   UNL     1      -1.071   6.407 -33.302  1.00  0.00     0.003 A 
HETATM   20  C   UNL     1      -2.236   5.666 -33.514  1.00  0.00     0.029 A 
BRANCH  17  21
HETATM   21  C   UNL     1      -0.103   5.264 -29.784  1.00  0.00     0.147 C 
HETATM   22  C   UNL     1       0.631   6.540 -29.395  1.00  0.00     0.044 C 
BRANCH  21  23
HETATM   23  O   UNL     1       0.833   4.190 -29.842  1.00  0.00    -0.391 OA
HETATM   24  H   UNL     1       0.725   3.684 -29.018  1.00  0.00     0.210 HD
ENDBRANCH  21  23
ENDBRANCH  17  21
ENDBRANCH  12  15
ENDBRANCH   1  11
BRANCH   8  25
HETATM   25  C   UNL     1      -7.038  -0.744 -33.452  1.00  0.00     0.409 C 
HETATM   26  F   UNL     1      -7.925  -1.707 -33.788  1.00  0.00    -0.169 F 
HETATM   27  F   UNL     1      -6.644  -0.160 -34.615  1.00  0.00    -0.169 F 
HETATM   28  F   UNL     1      -5.949  -1.347 -32.936  1.00  0.00    -0.169 F 
ENDBRANCH   8  25
BRANCH   6  29
HETATM   29  C   UNL     1     -11.257   1.127 -33.665  1.00  0.00    -0.035 A 
HETATM   30  C   UNL     1     -11.651   2.460 -33.467  1.00  0.00     0.012 A 
HETATM   31  C   UNL     1     -13.001   2.780 -33.299  1.00  0.00     0.043 A 
HETATM   32  C   UNL     1     -13.959   1.772 -33.330  1.00  0.00     0.116 A 
HETATM   33  F   UNL     1     -15.250   2.085 -33.166  1.00  0.00    -0.206 F 
HETATM   34  C   UNL     1     -13.595   0.448 -33.527  1.00  0.00     0.043 A 
HETATM   35  C   UNL     1     -12.248   0.126 -33.697  1.00  0.00     0.012 A 
ENDBRANCH   6  29
TORSDOF 6
ENDMDL
MODEL 6
REMARK VINA RESULT:      -9.3      3.997      9.640
REMARK  6 active torsions:
REMARK  status: ('A' for Active; 'I' for Inactive)
REMARK    1  A    between atoms: C_2  and  O_3 
REMARK    2  A    between atoms: C_2  and  C_4 
REMARK    3  A    between atoms: C_6  and  N_7 
REMARK       I    between atoms: N_7  and  C_8 
REMARK    4  A    between atoms: C_8  and  C_9 
REMARK    5  A    between atoms: C_14  and  C_15 
REMARK    6  A    between atoms: C_23  and  C_24 
ROOT
HETATM    1  C   UNL     1      -4.233   2.666 -31.591  1.00  0.00     0.148 A 
HETATM    2  N   UNL     1      -5.118   3.579 -31.122  1.00  0.00    -0.165 NA
HETATM    3  N   UNL     1      -4.402   4.719 -31.110  1.00  0.00    -0.240 N 
HETATM    4  C   UNL     1      -3.093   4.561 -31.468  1.00  0.00     0.123 A 
HETATM    5  N   UNL     1      -2.218   5.583 -31.379  1.00  0.00    -0.366 N 
HETATM    6  C   UNL     1      -2.512   6.804 -30.628  1.00  0.00     0.118 C 
HETATM    7  C   UNL     1      -3.818   6.682 -29.812  1.00  0.00     0.066 C 
HETATM    8  C   UNL     1      -4.930   5.967 -30.595  1.00  0.00     0.221 C 
HETATM    9  C   UNL     1      -2.965   3.255 -31.853  1.00  0.00     0.089 A 
HETATM   10  H   UNL     1      -1.244   5.465 -31.659  1.00  0.00     0.161 HD
ENDROOT
BRANCH   1  11
HETATM   11  C   UNL     1      -4.579   1.241 -31.743  1.00  0.00     0.276 C 
HETATM   12  N   UNL     1      -4.791   0.898 -33.065  1.00  0.00    -0.322 N 
HETATM   13  H   UNL     1      -4.627   1.666 -33.713  1.00  0.00     0.169 HD
HETATM   14  O   UNL     1      -4.664   0.500 -30.770  1.00  0.00    -0.266 OA
BRANCH  12  15
HETATM   15  C   UNL     1      -5.191  -0.342 -33.589  1.00  0.00     0.035 A 
HETATM   16  C   UNL     1      -4.396  -1.491 -33.554  1.00  0.00     0.039 A 
HETATM   17  C   UNL     1      -4.854  -2.706 -34.093  1.00  0.00    -0.028 A 
HETATM   18  C   UNL     1      -6.121  -2.749 -34.689  1.00  0.00     0.010 A 
HETATM   19  C   UNL     1      -6.925  -1.611 -34.718  1.00  0.00     0.003 A 
HETATM   20  C   UNL     1      -6.463  -0.415 -34.166  1.00  0.00     0.029 A 
BRANCH  17  21
HETATM   21  C   UNL     1      -3.954  -3.924 -34.052  1.00  0.00     0.147 C 
HETATM   22  C   UNL     1      -4.724  -5.208 -34.327  1.00  0.00     0.044 C 
BRANCH  21  23
HETATM   23  O   UNL     1      -3.310  -4.033 -32.783  1.00  0.00    -0.391 OA
HETATM   24  H   UNL     1      -3.895  -4.569 -32.221  1.00  0.00     0.210 HD
ENDBRANCH  21  23
ENDBRANCH  17  21
ENDBRANCH  12  15
ENDBRANCH   1  11
BRANCH   8  25
HETATM   25  C   UNL     1      -5.485   6.804 -31.724  1.00  0.00     0.409 C 
HETATM   26  F   UNL     1      -6.820   6.647 -31.870  1.00  0.00    -0.169 F 
HETATM   27  F   UNL     1      -5.279   8.121 -31.457  1.00  0.00    -0.169 F 
HETATM   28  F   UNL     1      -4.907   6.559 -32.917  1.00  0.00    -0.169 F 
ENDBRANCH   8  25
BRANCH   6  29
HETATM   29  C   UNL     1      -1.339   7.117 -29.710  1.00  0.00    -0.035 A 
HETATM   30  C   UNL     1      -0.325   6.168 -29.505  1.00  0.00     0.012 A 
HETATM   31  C   UNL     1       0.755   6.458 -28.667  1.00  0.00     0.043 A 
HETATM   32  C   UNL     1       0.826   7.694 -28.035  1.00  0.00     0.116 A 
HETATM   33  F   UNL     1       1.862   7.965 -27.232  1.00  0.00    -0.206 F 
HETATM   34  C   UNL     1      -0.162   8.650 -28.223  1.00  0.00     0.043 A 
HETATM   35  C   UNL     1      -1.241   8.364 -29.061  1.00  0.00     0.012 A 
ENDBRANCH   6  29
TORSDOF 6
ENDMDL
MODEL 7
REMARK VINA RESULT:      -8.7      4.912     10.185
REMARK  6 active torsions:
REMARK  status: ('A' for Active; 'I' for Inactive)
REMARK    1  A    between atoms: C_2  and  O_3 
REMARK    2  A    between atoms: C_2  and  C_4 
REMARK    3  A    between atoms: C_6  and  N_7 
REMARK       I    between atoms: N_7  and  C_8 
REMARK    4  A    between atoms: C_8  and  C_9 
REMARK    5  A    between atoms: C_14  and  C_15 
REMARK    6  A    between atoms: C_23  and  C_24 
ROOT
HETATM    1  C   UNL     1      -5.558   4.880 -32.057  1.00  0.00     0.148 A 
HETATM    2  N   UNL     1      -4.966   5.576 -33.059  1.00  0.00    -0.165 NA
HETATM    3  N   UNL     1      -3.701   5.725 -32.621  1.00  0.00    -0.240 N 
HETATM    4  C   UNL     1      -3.483   5.234 -31.365  1.00  0.00     0.123 A 
HETATM    5  N   UNL     1      -2.305   5.424 -30.737  1.00  0.00    -0.366 N 
HETATM    6  C   UNL     1      -1.317   6.399 -31.202  1.00  0.00     0.118 C 
HETATM    7  C   UNL     1      -1.872   7.290 -32.335  1.00  0.00     0.066 C 
HETATM    8  C   UNL     1      -2.710   6.493 -33.347  1.00  0.00     0.221 C 
HETATM    9  C   UNL     1      -4.647   4.617 -30.996  1.00  0.00     0.089 A 
HETATM   10  H   UNL     1      -2.140   5.045 -29.805  1.00  0.00     0.161 HD
ENDROOT
BRANCH   1  11
HETATM   11  C   UNL     1      -6.985   4.513 -32.090  1.00  0.00     0.276 C 
HETATM   12  N   UNL     1      -7.400   4.164 -33.361  1.00  0.00    -0.322 N 
HETATM   13  H   UNL     1      -6.648   4.171 -34.047  1.00  0.00     0.169 HD
HETATM   14  O   UNL     1      -7.673   4.544 -31.076  1.00  0.00    -0.266 OA
BRANCH  12  15
HETATM   15  C   UNL     1      -8.691   3.816 -33.790  1.00  0.00     0.035 A 
HETATM   16  C   UNL     1      -9.242   2.541 -33.633  1.00  0.00     0.039 A 
HETATM   17  C   UNL     1     -10.544   2.253 -34.080  1.00  0.00    -0.028 A 
HETATM   18  C   UNL     1     -11.282   3.263 -34.710  1.00  0.00     0.010 A 
HETATM   19  C   UNL     1     -10.745   4.540 -34.861  1.00  0.00     0.003 A 
HETATM   20  C   UNL     1      -9.456   4.815 -34.398  1.00  0.00     0.029 A 
BRANCH  17  21
HETATM   21  C   UNL     1     -11.098   0.854 -33.907  1.00  0.00     0.147 C 
HETATM   22  C   UNL     1     -12.619   0.850 -33.845  1.00  0.00     0.044 C 
BRANCH  21  23
HETATM   23  O   UNL     1     -10.584   0.251 -32.720  1.00  0.00    -0.391 OA
HETATM   24  H   UNL     1      -9.768   0.730 -32.498  1.00  0.00     0.210 HD
ENDBRANCH  21  23
ENDBRANCH  17  21
ENDBRANCH  12  15
ENDBRANCH   1  11
BRANCH   8  25
HETATM   25  C   UNL     1      -1.873   5.580 -34.212  1.00  0.00     0.409 C 
HETATM   26  F   UNL     1      -2.514   5.219 -35.347  1.00  0.00    -0.169 F 
HETATM   27  F   UNL     1      -0.742   6.229 -34.598  1.00  0.00    -0.169 F 
HETATM   28  F   UNL     1      -1.475   4.454 -33.587  1.00  0.00    -0.169 F 
ENDBRANCH   8  25
BRANCH   6  29
HETATM   29  C   UNL     1      -0.871   7.252 -30.025  1.00  0.00    -0.035 A 
HETATM   30  C   UNL     1       0.384   7.042 -29.430  1.00  0.00     0.012 A 
HETATM   31  C   UNL     1       0.796   7.830 -28.353  1.00  0.00     0.043 A 
HETATM   32  C   UNL     1      -0.040   8.830 -27.868  1.00  0.00     0.116 A 
HETATM   33  F   UNL     1       0.359   9.581 -26.834  1.00  0.00    -0.206 F 
HETATM   34  C   UNL     1      -1.284   9.060 -28.440  1.00  0.00     0.043 A 
HETATM   35  C   UNL     1      -1.697   8.275 -29.518  1.00  0.00     0.012 A 
ENDBRANCH   6  29
TORSDOF 6
ENDMDL
MODEL 8
REMARK VINA RESULT:      -8.6     16.502     18.613
REMARK  6 active torsions:
REMARK  status: ('A' for Active; 'I' for Inactive)
REMARK    1  A    between atoms: C_2  and  O_3 
REMARK    2  A    between atoms: C_2  and  C_4 
REMARK    3  A    between atoms: C_6  and  N_7 
REMARK       I    between atoms: N_7  and  C_8 
REMARK    4  A    between atoms: C_8  and  C_9 
REMARK    5  A    between atoms: C_14  and  C_15 
REMARK    6  A    between atoms: C_23  and  C_24 
ROOT
HETATM    1  C   UNL     1      -5.754 -15.541 -34.217  1.00  0.00     0.148 A 
HETATM    2  N   UNL     1      -4.836 -15.432 -35.208  1.00  0.00    -0.165 NA
HETATM    3  N   UNL     1      -5.387 -14.523 -36.035  1.00  0.00    -0.240 N 
HETATM    4  C   UNL     1      -6.636 -14.113 -35.662  1.00  0.00     0.123 A 
HETATM    5  N   UNL     1      -7.370 -13.306 -36.455  1.00  0.00    -0.366 N 
HETATM    6  C   UNL     1      -7.032 -13.068 -37.859  1.00  0.00     0.118 C 
HETATM    7  C   UNL     1      -5.893 -13.990 -38.345  1.00  0.00     0.066 C 
HETATM    8  C   UNL     1      -4.781 -14.146 -37.296  1.00  0.00     0.221 C 
HETATM    9  C   UNL     1      -6.878 -14.701 -34.451  1.00  0.00     0.089 A 
HETATM   10  H   UNL     1      -8.297 -12.991 -36.168  1.00  0.00     0.161 HD
ENDROOT
BRANCH   1  11
HETATM   11  C   UNL     1      -5.583 -16.470 -33.085  1.00  0.00     0.276 C 
HETATM   12  N   UNL     1      -5.701 -15.829 -31.867  1.00  0.00    -0.322 N 
HETATM   13  H   UNL     1      -5.932 -14.841 -31.951  1.00  0.00     0.169 HD
HETATM   14  O   UNL     1      -5.354 -17.661 -33.269  1.00  0.00    -0.266 OA
BRANCH  12  15
HETATM   15  C   UNL     1      -5.541 -16.368 -30.581  1.00  0.00     0.035 A 
HETATM   16  C   UNL     1      -6.578 -16.964 -29.856  1.00  0.00     0.039 A 
HETATM   17  C   UNL     1      -6.356 -17.492 -28.572  1.00  0.00    -0.028 A 
HETATM   18  C   UNL     1      -5.076 -17.394 -28.011  1.00  0.00     0.010 A 
HETATM   19  C   UNL     1      -4.034 -16.811 -28.730  1.00  0.00     0.003 A 
HETATM   20  C   UNL     1      -4.266 -16.305 -30.011  1.00  0.00     0.029 A 
BRANCH  17  21
HETATM   21  C   UNL     1      -7.510 -18.113 -27.813  1.00  0.00     0.147 C 
HETATM   22  C   UNL     1      -8.761 -17.248 -27.872  1.00  0.00     0.044 C 
BRANCH  21  23
HETATM   23  O   UNL     1      -7.159 -18.327 -26.447  1.00  0.00    -0.391 OA
HETATM   24  H   UNL     1      -6.395 -18.929 -26.448  1.00  0.00     0.210 HD
ENDBRANCH  21  23
ENDBRANCH  17  21
ENDBRANCH  12  15
ENDBRANCH   1  11
BRANCH   8  25
HETATM   25  C   UNL     1      -3.955 -12.894 -37.125  1.00  0.00     0.409 C 
HETATM   26  F   UNL     1      -4.236 -11.962 -38.064  1.00  0.00    -0.169 F 
HETATM   27  F   UNL     1      -4.234 -12.325 -35.922  1.00  0.00    -0.169 F 
HETATM   28  F   UNL     1      -2.625 -13.113 -37.147  1.00  0.00    -0.169 F 
ENDBRANCH   8  25
BRANCH   6  29
HETATM   29  C   UNL     1      -8.278 -13.267 -38.709  1.00  0.00    -0.035 A 
HETATM   30  C   UNL     1      -8.860 -14.539 -38.830  1.00  0.00     0.012 A 
HETATM   31  C   UNL     1     -10.007 -14.721 -39.607  1.00  0.00     0.043 A 
HETATM   32  C   UNL     1     -10.577 -13.634 -40.261  1.00  0.00     0.116 A 
HETATM   33  F   UNL     1     -11.676 -13.815 -41.005  1.00  0.00    -0.206 F 
HETATM   34  C   UNL     1     -10.024 -12.366 -40.155  1.00  0.00     0.043 A 
HETATM   35  C   UNL     1      -8.879 -12.182 -39.378  1.00  0.00     0.012 A 
ENDBRANCH   6  29
TORSDOF 6
ENDMDL
MODEL 9
REMARK VINA RESULT:      -8.6      2.879      3.351
REMARK  6 active torsions:
REMARK  status: ('A' for Active; 'I' for Inactive)
REMARK    1  A    between atoms: C_2  and  O_3 
REMARK    2  A    between atoms: C_2  and  C_4 
REMARK    3  A    between atoms: C_6  and  N_7 
REMARK       I    between atoms: N_7  and  C_8 
REMARK    4  A    between atoms: C_8  and  C_9 
REMARK    5  A    between atoms: C_14  and  C_15 
REMARK    6  A    between atoms: C_23  and  C_24 
ROOT
HETATM    1  C   UNL     1      -7.496   3.692 -31.503  1.00  0.00     0.148 A 
HETATM    2  N   UNL     1      -8.171   3.627 -32.676  1.00  0.00    -0.165 NA
HETATM    3  N   UNL     1      -8.273   2.302 -32.896  1.00  0.00    -0.240 N 
HETATM    4  C   UNL     1      -7.630   1.531 -31.969  1.00  0.00     0.123 A 
HETATM    5  N   UNL     1      -7.531   0.195 -32.122  1.00  0.00    -0.366 N 
HETATM    6  C   UNL     1      -7.815  -0.472 -33.393  1.00  0.00     0.118 C 
HETATM    7  C   UNL     1      -8.031   0.538 -34.541  1.00  0.00     0.066 C 
HETATM    8  C   UNL     1      -8.861   1.753 -34.101  1.00  0.00     0.221 C 
HETATM    9  C   UNL     1      -7.174   2.396 -31.013  1.00  0.00     0.089 A 
HETATM   10  H   UNL     1      -7.062  -0.380 -31.422  1.00  0.00     0.161 HD
ENDROOT
BRANCH   1  11
HETATM   11  C   UNL     1      -7.122   4.975 -30.881  1.00  0.00     0.276 C 
HETATM   12  N   UNL     1      -6.554   5.846 -31.791  1.00  0.00    -0.322 N 
HETATM   13  H   UNL     1      -6.533   5.480 -32.741  1.00  0.00     0.169 HD
HETATM   14  O   UNL     1      -7.309   5.180 -29.686  1.00  0.00    -0.266 OA
BRANCH  12  15
HETATM   15  C   UNL     1      -6.026   7.126 -31.558  1.00  0.00     0.035 A 
HETATM   16  C   UNL     1      -4.661   7.385 -31.410  1.00  0.00     0.039 A 
HETATM   17  C   UNL     1      -4.190   8.690 -31.181  1.00  0.00    -0.028 A 
HETATM   18  C   UNL     1      -5.117   9.737 -31.083  1.00  0.00     0.010 A 
HETATM   19  C   UNL     1      -6.479   9.489 -31.241  1.00  0.00     0.003 A 
HETATM   20  C   UNL     1      -6.930   8.190 -31.482  1.00  0.00     0.029 A 
BRANCH  17  21
HETATM   21  C   UNL     1      -2.704   8.927 -31.008  1.00  0.00     0.147 C 
HETATM   22  C   UNL     1      -2.414  10.287 -30.389  1.00  0.00     0.044 C 
BRANCH  21  23
HETATM   23  O   UNL     1      -2.029   8.834 -32.261  1.00  0.00    -0.391 OA
HETATM   24  H   UNL     1      -1.910   7.886 -32.442  1.00  0.00     0.210 HD
ENDBRANCH  21  23
ENDBRANCH  17  21
ENDBRANCH  12  15
ENDBRANCH   1  11
BRANCH   8  25
HETATM   25  C   UNL     1     -10.315   1.417 -33.865  1.00  0.00     0.409 C 
HETATM   26  F   UNL     1     -10.473   0.209 -33.279  1.00  0.00    -0.169 F 
HETATM   27  F   UNL     1     -10.862   2.330 -33.020  1.00  0.00    -0.169 F 
HETATM   28  F   UNL     1     -11.065   1.433 -34.985  1.00  0.00    -0.169 F 
ENDBRANCH   8  25
BRANCH   6  29
HETATM   29  C   UNL     1      -6.670  -1.417 -33.725  1.00  0.00    -0.035 A 
HETATM   30  C   UNL     1      -6.894  -2.555 -34.516  1.00  0.00     0.012 A 
HETATM   31  C   UNL     1      -5.840  -3.419 -34.825  1.00  0.00     0.043 A 
HETATM   32  C   UNL     1      -4.563  -3.150 -34.347  1.00  0.00     0.116 A 
HETATM   33  F   UNL     1      -3.558  -3.982 -34.645  1.00  0.00    -0.206 F 
HETATM   34  C   UNL     1      -4.314  -2.030 -33.565  1.00  0.00     0.043 A 
HETATM   35  C   UNL     1      -5.364  -1.164 -33.257  1.00  0.00     0.012 A 
ENDBRANCH   6  29
TORSDOF 6
ENDMDL
MODEL 10
REMARK VINA RESULT:      -8.5      4.052      6.668
REMARK  6 active torsions:
REMARK  status: ('A' for Active; 'I' for Inactive)
REMARK    1  A    between atoms: C_2  and  O_3 
REMARK    2  A    between atoms: C_2  and  C_4 
REMARK    3  A    between atoms: C_6  and  N_7 
REMARK       I    between atoms: N_7  and  C_8 
REMARK    4  A    between atoms: C_8  and  C_9 
REMARK    5  A    between atoms: C_14  and  C_15 
REMARK    6  A    between atoms: C_23  and  C_24 
ROOT
HETATM    1  C   UNL     1      -2.006   7.336 -30.271  1.00  0.00     0.148 A 
HETATM    2  N   UNL     1      -1.273   6.713 -31.227  1.00  0.00    -0.165 NA
HETATM    3  N   UNL     1      -2.180   5.937 -31.849  1.00  0.00    -0.240 N 
HETATM    4  C   UNL     1      -3.426   5.974 -31.289  1.00  0.00     0.123 A 
HETATM    5  N   UNL     1      -4.407   5.154 -31.717  1.00  0.00    -0.366 N 
HETATM    6  C   UNL     1      -4.142   3.991 -32.565  1.00  0.00     0.118 C 
HETATM    7  C   UNL     1      -2.630   3.721 -32.723  1.00  0.00     0.066 C 
HETATM    8  C   UNL     1      -1.823   5.015 -32.908  1.00  0.00     0.221 C 
HETATM    9  C   UNL     1      -3.367   6.923 -30.306  1.00  0.00     0.089 A 
HETATM   10  H   UNL     1      -5.340   5.193 -31.306  1.00  0.00     0.161 HD
ENDROOT
BRANCH   1  11
HETATM   11  C   UNL     1      -1.406   8.276 -29.308  1.00  0.00     0.276 C 
HETATM   12  N   UNL     1      -0.653   7.625 -28.349  1.00  0.00    -0.322 N 
HETATM   13  H   UNL     1      -0.598   6.619 -28.493  1.00  0.00     0.169 HD
HETATM   14  O   UNL     1      -1.599   9.484 -29.394  1.00  0.00    -0.266 OA
BRANCH  12  15
HETATM   15  C   UNL     1       0.014   8.178 -27.244  1.00  0.00     0.035 A 
HETATM   16  C   UNL     1      -0.637   8.820 -26.187  1.00  0.00     0.039 A 
HETATM   17  C   UNL     1       0.086   9.351 -25.104  1.00  0.00    -0.028 A 
HETATM   18  C   UNL     1       1.483   9.246 -25.106  1.00  0.00     0.010 A 
HETATM   19  C   UNL     1       2.140   8.598 -26.150  1.00  0.00     0.003 A 
HETATM   20  C   UNL     1       1.407   8.062 -27.211  1.00  0.00     0.029 A 
BRANCH  17  21
HETATM   21  C   UNL     1      -0.656  10.055 -23.987  1.00  0.00     0.147 C 
HETATM   22  C   UNL     1       0.202  10.199 -22.738  1.00  0.00     0.044 C 
BRANCH  21  23
HETATM   23  O   UNL     1      -1.849   9.350 -23.650  1.00  0.00    -0.391 OA
HETATM   24  H   UNL     1      -2.578   9.990 -23.718  1.00  0.00     0.210 HD
ENDBRANCH  21  23
ENDBRANCH  17  21
ENDBRANCH  12  15
ENDBRANCH   1  11
BRANCH   8  25
HETATM   25  C   UNL     1      -2.045   5.657 -34.257  1.00  0.00     0.409 C 
HETATM   26  F   UNL     1      -2.581   6.894 -34.154  1.00  0.00    -0.169 F 
HETATM   27  F   UNL     1      -0.852   5.806 -34.893  1.00  0.00    -0.169 F 
HETATM   28  F   UNL     1      -2.831   4.935 -35.080  1.00  0.00    -0.169 F 
ENDBRANCH   8  25
BRANCH   6  29
HETATM   29  C   UNL     1      -4.841   2.776 -31.973  1.00  0.00    -0.035 A 
HETATM   30  C   UNL     1      -5.147   1.669 -32.780  1.00  0.00     0.012 A 
HETATM   31  C   UNL     1      -5.783   0.551 -32.234  1.00  0.00     0.043 A 
HETATM   32  C   UNL     1      -6.113   0.534 -30.883  1.00  0.00     0.116 A 
HETATM   33  F   UNL     1      -6.723  -0.539 -30.366  1.00  0.00    -0.206 F 
HETATM   34  C   UNL     1      -5.818   1.615 -30.063  1.00  0.00     0.043 A 
HETATM   35  C   UNL     1      -5.180   2.732 -30.605  1.00  0.00     0.012 A 
ENDBRANCH   6  29
TORSDOF 6
ENDMDL
