MODEL 1
REMARK VINA RESULT:      -9.1      0.000      0.000
REMARK  6 active torsions:
REMARK  status: ('A' for Active; 'I' for Inactive)
REMARK    1  A    between atoms: C_3  and  C_4 
REMARK    2  A    between atoms: C_4  and  N_5 
REMARK    3  A    between atoms: C_4  and  C_9 
REMARK       I    between atoms: N_5  and  C_6 
REMARK       I    between atoms: C_6  and  N_7 
REMARK    4  A    between atoms: C_9  and  C_10 
REMARK       I    between atoms: C_10  and  N_11 
REMARK    5  A    between atoms: N_11  and  C_12 
REMARK    6  A    between atoms: C_14  and  C_15 
ROOT
HETATM    1  C   UNL     1      -3.046   2.278 -31.288  1.00  0.00     0.133 C 
ENDROOT
BRANCH   1   2
HETATM    2  C   UNL     1      -3.829   3.558 -31.600  1.00  0.00     0.128 C 
BRANCH   2   3
HETATM    3  C   UNL     1      -2.946   4.562 -32.343  1.00  0.00    -0.029 A 
HETATM    4  C   UNL     1      -3.358   5.142 -33.569  1.00  0.00    -0.054 A 
HETATM    5  C   UNL     1      -4.688   4.822 -34.203  1.00  0.00     0.049 C 
HETATM    6  C   UNL     1      -2.509   6.048 -34.227  1.00  0.00     0.007 A 
HETATM    7  C   UNL     1      -1.261   6.375 -33.700  1.00  0.00     0.001 A 
HETATM    8  C   UNL     1      -0.841   5.793 -32.511  1.00  0.00     0.001 A 
HETATM    9  C   UNL     1      -1.670   4.891 -31.844  1.00  0.00     0.010 A 
ENDBRANCH   2   3
BRANCH   2  10
HETATM   10  N   UNL     1      -4.525   4.174 -30.467  1.00  0.00    -0.334 N 
HETATM   11  C   UNL     1      -5.708   3.785 -29.929  1.00  0.00     0.314 C 
HETATM   12  N   UNL     1      -6.066   4.544 -28.863  1.00  0.00    -0.352 N 
HETATM   13  O   UNL     1      -6.417   2.871 -30.320  1.00  0.00    -0.248 OA
HETATM   14  H   UNL     1      -5.331   4.881 -28.258  1.00  0.00     0.160 HD
HETATM   15  H   UNL     1      -6.893   4.210 -28.385  1.00  0.00     0.160 HD
HETATM   16  H   UNL     1      -4.139   5.042 -30.128  1.00  0.00     0.165 HD
ENDBRANCH   2  10
ENDBRANCH   1   2
BRANCH   1  17
HETATM   17  C   UNL     1      -3.608   1.113 -32.077  1.00  0.00     0.224 C 
HETATM   18  N   UNL     1      -4.765   1.432 -32.762  1.00  0.00    -0.327 N 
HETATM   19  H   UNL     1      -5.047   2.407 -32.738  1.00  0.00     0.169 HD
HETATM   20  O   UNL     1      -3.072   0.010 -32.021  1.00  0.00    -0.273 OA
BRANCH  18  21
HETATM   21  C   UNL     1      -5.572   0.574 -33.536  1.00  0.00     0.035 A 
HETATM   22  C   UNL     1      -5.328  -0.793 -33.701  1.00  0.00     0.042 A 
HETATM   23  C   UNL     1      -6.174  -1.598 -34.487  1.00  0.00    -0.021 A 
HETATM   24  C   UNL     1      -7.290  -1.005 -35.092  1.00  0.00     0.012 A 
HETATM   25  C   UNL     1      -7.541   0.358 -34.936  1.00  0.00     0.003 A 
HETATM   26  C   UNL     1      -6.681   1.145 -34.170  1.00  0.00     0.029 A 
BRANCH  23  27
HETATM   27  C   UNL     1      -5.879  -3.015 -34.659  1.00  0.00     0.010 A 
HETATM   28  C   UNL     1      -6.644  -4.056 -35.241  1.00  0.00     0.152 A 
HETATM   29  N   UNL     1      -6.033  -5.243 -35.192  1.00  0.00    -0.187 NA
HETATM   30  N   UNL     1      -4.875  -4.971 -34.571  1.00  0.00    -0.289 N 
HETATM   31  H   UNL     1      -4.228  -5.734 -34.407  1.00  0.00     0.188 HD
HETATM   32  C   UNL     1      -4.735  -3.657 -34.232  1.00  0.00     0.123 A 
ENDBRANCH  23  27
ENDBRANCH  18  21
ENDBRANCH   1  17
TORSDOF 6
ENDMDL
MODEL 2
REMARK VINA RESULT:      -9.0      2.611      7.887
REMARK  6 active torsions:
REMARK  status: ('A' for Active; 'I' for Inactive)
REMARK    1  A    between atoms: C_3  and  C_4 
REMARK    2  A    between atoms: C_4  and  N_5 
REMARK    3  A    between atoms: C_4  and  C_9 
REMARK       I    between atoms: N_5  and  C_6 
REMARK       I    between atoms: C_6  and  N_7 
REMARK    4  A    between atoms: C_9  and  C_10 
REMARK       I    between atoms: C_10  and  N_11 
REMARK    5  A    between atoms: N_11  and  C_12 
REMARK    6  A    between atoms: C_14  and  C_15 
ROOT
HETATM    1  C   UNL     1      -6.237   2.604 -33.889  1.00  0.00     0.133 C 
ENDROOT
BRANCH   1   2
HETATM    2  C   UNL     1      -5.763   1.562 -32.870  1.00  0.00     0.128 C 
BRANCH   2   3
HETATM    3  C   UNL     1      -5.791   0.160 -33.480  1.00  0.00    -0.029 A 
HETATM    4  C   UNL     1      -4.649  -0.678 -33.454  1.00  0.00    -0.054 A 
HETATM    5  C   UNL     1      -3.352  -0.252 -32.816  1.00  0.00     0.049 C 
HETATM    6  C   UNL     1      -4.713  -1.954 -34.041  1.00  0.00     0.007 A 
HETATM    7  C   UNL     1      -5.879  -2.403 -34.659  1.00  0.00     0.001 A 
HETATM    8  C   UNL     1      -6.995  -1.578 -34.707  1.00  0.00     0.001 A 
HETATM    9  C   UNL     1      -6.949  -0.308 -34.131  1.00  0.00     0.010 A 
ENDBRANCH   2   3
BRANCH   2  10
HETATM   10  N   UNL     1      -6.422   1.604 -31.561  1.00  0.00    -0.334 N 
HETATM   11  C   UNL     1      -5.989   2.256 -30.452  1.00  0.00     0.314 C 
HETATM   12  N   UNL     1      -6.846   2.125 -29.408  1.00  0.00    -0.352 N 
HETATM   13  O   UNL     1      -4.954   2.894 -30.343  1.00  0.00    -0.248 OA
HETATM   14  H   UNL     1      -7.834   2.093 -29.612  1.00  0.00     0.160 HD
HETATM   15  H   UNL     1      -6.595   2.684 -28.603  1.00  0.00     0.160 HD
HETATM   16  H   UNL     1      -7.216   0.993 -31.444  1.00  0.00     0.165 HD
ENDBRANCH   2  10
ENDBRANCH   1   2
BRANCH   1  17
HETATM   17  C   UNL     1      -5.291   3.787 -33.909  1.00  0.00     0.224 C 
HETATM   18  N   UNL     1      -4.060   3.505 -33.348  1.00  0.00    -0.327 N 
HETATM   19  H   UNL     1      -3.899   2.539 -33.081  1.00  0.00     0.169 HD
HETATM   20  O   UNL     1      -5.665   4.874 -34.340  1.00  0.00    -0.273 OA
BRANCH  18  21
HETATM   21  C   UNL     1      -2.979   4.389 -33.150  1.00  0.00     0.035 A 
HETATM   22  C   UNL     1      -2.341   4.581 -31.921  1.00  0.00     0.042 A 
HETATM   23  C   UNL     1      -1.265   5.479 -31.789  1.00  0.00    -0.021 A 
HETATM   24  C   UNL     1      -0.825   6.170 -32.926  1.00  0.00     0.012 A 
HETATM   25  C   UNL     1      -1.456   5.987 -34.156  1.00  0.00     0.003 A 
HETATM   26  C   UNL     1      -2.534   5.108 -34.265  1.00  0.00     0.029 A 
BRANCH  23  27
HETATM   27  C   UNL     1      -0.635   5.676 -30.489  1.00  0.00     0.010 A 
HETATM   28  C   UNL     1      -0.795   6.705 -29.528  1.00  0.00     0.152 A 
HETATM   29  N   UNL     1      -0.016   6.543 -28.455  1.00  0.00    -0.187 NA
HETATM   30  N   UNL     1       0.655   5.413 -28.725  1.00  0.00    -0.289 N 
HETATM   31  H   UNL     1       1.330   5.081 -28.045  1.00  0.00     0.188 HD
HETATM   32  C   UNL     1       0.323   4.857 -29.927  1.00  0.00     0.123 A 
ENDBRANCH  23  27
ENDBRANCH  18  21
ENDBRANCH   1  17
TORSDOF 6
ENDMDL
MODEL 3
REMARK VINA RESULT:      -8.6      4.833      7.513
REMARK  6 active torsions:
REMARK  status: ('A' for Active; 'I' for Inactive)
REMARK    1  A    between atoms: C_3  and  C_4 
REMARK    2  A    between atoms: C_4  and  N_5 
REMARK    3  A    between atoms: C_4  and  C_9 
REMARK       I    between atoms: N_5  and  C_6 
REMARK       I    between atoms: C_6  and  N_7 
REMARK    4  A    between atoms: C_9  and  C_10 
REMARK       I    between atoms: C_10  and  N_11 
REMARK    5  A    between atoms: N_11  and  C_12 
REMARK    6  A    between atoms: C_14  and  C_15 
ROOT
HETATM    1  C   UNL     1     -11.090   1.448 -34.540  1.00  0.00     0.133 C 
ENDROOT
BRANCH   1   2
HETATM    2  C   UNL     1     -11.517   2.664 -33.710  1.00  0.00     0.128 C 
BRANCH   2   3
HETATM    3  C   UNL     1     -12.963   2.512 -33.235  1.00  0.00    -0.029 A 
HETATM    4  C   UNL     1     -13.449   3.227 -32.112  1.00  0.00    -0.054 A 
HETATM    5  C   UNL     1     -12.585   4.186 -31.333  1.00  0.00     0.049 C 
HETATM    6  C   UNL     1     -14.781   3.046 -31.699  1.00  0.00     0.007 A 
HETATM    7  C   UNL     1     -15.627   2.164 -32.370  1.00  0.00     0.001 A 
HETATM    8  C   UNL     1     -15.150   1.444 -33.457  1.00  0.00     0.001 A 
HETATM    9  C   UNL     1     -13.831   1.610 -33.880  1.00  0.00     0.010 A 
ENDBRANCH   2   3
BRANCH   2  10
HETATM   10  N   UNL     1     -11.276   3.973 -34.325  1.00  0.00    -0.334 N 
HETATM   11  C   UNL     1     -10.073   4.564 -34.537  1.00  0.00     0.314 C 
HETATM   12  N   UNL     1     -10.189   5.764 -35.160  1.00  0.00    -0.352 N 
HETATM   13  O   UNL     1      -8.981   4.120 -34.221  1.00  0.00    -0.248 OA
HETATM   14  H   UNL     1     -10.923   5.869 -35.845  1.00  0.00     0.160 HD
HETATM   15  H   UNL     1      -9.302   6.176 -35.418  1.00  0.00     0.160 HD
HETATM   16  H   UNL     1     -12.093   4.537 -34.502  1.00  0.00     0.165 HD
ENDBRANCH   2  10
ENDBRANCH   1   2
BRANCH   1  17
HETATM   17  C   UNL     1      -9.935   0.734 -33.869  1.00  0.00     0.224 C 
HETATM   18  N   UNL     1      -8.758   0.814 -34.590  1.00  0.00    -0.327 N 
HETATM   19  H   UNL     1      -8.776   1.405 -35.415  1.00  0.00     0.169 HD
HETATM   20  O   UNL     1     -10.109   0.117 -32.823  1.00  0.00    -0.273 OA
BRANCH  18  21
HETATM   21  C   UNL     1      -7.519   0.214 -34.287  1.00  0.00     0.035 A 
HETATM   22  C   UNL     1      -7.210  -1.124 -34.557  1.00  0.00     0.042 A 
HETATM   23  C   UNL     1      -5.953  -1.664 -34.231  1.00  0.00    -0.021 A 
HETATM   24  C   UNL     1      -4.996  -0.826 -33.643  1.00  0.00     0.012 A 
HETATM   25  C   UNL     1      -5.294   0.508 -33.367  1.00  0.00     0.003 A 
HETATM   26  C   UNL     1      -6.553   1.022 -33.679  1.00  0.00     0.029 A 
BRANCH  23  27
HETATM   27  C   UNL     1      -5.669  -3.067 -34.503  1.00  0.00     0.010 A 
HETATM   28  C   UNL     1      -6.489  -4.091 -35.040  1.00  0.00     0.152 A 
HETATM   29  N   UNL     1      -5.866  -5.271 -35.119  1.00  0.00    -0.187 NA
HETATM   30  N   UNL     1      -4.647  -5.012 -34.625  1.00  0.00    -0.289 N 
HETATM   31  H   UNL     1      -3.978  -5.773 -34.574  1.00  0.00     0.188 HD
HETATM   32  C   UNL     1      -4.478  -3.713 -34.243  1.00  0.00     0.123 A 
ENDBRANCH  23  27
ENDBRANCH  18  21
ENDBRANCH   1  17
TORSDOF 6
ENDMDL
MODEL 4
REMARK VINA RESULT:      -8.3      4.651      7.881
REMARK  6 active torsions:
REMARK  status: ('A' for Active; 'I' for Inactive)
REMARK    1  A    between atoms: C_3  and  C_4 
REMARK    2  A    between atoms: C_4  and  N_5 
REMARK    3  A    between atoms: C_4  and  C_9 
REMARK       I    between atoms: N_5  and  C_6 
REMARK       I    between atoms: C_6  and  N_7 
REMARK    4  A    between atoms: C_9  and  C_10 
REMARK       I    between atoms: C_10  and  N_11 
REMARK    5  A    between atoms: N_11  and  C_12 
REMARK    6  A    between atoms: C_14  and  C_15 
ROOT
HETATM    1  C   UNL     1      -6.644   1.690 -34.338  1.00  0.00     0.133 C 
ENDROOT
BRANCH   1   2
HETATM    2  C   UNL     1      -5.923   0.877 -33.257  1.00  0.00     0.128 C 
BRANCH   2   3
HETATM    3  C   UNL     1      -5.757  -0.578 -33.698  1.00  0.00    -0.029 A 
HETATM    4  C   UNL     1      -4.510  -1.243 -33.591  1.00  0.00    -0.054 A 
HETATM    5  C   UNL     1      -3.285  -0.570 -33.026  1.00  0.00     0.049 C 
HETATM    6  C   UNL     1      -4.396  -2.576 -34.023  1.00  0.00     0.007 A 
HETATM    7  C   UNL     1      -5.488  -3.250 -34.567  1.00  0.00     0.001 A 
HETATM    8  C   UNL     1      -6.707  -2.597 -34.695  1.00  0.00     0.001 A 
HETATM    9  C   UNL     1      -6.838  -1.274 -34.273  1.00  0.00     0.010 A 
ENDBRANCH   2   3
BRANCH   2  10
HETATM   10  N   UNL     1      -6.479   0.979 -31.904  1.00  0.00    -0.334 N 
HETATM   11  C   UNL     1      -5.836   1.417 -30.791  1.00  0.00     0.314 C 
HETATM   12  N   UNL     1      -6.640   1.423 -29.698  1.00  0.00    -0.352 N 
HETATM   13  O   UNL     1      -4.669   1.769 -30.719  1.00  0.00    -0.248 OA
HETATM   14  H   UNL     1      -7.615   1.652 -29.833  1.00  0.00     0.160 HD
HETATM   15  H   UNL     1      -6.213   1.839 -28.881  1.00  0.00     0.160 HD
HETATM   16  H   UNL     1      -7.393   0.577 -31.768  1.00  0.00     0.165 HD
ENDBRANCH   2  10
ENDBRANCH   1   2
BRANCH   1  17
HETATM   17  C   UNL     1      -7.986   2.172 -33.826  1.00  0.00     0.224 C 
HETATM   18  N   UNL     1      -9.055   1.573 -34.465  1.00  0.00    -0.327 N 
HETATM   19  H   UNL     1      -8.829   0.830 -35.119  1.00  0.00     0.169 HD
HETATM   20  O   UNL     1      -8.045   3.050 -32.970  1.00  0.00    -0.273 OA
BRANCH  18  21
HETATM   21  C   UNL     1     -10.427   1.835 -34.278  1.00  0.00     0.035 A 
HETATM   22  C   UNL     1     -11.036   3.062 -34.561  1.00  0.00     0.042 A 
HETATM   23  C   UNL     1     -12.413   3.260 -34.353  1.00  0.00    -0.021 A 
HETATM   24  C   UNL     1     -13.179   2.190 -33.871  1.00  0.00     0.012 A 
HETATM   25  C   UNL     1     -12.582   0.963 -33.583  1.00  0.00     0.003 A 
HETATM   26  C   UNL     1     -11.212   0.790 -33.776  1.00  0.00     0.029 A 
BRANCH  23  27
HETATM   27  C   UNL     1     -13.014   4.558 -34.635  1.00  0.00     0.010 A 
HETATM   28  C   UNL     1     -12.959   5.372 -35.794  1.00  0.00     0.152 A 
HETATM   29  N   UNL     1     -13.632   6.519 -35.659  1.00  0.00    -0.187 NA
HETATM   30  N   UNL     1     -14.116   6.450 -34.410  1.00  0.00    -0.289 N 
HETATM   31  H   UNL     1     -14.668   7.227 -34.065  1.00  0.00     0.188 HD
HETATM   32  C   UNL     1     -13.775   5.301 -33.756  1.00  0.00     0.123 A 
ENDBRANCH  23  27
ENDBRANCH  18  21
ENDBRANCH   1  17
TORSDOF 6
ENDMDL
MODEL 5
REMARK VINA RESULT:      -8.2      2.125      2.686
REMARK  6 active torsions:
REMARK  status: ('A' for Active; 'I' for Inactive)
REMARK    1  A    between atoms: C_3  and  C_4 
REMARK    2  A    between atoms: C_4  and  N_5 
REMARK    3  A    between atoms: C_4  and  C_9 
REMARK       I    between atoms: N_5  and  C_6 
REMARK       I    between atoms: C_6  and  N_7 
REMARK    4  A    between atoms: C_9  and  C_10 
REMARK       I    between atoms: C_10  and  N_11 
REMARK    5  A    between atoms: N_11  and  C_12 
REMARK    6  A    between atoms: C_14  and  C_15 
ROOT
HETATM    1  C   UNL     1      -6.294   5.212 -33.383  1.00  0.00     0.133 C 
ENDROOT
BRANCH   1   2
HETATM    2  C   UNL     1      -5.220   5.583 -32.354  1.00  0.00     0.128 C 
BRANCH   2   3
HETATM    3  C   UNL     1      -3.873   5.813 -33.041  1.00  0.00    -0.029 A 
HETATM    4  C   UNL     1      -3.015   6.870 -32.647  1.00  0.00    -0.054 A 
HETATM    5  C   UNL     1      -3.365   7.814 -31.526  1.00  0.00     0.049 C 
HETATM    6  C   UNL     1      -1.793   7.056 -33.316  1.00  0.00     0.007 A 
HETATM    7  C   UNL     1      -1.417   6.225 -34.370  1.00  0.00     0.001 A 
HETATM    8  C   UNL     1      -2.263   5.201 -34.776  1.00  0.00     0.001 A 
HETATM    9  C   UNL     1      -3.480   5.002 -34.124  1.00  0.00     0.010 A 
ENDBRANCH   2   3
BRANCH   2  10
HETATM   10  N   UNL     1      -5.101   4.684 -31.202  1.00  0.00    -0.334 N 
HETATM   11  C   UNL     1      -5.572   4.901 -29.948  1.00  0.00     0.314 C 
HETATM   12  N   UNL     1      -5.328   3.857 -29.116  1.00  0.00    -0.352 N 
HETATM   13  O   UNL     1      -6.149   5.903 -29.553  1.00  0.00    -0.248 OA
HETATM   14  H   UNL     1      -5.363   2.927 -29.506  1.00  0.00     0.160 HD
HETATM   15  H   UNL     1      -5.758   3.954 -28.205  1.00  0.00     0.160 HD
HETATM   16  H   UNL     1      -4.511   3.876 -31.328  1.00  0.00     0.165 HD
ENDBRANCH   2  10
ENDBRANCH   1   2
BRANCH   1  17
HETATM   17  C   UNL     1      -6.737   3.777 -33.185  1.00  0.00     0.224 C 
HETATM   18  N   UNL     1      -6.119   2.896 -34.053  1.00  0.00    -0.327 N 
HETATM   19  H   UNL     1      -5.389   3.284 -34.642  1.00  0.00     0.169 HD
HETATM   20  O   UNL     1      -7.604   3.502 -32.361  1.00  0.00    -0.273 OA
BRANCH  18  21
HETATM   21  C   UNL     1      -6.344   1.510 -34.180  1.00  0.00     0.035 A 
HETATM   22  C   UNL     1      -5.456   0.528 -33.729  1.00  0.00     0.042 A 
HETATM   23  C   UNL     1      -5.740  -0.841 -33.885  1.00  0.00    -0.021 A 
HETATM   24  C   UNL     1      -6.949  -1.210 -34.488  1.00  0.00     0.012 A 
HETATM   25  C   UNL     1      -7.841  -0.240 -34.944  1.00  0.00     0.003 A 
HETATM   26  C   UNL     1      -7.534   1.114 -34.799  1.00  0.00     0.029 A 
BRANCH  23  27
HETATM   27  C   UNL     1      -4.784  -1.841 -33.426  1.00  0.00     0.010 A 
HETATM   28  C   UNL     1      -4.439  -3.108 -33.959  1.00  0.00     0.152 A 
HETATM   29  N   UNL     1      -3.520  -3.748 -33.232  1.00  0.00    -0.187 NA
HETATM   30  N   UNL     1      -3.275  -2.900 -32.223  1.00  0.00    -0.289 N 
HETATM   31  H   UNL     1      -2.600  -3.174 -31.517  1.00  0.00     0.188 HD
HETATM   32  C   UNL     1      -4.004  -1.747 -32.291  1.00  0.00     0.123 A 
ENDBRANCH  23  27
ENDBRANCH  18  21
ENDBRANCH   1  17
TORSDOF 6
ENDMDL
MODEL 6
REMARK VINA RESULT:      -8.2      4.247      7.010
REMARK  6 active torsions:
REMARK  status: ('A' for Active; 'I' for Inactive)
REMARK    1  A    between atoms: C_3  and  C_4 
REMARK    2  A    between atoms: C_4  and  N_5 
REMARK    3  A    between atoms: C_4  and  C_9 
REMARK       I    between atoms: N_5  and  C_6 
REMARK       I    between atoms: C_6  and  N_7 
REMARK    4  A    between atoms: C_9  and  C_10 
REMARK       I    between atoms: C_10  and  N_11 
REMARK    5  A    between atoms: N_11  and  C_12 
REMARK    6  A    between atoms: C_14  and  C_15 
ROOT
HETATM    1  C   UNL     1      -6.456  -0.246 -31.920  1.00  0.00     0.133 C 
ENDROOT
BRANCH   1   2
HETATM    2  C   UNL     1      -5.167  -0.174 -32.746  1.00  0.00     0.128 C 
BRANCH   2   3
HETATM    3  C   UNL     1      -4.529  -1.559 -32.872  1.00  0.00    -0.029 A 
HETATM    4  C   UNL     1      -4.861  -2.429 -33.940  1.00  0.00    -0.054 A 
HETATM    5  C   UNL     1      -5.840  -2.042 -35.019  1.00  0.00     0.049 C 
HETATM    6  C   UNL     1      -4.263  -3.700 -34.010  1.00  0.00     0.007 A 
HETATM    7  C   UNL     1      -3.360  -4.122 -33.036  1.00  0.00     0.001 A 
HETATM    8  C   UNL     1      -3.048  -3.283 -31.974  1.00  0.00     0.001 A 
HETATM    9  C   UNL     1      -3.631  -2.019 -31.889  1.00  0.00     0.010 A 
ENDBRANCH   2   3
BRANCH   2  10
HETATM   10  N   UNL     1      -4.195   0.840 -32.326  1.00  0.00    -0.334 N 
HETATM   11  C   UNL     1      -4.307   2.185 -32.473  1.00  0.00     0.314 C 
HETATM   12  N   UNL     1      -3.249   2.852 -31.947  1.00  0.00    -0.352 N 
HETATM   13  O   UNL     1      -5.225   2.782 -33.014  1.00  0.00    -0.248 OA
HETATM   14  H   UNL     1      -2.824   2.477 -31.112  1.00  0.00     0.160 HD
HETATM   15  H   UNL     1      -3.357   3.858 -31.956  1.00  0.00     0.160 HD
HETATM   16  H   UNL     1      -3.306   0.495 -31.999  1.00  0.00     0.165 HD
ENDBRANCH   2  10
ENDBRANCH   1   2
BRANCH   1  17
HETATM   17  C   UNL     1      -7.638   0.207 -32.751  1.00  0.00     0.224 C 
HETATM   18  N   UNL     1      -7.901   1.558 -32.626  1.00  0.00    -0.327 N 
HETATM   19  H   UNL     1      -7.235   2.097 -32.082  1.00  0.00     0.169 HD
HETATM   20  O   UNL     1      -8.288  -0.606 -33.401  1.00  0.00    -0.273 OA
BRANCH  18  21
HETATM   21  C   UNL     1      -8.958   2.288 -33.207  1.00  0.00     0.035 A 
HETATM   22  C   UNL     1     -10.279   1.835 -33.273  1.00  0.00     0.042 A 
HETATM   23  C   UNL     1     -11.291   2.613 -33.866  1.00  0.00    -0.021 A 
HETATM   24  C   UNL     1     -10.953   3.872 -34.379  1.00  0.00     0.012 A 
HETATM   25  C   UNL     1      -9.638   4.333 -34.321  1.00  0.00     0.003 A 
HETATM   26  C   UNL     1      -8.644   3.540 -33.747  1.00  0.00     0.029 A 
BRANCH  23  27
HETATM   27  C   UNL     1     -12.654   2.103 -33.940  1.00  0.00     0.010 A 
HETATM   28  C   UNL     1     -13.215   1.068 -34.730  1.00  0.00     0.152 A 
HETATM   29  N   UNL     1     -14.526   0.909 -34.527  1.00  0.00    -0.187 NA
HETATM   30  N   UNL     1     -14.815   1.846 -33.612  1.00  0.00    -0.289 N 
HETATM   31  H   UNL     1     -15.775   1.928 -33.296  1.00  0.00     0.188 HD
HETATM   32  C   UNL     1     -13.734   2.586 -33.229  1.00  0.00     0.123 A 
ENDBRANCH  23  27
ENDBRANCH  18  21
ENDBRANCH   1  17
TORSDOF 6
ENDMDL
MODEL 7
REMARK VINA RESULT:      -8.1      5.247      7.631
REMARK  6 active torsions:
REMARK  status: ('A' for Active; 'I' for Inactive)
REMARK    1  A    between atoms: C_3  and  C_4 
REMARK    2  A    between atoms: C_4  and  N_5 
REMARK    3  A    between atoms: C_4  and  C_9 
REMARK       I    between atoms: N_5  and  C_6 
REMARK       I    between atoms: C_6  and  N_7 
REMARK    4  A    between atoms: C_9  and  C_10 
REMARK       I    between atoms: C_10  and  N_11 
REMARK    5  A    between atoms: N_11  and  C_12 
REMARK    6  A    between atoms: C_14  and  C_15 
ROOT
HETATM    1  C   UNL     1     -10.393   2.243 -32.478  1.00  0.00     0.133 C 
ENDROOT
BRANCH   1   2
HETATM    2  C   UNL     1     -11.589   2.056 -33.417  1.00  0.00     0.128 C 
BRANCH   2   3
HETATM    3  C   UNL     1     -12.446   3.323 -33.458  1.00  0.00    -0.029 A 
HETATM    4  C   UNL     1     -12.405   4.207 -34.564  1.00  0.00    -0.054 A 
HETATM    5  C   UNL     1     -11.535   3.949 -35.768  1.00  0.00     0.049 C 
HETATM    6  C   UNL     1     -13.196   5.369 -34.553  1.00  0.00     0.007 A 
HETATM    7  C   UNL     1     -14.012   5.671 -33.464  1.00  0.00     0.001 A 
HETATM    8  C   UNL     1     -14.040   4.820 -32.367  1.00  0.00     0.001 A 
HETATM    9  C   UNL     1     -13.261   3.664 -32.360  1.00  0.00     0.010 A 
ENDBRANCH   2   3
BRANCH   2  10
HETATM   10  N   UNL     1     -12.399   0.855 -33.191  1.00  0.00    -0.334 N 
HETATM   11  C   UNL     1     -13.408   0.394 -33.973  1.00  0.00     0.314 C 
HETATM   12  N   UNL     1     -13.936  -0.766 -33.507  1.00  0.00    -0.352 N 
HETATM   13  O   UNL     1     -13.841   0.923 -34.985  1.00  0.00    -0.248 OA
HETATM   14  H   UNL     1     -13.309  -1.423 -33.064  1.00  0.00     0.160 HD
HETATM   15  H   UNL     1     -14.620  -1.180 -34.126  1.00  0.00     0.160 HD
HETATM   16  H   UNL     1     -12.265   0.389 -32.307  1.00  0.00     0.165 HD
ENDBRANCH   2  10
ENDBRANCH   1   2
BRANCH   1  17
HETATM   17  C   UNL     1      -9.124   1.747 -33.139  1.00  0.00     0.224 C 
HETATM   18  N   UNL     1      -8.786   0.460 -32.764  1.00  0.00    -0.327 N 
HETATM   19  H   UNL     1      -9.458  -0.029 -32.180  1.00  0.00     0.169 HD
HETATM   20  O   UNL     1      -8.478   2.486 -33.877  1.00  0.00    -0.273 OA
BRANCH  18  21
HETATM   21  C   UNL     1      -7.644  -0.276 -33.140  1.00  0.00     0.035 A 
HETATM   22  C   UNL     1      -6.412  -0.198 -32.483  1.00  0.00     0.042 A 
HETATM   23  C   UNL     1      -5.307  -0.960 -32.906  1.00  0.00    -0.021 A 
HETATM   24  C   UNL     1      -5.469  -1.824 -33.997  1.00  0.00     0.012 A 
HETATM   25  C   UNL     1      -6.692  -1.908 -34.661  1.00  0.00     0.003 A 
HETATM   26  C   UNL     1      -7.771  -1.130 -34.240  1.00  0.00     0.029 A 
BRANCH  23  27
HETATM   27  C   UNL     1      -4.030  -0.839 -32.216  1.00  0.00     0.010 A 
HETATM   28  C   UNL     1      -3.422   0.271 -31.577  1.00  0.00     0.152 A 
HETATM   29  N   UNL     1      -2.220  -0.012 -31.070  1.00  0.00    -0.187 NA
HETATM   30  N   UNL     1      -2.045  -1.303 -31.386  1.00  0.00    -0.289 N 
HETATM   31  H   UNL     1      -1.180  -1.753 -31.107  1.00  0.00     0.188 HD
HETATM   32  C   UNL     1      -3.094  -1.843 -32.071  1.00  0.00     0.123 A 
ENDBRANCH  23  27
ENDBRANCH  18  21
ENDBRANCH   1  17
TORSDOF 6
ENDMDL
MODEL 8
REMARK VINA RESULT:      -8.1      3.321      8.163
REMARK  6 active torsions:
REMARK  status: ('A' for Active; 'I' for Inactive)
REMARK    1  A    between atoms: C_3  and  C_4 
REMARK    2  A    between atoms: C_4  and  N_5 
REMARK    3  A    between atoms: C_4  and  C_9 
REMARK       I    between atoms: N_5  and  C_6 
REMARK       I    between atoms: C_6  and  N_7 
REMARK    4  A    between atoms: C_9  and  C_10 
REMARK       I    between atoms: C_10  and  N_11 
REMARK    5  A    between atoms: N_11  and  C_12 
REMARK    6  A    between atoms: C_14  and  C_15 
ROOT
HETATM    1  C   UNL     1      -6.286   3.797 -33.867  1.00  0.00     0.133 C 
ENDROOT
BRANCH   1   2
HETATM    2  C   UNL     1      -6.440   2.732 -32.776  1.00  0.00     0.128 C 
BRANCH   2   3
HETATM    3  C   UNL     1      -7.750   1.961 -32.957  1.00  0.00    -0.029 A 
HETATM    4  C   UNL     1      -7.815   0.561 -32.750  1.00  0.00    -0.054 A 
HETATM    5  C   UNL     1      -6.615  -0.247 -32.327  1.00  0.00     0.049 C 
HETATM    6  C   UNL     1      -9.035  -0.112 -32.943  1.00  0.00     0.007 A 
HETATM    7  C   UNL     1     -10.177   0.576 -33.348  1.00  0.00     0.001 A 
HETATM    8  C   UNL     1     -10.114   1.945 -33.574  1.00  0.00     0.001 A 
HETATM    9  C   UNL     1      -8.913   2.629 -33.388  1.00  0.00     0.010 A 
ENDBRANCH   2   3
BRANCH   2  10
HETATM   10  N   UNL     1      -6.265   3.198 -31.397  1.00  0.00    -0.334 N 
HETATM   11  C   UNL     1      -5.167   3.036 -30.617  1.00  0.00     0.314 C 
HETATM   12  N   UNL     1      -5.309   3.615 -29.398  1.00  0.00    -0.352 N 
HETATM   13  O   UNL     1      -4.145   2.440 -30.917  1.00  0.00    -0.248 OA
HETATM   14  H   UNL     1      -5.835   4.476 -29.345  1.00  0.00     0.160 HD
HETATM   15  H   UNL     1      -4.468   3.594 -28.836  1.00  0.00     0.160 HD
HETATM   16  H   UNL     1      -7.086   3.577 -30.949  1.00  0.00     0.165 HD
ENDBRANCH   2  10
ENDBRANCH   1   2
BRANCH   1  17
HETATM   17  C   UNL     1      -5.360   4.900 -33.396  1.00  0.00     0.224 C 
HETATM   18  N   UNL     1      -4.023   4.580 -33.536  1.00  0.00    -0.327 N 
HETATM   19  H   UNL     1      -3.818   3.707 -34.012  1.00  0.00     0.169 HD
HETATM   20  O   UNL     1      -5.818   5.924 -32.898  1.00  0.00    -0.273 OA
BRANCH  18  21
HETATM   21  C   UNL     1      -2.908   5.346 -33.143  1.00  0.00     0.035 A 
HETATM   22  C   UNL     1      -2.213   5.159 -31.943  1.00  0.00     0.042 A 
HETATM   23  C   UNL     1      -1.104   5.958 -31.607  1.00  0.00    -0.021 A 
HETATM   24  C   UNL     1      -0.689   6.942 -32.514  1.00  0.00     0.012 A 
HETATM   25  C   UNL     1      -1.376   7.139 -33.711  1.00  0.00     0.003 A 
HETATM   26  C   UNL     1      -2.485   6.352 -34.019  1.00  0.00     0.029 A 
BRANCH  23  27
HETATM   27  C   UNL     1      -0.416   5.754 -30.339  1.00  0.00     0.010 A 
HETATM   28  C   UNL     1      -0.509   6.454 -29.111  1.00  0.00     0.152 A 
HETATM   29  N   UNL     1       0.311   5.973 -28.172  1.00  0.00    -0.187 NA
HETATM   30  N   UNL     1       0.940   4.966 -28.795  1.00  0.00    -0.289 N 
HETATM   31  H   UNL     1       1.635   4.439 -28.276  1.00  0.00     0.188 HD
HETATM   32  C   UNL     1       0.544   4.794 -30.090  1.00  0.00     0.123 A 
ENDBRANCH  23  27
ENDBRANCH  18  21
ENDBRANCH   1  17
TORSDOF 6
ENDMDL
MODEL 9
REMARK VINA RESULT:      -8.1      1.732      2.243
REMARK  6 active torsions:
REMARK  status: ('A' for Active; 'I' for Inactive)
REMARK    1  A    between atoms: C_3  and  C_4 
REMARK    2  A    between atoms: C_4  and  N_5 
REMARK    3  A    between atoms: C_4  and  C_9 
REMARK       I    between atoms: N_5  and  C_6 
REMARK       I    between atoms: C_6  and  N_7 
REMARK    4  A    between atoms: C_9  and  C_10 
REMARK       I    between atoms: C_10  and  N_11 
REMARK    5  A    between atoms: N_11  and  C_12 
REMARK    6  A    between atoms: C_14  and  C_15 
ROOT
HETATM    1  C   UNL     1      -4.041   3.240 -31.365  1.00  0.00     0.133 C 
ENDROOT
BRANCH   1   2
HETATM    2  C   UNL     1      -3.791   4.520 -32.169  1.00  0.00     0.128 C 
BRANCH   2   3
HETATM    3  C   UNL     1      -2.560   5.258 -31.640  1.00  0.00    -0.029 A 
HETATM    4  C   UNL     1      -2.658   6.185 -30.573  1.00  0.00    -0.054 A 
HETATM    5  C   UNL     1      -3.966   6.488 -29.888  1.00  0.00     0.049 C 
HETATM    6  C   UNL     1      -1.504   6.854 -30.128  1.00  0.00     0.007 A 
HETATM    7  C   UNL     1      -0.267   6.629 -30.729  1.00  0.00     0.001 A 
HETATM    8  C   UNL     1      -0.168   5.737 -31.789  1.00  0.00     0.001 A 
HETATM    9  C   UNL     1      -1.302   5.065 -32.245  1.00  0.00     0.010 A 
ENDBRANCH   2   3
BRANCH   2  10
HETATM   10  N   UNL     1      -4.942   5.415 -32.321  1.00  0.00    -0.334 N 
HETATM   11  C   UNL     1      -5.832   5.429 -33.346  1.00  0.00     0.314 C 
HETATM   12  N   UNL     1      -6.806   6.358 -33.172  1.00  0.00    -0.352 N 
HETATM   13  O   UNL     1      -5.805   4.720 -34.340  1.00  0.00    -0.248 OA
HETATM   14  H   UNL     1      -7.128   6.530 -32.231  1.00  0.00     0.160 HD
HETATM   15  H   UNL     1      -7.535   6.319 -33.873  1.00  0.00     0.160 HD
HETATM   16  H   UNL     1      -5.011   6.167 -31.653  1.00  0.00     0.165 HD
ENDBRANCH   2  10
ENDBRANCH   1   2
BRANCH   1  17
HETATM   17  C   UNL     1      -4.237   2.063 -32.298  1.00  0.00     0.224 C 
HETATM   18  N   UNL     1      -5.539   1.939 -32.745  1.00  0.00    -0.327 N 
HETATM   19  H   UNL     1      -6.177   2.684 -32.483  1.00  0.00     0.169 HD
HETATM   20  O   UNL     1      -3.305   1.302 -32.543  1.00  0.00    -0.273 OA
BRANCH  18  21
HETATM   21  C   UNL     1      -6.075   0.928 -33.568  1.00  0.00     0.035 A 
HETATM   22  C   UNL     1      -5.615  -0.393 -33.586  1.00  0.00     0.042 A 
HETATM   23  C   UNL     1      -6.194  -1.358 -34.431  1.00  0.00    -0.021 A 
HETATM   24  C   UNL     1      -7.265  -0.975 -35.250  1.00  0.00     0.012 A 
HETATM   25  C   UNL     1      -7.730   0.340 -35.242  1.00  0.00     0.003 A 
HETATM   26  C   UNL     1      -7.131   1.288 -34.412  1.00  0.00     0.029 A 
BRANCH  23  27
HETATM   27  C   UNL     1      -5.677  -2.720 -34.444  1.00  0.00     0.010 A 
HETATM   28  C   UNL     1      -6.291  -3.941 -34.818  1.00  0.00     0.152 A 
HETATM   29  N   UNL     1      -5.487  -4.997 -34.669  1.00  0.00    -0.187 NA
HETATM   30  N   UNL     1      -4.354  -4.461 -34.192  1.00  0.00    -0.289 N 
HETATM   31  H   UNL     1      -3.578  -5.081 -33.988  1.00  0.00     0.188 HD
HETATM   32  C   UNL     1      -4.415  -3.106 -34.038  1.00  0.00     0.123 A 
ENDBRANCH  23  27
ENDBRANCH  18  21
ENDBRANCH   1  17
TORSDOF 6
ENDMDL
MODEL 10
REMARK VINA RESULT:      -7.9      4.520      6.227
REMARK  6 active torsions:
REMARK  status: ('A' for Active; 'I' for Inactive)
REMARK    1  A    between atoms: C_3  and  C_4 
REMARK    2  A    between atoms: C_4  and  N_5 
REMARK    3  A    between atoms: C_4  and  C_9 
REMARK       I    between atoms: N_5  and  C_6 
REMARK       I    between atoms: C_6  and  N_7 
REMARK    4  A    between atoms: C_9  and  C_10 
REMARK       I    between atoms: C_10  and  N_11 
REMARK    5  A    between atoms: N_11  and  C_12 
REMARK    6  A    between atoms: C_14  and  C_15 
ROOT
HETATM    1  C   UNL     1     -11.283   1.969 -34.544  1.00  0.00     0.133 C 
ENDROOT
BRANCH   1   2
HETATM    2  C   UNL     1     -11.655   3.138 -33.626  1.00  0.00     0.128 C 
BRANCH   2   3
HETATM    3  C   UNL     1     -11.403   4.475 -34.326  1.00  0.00    -0.029 A 
HETATM    4  C   UNL     1     -12.443   5.420 -34.507  1.00  0.00    -0.054 A 
HETATM    5  C   UNL     1     -13.846   5.178 -34.011  1.00  0.00     0.049 C 
HETATM    6  C   UNL     1     -12.172   6.629 -35.170  1.00  0.00     0.007 A 
HETATM    7  C   UNL     1     -10.899   6.908 -35.664  1.00  0.00     0.001 A 
HETATM    8  C   UNL     1      -9.881   5.976 -35.509  1.00  0.00     0.001 A 
HETATM    9  C   UNL     1     -10.132   4.770 -34.855  1.00  0.00     0.010 A 
ENDBRANCH   2   3
BRANCH   2  10
HETATM   10  N   UNL     1     -11.072   3.105 -32.281  1.00  0.00    -0.334 N 
HETATM   11  C   UNL     1     -11.549   3.724 -31.172  1.00  0.00     0.314 C 
HETATM   12  N   UNL     1     -10.796   3.468 -30.072  1.00  0.00    -0.352 N 
HETATM   13  O   UNL     1     -12.531   4.447 -31.110  1.00  0.00    -0.248 OA
HETATM   14  H   UNL     1     -10.380   2.551 -29.991  1.00  0.00     0.160 HD
HETATM   15  H   UNL     1     -11.187   3.837 -29.215  1.00  0.00     0.160 HD
HETATM   16  H   UNL     1     -10.164   2.672 -32.201  1.00  0.00     0.165 HD
ENDBRANCH   2  10
ENDBRANCH   1   2
BRANCH   1  17
HETATM   17  C   UNL     1     -10.177   1.142 -33.921  1.00  0.00     0.224 C 
HETATM   18  N   UNL     1      -8.953   1.326 -34.536  1.00  0.00    -0.327 N 
HETATM   19  H   UNL     1      -8.914   2.044 -35.253  1.00  0.00     0.169 HD
HETATM   20  O   UNL     1     -10.424   0.365 -33.004  1.00  0.00    -0.273 OA
BRANCH  18  21
HETATM   21  C   UNL     1      -7.738   0.671 -34.250  1.00  0.00     0.035 A 
HETATM   22  C   UNL     1      -7.487  -0.674 -34.540  1.00  0.00     0.042 A 
HETATM   23  C   UNL     1      -6.251  -1.271 -34.230  1.00  0.00    -0.021 A 
HETATM   24  C   UNL     1      -5.256  -0.481 -33.638  1.00  0.00     0.012 A 
HETATM   25  C   UNL     1      -5.496   0.860 -33.343  1.00  0.00     0.003 A 
HETATM   26  C   UNL     1      -6.735   1.430 -33.638  1.00  0.00     0.029 A 
BRANCH  23  27
HETATM   27  C   UNL     1      -6.028  -2.681 -34.522  1.00  0.00     0.010 A 
HETATM   28  C   UNL     1      -6.942  -3.721 -34.823  1.00  0.00     0.152 A 
HETATM   29  N   UNL     1      -6.346  -4.901 -35.013  1.00  0.00    -0.187 NA
HETATM   30  N   UNL     1      -5.046  -4.627 -34.827  1.00  0.00    -0.289 N 
HETATM   31  H   UNL     1      -4.378  -5.385 -34.913  1.00  0.00     0.188 HD
HETATM   32  C   UNL     1      -4.803  -3.317 -34.530  1.00  0.00     0.123 A 
ENDBRANCH  23  27
ENDBRANCH  18  21
ENDBRANCH   1  17
TORSDOF 6
ENDMDL
