MODEL 1
REMARK VINA RESULT:      -8.5      0.000      0.000
REMARK  8 active torsions:
REMARK  status: ('A' for Active; 'I' for Inactive)
REMARK    1  A    between atoms: O_2  and  C_3 
REMARK    2  A    between atoms: C_3  and  C_4 
REMARK    3  A    between atoms: C_6  and  C_7 
REMARK    4  A    between atoms: C_7  and  N_8 
REMARK    5  A    between atoms: C_17  and  C_18 
REMARK    6  A    between atoms: C_18  and  N_19 
REMARK    7  A    between atoms: C_23  and  O_24 
REMARK    8  A    between atoms: C_23  and  C_25 
ROOT
HETATM    1  N   UNL     1      -9.277   0.208 -33.215  1.00  0.00    -0.059 N 
HETATM    2  H   UNL     1      -9.431  -0.811 -33.237  1.00  0.00     0.280 HD
HETATM    3  C   UNL     1      -8.797   0.484 -31.812  1.00  0.00     0.276 C 
HETATM    4  C   UNL     1      -8.235   1.862 -31.603  1.00  0.00     0.002 A 
HETATM    5  C   UNL     1      -9.047   2.983 -31.774  1.00  0.00     0.076 A 
HETATM    6  O   UNL     1     -10.371   2.851 -32.085  1.00  0.00    -0.349 OA
HETATM    7  C   UNL     1     -10.575   2.389 -33.427  1.00  0.00     0.203 C 
HETATM    8  C   UNL     1     -10.618   0.855 -33.506  1.00  0.00     0.262 C 
HETATM    9  C   UNL     1      -6.895   2.051 -31.216  1.00  0.00     0.020 A 
HETATM   10  C   UNL     1      -6.375   3.340 -30.992  1.00  0.00    -0.032 A 
HETATM   11  C   UNL     1      -7.217   4.447 -31.177  1.00  0.00     0.011 A 
HETATM   12  C   UNL     1      -8.553   4.266 -31.548  1.00  0.00     0.038 A 
ENDROOT
BRANCH  10  13
HETATM   13  C   UNL     1      -4.936   3.514 -30.562  1.00  0.00     0.273 C 
BRANCH  13  14
HETATM   14  N   UNL     1      -4.089   4.411 -31.449  1.00  0.00    -0.067 N 
HETATM   15  H   UNL     1      -4.586   4.486 -32.348  1.00  0.00     0.280 HD
HETATM   16  C   UNL     1      -3.930   5.815 -30.912  1.00  0.00     0.238 C 
HETATM   17  C   UNL     1      -3.108   6.639 -31.887  1.00  0.00     0.071 C 
HETATM   18  C   UNL     1      -1.696   6.053 -32.082  1.00  0.00     0.089 C 
HETATM   19  C   UNL     1      -1.885   4.622 -32.621  1.00  0.00     0.071 C 
HETATM   20  C   UNL     1      -2.754   3.750 -31.727  1.00  0.00     0.238 C 
BRANCH  18  21
HETATM   21  O   UNL     1      -1.094   6.799 -33.141  1.00  0.00    -0.385 OA
HETATM   22  H   UNL     1      -1.389   6.454 -34.006  1.00  0.00     0.211 HD
ENDBRANCH  18  21
BRANCH  18  23
HETATM   23  C   UNL     1      -0.827   6.205 -30.839  1.00  0.00    -0.006 A 
HETATM   24  C   UNL     1      -0.091   5.162 -30.282  1.00  0.00     0.126 A 
HETATM   25  N   UNL     1       0.625   5.249 -29.140  1.00  0.00    -0.272 NA
HETATM   26  C   UNL     1       0.699   6.456 -28.544  1.00  0.00     0.116 A 
HETATM   27  C   UNL     1       0.065   7.578 -29.038  1.00  0.00     0.020 A 
HETATM   28  C   UNL     1      -0.700   7.448 -30.195  1.00  0.00     0.013 A 
ENDBRANCH  18  23
ENDBRANCH  13  14
ENDBRANCH  10  13
BRANCH   1  29
HETATM   29  C   UNL     1      -8.251   0.426 -34.308  1.00  0.00     0.299 C 
BRANCH  29  30
HETATM   30  C   UNL     1      -7.097  -0.503 -34.260  1.00  0.00     0.079 A 
HETATM   31  O   UNL     1      -5.915   0.015 -33.819  1.00  0.00    -0.316 OA
HETATM   32  C   UNL     1      -5.009  -1.008 -33.791  1.00  0.00     0.077 A 
HETATM   33  C   UNL     1      -5.600  -2.164 -34.256  1.00  0.00     0.037 A 
HETATM   34  C   UNL     1      -6.945  -1.840 -34.557  1.00  0.00     0.037 A 
BRANCH  32  35
HETATM   35  C   UNL     1      -3.644  -0.704 -33.280  1.00  0.00     0.231 C 
BRANCH  35  36
HETATM   36  O   UNL     1      -3.768   0.405 -32.394  1.00  0.00    -0.390 OA
HETATM   37  C   UNL     1      -3.329   0.072 -31.082  1.00  0.00     0.201 C 
ENDBRANCH  35  36
ENDBRANCH  32  35
ENDBRANCH  29  30
ENDBRANCH   1  29
TORSDOF 8
ENDMDL
MODEL 2
REMARK VINA RESULT:      -8.4      1.730      4.671
REMARK  8 active torsions:
REMARK  status: ('A' for Active; 'I' for Inactive)
REMARK    1  A    between atoms: O_2  and  C_3 
REMARK    2  A    between atoms: C_3  and  C_4 
REMARK    3  A    between atoms: C_6  and  C_7 
REMARK    4  A    between atoms: C_7  and  N_8 
REMARK    5  A    between atoms: C_17  and  C_18 
REMARK    6  A    between atoms: C_18  and  N_19 
REMARK    7  A    between atoms: C_23  and  O_24 
REMARK    8  A    between atoms: C_23  and  C_25 
ROOT
HETATM    1  N   UNL     1      -7.691  -0.350 -34.516  1.00  0.00    -0.059 N 
HETATM    2  H   UNL     1      -8.394  -0.198 -35.255  1.00  0.00     0.280 HD
HETATM    3  C   UNL     1      -6.639   0.700 -34.777  1.00  0.00     0.276 C 
HETATM    4  C   UNL     1      -5.640   0.872 -33.669  1.00  0.00     0.002 A 
HETATM    5  C   UNL     1      -4.801  -0.184 -33.310  1.00  0.00     0.076 A 
HETATM    6  O   UNL     1      -4.838  -1.371 -33.986  1.00  0.00    -0.349 OA
HETATM    7  C   UNL     1      -6.036  -2.114 -33.721  1.00  0.00     0.203 C 
HETATM    8  C   UNL     1      -7.162  -1.759 -34.704  1.00  0.00     0.262 C 
HETATM    9  C   UNL     1      -5.513   2.096 -32.986  1.00  0.00     0.020 A 
HETATM   10  C   UNL     1      -4.557   2.267 -31.966  1.00  0.00    -0.032 A 
HETATM   11  C   UNL     1      -3.733   1.184 -31.627  1.00  0.00     0.011 A 
HETATM   12  C   UNL     1      -3.844  -0.030 -32.311  1.00  0.00     0.038 A 
ENDROOT
BRANCH  10  13
HETATM   13  C   UNL     1      -4.432   3.598 -31.260  1.00  0.00     0.273 C 
BRANCH  13  14
HETATM   14  N   UNL     1      -3.779   4.710 -32.064  1.00  0.00    -0.067 N 
HETATM   15  H   UNL     1      -4.167   4.648 -33.016  1.00  0.00     0.280 HD
HETATM   16  C   UNL     1      -4.096   6.094 -31.547  1.00  0.00     0.238 C 
HETATM   17  C   UNL     1      -3.436   7.131 -32.439  1.00  0.00     0.071 C 
HETATM   18  C   UNL     1      -1.902   6.979 -32.454  1.00  0.00     0.089 C 
HETATM   19  C   UNL     1      -1.606   5.559 -32.976  1.00  0.00     0.071 C 
HETATM   20  C   UNL     1      -2.288   4.465 -32.168  1.00  0.00     0.238 C 
BRANCH  18  21
HETATM   21  O   UNL     1      -1.419   7.878 -33.454  1.00  0.00    -0.385 OA
HETATM   22  H   UNL     1      -1.914   7.753 -34.286  1.00  0.00     0.211 HD
ENDBRANCH  18  21
BRANCH  18  23
HETATM   23  C   UNL     1      -1.267   7.362 -31.123  1.00  0.00    -0.006 A 
HETATM   24  C   UNL     1      -1.858   8.230 -30.208  1.00  0.00     0.126 A 
HETATM   25  N   UNL     1      -1.284   8.645 -29.058  1.00  0.00    -0.272 NA
HETATM   26  C   UNL     1      -0.087   8.113 -28.735  1.00  0.00     0.116 A 
HETATM   27  C   UNL     1       0.567   7.194 -29.530  1.00  0.00     0.020 A 
HETATM   28  C   UNL     1      -0.031   6.817 -30.730  1.00  0.00     0.013 A 
ENDBRANCH  18  23
ENDBRANCH  13  14
ENDBRANCH  10  13
BRANCH   1  29
HETATM   29  C   UNL     1      -8.488  -0.169 -33.241  1.00  0.00     0.299 C 
BRANCH  29  30
HETATM   30  C   UNL     1      -9.382   1.014 -33.239  1.00  0.00     0.079 A 
HETATM   31  O   UNL     1     -10.240   1.131 -34.292  1.00  0.00    -0.316 OA
HETATM   32  C   UNL     1     -11.009   2.239 -34.068  1.00  0.00     0.077 A 
HETATM   33  C   UNL     1     -10.610   2.852 -32.898  1.00  0.00     0.037 A 
HETATM   34  C   UNL     1      -9.564   2.062 -32.363  1.00  0.00     0.037 A 
BRANCH  32  35
HETATM   35  C   UNL     1     -12.076   2.548 -35.059  1.00  0.00     0.231 C 
BRANCH  35  36
HETATM   36  O   UNL     1     -12.727   1.320 -35.367  1.00  0.00    -0.390 OA
HETATM   37  C   UNL     1     -13.781   1.047 -34.450  1.00  0.00     0.201 C 
ENDBRANCH  35  36
ENDBRANCH  32  35
ENDBRANCH  29  30
ENDBRANCH   1  29
TORSDOF 8
ENDMDL
MODEL 3
REMARK VINA RESULT:      -8.3      1.524      1.769
REMARK  8 active torsions:
REMARK  status: ('A' for Active; 'I' for Inactive)
REMARK    1  A    between atoms: O_2  and  C_3 
REMARK    2  A    between atoms: C_3  and  C_4 
REMARK    3  A    between atoms: C_6  and  C_7 
REMARK    4  A    between atoms: C_7  and  N_8 
REMARK    5  A    between atoms: C_17  and  C_18 
REMARK    6  A    between atoms: C_18  and  N_19 
REMARK    7  A    between atoms: C_23  and  O_24 
REMARK    8  A    between atoms: C_23  and  C_25 
ROOT
HETATM    1  N   UNL     1      -8.624   0.244 -33.315  1.00  0.00    -0.059 N 
HETATM    2  H   UNL     1      -8.695  -0.676 -32.854  1.00  0.00     0.280 HD
HETATM    3  C   UNL     1      -7.888   1.107 -32.321  1.00  0.00     0.276 C 
HETATM    4  C   UNL     1      -7.410   2.422 -32.867  1.00  0.00     0.002 A 
HETATM    5  C   UNL     1      -8.329   3.366 -33.327  1.00  0.00     0.076 A 
HETATM    6  O   UNL     1      -9.674   3.134 -33.246  1.00  0.00    -0.349 OA
HETATM    7  C   UNL     1     -10.112   2.127 -34.168  1.00  0.00     0.203 C 
HETATM    8  C   UNL     1     -10.044   0.720 -33.555  1.00  0.00     0.262 C 
HETATM    9  C   UNL     1      -6.039   2.739 -32.909  1.00  0.00     0.020 A 
HETATM   10  C   UNL     1      -5.592   3.982 -33.395  1.00  0.00    -0.032 A 
HETATM   11  C   UNL     1      -6.541   4.906 -33.854  1.00  0.00     0.011 A 
HETATM   12  C   UNL     1      -7.906   4.605 -33.802  1.00  0.00     0.038 A 
ENDROOT
BRANCH  10  13
HETATM   13  C   UNL     1      -4.114   4.302 -33.415  1.00  0.00     0.273 C 
BRANCH  13  14
HETATM   14  N   UNL     1      -3.756   5.761 -33.186  1.00  0.00    -0.067 N 
HETATM   15  H   UNL     1      -4.349   6.311 -33.824  1.00  0.00     0.280 HD
HETATM   16  C   UNL     1      -4.048   6.242 -31.784  1.00  0.00     0.238 C 
HETATM   17  C   UNL     1      -3.696   7.715 -31.670  1.00  0.00     0.071 C 
HETATM   18  C   UNL     1      -2.201   7.969 -31.947  1.00  0.00     0.089 C 
HETATM   19  C   UNL     1      -1.928   7.463 -33.377  1.00  0.00     0.071 C 
HETATM   20  C   UNL     1      -2.315   6.007 -33.587  1.00  0.00     0.238 C 
BRANCH  18  21
HETATM   21  O   UNL     1      -2.035   9.387 -31.990  1.00  0.00    -0.385 OA
HETATM   22  H   UNL     1      -2.838   9.830 -31.653  1.00  0.00     0.211 HD
ENDBRANCH  18  21
BRANCH  18  23
HETATM   23  C   UNL     1      -1.304   7.417 -30.846  1.00  0.00    -0.006 A 
HETATM   24  C   UNL     1      -1.604   7.511 -29.489  1.00  0.00     0.126 A 
HETATM   25  N   UNL     1      -0.791   7.100 -28.491  1.00  0.00    -0.272 NA
HETATM   26  C   UNL     1       0.353   6.478 -28.839  1.00  0.00     0.116 A 
HETATM   27  C   UNL     1       0.727   6.269 -30.151  1.00  0.00     0.020 A 
HETATM   28  C   UNL     1      -0.111   6.741 -31.158  1.00  0.00     0.013 A 
ENDBRANCH  18  23
ENDBRANCH  13  14
ENDBRANCH  10  13
BRANCH   1  29
HETATM   29  C   UNL     1      -7.868  -0.068 -34.590  1.00  0.00     0.299 C 
BRANCH  29  30
HETATM   30  C   UNL     1      -6.729  -1.001 -34.416  1.00  0.00     0.079 A 
HETATM   31  O   UNL     1      -5.580  -0.471 -33.905  1.00  0.00    -0.316 OA
HETATM   32  C   UNL     1      -4.688  -1.498 -33.766  1.00  0.00     0.077 A 
HETATM   33  C   UNL     1      -5.251  -2.669 -34.229  1.00  0.00     0.037 A 
HETATM   34  C   UNL     1      -6.566  -2.349 -34.646  1.00  0.00     0.037 A 
BRANCH  32  35
HETATM   35  C   UNL     1      -3.364  -1.181 -33.163  1.00  0.00     0.231 C 
BRANCH  35  36
HETATM   36  O   UNL     1      -3.446   0.145 -32.650  1.00  0.00    -0.390 OA
HETATM   37  C   UNL     1      -3.353   0.158 -31.230  1.00  0.00     0.201 C 
ENDBRANCH  35  36
ENDBRANCH  32  35
ENDBRANCH  29  30
ENDBRANCH   1  29
TORSDOF 8
ENDMDL
MODEL 4
REMARK VINA RESULT:      -8.3      1.065      1.544
REMARK  8 active torsions:
REMARK  status: ('A' for Active; 'I' for Inactive)
REMARK    1  A    between atoms: O_2  and  C_3 
REMARK    2  A    between atoms: C_3  and  C_4 
REMARK    3  A    between atoms: C_6  and  C_7 
REMARK    4  A    between atoms: C_7  and  N_8 
REMARK    5  A    between atoms: C_17  and  C_18 
REMARK    6  A    between atoms: C_18  and  N_19 
REMARK    7  A    between atoms: C_23  and  O_24 
REMARK    8  A    between atoms: C_23  and  C_25 
ROOT
HETATM    1  N   UNL     1      -9.271   0.258 -33.186  1.00  0.00    -0.059 N 
HETATM    2  H   UNL     1      -9.366  -0.769 -33.203  1.00  0.00     0.280 HD
HETATM    3  C   UNL     1      -8.870   0.572 -31.766  1.00  0.00     0.276 C 
HETATM    4  C   UNL     1      -8.397   1.981 -31.548  1.00  0.00     0.002 A 
HETATM    5  C   UNL     1      -9.262   3.054 -31.767  1.00  0.00     0.076 A 
HETATM    6  O   UNL     1     -10.562   2.844 -32.135  1.00  0.00    -0.349 OA
HETATM    7  C   UNL     1     -10.678   2.360 -33.479  1.00  0.00     0.203 C 
HETATM    8  C   UNL     1     -10.632   0.825 -33.543  1.00  0.00     0.262 C 
HETATM    9  C   UNL     1      -7.089   2.250 -31.103  1.00  0.00     0.020 A 
HETATM   10  C   UNL     1      -6.652   3.568 -30.872  1.00  0.00    -0.032 A 
HETATM   11  C   UNL     1      -7.546   4.624 -31.106  1.00  0.00     0.011 A 
HETATM   12  C   UNL     1      -8.851   4.364 -31.534  1.00  0.00     0.038 A 
ENDROOT
BRANCH  10  13
HETATM   13  C   UNL     1      -5.246   3.827 -30.380  1.00  0.00     0.273 C 
BRANCH  13  14
HETATM   14  N   UNL     1      -4.327   4.534 -31.362  1.00  0.00    -0.067 N 
HETATM   15  H   UNL     1      -4.820   4.547 -32.266  1.00  0.00     0.280 HD
HETATM   16  C   UNL     1      -4.040   5.971 -30.992  1.00  0.00     0.238 C 
HETATM   17  C   UNL     1      -3.152   6.598 -32.052  1.00  0.00     0.071 C 
HETATM   18  C   UNL     1      -1.799   5.869 -32.169  1.00  0.00     0.089 C 
HETATM   19  C   UNL     1      -2.119   4.407 -32.537  1.00  0.00     0.071 C 
HETATM   20  C   UNL     1      -3.057   3.728 -31.552  1.00  0.00     0.238 C 
BRANCH  18  21
HETATM   21  O   UNL     1      -1.138   6.429 -33.306  1.00  0.00    -0.385 OA
HETATM   22  H   UNL     1      -1.021   7.391 -33.188  1.00  0.00     0.211 HD
ENDBRANCH  18  21
BRANCH  18  23
HETATM   23  C   UNL     1      -0.914   6.087 -30.948  1.00  0.00    -0.006 A 
HETATM   24  C   UNL     1      -0.142   5.084 -30.367  1.00  0.00     0.126 A 
HETATM   25  N   UNL     1       0.590   5.230 -29.242  1.00  0.00    -0.272 NA
HETATM   26  C   UNL     1       0.642   6.460 -28.691  1.00  0.00     0.116 A 
HETATM   27  C   UNL     1      -0.028   7.547 -29.214  1.00  0.00     0.020 A 
HETATM   28  C   UNL     1      -0.808   7.356 -30.351  1.00  0.00     0.013 A 
ENDBRANCH  18  23
ENDBRANCH  13  14
ENDBRANCH  10  13
BRANCH   1  29
HETATM   29  C   UNL     1      -8.211   0.523 -34.235  1.00  0.00     0.299 C 
BRANCH  29  30
HETATM   30  C   UNL     1      -6.960  -0.251 -34.052  1.00  0.00     0.079 A 
HETATM   31  O   UNL     1      -6.985  -1.554 -34.452  1.00  0.00    -0.316 OA
HETATM   32  C   UNL     1      -5.730  -2.062 -34.259  1.00  0.00     0.077 A 
HETATM   33  C   UNL     1      -4.921  -1.098 -33.695  1.00  0.00     0.037 A 
HETATM   34  C   UNL     1      -5.712   0.070 -33.563  1.00  0.00     0.037 A 
BRANCH  32  35
HETATM   35  C   UNL     1      -5.485  -3.467 -34.683  1.00  0.00     0.231 C 
BRANCH  35  36
HETATM   36  O   UNL     1      -4.083  -3.696 -34.577  1.00  0.00    -0.390 OA
HETATM   37  C   UNL     1      -3.799  -4.780 -33.700  1.00  0.00     0.201 C 
ENDBRANCH  35  36
ENDBRANCH  32  35
ENDBRANCH  29  30
ENDBRANCH   1  29
TORSDOF 8
ENDMDL
MODEL 5
REMARK VINA RESULT:      -8.1      2.778      9.076
REMARK  8 active torsions:
REMARK  status: ('A' for Active; 'I' for Inactive)
REMARK    1  A    between atoms: O_2  and  C_3 
REMARK    2  A    between atoms: C_3  and  C_4 
REMARK    3  A    between atoms: C_6  and  C_7 
REMARK    4  A    between atoms: C_7  and  N_8 
REMARK    5  A    between atoms: C_17  and  C_18 
REMARK    6  A    between atoms: C_18  and  N_19 
REMARK    7  A    between atoms: C_23  and  O_24 
REMARK    8  A    between atoms: C_23  and  C_25 
ROOT
HETATM    1  N   UNL     1      -3.911   0.061 -31.615  1.00  0.00    -0.059 N 
HETATM    2  H   UNL     1      -3.495   0.284 -30.698  1.00  0.00     0.280 HD
HETATM    3  C   UNL     1      -5.398   0.073 -31.364  1.00  0.00     0.276 C 
HETATM    4  C   UNL     1      -6.241   0.050 -32.607  1.00  0.00     0.002 A 
HETATM    5  C   UNL     1      -6.182  -1.039 -33.476  1.00  0.00     0.076 A 
HETATM    6  O   UNL     1      -5.397  -2.122 -33.192  1.00  0.00    -0.349 OA
HETATM    7  C   UNL     1      -3.998  -1.831 -33.317  1.00  0.00     0.203 C 
HETATM    8  C   UNL     1      -3.399  -1.315 -32.000  1.00  0.00     0.262 C 
HETATM    9  C   UNL     1      -7.118   1.109 -32.912  1.00  0.00     0.020 A 
HETATM   10  C   UNL     1      -7.930   1.076 -34.062  1.00  0.00    -0.032 A 
HETATM   11  C   UNL     1      -7.842  -0.032 -34.917  1.00  0.00     0.011 A 
HETATM   12  C   UNL     1      -6.984  -1.093 -34.613  1.00  0.00     0.038 A 
ENDROOT
BRANCH  10  13
HETATM   13  C   UNL     1      -8.873   2.220 -34.357  1.00  0.00     0.273 C 
BRANCH  13  14
HETATM   14  N   UNL     1     -10.314   1.826 -34.640  1.00  0.00    -0.067 N 
HETATM   15  H   UNL     1     -10.277   1.039 -35.302  1.00  0.00     0.280 HD
HETATM   16  C   UNL     1     -11.057   1.341 -33.416  1.00  0.00     0.238 C 
HETATM   17  C   UNL     1     -12.466   0.934 -33.809  1.00  0.00     0.071 C 
HETATM   18  C   UNL     1     -13.260   2.117 -34.397  1.00  0.00     0.089 C 
HETATM   19  C   UNL     1     -12.479   2.598 -35.636  1.00  0.00     0.071 C 
HETATM   20  C   UNL     1     -11.034   2.965 -35.332  1.00  0.00     0.238 C 
BRANCH  18  21
HETATM   21  O   UNL     1     -14.487   1.573 -34.889  1.00  0.00    -0.385 OA
HETATM   22  H   UNL     1     -15.244   2.085 -34.546  1.00  0.00     0.211 HD
ENDBRANCH  18  21
BRANCH  18  23
HETATM   23  C   UNL     1     -13.594   3.172 -33.349  1.00  0.00    -0.006 A 
HETATM   24  C   UNL     1     -13.393   4.537 -33.539  1.00  0.00     0.126 A 
HETATM   25  N   UNL     1     -13.607   5.485 -32.601  1.00  0.00    -0.272 NA
HETATM   26  C   UNL     1     -14.133   5.086 -31.425  1.00  0.00     0.116 A 
HETATM   27  C   UNL     1     -14.436   3.769 -31.145  1.00  0.00     0.020 A 
HETATM   28  C   UNL     1     -14.165   2.809 -32.117  1.00  0.00     0.013 A 
ENDBRANCH  18  23
ENDBRANCH  13  14
ENDBRANCH  10  13
BRANCH   1  29
HETATM   29  C   UNL     1      -3.393   1.170 -32.507  1.00  0.00     0.299 C 
BRANCH  29  30
HETATM   30  C   UNL     1      -3.433   2.519 -31.895  1.00  0.00     0.079 A 
HETATM   31  O   UNL     1      -2.294   3.264 -31.986  1.00  0.00    -0.316 OA
HETATM   32  C   UNL     1      -2.560   4.482 -31.423  1.00  0.00     0.077 A 
HETATM   33  C   UNL     1      -3.850   4.495 -30.934  1.00  0.00     0.037 A 
HETATM   34  C   UNL     1      -4.413   3.232 -31.239  1.00  0.00     0.037 A 
BRANCH  32  35
HETATM   35  C   UNL     1      -1.480   5.505 -31.457  1.00  0.00     0.231 C 
BRANCH  35  36
HETATM   36  O   UNL     1      -0.292   4.873 -30.993  1.00  0.00    -0.390 OA
HETATM   37  C   UNL     1       0.116   5.395 -29.733  1.00  0.00     0.201 C 
ENDBRANCH  35  36
ENDBRANCH  32  35
ENDBRANCH  29  30
ENDBRANCH   1  29
TORSDOF 8
ENDMDL
MODEL 6
REMARK VINA RESULT:      -7.9      2.531      8.844
REMARK  8 active torsions:
REMARK  status: ('A' for Active; 'I' for Inactive)
REMARK    1  A    between atoms: O_2  and  C_3 
REMARK    2  A    between atoms: C_3  and  C_4 
REMARK    3  A    between atoms: C_6  and  C_7 
REMARK    4  A    between atoms: C_7  and  N_8 
REMARK    5  A    between atoms: C_17  and  C_18 
REMARK    6  A    between atoms: C_18  and  N_19 
REMARK    7  A    between atoms: C_23  and  O_24 
REMARK    8  A    between atoms: C_23  and  C_25 
ROOT
HETATM    1  N   UNL     1      -1.575   5.379 -30.863  1.00  0.00    -0.059 N 
HETATM    2  H   UNL     1      -1.118   5.055 -29.998  1.00  0.00     0.280 HD
HETATM    3  C   UNL     1      -2.299   4.162 -31.383  1.00  0.00     0.276 C 
HETATM    4  C   UNL     1      -3.275   4.440 -32.491  1.00  0.00     0.002 A 
HETATM    5  C   UNL     1      -2.827   4.956 -33.707  1.00  0.00     0.076 A 
HETATM    6  O   UNL     1      -1.496   5.171 -33.931  1.00  0.00    -0.349 OA
HETATM    7  C   UNL     1      -0.986   6.276 -33.172  1.00  0.00     0.203 C 
HETATM    8  C   UNL     1      -0.468   5.836 -31.794  1.00  0.00     0.262 C 
HETATM    9  C   UNL     1      -4.648   4.172 -32.336  1.00  0.00     0.020 A 
HETATM   10  C   UNL     1      -5.560   4.406 -33.383  1.00  0.00    -0.032 A 
HETATM   11  C   UNL     1      -5.078   4.930 -34.591  1.00  0.00     0.011 A 
HETATM   12  C   UNL     1      -3.713   5.185 -34.757  1.00  0.00     0.038 A 
ENDROOT
BRANCH  10  13
HETATM   13  C   UNL     1      -7.027   4.094 -33.195  1.00  0.00     0.273 C 
BRANCH  13  14
HETATM   14  N   UNL     1      -7.435   2.658 -33.480  1.00  0.00    -0.067 N 
HETATM   15  H   UNL     1      -8.344   2.703 -33.962  1.00  0.00     0.280 HD
HETATM   16  C   UNL     1      -6.481   1.932 -34.400  1.00  0.00     0.238 C 
HETATM   17  C   UNL     1      -6.996   0.527 -34.655  1.00  0.00     0.071 C 
HETATM   18  C   UNL     1      -7.099  -0.291 -33.352  1.00  0.00     0.089 C 
HETATM   19  C   UNL     1      -8.069   0.474 -32.430  1.00  0.00     0.071 C 
HETATM   20  C   UNL     1      -7.652   1.915 -32.177  1.00  0.00     0.238 C 
BRANCH  18  21
HETATM   21  O   UNL     1      -7.758  -1.512 -33.694  1.00  0.00    -0.385 OA
HETATM   22  H   UNL     1      -8.700  -1.343 -33.889  1.00  0.00     0.211 HD
ENDBRANCH  18  21
BRANCH  18  23
HETATM   23  C   UNL     1      -5.733  -0.633 -32.771  1.00  0.00    -0.006 A 
HETATM   24  C   UNL     1      -5.217  -0.045 -31.619  1.00  0.00     0.126 A 
HETATM   25  N   UNL     1      -3.980  -0.273 -31.126  1.00  0.00    -0.272 NA
HETATM   26  C   UNL     1      -3.225  -1.201 -31.749  1.00  0.00     0.116 A 
HETATM   27  C   UNL     1      -3.654  -1.896 -32.862  1.00  0.00     0.020 A 
HETATM   28  C   UNL     1      -4.918  -1.609 -33.372  1.00  0.00     0.013 A 
ENDBRANCH  18  23
ENDBRANCH  13  14
ENDBRANCH  10  13
BRANCH   1  29
HETATM   29  C   UNL     1      -2.464   6.507 -30.381  1.00  0.00     0.299 C 
BRANCH  29  30
HETATM   30  C   UNL     1      -1.842   7.384 -29.360  1.00  0.00     0.079 A 
HETATM   31  O   UNL     1      -1.187   6.761 -28.339  1.00  0.00    -0.316 OA
HETATM   32  C   UNL     1      -0.640   7.737 -27.553  1.00  0.00     0.077 A 
HETATM   33  C   UNL     1      -0.984   8.978 -28.047  1.00  0.00     0.037 A 
HETATM   34  C   UNL     1      -1.757   8.751 -29.211  1.00  0.00     0.037 A 
BRANCH  32  35
HETATM   35  C   UNL     1       0.186   7.303 -26.394  1.00  0.00     0.231 C 
BRANCH  35  36
HETATM   36  O   UNL     1       1.548   7.541 -26.739  1.00  0.00    -0.390 OA
HETATM   37  C   UNL     1       2.165   8.440 -25.824  1.00  0.00     0.201 C 
ENDBRANCH  35  36
ENDBRANCH  32  35
ENDBRANCH  29  30
ENDBRANCH   1  29
TORSDOF 8
ENDMDL
MODEL 7
REMARK VINA RESULT:      -7.9      2.173      6.809
REMARK  8 active torsions:
REMARK  status: ('A' for Active; 'I' for Inactive)
REMARK    1  A    between atoms: O_2  and  C_3 
REMARK    2  A    between atoms: C_3  and  C_4 
REMARK    3  A    between atoms: C_6  and  C_7 
REMARK    4  A    between atoms: C_7  and  N_8 
REMARK    5  A    between atoms: C_17  and  C_18 
REMARK    6  A    between atoms: C_18  and  N_19 
REMARK    7  A    between atoms: C_23  and  O_24 
REMARK    8  A    between atoms: C_23  and  C_25 
ROOT
HETATM    1  N   UNL     1      -5.757   5.625 -30.640  1.00  0.00    -0.059 N 
HETATM    2  H   UNL     1      -5.025   6.319 -30.850  1.00  0.00     0.280 HD
HETATM    3  C   UNL     1      -6.870   5.949 -31.605  1.00  0.00     0.276 C 
HETATM    4  C   UNL     1      -7.946   4.905 -31.693  1.00  0.00     0.002 A 
HETATM    5  C   UNL     1      -8.719   4.598 -30.573  1.00  0.00     0.076 A 
HETATM    6  O   UNL     1      -8.547   5.270 -29.395  1.00  0.00    -0.349 OA
HETATM    7  C   UNL     1      -7.313   4.932 -28.747  1.00  0.00     0.203 C 
HETATM    8  C   UNL     1      -6.161   5.844 -29.194  1.00  0.00     0.262 C 
HETATM    9  C   UNL     1      -8.209   4.231 -32.900  1.00  0.00     0.020 A 
HETATM   10  C   UNL     1      -9.236   3.271 -32.992  1.00  0.00    -0.032 A 
HETATM   11  C   UNL     1      -9.991   2.983 -31.846  1.00  0.00     0.011 A 
HETATM   12  C   UNL     1      -9.745   3.658 -30.647  1.00  0.00     0.038 A 
ENDROOT
BRANCH  10  13
HETATM   13  C   UNL     1      -9.508   2.574 -34.305  1.00  0.00     0.273 C 
BRANCH  13  14
HETATM   14  N   UNL     1      -8.853   1.213 -34.473  1.00  0.00    -0.067 N 
HETATM   15  H   UNL     1      -9.382   0.722 -35.208  1.00  0.00     0.280 HD
HETATM   16  C   UNL     1      -7.417   1.288 -34.939  1.00  0.00     0.238 C 
HETATM   17  C   UNL     1      -6.868  -0.116 -35.116  1.00  0.00     0.071 C 
HETATM   18  C   UNL     1      -6.887  -0.909 -33.795  1.00  0.00     0.089 C 
HETATM   19  C   UNL     1      -8.359  -0.965 -33.338  1.00  0.00     0.071 C 
HETATM   20  C   UNL     1      -8.999   0.408 -33.198  1.00  0.00     0.238 C 
BRANCH  18  21
HETATM   21  O   UNL     1      -6.525  -2.251 -34.126  1.00  0.00    -0.385 OA
HETATM   22  H   UNL     1      -6.351  -2.327 -35.084  1.00  0.00     0.211 HD
ENDBRANCH  18  21
BRANCH  18  23
HETATM   23  C   UNL     1      -5.879  -0.379 -32.783  1.00  0.00    -0.006 A 
HETATM   24  C   UNL     1      -6.170  -0.183 -31.436  1.00  0.00     0.126 A 
HETATM   25  N   UNL     1      -5.320   0.357 -30.535  1.00  0.00    -0.272 NA
HETATM   26  C   UNL     1      -4.073   0.648 -30.956  1.00  0.00     0.116 A 
HETATM   27  C   UNL     1      -3.648   0.437 -32.252  1.00  0.00     0.020 A 
HETATM   28  C   UNL     1      -4.559  -0.082 -33.168  1.00  0.00     0.013 A 
ENDBRANCH  18  23
ENDBRANCH  13  14
ENDBRANCH  10  13
BRANCH   1  29
HETATM   29  C   UNL     1      -5.056   4.303 -30.877  1.00  0.00     0.299 C 
BRANCH  29  30
HETATM   30  C   UNL     1      -3.868   4.389 -31.760  1.00  0.00     0.079 A 
HETATM   31  O   UNL     1      -2.718   4.852 -31.192  1.00  0.00    -0.316 OA
HETATM   32  C   UNL     1      -1.741   4.793 -32.147  1.00  0.00     0.077 A 
HETATM   33  C   UNL     1      -2.278   4.336 -33.333  1.00  0.00     0.037 A 
HETATM   34  C   UNL     1      -3.648   4.074 -33.083  1.00  0.00     0.037 A 
BRANCH  32  35
HETATM   35  C   UNL     1      -0.364   5.192 -31.748  1.00  0.00     0.231 C 
BRANCH  35  36
HETATM   36  O   UNL     1      -0.100   4.579 -30.490  1.00  0.00    -0.390 OA
HETATM   37  C   UNL     1       0.344   5.533 -29.531  1.00  0.00     0.201 C 
ENDBRANCH  35  36
ENDBRANCH  32  35
ENDBRANCH  29  30
ENDBRANCH   1  29
TORSDOF 8
ENDMDL
MODEL 8
REMARK VINA RESULT:      -7.6      2.420      8.680
REMARK  8 active torsions:
REMARK  status: ('A' for Active; 'I' for Inactive)
REMARK    1  A    between atoms: O_2  and  C_3 
REMARK    2  A    between atoms: C_3  and  C_4 
REMARK    3  A    between atoms: C_6  and  C_7 
REMARK    4  A    between atoms: C_7  and  N_8 
REMARK    5  A    between atoms: C_17  and  C_18 
REMARK    6  A    between atoms: C_18  and  N_19 
REMARK    7  A    between atoms: C_23  and  O_24 
REMARK    8  A    between atoms: C_23  and  C_25 
ROOT
HETATM    1  N   UNL     1      -3.692   0.868 -31.184  1.00  0.00    -0.059 N 
HETATM    2  H   UNL     1      -3.482   1.354 -30.299  1.00  0.00     0.280 HD
HETATM    3  C   UNL     1      -5.147   0.488 -31.067  1.00  0.00     0.276 C 
HETATM    4  C   UNL     1      -5.773   0.012 -32.347  1.00  0.00     0.002 A 
HETATM    5  C   UNL     1      -5.302  -1.143 -32.971  1.00  0.00     0.076 A 
HETATM    6  O   UNL     1      -4.301  -1.886 -32.410  1.00  0.00    -0.349 OA
HETATM    7  C   UNL     1      -3.030  -1.226 -32.473  1.00  0.00     0.203 C 
HETATM    8  C   UNL     1      -2.780  -0.343 -31.241  1.00  0.00     0.262 C 
HETATM    9  C   UNL     1      -6.852   0.702 -32.931  1.00  0.00     0.020 A 
HETATM   10  C   UNL     1      -7.459   0.241 -34.115  1.00  0.00    -0.032 A 
HETATM   11  C   UNL     1      -6.958  -0.921 -34.720  1.00  0.00     0.011 A 
HETATM   12  C   UNL     1      -5.896  -1.620 -34.138  1.00  0.00     0.038 A 
ENDROOT
BRANCH  10  13
HETATM   13  C   UNL     1      -8.626   0.994 -34.712  1.00  0.00     0.273 C 
BRANCH  13  14
HETATM   14  N   UNL     1      -9.689   1.447 -33.725  1.00  0.00    -0.067 N 
HETATM   15  H   UNL     1      -9.680   0.766 -32.952  1.00  0.00     0.280 HD
HETATM   16  C   UNL     1      -9.412   2.805 -33.123  1.00  0.00     0.238 C 
HETATM   17  C   UNL     1     -10.503   3.147 -32.123  1.00  0.00     0.071 C 
HETATM   18  C   UNL     1     -11.891   3.209 -32.791  1.00  0.00     0.089 C 
HETATM   19  C   UNL     1     -12.145   1.817 -33.404  1.00  0.00     0.071 C 
HETATM   20  C   UNL     1     -11.058   1.376 -34.371  1.00  0.00     0.238 C 
BRANCH  18  21
HETATM   21  O   UNL     1     -12.840   3.355 -31.733  1.00  0.00    -0.385 OA
HETATM   22  H   UNL     1     -12.947   2.509 -31.256  1.00  0.00     0.211 HD
ENDBRANCH  18  21
BRANCH  18  23
HETATM   23  C   UNL     1     -12.034   4.402 -33.727  1.00  0.00    -0.006 A 
HETATM   24  C   UNL     1     -11.427   5.635 -33.501  1.00  0.00     0.126 A 
HETATM   25  N   UNL     1     -11.598   6.731 -34.273  1.00  0.00    -0.272 NA
HETATM   26  C   UNL     1     -12.344   6.594 -35.388  1.00  0.00     0.116 A 
HETATM   27  C   UNL     1     -12.943   5.404 -35.751  1.00  0.00     0.020 A 
HETATM   28  C   UNL     1     -12.782   4.303 -34.913  1.00  0.00     0.013 A 
ENDBRANCH  18  23
ENDBRANCH  13  14
ENDBRANCH  10  13
BRANCH   1  29
HETATM   29  C   UNL     1      -3.375   1.913 -32.234  1.00  0.00     0.299 C 
BRANCH  29  30
HETATM   30  C   UNL     1      -3.377   3.308 -31.732  1.00  0.00     0.079 A 
HETATM   31  O   UNL     1      -2.159   3.904 -31.586  1.00  0.00    -0.316 OA
HETATM   32  C   UNL     1      -2.385   5.190 -31.178  1.00  0.00     0.077 A 
HETATM   33  C   UNL     1      -3.740   5.397 -31.022  1.00  0.00     0.037 A 
HETATM   34  C   UNL     1      -4.379   4.185 -31.380  1.00  0.00     0.037 A 
BRANCH  32  35
HETATM   35  C   UNL     1      -1.200   6.075 -31.007  1.00  0.00     0.231 C 
BRANCH  35  36
HETATM   36  O   UNL     1      -0.549   6.149 -32.271  1.00  0.00    -0.390 OA
HETATM   37  C   UNL     1      -1.148   7.135 -33.106  1.00  0.00     0.201 C 
ENDBRANCH  35  36
ENDBRANCH  32  35
ENDBRANCH  29  30
ENDBRANCH   1  29
TORSDOF 8
ENDMDL
MODEL 9
REMARK VINA RESULT:      -7.6      2.612      8.337
REMARK  8 active torsions:
REMARK  status: ('A' for Active; 'I' for Inactive)
REMARK    1  A    between atoms: O_2  and  C_3 
REMARK    2  A    between atoms: C_3  and  C_4 
REMARK    3  A    between atoms: C_6  and  C_7 
REMARK    4  A    between atoms: C_7  and  N_8 
REMARK    5  A    between atoms: C_17  and  C_18 
REMARK    6  A    between atoms: C_18  and  N_19 
REMARK    7  A    between atoms: C_23  and  O_24 
REMARK    8  A    between atoms: C_23  and  C_25 
ROOT
HETATM    1  N   UNL     1      -4.500   8.323 -29.925  1.00  0.00    -0.059 N 
HETATM    2  H   UNL     1      -5.205   8.502 -29.195  1.00  0.00     0.280 HD
HETATM    3  C   UNL     1      -3.903   6.989 -29.551  1.00  0.00     0.276 C 
HETATM    4  C   UNL     1      -3.042   6.369 -30.615  1.00  0.00     0.002 A 
HETATM    5  C   UNL     1      -1.878   7.011 -31.037  1.00  0.00     0.076 A 
HETATM    6  O   UNL     1      -1.474   8.184 -30.462  1.00  0.00    -0.349 OA
HETATM    7  C   UNL     1      -2.319   9.287 -30.819  1.00  0.00     0.203 C 
HETATM    8  C   UNL     1      -3.491   9.453 -29.840  1.00  0.00     0.262 C 
HETATM    9  C   UNL     1      -3.375   5.129 -31.191  1.00  0.00     0.020 A 
HETATM   10  C   UNL     1      -2.554   4.534 -32.167  1.00  0.00    -0.032 A 
HETATM   11  C   UNL     1      -1.393   5.208 -32.573  1.00  0.00     0.011 A 
HETATM   12  C   UNL     1      -1.048   6.433 -31.995  1.00  0.00     0.038 A 
ENDROOT
BRANCH  10  13
HETATM   13  C   UNL     1      -2.928   3.193 -32.759  1.00  0.00     0.273 C 
BRANCH  13  14
HETATM   14  N   UNL     1      -3.998   2.419 -32.006  1.00  0.00    -0.067 N 
HETATM   15  H   UNL     1      -4.254   2.993 -31.190  1.00  0.00     0.280 HD
HETATM   16  C   UNL     1      -5.260   2.200 -32.807  1.00  0.00     0.238 C 
HETATM   17  C   UNL     1      -6.277   1.459 -31.957  1.00  0.00     0.071 C 
HETATM   18  C   UNL     1      -5.757   0.075 -31.520  1.00  0.00     0.089 C 
HETATM   19  C   UNL     1      -4.467   0.326 -30.713  1.00  0.00     0.071 C 
HETATM   20  C   UNL     1      -3.421   1.120 -31.480  1.00  0.00     0.238 C 
BRANCH  18  21
HETATM   21  O   UNL     1      -6.713  -0.438 -30.590  1.00  0.00    -0.385 OA
HETATM   22  H   UNL     1      -6.299  -0.559 -29.714  1.00  0.00     0.211 HD
ENDBRANCH  18  21
BRANCH  18  23
HETATM   23  C   UNL     1      -5.654  -0.902 -32.685  1.00  0.00    -0.006 A 
HETATM   24  C   UNL     1      -4.503  -1.629 -32.980  1.00  0.00     0.126 A 
HETATM   25  N   UNL     1      -4.360  -2.442 -34.050  1.00  0.00    -0.272 NA
HETATM   26  C   UNL     1      -5.438  -2.626 -34.838  1.00  0.00     0.116 A 
HETATM   27  C   UNL     1      -6.652  -2.010 -34.608  1.00  0.00     0.020 A 
HETATM   28  C   UNL     1      -6.757  -1.145 -33.522  1.00  0.00     0.013 A 
ENDBRANCH  18  23
ENDBRANCH  13  14
ENDBRANCH  10  13
BRANCH   1  29
HETATM   29  C   UNL     1      -5.315   8.336 -31.201  1.00  0.00     0.299 C 
BRANCH  29  30
HETATM   30  C   UNL     1      -6.459   7.391 -31.208  1.00  0.00     0.079 A 
HETATM   31  O   UNL     1      -6.550   6.553 -32.280  1.00  0.00    -0.316 OA
HETATM   32  C   UNL     1      -7.622   5.733 -32.062  1.00  0.00     0.077 A 
HETATM   33  C   UNL     1      -8.238   6.078 -30.877  1.00  0.00     0.037 A 
HETATM   34  C   UNL     1      -7.488   7.145 -30.326  1.00  0.00     0.037 A 
BRANCH  32  35
HETATM   35  C   UNL     1      -7.896   4.676 -33.074  1.00  0.00     0.231 C 
BRANCH  35  36
HETATM   36  O   UNL     1      -8.177   5.339 -34.303  1.00  0.00    -0.390 OA
HETATM   37  C   UNL     1      -9.572   5.341 -34.585  1.00  0.00     0.201 C 
ENDBRANCH  35  36
ENDBRANCH  32  35
ENDBRANCH  29  30
ENDBRANCH   1  29
TORSDOF 8
ENDMDL
MODEL 10
REMARK VINA RESULT:      -7.5      1.816      5.001
REMARK  8 active torsions:
REMARK  status: ('A' for Active; 'I' for Inactive)
REMARK    1  A    between atoms: O_2  and  C_3 
REMARK    2  A    between atoms: C_3  and  C_4 
REMARK    3  A    between atoms: C_6  and  C_7 
REMARK    4  A    between atoms: C_7  and  N_8 
REMARK    5  A    between atoms: C_17  and  C_18 
REMARK    6  A    between atoms: C_18  and  N_19 
REMARK    7  A    between atoms: C_23  and  O_24 
REMARK    8  A    between atoms: C_23  and  C_25 
ROOT
HETATM    1  N   UNL     1      -8.488   1.924 -33.636  1.00  0.00    -0.059 N 
HETATM    2  H   UNL     1      -9.197   2.536 -34.066  1.00  0.00     0.280 HD
HETATM    3  C   UNL     1      -7.173   2.451 -34.155  1.00  0.00     0.276 C 
HETATM    4  C   UNL     1      -5.961   1.904 -33.456  1.00  0.00     0.002 A 
HETATM    5  C   UNL     1      -5.677   0.539 -33.508  1.00  0.00     0.076 A 
HETATM    6  O   UNL     1      -6.464  -0.315 -34.230  1.00  0.00    -0.349 OA
HETATM    7  C   UNL     1      -7.751  -0.514 -33.629  1.00  0.00     0.203 C 
HETATM    8  C   UNL     1      -8.779   0.516 -34.120  1.00  0.00     0.262 C 
HETATM    9  C   UNL     1      -5.080   2.749 -32.756  1.00  0.00     0.020 A 
HETATM   10  C   UNL     1      -3.928   2.242 -32.124  1.00  0.00    -0.032 A 
HETATM   11  C   UNL     1      -3.675   0.864 -32.192  1.00  0.00     0.011 A 
HETATM   12  C   UNL     1      -4.538   0.020 -32.898  1.00  0.00     0.038 A 
ENDROOT
BRANCH  10  13
HETATM   13  C   UNL     1      -2.991   3.176 -31.392  1.00  0.00     0.273 C 
BRANCH  13  14
HETATM   14  N   UNL     1      -2.816   4.551 -32.014  1.00  0.00    -0.067 N 
HETATM   15  H   UNL     1      -3.271   4.514 -32.937  1.00  0.00     0.280 HD
HETATM   16  C   UNL     1      -3.487   5.657 -31.233  1.00  0.00     0.238 C 
HETATM   17  C   UNL     1      -3.291   6.978 -31.955  1.00  0.00     0.071 C 
HETATM   18  C   UNL     1      -1.799   7.341 -32.087  1.00  0.00     0.089 C 
HETATM   19  C   UNL     1      -1.137   6.196 -32.879  1.00  0.00     0.071 C 
HETATM   20  C   UNL     1      -1.344   4.828 -32.249  1.00  0.00     0.238 C 
BRANCH  18  21
HETATM   21  O   UNL     1      -1.738   8.493 -32.931  1.00  0.00    -0.385 OA
HETATM   22  H   UNL     1      -2.633   8.863 -33.061  1.00  0.00     0.211 HD
ENDBRANCH  18  21
BRANCH  18  23
HETATM   23  C   UNL     1      -1.166   7.698 -30.748  1.00  0.00    -0.006 A 
HETATM   24  C   UNL     1       0.040   7.166 -30.300  1.00  0.00     0.126 A 
HETATM   25  N   UNL     1       0.584   7.406 -29.086  1.00  0.00    -0.272 NA
HETATM   26  C   UNL     1      -0.046   8.291 -28.288  1.00  0.00     0.116 A 
HETATM   27  C   UNL     1      -1.214   8.932 -28.650  1.00  0.00     0.020 A 
HETATM   28  C   UNL     1      -1.773   8.633 -29.890  1.00  0.00     0.013 A 
ENDBRANCH  18  23
ENDBRANCH  13  14
ENDBRANCH  10  13
BRANCH   1  29
HETATM   29  C   UNL     1      -8.724   2.113 -32.151  1.00  0.00     0.299 C 
BRANCH  29  30
HETATM   30  C   UNL     1      -9.907   2.943 -31.819  1.00  0.00     0.079 A 
HETATM   31  O   UNL     1     -10.927   2.938 -32.723  1.00  0.00    -0.316 OA
HETATM   32  C   UNL     1     -11.933   3.705 -32.203  1.00  0.00     0.077 A 
HETATM   33  C   UNL     1     -11.535   4.233 -30.992  1.00  0.00     0.037 A 
HETATM   34  C   UNL     1     -10.231   3.741 -30.744  1.00  0.00     0.037 A 
BRANCH  32  35
HETATM   35  C   UNL     1     -13.195   3.806 -32.985  1.00  0.00     0.231 C 
BRANCH  35  36
HETATM   36  O   UNL     1     -13.215   5.100 -33.580  1.00  0.00    -0.390 OA
HETATM   37  C   UNL     1     -12.836   5.046 -34.951  1.00  0.00     0.201 C 
ENDBRANCH  35  36
ENDBRANCH  32  35
ENDBRANCH  29  30
ENDBRANCH   1  29
TORSDOF 8
ENDMDL
