MODEL 1
REMARK VINA RESULT:      -8.2      0.000      0.000
REMARK  7 active torsions:
REMARK  status: ('A' for Active; 'I' for Inactive)
REMARK    1  A    between atoms: C_2  and  N_3 
REMARK    2  A    between atoms: C_2  and  C_10 
REMARK    3  A    between atoms: N_11  and  C_12 
REMARK    4  A    between atoms: C_19  and  S_20 
REMARK    5  A    between atoms: S_20  and  C_21 
REMARK    6  A    between atoms: C_21  and  C_22 
REMARK    7  A    between atoms: C_21  and  C_28 
REMARK       I    between atoms: C_22  and  N_23 
REMARK       I    between atoms: N_23  and  C_24 
REMARK       I    between atoms: C_24  and  N_25 
ROOT
HETATM    1  C   UNL     1      -6.047   4.563 -30.863  1.00  0.00     0.166 A 
HETATM    2  N   UNL     1      -6.532   3.280 -31.104  1.00  0.00    -0.274 N 
HETATM    3  C   UNL     1      -7.899   3.456 -31.228  1.00  0.00     0.197 A 
HETATM    4  N   UNL     1      -8.210   4.714 -31.016  1.00  0.00    -0.122 NA
HETATM    5  N   UNL     1      -7.058   5.404 -30.776  1.00  0.00    -0.131 NA
ENDROOT
BRANCH   3   6
HETATM    6  S   UNL     1      -9.030   2.171 -31.459  1.00  0.00    -0.070 SA
BRANCH   6   7
HETATM    7  C   UNL     1      -9.110   1.977 -33.285  1.00  0.00     0.180 C 
BRANCH   7   8
HETATM    8  C   UNL     1     -10.553   2.041 -33.840  1.00  0.00     0.244 C 
HETATM    9  N   UNL     1     -10.845   2.982 -34.810  1.00  0.00    -0.278 N 
HETATM   10  C   UNL     1     -10.346   4.257 -34.848  1.00  0.00     0.320 C 
HETATM   11  H   UNL     1     -11.794   2.906 -35.138  1.00  0.00     0.173 HD
HETATM   12  N   UNL     1     -10.915   5.026 -35.814  1.00  0.00    -0.352 N 
HETATM   13  O   UNL     1      -9.447   4.701 -34.153  1.00  0.00    -0.247 OA
HETATM   14  H   UNL     1     -11.826   4.845 -36.205  1.00  0.00     0.160 HD
HETATM   15  H   UNL     1     -10.592   5.987 -35.849  1.00  0.00     0.160 HD
HETATM   16  O   UNL     1     -11.493   1.342 -33.436  1.00  0.00    -0.271 OA
ENDBRANCH   7   8
BRANCH   7  17
HETATM   17  C   UNL     1      -8.276   0.792 -33.754  1.00  0.00    -0.035 A 
HETATM   18  C   UNL     1      -7.650   0.856 -35.013  1.00  0.00     0.009 A 
HETATM   19  C   UNL     1      -6.867  -0.200 -35.482  1.00  0.00     0.001 A 
HETATM   20  C   UNL     1      -6.695  -1.337 -34.700  1.00  0.00     0.000 A 
HETATM   21  C   UNL     1      -7.301  -1.417 -33.448  1.00  0.00     0.001 A 
HETATM   22  C   UNL     1      -8.082  -0.359 -32.976  1.00  0.00     0.009 A 
ENDBRANCH   7  17
ENDBRANCH   6   7
ENDBRANCH   3   6
BRANCH   2  23
HETATM   23  C   UNL     1      -5.764   2.099 -31.262  1.00  0.00     0.043 A 
HETATM   24  C   UNL     1      -5.115   1.848 -32.482  1.00  0.00     0.033 A 
HETATM   25  C   UNL     1      -4.375   0.675 -32.643  1.00  0.00     0.044 A 
HETATM   26  C   UNL     1      -4.285  -0.235 -31.596  1.00  0.00     0.116 A 
HETATM   27  F   UNL     1      -3.579  -1.359 -31.759  1.00  0.00    -0.206 F 
HETATM   28  C   UNL     1      -4.918   0.007 -30.382  1.00  0.00     0.044 A 
HETATM   29  C   UNL     1      -5.660   1.177 -30.210  1.00  0.00     0.033 A 
ENDBRANCH   2  23
BRANCH   1  30
HETATM   30  C   UNL     1      -4.608   4.973 -30.871  1.00  0.00     0.255 C 
HETATM   31  C   UNL     1      -4.440   6.409 -30.367  1.00  0.00     0.049 C 
BRANCH  30  32
HETATM   32  N   UNL     1      -3.909   4.830 -32.240  1.00  0.00    -0.060 N 
HETATM   33  H   UNL     1      -3.954   3.829 -32.463  1.00  0.00     0.280 HD
HETATM   34  C   UNL     1      -4.669   5.557 -33.332  1.00  0.00     0.236 C 
HETATM   35  C   UNL     1      -4.097   5.161 -34.687  1.00  0.00     0.028 C 
HETATM   36  C   UNL     1      -2.599   5.433 -34.772  1.00  0.00     0.003 C 
HETATM   37  C   UNL     1      -1.850   4.792 -33.607  1.00  0.00     0.028 C 
HETATM   38  C   UNL     1      -2.441   5.213 -32.265  1.00  0.00     0.236 C 
ENDBRANCH  30  32
ENDBRANCH   1  30
TORSDOF 7
ENDMDL
MODEL 2
REMARK VINA RESULT:      -8.1      2.734      4.207
REMARK  7 active torsions:
REMARK  status: ('A' for Active; 'I' for Inactive)
REMARK    1  A    between atoms: C_2  and  N_3 
REMARK    2  A    between atoms: C_2  and  C_10 
REMARK    3  A    between atoms: N_11  and  C_12 
REMARK    4  A    between atoms: C_19  and  S_20 
REMARK    5  A    between atoms: S_20  and  C_21 
REMARK    6  A    between atoms: C_21  and  C_22 
REMARK    7  A    between atoms: C_21  and  C_28 
REMARK       I    between atoms: C_22  and  N_23 
REMARK       I    between atoms: N_23  and  C_24 
REMARK       I    between atoms: C_24  and  N_25 
ROOT
HETATM    1  C   UNL     1      -5.151   4.701 -30.388  1.00  0.00     0.166 A 
HETATM    2  N   UNL     1      -4.521   3.900 -31.337  1.00  0.00    -0.274 N 
HETATM    3  C   UNL     1      -5.045   2.640 -31.112  1.00  0.00     0.197 A 
HETATM    4  N   UNL     1      -5.861   2.670 -30.084  1.00  0.00    -0.122 NA
HETATM    5  N   UNL     1      -5.920   3.953 -29.623  1.00  0.00    -0.131 NA
ENDROOT
BRANCH   3   6
HETATM    6  S   UNL     1      -4.556   1.216 -31.961  1.00  0.00    -0.070 SA
BRANCH   6   7
HETATM    7  C   UNL     1      -6.142   0.397 -32.397  1.00  0.00     0.180 C 
BRANCH   7   8
HETATM    8  C   UNL     1      -7.066   0.173 -31.176  1.00  0.00     0.244 C 
HETATM    9  N   UNL     1      -8.376   0.608 -31.251  1.00  0.00    -0.278 N 
HETATM   10  C   UNL     1      -8.789   1.765 -31.857  1.00  0.00     0.320 C 
HETATM   11  H   UNL     1      -8.903   0.370 -30.428  1.00  0.00     0.173 HD
HETATM   12  N   UNL     1     -10.104   2.039 -31.651  1.00  0.00    -0.352 N 
HETATM   13  O   UNL     1      -8.110   2.491 -32.566  1.00  0.00    -0.247 OA
HETATM   14  H   UNL     1     -10.632   1.679 -30.870  1.00  0.00     0.160 HD
HETATM   15  H   UNL     1     -10.437   2.906 -32.058  1.00  0.00     0.160 HD
HETATM   16  O   UNL     1      -6.702  -0.324 -30.101  1.00  0.00    -0.271 OA
ENDBRANCH   7   8
BRANCH   7  17
HETATM   17  C   UNL     1      -5.912  -0.822 -33.280  1.00  0.00    -0.035 A 
HETATM   18  C   UNL     1      -4.598  -1.291 -33.466  1.00  0.00     0.009 A 
HETATM   19  C   UNL     1      -4.338  -2.410 -34.258  1.00  0.00     0.001 A 
HETATM   20  C   UNL     1      -5.387  -3.081 -34.877  1.00  0.00     0.000 A 
HETATM   21  C   UNL     1      -6.696  -2.637 -34.700  1.00  0.00     0.001 A 
HETATM   22  C   UNL     1      -6.958  -1.518 -33.905  1.00  0.00     0.009 A 
ENDBRANCH   7  17
ENDBRANCH   6   7
ENDBRANCH   3   6
BRANCH   2  23
HETATM   23  C   UNL     1      -3.617   4.328 -32.343  1.00  0.00     0.043 A 
HETATM   24  C   UNL     1      -2.242   4.380 -32.067  1.00  0.00     0.033 A 
HETATM   25  C   UNL     1      -1.355   4.820 -33.052  1.00  0.00     0.044 A 
HETATM   26  C   UNL     1      -1.840   5.202 -34.297  1.00  0.00     0.116 A 
HETATM   27  F   UNL     1      -0.985   5.629 -35.234  1.00  0.00    -0.206 F 
HETATM   28  C   UNL     1      -3.199   5.148 -34.583  1.00  0.00     0.044 A 
HETATM   29  C   UNL     1      -4.095   4.709 -33.606  1.00  0.00     0.033 A 
ENDBRANCH   2  23
BRANCH   1  30
HETATM   30  C   UNL     1      -5.113   6.196 -30.337  1.00  0.00     0.255 C 
HETATM   31  C   UNL     1      -6.007   6.810 -31.418  1.00  0.00     0.049 C 
BRANCH  30  32
HETATM   32  N   UNL     1      -3.698   6.805 -30.440  1.00  0.00    -0.060 N 
HETATM   33  H   UNL     1      -3.095   6.038 -30.757  1.00  0.00     0.280 HD
HETATM   34  C   UNL     1      -3.632   7.884 -31.504  1.00  0.00     0.236 C 
HETATM   35  C   UNL     1      -2.176   8.253 -31.751  1.00  0.00     0.028 C 
HETATM   36  C   UNL     1      -1.476   8.690 -30.469  1.00  0.00     0.003 C 
HETATM   37  C   UNL     1      -1.640   7.651 -29.363  1.00  0.00     0.028 C 
HETATM   38  C   UNL     1      -3.108   7.307 -29.134  1.00  0.00     0.236 C 
ENDBRANCH  30  32
ENDBRANCH   1  30
TORSDOF 7
ENDMDL
MODEL 3
REMARK VINA RESULT:      -8.0      2.676      6.382
REMARK  7 active torsions:
REMARK  status: ('A' for Active; 'I' for Inactive)
REMARK    1  A    between atoms: C_2  and  N_3 
REMARK    2  A    between atoms: C_2  and  C_10 
REMARK    3  A    between atoms: N_11  and  C_12 
REMARK    4  A    between atoms: C_19  and  S_20 
REMARK    5  A    between atoms: S_20  and  C_21 
REMARK    6  A    between atoms: C_21  and  C_22 
REMARK    7  A    between atoms: C_21  and  C_28 
REMARK       I    between atoms: C_22  and  N_23 
REMARK       I    between atoms: N_23  and  C_24 
REMARK       I    between atoms: C_24  and  N_25 
ROOT
HETATM    1  C   UNL     1      -9.433   3.919 -34.234  1.00  0.00     0.166 A 
HETATM    2  N   UNL     1      -8.233   3.238 -34.054  1.00  0.00    -0.274 N 
HETATM    3  C   UNL     1      -7.307   4.242 -33.833  1.00  0.00     0.197 A 
HETATM    4  N   UNL     1      -7.886   5.416 -33.935  1.00  0.00    -0.122 NA
HETATM    5  N   UNL     1      -9.210   5.218 -34.197  1.00  0.00    -0.131 NA
ENDROOT
BRANCH   3   6
HETATM    6  S   UNL     1      -5.613   3.976 -33.623  1.00  0.00    -0.070 SA
BRANCH   6   7
HETATM    7  C   UNL     1      -5.472   3.381 -31.889  1.00  0.00     0.180 C 
BRANCH   7   8
HETATM    8  C   UNL     1      -4.538   4.258 -31.020  1.00  0.00     0.244 C 
HETATM    9  N   UNL     1      -4.894   4.499 -29.707  1.00  0.00    -0.278 N 
HETATM   10  C   UNL     1      -6.171   4.716 -29.262  1.00  0.00     0.320 C 
HETATM   11  H   UNL     1      -4.197   5.035 -29.217  1.00  0.00     0.173 HD
HETATM   12  N   UNL     1      -6.229   5.086 -27.956  1.00  0.00    -0.352 N 
HETATM   13  O   UNL     1      -7.196   4.557 -29.906  1.00  0.00    -0.247 OA
HETATM   14  H   UNL     1      -5.460   5.516 -27.465  1.00  0.00     0.160 HD
HETATM   15  H   UNL     1      -7.158   5.287 -27.602  1.00  0.00     0.160 HD
HETATM   16  O   UNL     1      -3.511   4.813 -31.433  1.00  0.00    -0.271 OA
ENDBRANCH   7   8
BRANCH   7  17
HETATM   17  C   UNL     1      -5.206   1.883 -31.836  1.00  0.00    -0.035 A 
HETATM   18  C   UNL     1      -4.308   1.318 -32.761  1.00  0.00     0.009 A 
HETATM   19  C   UNL     1      -4.024  -0.049 -32.746  1.00  0.00     0.001 A 
HETATM   20  C   UNL     1      -4.630  -0.873 -31.804  1.00  0.00     0.000 A 
HETATM   21  C   UNL     1      -5.516  -0.332 -30.875  1.00  0.00     0.001 A 
HETATM   22  C   UNL     1      -5.799   1.037 -30.888  1.00  0.00     0.009 A 
ENDBRANCH   7  17
ENDBRANCH   6   7
ENDBRANCH   3   6
BRANCH   2  23
HETATM   23  C   UNL     1      -8.052   1.831 -34.028  1.00  0.00     0.043 A 
HETATM   24  C   UNL     1      -8.683   1.066 -33.035  1.00  0.00     0.033 A 
HETATM   25  C   UNL     1      -8.487  -0.316 -32.999  1.00  0.00     0.044 A 
HETATM   26  C   UNL     1      -7.672  -0.924 -33.947  1.00  0.00     0.116 A 
HETATM   27  F   UNL     1      -7.485  -2.248 -33.902  1.00  0.00    -0.206 F 
HETATM   28  C   UNL     1      -7.048  -0.176 -34.938  1.00  0.00     0.044 A 
HETATM   29  C   UNL     1      -7.237   1.207 -34.984  1.00  0.00     0.033 A 
ENDBRANCH   2  23
BRANCH   1  30
HETATM   30  C   UNL     1     -10.795   3.301 -34.287  1.00  0.00     0.255 C 
HETATM   31  C   UNL     1     -11.449   3.519 -35.654  1.00  0.00     0.049 C 
BRANCH  30  32
HETATM   32  N   UNL     1     -11.758   3.779 -33.180  1.00  0.00    -0.060 N 
HETATM   33  H   UNL     1     -11.966   4.758 -33.406  1.00  0.00     0.280 HD
HETATM   34  C   UNL     1     -13.076   3.029 -33.227  1.00  0.00     0.236 C 
HETATM   35  C   UNL     1     -14.075   3.718 -32.307  1.00  0.00     0.028 C 
HETATM   36  C   UNL     1     -13.548   3.831 -30.880  1.00  0.00     0.003 C 
HETATM   37  C   UNL     1     -12.169   4.485 -30.847  1.00  0.00     0.028 C 
HETATM   38  C   UNL     1     -11.190   3.771 -31.773  1.00  0.00     0.236 C 
ENDBRANCH  30  32
ENDBRANCH   1  30
TORSDOF 7
ENDMDL
MODEL 4
REMARK VINA RESULT:      -7.9      2.009      3.411
REMARK  7 active torsions:
REMARK  status: ('A' for Active; 'I' for Inactive)
REMARK    1  A    between atoms: C_2  and  N_3 
REMARK    2  A    between atoms: C_2  and  C_10 
REMARK    3  A    between atoms: N_11  and  C_12 
REMARK    4  A    between atoms: C_19  and  S_20 
REMARK    5  A    between atoms: S_20  and  C_21 
REMARK    6  A    between atoms: C_21  and  C_22 
REMARK    7  A    between atoms: C_21  and  C_28 
REMARK       I    between atoms: C_22  and  N_23 
REMARK       I    between atoms: N_23  and  C_24 
REMARK       I    between atoms: C_24  and  N_25 
ROOT
HETATM    1  C   UNL     1      -5.397   3.767 -31.950  1.00  0.00     0.166 A 
HETATM    2  N   UNL     1      -6.566   3.015 -32.032  1.00  0.00    -0.274 N 
HETATM    3  C   UNL     1      -7.474   3.723 -31.265  1.00  0.00     0.197 A 
HETATM    4  N   UNL     1      -6.887   4.764 -30.721  1.00  0.00    -0.122 NA
HETATM    5  N   UNL     1      -5.588   4.788 -31.138  1.00  0.00    -0.131 NA
ENDROOT
BRANCH   3   6
HETATM    6  S   UNL     1      -9.090   3.204 -30.943  1.00  0.00    -0.070 SA
BRANCH   6   7
HETATM    7  C   UNL     1     -10.019   3.695 -32.451  1.00  0.00     0.180 C 
BRANCH   7   8
HETATM    8  C   UNL     1     -10.632   5.113 -32.353  1.00  0.00     0.244 C 
HETATM    9  N   UNL     1     -10.673   5.894 -33.492  1.00  0.00    -0.278 N 
HETATM   10  C   UNL     1      -9.693   5.949 -34.447  1.00  0.00     0.320 C 
HETATM   11  H   UNL     1     -11.135   6.774 -33.332  1.00  0.00     0.173 HD
HETATM   12  N   UNL     1      -9.908   6.914 -35.381  1.00  0.00    -0.352 N 
HETATM   13  O   UNL     1      -8.731   5.204 -34.538  1.00  0.00    -0.247 OA
HETATM   14  H   UNL     1     -10.480   7.728 -35.219  1.00  0.00     0.160 HD
HETATM   15  H   UNL     1      -9.184   7.004 -36.086  1.00  0.00     0.160 HD
HETATM   16  O   UNL     1     -11.043   5.629 -31.304  1.00  0.00    -0.271 OA
ENDBRANCH   7   8
BRANCH   7  17
HETATM   17  C   UNL     1     -10.972   2.596 -32.899  1.00  0.00    -0.035 A 
HETATM   18  C   UNL     1     -10.476   1.289 -33.064  1.00  0.00     0.009 A 
HETATM   19  C   UNL     1     -11.313   0.246 -33.462  1.00  0.00     0.001 A 
HETATM   20  C   UNL     1     -12.661   0.490 -33.700  1.00  0.00     0.000 A 
HETATM   21  C   UNL     1     -13.174   1.775 -33.536  1.00  0.00     0.001 A 
HETATM   22  C   UNL     1     -12.337   2.820 -33.134  1.00  0.00     0.009 A 
ENDBRANCH   7  17
ENDBRANCH   6   7
ENDBRANCH   3   6
BRANCH   2  23
HETATM   23  C   UNL     1      -6.767   1.841 -32.803  1.00  0.00     0.043 A 
HETATM   24  C   UNL     1      -6.647   0.581 -32.196  1.00  0.00     0.033 A 
HETATM   25  C   UNL     1      -6.825  -0.574 -32.960  1.00  0.00     0.044 A 
HETATM   26  C   UNL     1      -7.123  -0.467 -34.314  1.00  0.00     0.116 A 
HETATM   27  F   UNL     1      -7.287  -1.578 -35.042  1.00  0.00    -0.206 F 
HETATM   28  C   UNL     1      -7.251   0.776 -34.922  1.00  0.00     0.044 A 
HETATM   29  C   UNL     1      -7.075   1.938 -34.168  1.00  0.00     0.033 A 
ENDBRANCH   2  23
BRANCH   1  30
HETATM   30  C   UNL     1      -4.166   3.569 -32.777  1.00  0.00     0.255 C 
HETATM   31  C   UNL     1      -3.341   2.384 -32.267  1.00  0.00     0.049 C 
BRANCH  30  32
HETATM   32  N   UNL     1      -3.258   4.813 -32.883  1.00  0.00    -0.060 N 
HETATM   33  H   UNL     1      -3.782   5.570 -32.429  1.00  0.00     0.280 HD
HETATM   34  C   UNL     1      -1.975   4.634 -32.095  1.00  0.00     0.236 C 
HETATM   35  C   UNL     1      -1.252   5.972 -32.008  1.00  0.00     0.028 C 
HETATM   36  C   UNL     1      -0.983   6.562 -33.387  1.00  0.00     0.003 C 
HETATM   37  C   UNL     1      -2.259   6.637 -34.220  1.00  0.00     0.028 C 
HETATM   38  C   UNL     1      -2.957   5.282 -34.295  1.00  0.00     0.236 C 
ENDBRANCH  30  32
ENDBRANCH   1  30
TORSDOF 7
ENDMDL
MODEL 5
REMARK VINA RESULT:      -7.9      2.778      4.120
REMARK  7 active torsions:
REMARK  status: ('A' for Active; 'I' for Inactive)
REMARK    1  A    between atoms: C_2  and  N_3 
REMARK    2  A    between atoms: C_2  and  C_10 
REMARK    3  A    between atoms: N_11  and  C_12 
REMARK    4  A    between atoms: C_19  and  S_20 
REMARK    5  A    between atoms: S_20  and  C_21 
REMARK    6  A    between atoms: C_21  and  C_22 
REMARK    7  A    between atoms: C_21  and  C_28 
REMARK       I    between atoms: C_22  and  N_23 
REMARK       I    between atoms: N_23  and  C_24 
REMARK       I    between atoms: C_24  and  N_25 
ROOT
HETATM    1  C   UNL     1      -3.699   3.826 -31.541  1.00  0.00     0.166 A 
HETATM    2  N   UNL     1      -4.880   3.228 -31.109  1.00  0.00    -0.274 N 
HETATM    3  C   UNL     1      -4.600   1.874 -31.140  1.00  0.00     0.197 A 
HETATM    4  N   UNL     1      -3.390   1.676 -31.608  1.00  0.00    -0.122 NA
HETATM    5  N   UNL     1      -2.829   2.892 -31.870  1.00  0.00    -0.131 NA
ENDROOT
BRANCH   3   6
HETATM    6  S   UNL     1      -5.747   0.634 -30.774  1.00  0.00    -0.070 SA
BRANCH   6   7
HETATM    7  C   UNL     1      -6.740   0.484 -32.314  1.00  0.00     0.180 C 
BRANCH   7   8
HETATM    8  C   UNL     1      -8.263   0.610 -32.069  1.00  0.00     0.244 C 
HETATM    9  N   UNL     1      -9.070   0.994 -33.123  1.00  0.00    -0.278 N 
HETATM   10  C   UNL     1      -8.741   1.926 -34.071  1.00  0.00     0.320 C 
HETATM   11  H   UNL     1     -10.045   0.996 -32.872  1.00  0.00     0.173 HD
HETATM   12  N   UNL     1      -9.772   2.235 -34.901  1.00  0.00    -0.352 N 
HETATM   13  O   UNL     1      -7.640   2.425 -34.240  1.00  0.00    -0.247 OA
HETATM   14  H   UNL     1     -10.741   2.108 -34.655  1.00  0.00     0.160 HD
HETATM   15  H   UNL     1      -9.572   2.947 -35.595  1.00  0.00     0.160 HD
HETATM   16  O   UNL     1      -8.814   0.444 -30.972  1.00  0.00    -0.271 OA
ENDBRANCH   7   8
BRANCH   7  17
HETATM   17  C   UNL     1      -6.303  -0.718 -33.141  1.00  0.00    -0.035 A 
HETATM   18  C   UNL     1      -4.941  -1.071 -33.161  1.00  0.00     0.009 A 
HETATM   19  C   UNL     1      -4.493  -2.170 -33.896  1.00  0.00     0.001 A 
HETATM   20  C   UNL     1      -5.400  -2.936 -34.621  1.00  0.00     0.000 A 
HETATM   21  C   UNL     1      -6.754  -2.607 -34.608  1.00  0.00     0.001 A 
HETATM   22  C   UNL     1      -7.203  -1.508 -33.870  1.00  0.00     0.009 A 
ENDBRANCH   7  17
ENDBRANCH   6   7
ENDBRANCH   3   6
BRANCH   2  23
HETATM   23  C   UNL     1      -6.054   3.891 -30.667  1.00  0.00     0.043 A 
HETATM   24  C   UNL     1      -7.085   4.163 -31.580  1.00  0.00     0.033 A 
HETATM   25  C   UNL     1      -8.231   4.833 -31.148  1.00  0.00     0.044 A 
HETATM   26  C   UNL     1      -8.344   5.223 -29.819  1.00  0.00     0.116 A 
HETATM   27  F   UNL     1      -9.443   5.870 -29.413  1.00  0.00    -0.206 F 
HETATM   28  C   UNL     1      -7.331   4.952 -28.906  1.00  0.00     0.044 A 
HETATM   29  C   UNL     1      -6.181   4.282 -29.327  1.00  0.00     0.033 A 
ENDBRANCH   2  23
BRANCH   1  30
HETATM   30  C   UNL     1      -3.382   5.288 -31.483  1.00  0.00     0.255 C 
HETATM   31  C   UNL     1      -3.377   5.909 -32.883  1.00  0.00     0.049 C 
BRANCH  30  32
HETATM   32  N   UNL     1      -2.056   5.628 -30.771  1.00  0.00    -0.060 N 
HETATM   33  H   UNL     1      -1.826   4.796 -30.214  1.00  0.00     0.280 HD
HETATM   34  C   UNL     1      -0.924   5.819 -31.762  1.00  0.00     0.236 C 
HETATM   35  C   UNL     1       0.396   5.880 -31.006  1.00  0.00     0.028 C 
HETATM   36  C   UNL     1       0.393   6.974 -29.944  1.00  0.00     0.003 C 
HETATM   37  C   UNL     1      -0.811   6.845 -29.015  1.00  0.00     0.028 C 
HETATM   38  C   UNL     1      -2.119   6.794 -29.800  1.00  0.00     0.236 C 
ENDBRANCH  30  32
ENDBRANCH   1  30
TORSDOF 7
ENDMDL
MODEL 6
REMARK VINA RESULT:      -7.7      2.843      4.541
REMARK  7 active torsions:
REMARK  status: ('A' for Active; 'I' for Inactive)
REMARK    1  A    between atoms: C_2  and  N_3 
REMARK    2  A    between atoms: C_2  and  C_10 
REMARK    3  A    between atoms: N_11  and  C_12 
REMARK    4  A    between atoms: C_19  and  S_20 
REMARK    5  A    between atoms: S_20  and  C_21 
REMARK    6  A    between atoms: C_21  and  C_22 
REMARK    7  A    between atoms: C_21  and  C_28 
REMARK       I    between atoms: C_22  and  N_23 
REMARK       I    between atoms: N_23  and  C_24 
REMARK       I    between atoms: C_24  and  N_25 
ROOT
HETATM    1  C   UNL     1      -4.943   4.948 -30.398  1.00  0.00     0.166 A 
HETATM    2  N   UNL     1      -4.327   4.094 -31.308  1.00  0.00    -0.274 N 
HETATM    3  C   UNL     1      -4.862   2.852 -31.017  1.00  0.00     0.197 A 
HETATM    4  N   UNL     1      -5.672   2.942 -29.988  1.00  0.00    -0.122 NA
HETATM    5  N   UNL     1      -5.716   4.247 -29.593  1.00  0.00    -0.131 NA
ENDROOT
BRANCH   3   6
HETATM    6  S   UNL     1      -4.391   1.382 -31.794  1.00  0.00    -0.070 SA
BRANCH   6   7
HETATM    7  C   UNL     1      -5.988   0.582 -32.228  1.00  0.00     0.180 C 
BRANCH   7   8
HETATM    8  C   UNL     1      -6.902   0.345 -31.002  1.00  0.00     0.244 C 
HETATM    9  N   UNL     1      -8.219   0.759 -31.072  1.00  0.00    -0.278 N 
HETATM   10  C   UNL     1      -8.654   1.908 -31.677  1.00  0.00     0.320 C 
HETATM   11  H   UNL     1      -8.738   0.514 -30.245  1.00  0.00     0.173 HD
HETATM   12  N   UNL     1      -9.973   2.160 -31.464  1.00  0.00    -0.352 N 
HETATM   13  O   UNL     1      -7.991   2.644 -32.391  1.00  0.00    -0.247 OA
HETATM   14  H   UNL     1     -10.490   1.793 -30.681  1.00  0.00     0.160 HD
HETATM   15  H   UNL     1     -10.322   3.021 -31.872  1.00  0.00     0.160 HD
HETATM   16  O   UNL     1      -6.524  -0.143 -29.928  1.00  0.00    -0.271 OA
ENDBRANCH   7   8
BRANCH   7  17
HETATM   17  C   UNL     1      -5.776  -0.623 -33.134  1.00  0.00    -0.035 A 
HETATM   18  C   UNL     1      -6.875  -1.142 -33.845  1.00  0.00     0.009 A 
HETATM   19  C   UNL     1      -6.729  -2.239 -34.696  1.00  0.00     0.001 A 
HETATM   20  C   UNL     1      -5.481  -2.835 -34.852  1.00  0.00     0.000 A 
HETATM   21  C   UNL     1      -4.380  -2.332 -34.163  1.00  0.00     0.001 A 
HETATM   22  C   UNL     1      -4.525  -1.232 -33.313  1.00  0.00     0.009 A 
ENDBRANCH   7  17
ENDBRANCH   6   7
ENDBRANCH   3   6
BRANCH   2  23
HETATM   23  C   UNL     1      -3.424   4.461 -32.338  1.00  0.00     0.043 A 
HETATM   24  C   UNL     1      -2.056   4.596 -32.050  1.00  0.00     0.033 A 
HETATM   25  C   UNL     1      -1.172   4.977 -33.061  1.00  0.00     0.044 A 
HETATM   26  C   UNL     1      -1.650   5.218 -34.344  1.00  0.00     0.116 A 
HETATM   27  F   UNL     1      -0.797   5.588 -35.306  1.00  0.00    -0.206 F 
HETATM   28  C   UNL     1      -3.001   5.080 -34.641  1.00  0.00     0.044 A 
HETATM   29  C   UNL     1      -3.895   4.699 -33.638  1.00  0.00     0.033 A 
ENDBRANCH   2  23
BRANCH   1  30
HETATM   30  C   UNL     1      -4.891   6.444 -30.423  1.00  0.00     0.255 C 
HETATM   31  C   UNL     1      -4.417   7.003 -29.078  1.00  0.00     0.049 C 
BRANCH  30  32
HETATM   32  N   UNL     1      -6.218   7.125 -30.818  1.00  0.00    -0.060 N 
HETATM   33  H   UNL     1      -6.883   6.873 -30.077  1.00  0.00     0.280 HD
HETATM   34  C   UNL     1      -6.095   8.636 -30.800  1.00  0.00     0.236 C 
HETATM   35  C   UNL     1      -7.482   9.252 -30.927  1.00  0.00     0.028 C 
HETATM   36  C   UNL     1      -8.208   8.765 -32.176  1.00  0.00     0.003 C 
HETATM   37  C   UNL     1      -8.231   7.241 -32.248  1.00  0.00     0.028 C 
HETATM   38  C   UNL     1      -6.828   6.654 -32.125  1.00  0.00     0.236 C 
ENDBRANCH  30  32
ENDBRANCH   1  30
TORSDOF 7
ENDMDL
MODEL 7
REMARK VINA RESULT:      -7.7      2.950      5.750
REMARK  7 active torsions:
REMARK  status: ('A' for Active; 'I' for Inactive)
REMARK    1  A    between atoms: C_2  and  N_3 
REMARK    2  A    between atoms: C_2  and  C_10 
REMARK    3  A    between atoms: N_11  and  C_12 
REMARK    4  A    between atoms: C_19  and  S_20 
REMARK    5  A    between atoms: S_20  and  C_21 
REMARK    6  A    between atoms: C_21  and  C_22 
REMARK    7  A    between atoms: C_21  and  C_28 
REMARK       I    between atoms: C_22  and  N_23 
REMARK       I    between atoms: N_23  and  C_24 
REMARK       I    between atoms: C_24  and  N_25 
ROOT
HETATM    1  C   UNL     1      -8.737   3.186 -32.771  1.00  0.00     0.166 A 
HETATM    2  N   UNL     1      -7.500   2.799 -33.278  1.00  0.00    -0.274 N 
HETATM    3  C   UNL     1      -7.758   1.596 -33.911  1.00  0.00     0.197 A 
HETATM    4  N   UNL     1      -9.016   1.261 -33.742  1.00  0.00    -0.122 NA
HETATM    5  N   UNL     1      -9.627   2.246 -33.022  1.00  0.00    -0.131 NA
ENDROOT
BRANCH   3   6
HETATM    6  S   UNL     1      -6.552   0.611 -34.660  1.00  0.00    -0.070 SA
BRANCH   6   7
HETATM    7  C   UNL     1      -6.021  -0.530 -33.320  1.00  0.00     0.180 C 
BRANCH   7   8
HETATM    8  C   UNL     1      -4.864   0.035 -32.463  1.00  0.00     0.244 C 
HETATM    9  N   UNL     1      -5.011   0.058 -31.089  1.00  0.00    -0.278 N 
HETATM   10  C   UNL     1      -6.175   0.342 -30.424  1.00  0.00     0.320 C 
HETATM   11  H   UNL     1      -4.185   0.397 -30.624  1.00  0.00     0.173 HD
HETATM   12  N   UNL     1      -6.011   0.454 -29.080  1.00  0.00    -0.352 N 
HETATM   13  O   UNL     1      -7.284   0.442 -30.923  1.00  0.00    -0.247 OA
HETATM   14  H   UNL     1      -5.131   0.680 -28.643  1.00  0.00     0.160 HD
HETATM   15  H   UNL     1      -6.847   0.696 -28.559  1.00  0.00     0.160 HD
HETATM   16  O   UNL     1      -3.824   0.528 -32.923  1.00  0.00    -0.271 OA
ENDBRANCH   7   8
BRANCH   7  17
HETATM   17  C   UNL     1      -5.821  -1.946 -33.845  1.00  0.00    -0.035 A 
HETATM   18  C   UNL     1      -6.919  -2.628 -34.401  1.00  0.00     0.009 A 
HETATM   19  C   UNL     1      -6.782  -3.923 -34.905  1.00  0.00     0.001 A 
HETATM   20  C   UNL     1      -5.545  -4.557 -34.862  1.00  0.00     0.000 A 
HETATM   21  C   UNL     1      -4.444  -3.896 -34.321  1.00  0.00     0.001 A 
HETATM   22  C   UNL     1      -4.579  -2.599 -33.820  1.00  0.00     0.009 A 
ENDBRANCH   7  17
ENDBRANCH   6   7
ENDBRANCH   3   6
BRANCH   2  23
HETATM   23  C   UNL     1      -6.289   3.535 -33.213  1.00  0.00     0.043 A 
HETATM   24  C   UNL     1      -5.516   3.502 -32.042  1.00  0.00     0.033 A 
HETATM   25  C   UNL     1      -4.335   4.244 -31.973  1.00  0.00     0.044 A 
HETATM   26  C   UNL     1      -3.932   5.006 -33.063  1.00  0.00     0.116 A 
HETATM   27  F   UNL     1      -2.802   5.718 -32.987  1.00  0.00    -0.206 F 
HETATM   28  C   UNL     1      -4.687   5.040 -34.230  1.00  0.00     0.044 A 
HETATM   29  C   UNL     1      -5.870   4.302 -34.310  1.00  0.00     0.033 A 
ENDBRANCH   2  23
BRANCH   1  30
HETATM   30  C   UNL     1      -9.068   4.524 -32.188  1.00  0.00     0.255 C 
HETATM   31  C   UNL     1      -9.747   4.380 -30.823  1.00  0.00     0.049 C 
BRANCH  30  32
HETATM   32  N   UNL     1      -9.936   5.421 -33.096  1.00  0.00    -0.060 N 
HETATM   33  H   UNL     1      -9.698   6.384 -32.832  1.00  0.00     0.280 HD
HETATM   34  C   UNL     1      -9.563   5.262 -34.557  1.00  0.00     0.236 C 
HETATM   35  C   UNL     1     -10.248   6.353 -35.369  1.00  0.00     0.028 C 
HETATM   36  C   UNL     1     -11.760   6.341 -35.174  1.00  0.00     0.003 C 
HETATM   37  C   UNL     1     -12.132   6.387 -33.695  1.00  0.00     0.028 C 
HETATM   38  C   UNL     1     -11.436   5.279 -32.910  1.00  0.00     0.236 C 
ENDBRANCH  30  32
ENDBRANCH   1  30
TORSDOF 7
ENDMDL
MODEL 8
REMARK VINA RESULT:      -7.5      3.574      6.410
REMARK  7 active torsions:
REMARK  status: ('A' for Active; 'I' for Inactive)
REMARK    1  A    between atoms: C_2  and  N_3 
REMARK    2  A    between atoms: C_2  and  C_10 
REMARK    3  A    between atoms: N_11  and  C_12 
REMARK    4  A    between atoms: C_19  and  S_20 
REMARK    5  A    between atoms: S_20  and  C_21 
REMARK    6  A    between atoms: C_21  and  C_22 
REMARK    7  A    between atoms: C_21  and  C_28 
REMARK       I    between atoms: C_22  and  N_23 
REMARK       I    between atoms: N_23  and  C_24 
REMARK       I    between atoms: C_24  and  N_25 
ROOT
HETATM    1  C   UNL     1      -8.293   3.937 -32.725  1.00  0.00     0.166 A 
HETATM    2  N   UNL     1      -8.456   2.733 -33.406  1.00  0.00    -0.274 N 
HETATM    3  C   UNL     1      -7.162   2.319 -33.669  1.00  0.00     0.197 A 
HETATM    4  N   UNL     1      -6.308   3.221 -33.244  1.00  0.00    -0.122 NA
HETATM    5  N   UNL     1      -7.011   4.237 -32.665  1.00  0.00    -0.131 NA
ENDROOT
BRANCH   3   6
HETATM    6  S   UNL     1      -6.757   0.904 -34.574  1.00  0.00    -0.070 SA
BRANCH   6   7
HETATM    7  C   UNL     1      -6.164  -0.279 -33.299  1.00  0.00     0.180 C 
BRANCH   7   8
HETATM    8  C   UNL     1      -4.967   0.259 -32.480  1.00  0.00     0.244 C 
HETATM    9  N   UNL     1      -5.058   0.260 -31.100  1.00  0.00    -0.278 N 
HETATM   10  C   UNL     1      -6.190   0.544 -30.385  1.00  0.00     0.320 C 
HETATM   11  H   UNL     1      -4.210   0.582 -30.664  1.00  0.00     0.173 HD
HETATM   12  N   UNL     1      -5.971   0.632 -29.046  1.00  0.00    -0.352 N 
HETATM   13  O   UNL     1      -7.318   0.664 -30.835  1.00  0.00    -0.247 OA
HETATM   14  H   UNL     1      -5.072   0.840 -28.642  1.00  0.00     0.160 HD
HETATM   15  H   UNL     1      -6.783   0.874 -28.488  1.00  0.00     0.160 HD
HETATM   16  O   UNL     1      -3.941   0.749 -32.973  1.00  0.00    -0.271 OA
ENDBRANCH   7   8
BRANCH   7  17
HETATM   17  C   UNL     1      -5.990  -1.677 -33.877  1.00  0.00    -0.035 A 
HETATM   18  C   UNL     1      -4.711  -2.263 -33.868  1.00  0.00     0.009 A 
HETATM   19  C   UNL     1      -4.503  -3.546 -34.377  1.00  0.00     0.001 A 
HETATM   20  C   UNL     1      -5.571  -4.266 -34.903  1.00  0.00     0.000 A 
HETATM   21  C   UNL     1      -6.846  -3.705 -34.915  1.00  0.00     0.001 A 
HETATM   22  C   UNL     1      -7.056  -2.422 -34.403  1.00  0.00     0.009 A 
ENDBRANCH   7  17
ENDBRANCH   6   7
ENDBRANCH   3   6
BRANCH   2  23
HETATM   23  C   UNL     1      -9.681   2.071 -33.678  1.00  0.00     0.043 A 
HETATM   24  C   UNL     1     -10.078   0.987 -32.879  1.00  0.00     0.033 A 
HETATM   25  C   UNL     1     -11.274   0.324 -33.161  1.00  0.00     0.044 A 
HETATM   26  C   UNL     1     -12.063   0.743 -34.226  1.00  0.00     0.116 A 
HETATM   27  F   UNL     1     -13.205   0.099 -34.493  1.00  0.00    -0.206 F 
HETATM   28  C   UNL     1     -11.682   1.820 -35.018  1.00  0.00     0.044 A 
HETATM   29  C   UNL     1     -10.488   2.491 -34.746  1.00  0.00     0.033 A 
ENDBRANCH   2  23
BRANCH   1  30
HETATM   30  C   UNL     1      -9.369   4.696 -32.014  1.00  0.00     0.255 C 
HETATM   31  C   UNL     1      -9.592   4.149 -30.602  1.00  0.00     0.049 C 
BRANCH  30  32
HETATM   32  N   UNL     1     -10.719   4.745 -32.761  1.00  0.00    -0.060 N 
HETATM   33  H   UNL     1     -10.669   3.995 -33.460  1.00  0.00     0.280 HD
HETATM   34  C   UNL     1     -11.877   4.409 -31.840  1.00  0.00     0.236 C 
HETATM   35  C   UNL     1     -13.134   4.205 -32.674  1.00  0.00     0.028 C 
HETATM   36  C   UNL     1     -13.444   5.420 -33.541  1.00  0.00     0.003 C 
HETATM   37  C   UNL     1     -12.239   5.824 -34.385  1.00  0.00     0.028 C 
HETATM   38  C   UNL     1     -10.997   6.028 -33.523  1.00  0.00     0.236 C 
ENDBRANCH  30  32
ENDBRANCH   1  30
TORSDOF 7
ENDMDL
MODEL 9
REMARK VINA RESULT:      -7.3      2.361      3.935
REMARK  7 active torsions:
REMARK  status: ('A' for Active; 'I' for Inactive)
REMARK    1  A    between atoms: C_2  and  N_3 
REMARK    2  A    between atoms: C_2  and  C_10 
REMARK    3  A    between atoms: N_11  and  C_12 
REMARK    4  A    between atoms: C_19  and  S_20 
REMARK    5  A    between atoms: S_20  and  C_21 
REMARK    6  A    between atoms: C_21  and  C_22 
REMARK    7  A    between atoms: C_21  and  C_28 
REMARK       I    between atoms: C_22  and  N_23 
REMARK       I    between atoms: N_23  and  C_24 
REMARK       I    between atoms: C_24  and  N_25 
ROOT
HETATM    1  C   UNL     1      -6.042   3.855 -33.106  1.00  0.00     0.166 A 
HETATM    2  N   UNL     1      -6.988   2.906 -33.483  1.00  0.00    -0.274 N 
HETATM    3  C   UNL     1      -8.114   3.652 -33.779  1.00  0.00     0.197 A 
HETATM    4  N   UNL     1      -7.885   4.923 -33.540  1.00  0.00    -0.122 NA
HETATM    5  N   UNL     1      -6.597   5.051 -33.109  1.00  0.00    -0.131 NA
ENDROOT
BRANCH   3   6
HETATM    6  S   UNL     1      -9.638   2.978 -34.233  1.00  0.00    -0.070 SA
BRANCH   6   7
HETATM    7  C   UNL     1     -10.740   3.392 -32.822  1.00  0.00     0.180 C 
BRANCH   7   8
HETATM    8  C   UNL     1     -10.061   3.202 -31.444  1.00  0.00     0.244 C 
HETATM    9  N   UNL     1     -10.235   4.180 -30.483  1.00  0.00    -0.278 N 
HETATM   10  C   UNL     1     -10.273   5.527 -30.726  1.00  0.00     0.320 C 
HETATM   11  H   UNL     1      -9.795   3.937 -29.611  1.00  0.00     0.173 HD
HETATM   12  N   UNL     1     -10.293   6.276 -29.592  1.00  0.00    -0.352 N 
HETATM   13  O   UNL     1     -10.340   6.062 -31.821  1.00  0.00    -0.247 OA
HETATM   14  H   UNL     1      -9.950   5.949 -28.703  1.00  0.00     0.160 HD
HETATM   15  H   UNL     1     -10.289   7.281 -29.735  1.00  0.00     0.160 HD
HETATM   16  O   UNL     1      -9.317   2.255 -31.152  1.00  0.00    -0.271 OA
ENDBRANCH   7   8
BRANCH   7  17
HETATM   17  C   UNL     1     -12.108   2.740 -32.976  1.00  0.00    -0.035 A 
HETATM   18  C   UNL     1     -12.207   1.523 -33.676  1.00  0.00     0.009 A 
HETATM   19  C   UNL     1     -13.437   0.882 -33.835  1.00  0.00     0.001 A 
HETATM   20  C   UNL     1     -14.588   1.445 -33.295  1.00  0.00     0.000 A 
HETATM   21  C   UNL     1     -14.510   2.646 -32.593  1.00  0.00     0.001 A 
HETATM   22  C   UNL     1     -13.279   3.287 -32.430  1.00  0.00     0.009 A 
ENDBRANCH   7  17
ENDBRANCH   6   7
ENDBRANCH   3   6
BRANCH   2  23
HETATM   23  C   UNL     1      -6.784   1.507 -33.603  1.00  0.00     0.043 A 
HETATM   24  C   UNL     1      -6.801   0.908 -34.873  1.00  0.00     0.033 A 
HETATM   25  C   UNL     1      -6.620  -0.472 -34.988  1.00  0.00     0.044 A 
HETATM   26  C   UNL     1      -6.422  -1.241 -33.847  1.00  0.00     0.116 A 
HETATM   27  F   UNL     1      -6.255  -2.563 -33.965  1.00  0.00    -0.206 F 
HETATM   28  C   UNL     1      -6.397  -0.656 -32.586  1.00  0.00     0.044 A 
HETATM   29  C   UNL     1      -6.576   0.723 -32.459  1.00  0.00     0.033 A 
ENDBRANCH   2  23
BRANCH   1  30
HETATM   30  C   UNL     1      -4.582   3.606 -32.897  1.00  0.00     0.255 C 
HETATM   31  C   UNL     1      -4.279   3.284 -31.431  1.00  0.00     0.049 C 
BRANCH  30  32
HETATM   32  N   UNL     1      -3.663   4.753 -33.366  1.00  0.00    -0.060 N 
HETATM   33  H   UNL     1      -4.201   5.257 -34.081  1.00  0.00     0.280 HD
HETATM   34  C   UNL     1      -3.388   5.740 -32.248  1.00  0.00     0.236 C 
HETATM   35  C   UNL     1      -2.714   6.976 -32.827  1.00  0.00     0.028 C 
HETATM   36  C   UNL     1      -1.439   6.625 -33.587  1.00  0.00     0.003 C 
HETATM   37  C   UNL     1      -1.697   5.549 -34.638  1.00  0.00     0.028 C 
HETATM   38  C   UNL     1      -2.366   4.321 -34.028  1.00  0.00     0.236 C 
ENDBRANCH  30  32
ENDBRANCH   1  30
TORSDOF 7
ENDMDL
MODEL 10
REMARK VINA RESULT:      -7.2      2.467      6.750
REMARK  7 active torsions:
REMARK  status: ('A' for Active; 'I' for Inactive)
REMARK    1  A    between atoms: C_2  and  N_3 
REMARK    2  A    between atoms: C_2  and  C_10 
REMARK    3  A    between atoms: N_11  and  C_12 
REMARK    4  A    between atoms: C_19  and  S_20 
REMARK    5  A    between atoms: S_20  and  C_21 
REMARK    6  A    between atoms: C_21  and  C_22 
REMARK    7  A    between atoms: C_21  and  C_28 
REMARK       I    between atoms: C_22  and  N_23 
REMARK       I    between atoms: N_23  and  C_24 
REMARK       I    between atoms: C_24  and  N_25 
ROOT
HETATM    1  C   UNL     1      -7.742   3.698 -31.863  1.00  0.00     0.166 A 
HETATM    2  N   UNL     1      -6.490   3.545 -31.274  1.00  0.00    -0.274 N 
HETATM    3  C   UNL     1      -6.238   4.777 -30.696  1.00  0.00     0.197 A 
HETATM    4  N   UNL     1      -7.217   5.609 -30.970  1.00  0.00    -0.122 NA
HETATM    5  N   UNL     1      -8.151   4.942 -31.707  1.00  0.00    -0.131 NA
ENDROOT
BRANCH   3   6
HETATM    6  S   UNL     1      -4.771   5.190 -29.884  1.00  0.00    -0.070 SA
BRANCH   6   7
HETATM    7  C   UNL     1      -3.789   6.067 -31.168  1.00  0.00     0.180 C 
BRANCH   7   8
HETATM    8  C   UNL     1      -2.836   5.131 -31.948  1.00  0.00     0.244 C 
HETATM    9  N   UNL     1      -2.792   5.234 -33.326  1.00  0.00    -0.278 N 
HETATM   10  C   UNL     1      -3.873   5.466 -34.135  1.00  0.00     0.320 C 
HETATM   11  H   UNL     1      -2.106   4.619 -33.731  1.00  0.00     0.173 HD
HETATM   12  N   UNL     1      -3.584   5.363 -35.459  1.00  0.00    -0.352 N 
HETATM   13  O   UNL     1      -4.991   5.790 -33.769  1.00  0.00    -0.247 OA
HETATM   14  H   UNL     1      -2.809   4.828 -35.819  1.00  0.00     0.160 HD
HETATM   15  H   UNL     1      -4.370   5.496 -36.086  1.00  0.00     0.160 HD
HETATM   16  O   UNL     1      -2.140   4.246 -31.430  1.00  0.00    -0.271 OA
ENDBRANCH   7   8
BRANCH   7  17
HETATM   17  C   UNL     1      -3.157   7.336 -30.612  1.00  0.00    -0.035 A 
HETATM   18  C   UNL     1      -2.409   7.259 -29.423  1.00  0.00     0.009 A 
HETATM   19  C   UNL     1      -1.801   8.393 -28.880  1.00  0.00     0.001 A 
HETATM   20  C   UNL     1      -1.930   9.622 -29.518  1.00  0.00     0.000 A 
HETATM   21  C   UNL     1      -2.661   9.718 -30.700  1.00  0.00     0.001 A 
HETATM   22  C   UNL     1      -3.267   8.583 -31.246  1.00  0.00     0.009 A 
ENDBRANCH   7  17
ENDBRANCH   6   7
ENDBRANCH   3   6
BRANCH   2  23
HETATM   23  C   UNL     1      -5.715   2.358 -31.225  1.00  0.00     0.043 A 
HETATM   24  C   UNL     1      -4.778   2.097 -32.237  1.00  0.00     0.033 A 
HETATM   25  C   UNL     1      -4.030   0.918 -32.199  1.00  0.00     0.044 A 
HETATM   26  C   UNL     1      -4.217   0.014 -31.159  1.00  0.00     0.116 A 
HETATM   27  F   UNL     1      -3.501  -1.115 -31.131  1.00  0.00    -0.206 F 
HETATM   28  C   UNL     1      -5.137   0.268 -30.148  1.00  0.00     0.044 A 
HETATM   29  C   UNL     1      -5.890   1.443 -30.176  1.00  0.00     0.033 A 
ENDBRANCH   2  23
BRANCH   1  30
HETATM   30  C   UNL     1      -8.585   2.601 -32.433  1.00  0.00     0.255 C 
HETATM   31  C   UNL     1      -9.431   1.931 -31.346  1.00  0.00     0.049 C 
BRANCH  30  32
HETATM   32  N   UNL     1      -7.795   1.520 -33.201  1.00  0.00    -0.060 N 
HETATM   33  H   UNL     1      -6.808   1.695 -32.978  1.00  0.00     0.280 HD
HETATM   34  C   UNL     1      -8.117   0.128 -32.692  1.00  0.00     0.236 C 
HETATM   35  C   UNL     1      -7.124  -0.863 -33.285  1.00  0.00     0.028 C 
HETATM   36  C   UNL     1      -7.114  -0.813 -34.809  1.00  0.00     0.003 C 
HETATM   37  C   UNL     1      -6.901   0.609 -35.319  1.00  0.00     0.028 C 
HETATM   38  C   UNL     1      -7.914   1.576 -34.713  1.00  0.00     0.236 C 
ENDBRANCH  30  32
ENDBRANCH   1  30
TORSDOF 7
ENDMDL
