MODEL 1
REMARK VINA RESULT:      -9.8      0.000      0.000
REMARK  5 active torsions:
REMARK  status: ('A' for Active; 'I' for Inactive)
REMARK    1  A    between atoms: C_4  and  C_5 
REMARK    2  A    between atoms: C_10  and  C_11 
REMARK    3  A    between atoms: C_11  and  N_12 
REMARK    4  A    between atoms: N_12  and  C_14 
REMARK    5  A    between atoms: N_17  and  C_18 
ROOT
HETATM    1  N   UNL     1      -6.461   0.757 -32.248  1.00  0.00    -0.067 N 
HETATM    2  H   UNL     1      -5.598   1.193 -32.609  1.00  0.00     0.280 HD
HETATM    3  C   UNL     1      -7.055   1.774 -31.322  1.00  0.00     0.270 C 
ENDROOT
BRANCH   1   4
HETATM    4  C   UNL     1      -5.911  -0.429 -31.455  1.00  0.00     0.277 C 
BRANCH   4   5
HETATM    5  C   UNL     1      -4.435  -0.532 -31.481  1.00  0.00     0.016 A 
HETATM    6  C   UNL     1      -3.636  -1.517 -32.049  1.00  0.00     0.069 A 
HETATM    7  N   UNL     1      -2.341  -1.132 -31.785  1.00  0.00    -0.277 N 
HETATM    8  H   UNL     1      -1.479  -1.585 -32.080  1.00  0.00     0.189 HD
HETATM    9  N   UNL     1      -2.257  -0.016 -31.047  1.00  0.00    -0.186 NA
HETATM   10  C   UNL     1      -3.518   0.378 -30.906  1.00  0.00     0.149 A 
BRANCH   6  11
HETATM   11  C   UNL     1      -3.948  -2.712 -32.825  1.00  0.00    -0.007 A 
HETATM   12  C   UNL     1      -4.954  -2.682 -33.802  1.00  0.00     0.020 A 
HETATM   13  C   UNL     1      -5.283  -3.834 -34.530  1.00  0.00    -0.061 A 
HETATM   14  C   UNL     1      -6.374  -3.802 -35.563  1.00  0.00     0.048 C 
HETATM   15  C   UNL     1      -4.565  -5.013 -34.305  1.00  0.00     0.007 A 
HETATM   16  C   UNL     1      -3.564  -5.053 -33.335  1.00  0.00     0.001 A 
HETATM   17  C   UNL     1      -3.265  -3.911 -32.591  1.00  0.00     0.014 A 
ENDBRANCH   6  11
ENDBRANCH   4   5
ENDBRANCH   1   4
BRANCH   1  18
HETATM   18  C   UNL     1      -7.263   0.379 -33.506  1.00  0.00     0.190 C 
HETATM   19  C   UNL     1      -8.507  -0.473 -33.233  1.00  0.00     0.048 C 
HETATM   20  C   UNL     1      -9.790   0.320 -33.023  1.00  0.00     0.099 C 
HETATM   21  N   UNL     1      -9.950   1.269 -34.128  1.00  0.00    -0.268 NA
HETATM   22  C   UNL     1      -8.883   2.275 -34.208  1.00  0.00     0.099 C 
HETATM   23  C   UNL     1      -7.530   1.590 -34.413  1.00  0.00     0.048 C 
BRANCH  21  24
HETATM   24  C   UNL     1     -11.248   1.791 -34.270  1.00  0.00     0.109 A 
HETATM   25  N   UNL     1     -11.416   3.087 -34.592  1.00  0.00    -0.224 NA
HETATM   26  C   UNL     1     -12.679   3.544 -34.782  1.00  0.00     0.102 A 
HETATM   27  C   UNL     1     -12.874   4.977 -35.166  1.00  0.00     0.091 C 
HETATM   28  N   UNL     1     -13.766   2.772 -34.658  1.00  0.00    -0.348 N 
HETATM   29  H   UNL     1     -14.686   3.177 -34.821  1.00  0.00     0.167 HD
HETATM   30  C   UNL     1     -13.635   1.476 -34.337  1.00  0.00     0.009 A 
HETATM   31  C   UNL     1     -14.862   0.632 -34.206  1.00  0.00     0.068 C 
HETATM   32  C   UNL     1     -12.355   0.956 -34.143  1.00  0.00     0.069 A 
ENDBRANCH  21  24
ENDBRANCH   1  18
TORSDOF 5
ENDMDL
MODEL 2
REMARK VINA RESULT:      -9.6      3.779      7.837
REMARK  5 active torsions:
REMARK  status: ('A' for Active; 'I' for Inactive)
REMARK    1  A    between atoms: C_4  and  C_5 
REMARK    2  A    between atoms: C_10  and  C_11 
REMARK    3  A    between atoms: C_11  and  N_12 
REMARK    4  A    between atoms: N_12  and  C_14 
REMARK    5  A    between atoms: N_17  and  C_18 
ROOT
HETATM    1  N   UNL     1      -6.495   1.608 -30.960  1.00  0.00    -0.067 N 
HETATM    2  H   UNL     1      -5.819   1.116 -30.355  1.00  0.00     0.280 HD
HETATM    3  C   UNL     1      -7.172   2.600 -30.064  1.00  0.00     0.270 C 
ENDROOT
BRANCH   1   4
HETATM    4  C   UNL     1      -7.461   0.485 -31.338  1.00  0.00     0.277 C 
BRANCH   4   5
HETATM    5  C   UNL     1      -8.000   0.598 -32.712  1.00  0.00     0.016 A 
HETATM    6  C   UNL     1      -7.621  -0.089 -33.859  1.00  0.00     0.069 A 
HETATM    7  N   UNL     1      -8.436   0.395 -34.858  1.00  0.00    -0.277 N 
HETATM    8  H   UNL     1      -8.479   0.100 -35.831  1.00  0.00     0.189 HD
HETATM    9  N   UNL     1      -9.259   1.370 -34.448  1.00  0.00    -0.186 NA
HETATM   10  C   UNL     1      -9.036   1.459 -33.142  1.00  0.00     0.149 A 
BRANCH   6  11
HETATM   11  C   UNL     1      -6.643  -1.144 -34.098  1.00  0.00    -0.007 A 
HETATM   12  C   UNL     1      -7.042  -2.372 -34.646  1.00  0.00     0.020 A 
HETATM   13  C   UNL     1      -6.114  -3.403 -34.849  1.00  0.00    -0.061 A 
HETATM   14  C   UNL     1      -6.548  -4.723 -35.420  1.00  0.00     0.048 C 
HETATM   15  C   UNL     1      -4.768  -3.182 -34.539  1.00  0.00     0.007 A 
HETATM   16  C   UNL     1      -4.362  -1.966 -33.992  1.00  0.00     0.001 A 
HETATM   17  C   UNL     1      -5.296  -0.955 -33.762  1.00  0.00     0.014 A 
ENDBRANCH   6  11
ENDBRANCH   4   5
ENDBRANCH   1   4
BRANCH   1  18
HETATM   18  C   UNL     1      -5.651   2.156 -32.124  1.00  0.00     0.190 C 
HETATM   19  C   UNL     1      -5.838   3.653 -32.395  1.00  0.00     0.048 C 
HETATM   20  C   UNL     1      -4.862   4.561 -31.659  1.00  0.00     0.099 C 
HETATM   21  N   UNL     1      -3.497   4.081 -31.892  1.00  0.00    -0.268 NA
HETATM   22  C   UNL     1      -3.242   2.734 -31.366  1.00  0.00     0.099 C 
HETATM   23  C   UNL     1      -4.180   1.724 -32.032  1.00  0.00     0.048 C 
BRANCH  21  24
HETATM   24  C   UNL     1      -2.488   5.016 -31.600  1.00  0.00     0.109 A 
HETATM   25  N   UNL     1      -1.250   4.588 -31.289  1.00  0.00    -0.224 NA
HETATM   26  C   UNL     1      -0.285   5.517 -31.073  1.00  0.00     0.102 A 
HETATM   27  C   UNL     1       1.101   5.051 -30.754  1.00  0.00     0.091 C 
HETATM   28  N   UNL     1      -0.505   6.836 -31.145  1.00  0.00    -0.348 N 
HETATM   29  H   UNL     1       0.267   7.480 -30.978  1.00  0.00     0.167 HD
HETATM   30  C   UNL     1      -1.727   7.297 -31.450  1.00  0.00     0.009 A 
HETATM   31  C   UNL     1      -1.949   8.772 -31.528  1.00  0.00     0.068 C 
HETATM   32  C   UNL     1      -2.751   6.380 -31.694  1.00  0.00     0.069 A 
ENDBRANCH  21  24
ENDBRANCH   1  18
TORSDOF 5
ENDMDL
MODEL 3
REMARK VINA RESULT:      -9.1     13.862     15.397
REMARK  5 active torsions:
REMARK  status: ('A' for Active; 'I' for Inactive)
REMARK    1  A    between atoms: C_4  and  C_5 
REMARK    2  A    between atoms: C_10  and  C_11 
REMARK    3  A    between atoms: C_11  and  N_12 
REMARK    4  A    between atoms: N_12  and  C_14 
REMARK    5  A    between atoms: N_17  and  C_18 
ROOT
HETATM    1  N   UNL     1      -4.758 -14.188 -36.338  1.00  0.00    -0.067 N 
HETATM    2  H   UNL     1      -4.887 -13.387 -36.977  1.00  0.00     0.280 HD
HETATM    3  C   UNL     1      -4.226 -13.592 -35.069  1.00  0.00     0.270 C 
ENDROOT
BRANCH   1   4
HETATM    4  C   UNL     1      -3.668 -14.991 -37.048  1.00  0.00     0.277 C 
BRANCH   4   5
HETATM    5  C   UNL     1      -2.703 -14.156 -37.797  1.00  0.00     0.016 A 
HETATM    6  C   UNL     1      -2.888 -13.455 -38.983  1.00  0.00     0.069 A 
HETATM    7  N   UNL     1      -1.678 -12.852 -39.242  1.00  0.00    -0.277 N 
HETATM    8  H   UNL     1      -1.442 -12.222 -40.006  1.00  0.00     0.189 HD
HETATM    9  N   UNL     1      -0.728 -13.160 -38.349  1.00  0.00    -0.186 NA
HETATM   10  C   UNL     1      -1.357 -13.904 -37.446  1.00  0.00     0.149 A 
BRANCH   6  11
HETATM   11  C   UNL     1      -4.053 -13.261 -39.841  1.00  0.00    -0.007 A 
HETATM   12  C   UNL     1      -4.233 -14.056 -40.983  1.00  0.00     0.020 A 
HETATM   13  C   UNL     1      -5.332 -13.856 -41.830  1.00  0.00    -0.061 A 
HETATM   14  C   UNL     1      -5.512 -14.697 -43.062  1.00  0.00     0.048 C 
HETATM   15  C   UNL     1      -6.278 -12.879 -41.503  1.00  0.00     0.007 A 
HETATM   16  C   UNL     1      -6.107 -12.084 -40.372  1.00  0.00     0.001 A 
HETATM   17  C   UNL     1      -4.994 -12.266 -39.550  1.00  0.00     0.014 A 
ENDBRANCH   6  11
ENDBRANCH   4   5
ENDBRANCH   1   4
BRANCH   1  18
HETATM   18  C   UNL     1      -6.135 -14.871 -36.284  1.00  0.00     0.190 C 
HETATM   19  C   UNL     1      -7.306 -13.921 -36.011  1.00  0.00     0.048 C 
HETATM   20  C   UNL     1      -7.972 -13.357 -37.259  1.00  0.00     0.099 C 
HETATM   21  N   UNL     1      -8.302 -14.461 -38.164  1.00  0.00    -0.268 NA
HETATM   22  C   UNL     1      -7.131 -15.199 -38.653  1.00  0.00     0.099 C 
HETATM   23  C   UNL     1      -6.367 -15.811 -37.476  1.00  0.00     0.048 C 
BRANCH  21  24
HETATM   24  C   UNL     1      -9.242 -14.143 -39.160  1.00  0.00     0.109 A 
HETATM   25  N   UNL     1      -9.805 -15.126 -39.886  1.00  0.00    -0.224 NA
HETATM   26  C   UNL     1     -10.753 -14.791 -40.797  1.00  0.00     0.102 A 
HETATM   27  C   UNL     1     -11.404 -15.880 -41.590  1.00  0.00     0.091 C 
HETATM   28  N   UNL     1     -11.150 -13.530 -41.014  1.00  0.00    -0.348 N 
HETATM   29  H   UNL     1     -11.872 -13.348 -41.709  1.00  0.00     0.167 HD
HETATM   30  C   UNL     1     -10.609 -12.526 -40.309  1.00  0.00     0.009 A 
HETATM   31  C   UNL     1     -11.068 -11.127 -40.566  1.00  0.00     0.068 C 
HETATM   32  C   UNL     1      -9.637 -12.822 -39.352  1.00  0.00     0.069 A 
ENDBRANCH  21  24
ENDBRANCH   1  18
TORSDOF 5
ENDMDL
MODEL 4
REMARK VINA RESULT:      -8.8      6.319      9.918
REMARK  5 active torsions:
REMARK  status: ('A' for Active; 'I' for Inactive)
REMARK    1  A    between atoms: C_4  and  C_5 
REMARK    2  A    between atoms: C_10  and  C_11 
REMARK    3  A    between atoms: C_11  and  N_12 
REMARK    4  A    between atoms: N_12  and  C_14 
REMARK    5  A    between atoms: N_17  and  C_18 
ROOT
HETATM    1  N   UNL     1      -2.640   5.252 -33.501  1.00  0.00    -0.067 N 
HETATM    2  H   UNL     1      -3.354   5.726 -32.925  1.00  0.00     0.280 HD
HETATM    3  C   UNL     1      -3.126   5.385 -34.913  1.00  0.00     0.270 C 
ENDROOT
BRANCH   1   4
HETATM    4  C   UNL     1      -2.760   3.803 -33.030  1.00  0.00     0.277 C 
BRANCH   4   5
HETATM    5  C   UNL     1      -3.843   3.582 -32.046  1.00  0.00     0.016 A 
HETATM    6  C   UNL     1      -4.652   2.466 -31.870  1.00  0.00     0.069 A 
HETATM    7  N   UNL     1      -5.489   2.784 -30.826  1.00  0.00    -0.277 N 
HETATM    8  H   UNL     1      -6.194   2.197 -30.385  1.00  0.00     0.189 HD
HETATM    9  N   UNL     1      -5.315   4.030 -30.364  1.00  0.00    -0.186 NA
HETATM   10  C   UNL     1      -4.286   4.497 -31.063  1.00  0.00     0.149 A 
BRANCH   6  11
HETATM   11  C   UNL     1      -4.688   1.163 -32.526  1.00  0.00    -0.007 A 
HETATM   12  C   UNL     1      -5.757   0.821 -33.366  1.00  0.00     0.020 A 
HETATM   13  C   UNL     1      -5.816  -0.441 -33.975  1.00  0.00    -0.061 A 
HETATM   14  C   UNL     1      -6.972  -0.811 -34.861  1.00  0.00     0.048 C 
HETATM   15  C   UNL     1      -4.770  -1.347 -33.772  1.00  0.00     0.007 A 
HETATM   16  C   UNL     1      -3.704  -1.017 -32.938  1.00  0.00     0.001 A 
HETATM   17  C   UNL     1      -3.668   0.229 -32.309  1.00  0.00     0.014 A 
ENDBRANCH   6  11
ENDBRANCH   4   5
ENDBRANCH   1   4
BRANCH   1  18
HETATM   18  C   UNL     1      -1.317   5.946 -33.133  1.00  0.00     0.190 C 
HETATM   19  C   UNL     1      -1.425   7.463 -32.948  1.00  0.00     0.048 C 
HETATM   20  C   UNL     1      -1.706   7.912 -31.520  1.00  0.00     0.099 C 
HETATM   21  N   UNL     1      -0.744   7.271 -30.620  1.00  0.00    -0.268 NA
HETATM   22  C   UNL     1      -0.842   5.806 -30.590  1.00  0.00     0.099 C 
HETATM   23  C   UNL     1      -0.584   5.234 -31.986  1.00  0.00     0.048 C 
BRANCH  21  24
HETATM   24  C   UNL     1      -0.637   7.869 -29.352  1.00  0.00     0.109 A 
HETATM   25  N   UNL     1      -1.725   8.410 -28.774  1.00  0.00    -0.224 NA
HETATM   26  C   UNL     1      -1.601   8.923 -27.524  1.00  0.00     0.102 A 
HETATM   27  C   UNL     1      -2.812   9.502 -26.862  1.00  0.00     0.091 C 
HETATM   28  N   UNL     1      -0.449   8.925 -26.842  1.00  0.00    -0.348 N 
HETATM   29  H   UNL     1      -0.426   9.322 -25.903  1.00  0.00     0.167 HD
HETATM   30  C   UNL     1       0.655   8.396 -27.388  1.00  0.00     0.009 A 
HETATM   31  C   UNL     1       1.930   8.407 -26.608  1.00  0.00     0.068 C 
HETATM   32  C   UNL     1       0.575   7.845 -28.668  1.00  0.00     0.069 A 
ENDBRANCH  21  24
ENDBRANCH   1  18
TORSDOF 5
ENDMDL
MODEL 5
REMARK VINA RESULT:      -8.8      5.116      9.253
REMARK  5 active torsions:
REMARK  status: ('A' for Active; 'I' for Inactive)
REMARK    1  A    between atoms: C_4  and  C_5 
REMARK    2  A    between atoms: C_10  and  C_11 
REMARK    3  A    between atoms: C_11  and  N_12 
REMARK    4  A    between atoms: N_12  and  C_14 
REMARK    5  A    between atoms: N_17  and  C_18 
ROOT
HETATM    1  N   UNL     1      -4.736   4.775 -32.497  1.00  0.00    -0.067 N 
HETATM    2  H   UNL     1      -4.087   4.392 -33.203  1.00  0.00     0.280 HD
HETATM    3  C   UNL     1      -5.914   5.274 -33.277  1.00  0.00     0.270 C 
ENDROOT
BRANCH   1   4
HETATM    4  C   UNL     1      -3.935   5.948 -31.931  1.00  0.00     0.277 C 
BRANCH   4   5
HETATM    5  C   UNL     1      -2.708   6.258 -32.698  1.00  0.00     0.016 A 
HETATM    6  C   UNL     1      -1.430   6.540 -32.227  1.00  0.00     0.069 A 
HETATM    7  N   UNL     1      -0.668   6.756 -33.353  1.00  0.00    -0.277 N 
HETATM    8  H   UNL     1       0.329   6.949 -33.407  1.00  0.00     0.189 HD
HETATM    9  N   UNL     1      -1.371   6.691 -34.492  1.00  0.00    -0.186 NA
HETATM   10  C   UNL     1      -2.591   6.339 -34.104  1.00  0.00     0.149 A 
BRANCH   6  11
HETATM   11  C   UNL     1      -0.862   6.579 -30.884  1.00  0.00    -0.007 A 
HETATM   12  C   UNL     1      -1.044   7.705 -30.068  1.00  0.00     0.020 A 
HETATM   13  C   UNL     1      -0.475   7.765 -28.789  1.00  0.00    -0.061 A 
HETATM   14  C   UNL     1      -0.657   8.980 -27.925  1.00  0.00     0.048 C 
HETATM   15  C   UNL     1       0.247   6.666 -28.310  1.00  0.00     0.007 A 
HETATM   16  C   UNL     1       0.435   5.543 -29.114  1.00  0.00     0.001 A 
HETATM   17  C   UNL     1      -0.108   5.504 -30.399  1.00  0.00     0.014 A 
ENDBRANCH   6  11
ENDBRANCH   4   5
ENDBRANCH   1   4
BRANCH   1  18
HETATM   18  C   UNL     1      -4.969   3.615 -31.512  1.00  0.00     0.190 C 
HETATM   19  C   UNL     1      -6.143   2.700 -31.876  1.00  0.00     0.048 C 
HETATM   20  C   UNL     1      -5.772   1.497 -32.733  1.00  0.00     0.099 C 
HETATM   21  N   UNL     1      -4.644   0.798 -32.110  1.00  0.00    -0.268 NA
HETATM   22  C   UNL     1      -3.419   1.603 -32.024  1.00  0.00     0.099 C 
HETATM   23  C   UNL     1      -3.673   2.858 -31.185  1.00  0.00     0.048 C 
BRANCH  21  24
HETATM   24  C   UNL     1      -4.441  -0.516 -32.569  1.00  0.00     0.109 A 
HETATM   25  N   UNL     1      -3.616  -1.339 -31.897  1.00  0.00    -0.224 NA
HETATM   26  C   UNL     1      -3.490  -2.618 -32.331  1.00  0.00     0.102 A 
HETATM   27  C   UNL     1      -2.596  -3.549 -31.574  1.00  0.00     0.091 C 
HETATM   28  N   UNL     1      -4.140  -3.099 -33.399  1.00  0.00    -0.348 N 
HETATM   29  H   UNL     1      -4.005  -4.072 -33.668  1.00  0.00     0.167 HD
HETATM   30  C   UNL     1      -4.968  -2.305 -34.093  1.00  0.00     0.009 A 
HETATM   31  C   UNL     1      -5.685  -2.863 -35.281  1.00  0.00     0.068 C 
HETATM   32  C   UNL     1      -5.141  -0.983 -33.678  1.00  0.00     0.069 A 
ENDBRANCH  21  24
ENDBRANCH   1  18
TORSDOF 5
ENDMDL
MODEL 6
REMARK VINA RESULT:      -8.8      5.113      9.205
REMARK  5 active torsions:
REMARK  status: ('A' for Active; 'I' for Inactive)
REMARK    1  A    between atoms: C_4  and  C_5 
REMARK    2  A    between atoms: C_10  and  C_11 
REMARK    3  A    between atoms: C_11  and  N_12 
REMARK    4  A    between atoms: N_12  and  C_14 
REMARK    5  A    between atoms: N_17  and  C_18 
ROOT
HETATM    1  N   UNL     1      -4.606   4.761 -32.509  1.00  0.00    -0.067 N 
HETATM    2  H   UNL     1      -3.955   4.289 -33.156  1.00  0.00     0.280 HD
HETATM    3  C   UNL     1      -5.529   5.549 -33.388  1.00  0.00     0.270 C 
ENDROOT
BRANCH   1   4
HETATM    4  C   UNL     1      -3.671   5.697 -31.743  1.00  0.00     0.277 C 
BRANCH   4   5
HETATM    5  C   UNL     1      -2.539   6.204 -32.551  1.00  0.00     0.016 A 
HETATM    6  C   UNL     1      -1.240   6.494 -32.152  1.00  0.00     0.069 A 
HETATM    7  N   UNL     1      -0.600   6.933 -33.289  1.00  0.00    -0.277 N 
HETATM    8  H   UNL     1       0.376   7.199 -33.396  1.00  0.00     0.189 HD
HETATM    9  N   UNL     1      -1.403   6.998 -34.360  1.00  0.00    -0.186 NA
HETATM   10  C   UNL     1      -2.561   6.508 -33.931  1.00  0.00     0.149 A 
BRANCH   6  11
HETATM   11  C   UNL     1      -0.550   6.364 -30.873  1.00  0.00    -0.007 A 
HETATM   12  C   UNL     1      -0.436   7.465 -30.012  1.00  0.00     0.020 A 
HETATM   13  C   UNL     1       0.253   7.357 -28.796  1.00  0.00    -0.061 A 
HETATM   14  C   UNL     1       0.389   8.543 -27.884  1.00  0.00     0.048 C 
HETATM   15  C   UNL     1       0.792   6.121 -28.423  1.00  0.00     0.007 A 
HETATM   16  C   UNL     1       0.685   5.021 -29.272  1.00  0.00     0.001 A 
HETATM   17  C   UNL     1       0.027   5.145 -30.496  1.00  0.00     0.014 A 
ENDBRANCH   6  11
ENDBRANCH   4   5
ENDBRANCH   1   4
BRANCH   1  18
HETATM   18  C   UNL     1      -5.215   3.624 -31.669  1.00  0.00     0.190 C 
HETATM   19  C   UNL     1      -6.269   2.788 -32.402  1.00  0.00     0.048 C 
HETATM   20  C   UNL     1      -5.723   1.558 -33.117  1.00  0.00     0.099 C 
HETATM   21  N   UNL     1      -4.900   0.789 -32.180  1.00  0.00    -0.268 NA
HETATM   22  C   UNL     1      -3.716   1.510 -31.696  1.00  0.00     0.099 C 
HETATM   23  C   UNL     1      -4.142   2.783 -30.961  1.00  0.00     0.048 C 
BRANCH  21  24
HETATM   24  C   UNL     1      -4.647  -0.538 -32.574  1.00  0.00     0.109 A 
HETATM   25  N   UNL     1      -5.240  -1.033 -33.676  1.00  0.00    -0.224 NA
HETATM   26  C   UNL     1      -4.927  -2.295 -34.062  1.00  0.00     0.102 A 
HETATM   27  C   UNL     1      -5.561  -2.845 -35.301  1.00  0.00     0.091 C 
HETATM   28  N   UNL     1      -4.064  -3.074 -33.398  1.00  0.00    -0.348 N 
HETATM   29  H   UNL     1      -3.868  -4.011 -33.746  1.00  0.00     0.167 HD
HETATM   30  C   UNL     1      -3.456  -2.613 -32.295  1.00  0.00     0.009 A 
HETATM   31  C   UNL     1      -2.494  -3.498 -31.571  1.00  0.00     0.068 C 
HETATM   32  C   UNL     1      -3.736  -1.315 -31.864  1.00  0.00     0.069 A 
ENDBRANCH  21  24
ENDBRANCH   1  18
TORSDOF 5
ENDMDL
MODEL 7
REMARK VINA RESULT:      -8.6      1.726      2.292
REMARK  5 active torsions:
REMARK  status: ('A' for Active; 'I' for Inactive)
REMARK    1  A    between atoms: C_4  and  C_5 
REMARK    2  A    between atoms: C_10  and  C_11 
REMARK    3  A    between atoms: C_11  and  N_12 
REMARK    4  A    between atoms: N_12  and  C_14 
REMARK    5  A    between atoms: N_17  and  C_18 
ROOT
HETATM    1  N   UNL     1      -6.961   2.711 -31.959  1.00  0.00    -0.067 N 
HETATM    2  H   UNL     1      -6.055   3.162 -32.163  1.00  0.00     0.280 HD
HETATM    3  C   UNL     1      -7.412   3.308 -30.661  1.00  0.00     0.270 C 
ENDROOT
BRANCH   1   4
HETATM    4  C   UNL     1      -6.553   1.251 -31.762  1.00  0.00     0.277 C 
BRANCH   4   5
HETATM    5  C   UNL     1      -5.090   1.030 -31.797  1.00  0.00     0.016 A 
HETATM    6  C   UNL     1      -4.376  -0.009 -32.384  1.00  0.00     0.069 A 
HETATM    7  N   UNL     1      -3.053   0.266 -32.122  1.00  0.00    -0.277 N 
HETATM    8  H   UNL     1      -2.233  -0.251 -32.429  1.00  0.00     0.189 HD
HETATM    9  N   UNL     1      -2.876   1.361 -31.370  1.00  0.00    -0.186 NA
HETATM   10  C   UNL     1      -4.100   1.854 -31.216  1.00  0.00     0.149 A 
BRANCH   6  11
HETATM   11  C   UNL     1      -4.789  -1.163 -33.175  1.00  0.00    -0.007 A 
HETATM   12  C   UNL     1      -4.030  -2.343 -33.158  1.00  0.00     0.020 A 
HETATM   13  C   UNL     1      -4.401  -3.446 -33.939  1.00  0.00    -0.061 A 
HETATM   14  C   UNL     1      -3.577  -4.702 -33.932  1.00  0.00     0.048 C 
HETATM   15  C   UNL     1      -5.567  -3.377 -34.710  1.00  0.00     0.007 A 
HETATM   16  C   UNL     1      -6.326  -2.209 -34.735  1.00  0.00     0.001 A 
HETATM   17  C   UNL     1      -5.933  -1.103 -33.980  1.00  0.00     0.014 A 
ENDBRANCH   6  11
ENDBRANCH   4   5
ENDBRANCH   1   4
BRANCH   1  18
HETATM   18  C   UNL     1      -7.821   2.980 -33.207  1.00  0.00     0.190 C 
HETATM   19  C   UNL     1      -8.591   1.760 -33.723  1.00  0.00     0.048 C 
HETATM   20  C   UNL     1      -9.998   1.608 -33.159  1.00  0.00     0.099 C 
HETATM   21  N   UNL     1     -10.715   2.876 -33.321  1.00  0.00    -0.268 NA
HETATM   22  C   UNL     1     -10.121   3.995 -32.579  1.00  0.00     0.099 C 
HETATM   23  C   UNL     1      -8.687   4.240 -33.057  1.00  0.00     0.048 C 
BRANCH  21  24
HETATM   24  C   UNL     1     -12.113   2.779 -33.199  1.00  0.00     0.109 A 
HETATM   25  N   UNL     1     -12.795   3.740 -32.549  1.00  0.00    -0.224 NA
HETATM   26  C   UNL     1     -14.148   3.648 -32.503  1.00  0.00     0.102 A 
HETATM   27  C   UNL     1     -14.917   4.726 -31.806  1.00  0.00     0.091 C 
HETATM   28  N   UNL     1     -14.836   2.646 -33.064  1.00  0.00    -0.348 N 
HETATM   29  H   UNL     1     -15.853   2.641 -32.998  1.00  0.00     0.167 HD
HETATM   30  C   UNL     1     -14.188   1.671 -33.718  1.00  0.00     0.009 A 
HETATM   31  C   UNL     1     -14.976   0.563 -34.339  1.00  0.00     0.068 C 
HETATM   32  C   UNL     1     -12.796   1.727 -33.803  1.00  0.00     0.069 A 
ENDBRANCH  21  24
ENDBRANCH   1  18
TORSDOF 5
ENDMDL
MODEL 8
REMARK VINA RESULT:      -8.6      4.110      8.237
REMARK  5 active torsions:
REMARK  status: ('A' for Active; 'I' for Inactive)
REMARK    1  A    between atoms: C_4  and  C_5 
REMARK    2  A    between atoms: C_10  and  C_11 
REMARK    3  A    between atoms: C_11  and  N_12 
REMARK    4  A    between atoms: N_12  and  C_14 
REMARK    5  A    between atoms: N_17  and  C_18 
ROOT
HETATM    1  N   UNL     1      -7.468   3.404 -33.132  1.00  0.00    -0.067 N 
HETATM    2  H   UNL     1      -7.502   2.597 -32.489  1.00  0.00     0.280 HD
HETATM    3  C   UNL     1      -7.838   4.589 -32.292  1.00  0.00     0.270 C 
ENDROOT
BRANCH   1   4
HETATM    4  C   UNL     1      -8.592   3.075 -34.115  1.00  0.00     0.277 C 
BRANCH   4   5
HETATM    5  C   UNL     1      -9.479   1.980 -33.664  1.00  0.00     0.016 A 
HETATM    6  C   UNL     1      -9.143   0.775 -33.058  1.00  0.00     0.069 A 
HETATM    7  N   UNL     1     -10.340   0.127 -32.850  1.00  0.00    -0.277 N 
HETATM    8  H   UNL     1     -10.497  -0.767 -32.391  1.00  0.00     0.189 HD
HETATM    9  N   UNL     1     -11.398   0.798 -33.326  1.00  0.00    -0.186 NA
HETATM   10  C   UNL     1     -10.888   1.941 -33.770  1.00  0.00     0.149 A 
BRANCH   6  11
HETATM   11  C   UNL     1      -7.868   0.211 -32.629  1.00  0.00    -0.007 A 
HETATM   12  C   UNL     1      -7.067  -0.502 -33.533  1.00  0.00     0.020 A 
HETATM   13  C   UNL     1      -5.856  -1.076 -33.121  1.00  0.00    -0.061 A 
HETATM   14  C   UNL     1      -5.009  -1.854 -34.087  1.00  0.00     0.048 C 
HETATM   15  C   UNL     1      -5.427  -0.893 -31.802  1.00  0.00     0.007 A 
HETATM   16  C   UNL     1      -6.217  -0.188 -30.896  1.00  0.00     0.001 A 
HETATM   17  C   UNL     1      -7.437   0.352 -31.304  1.00  0.00     0.014 A 
ENDBRANCH   6  11
ENDBRANCH   4   5
ENDBRANCH   1   4
BRANCH   1  18
HETATM   18  C   UNL     1      -6.052   3.367 -33.731  1.00  0.00     0.190 C 
HETATM   19  C   UNL     1      -5.583   4.693 -34.339  1.00  0.00     0.048 C 
HETATM   20  C   UNL     1      -4.825   5.601 -33.379  1.00  0.00     0.099 C 
HETATM   21  N   UNL     1      -3.756   4.831 -32.739  1.00  0.00    -0.268 NA
HETATM   22  C   UNL     1      -4.238   3.715 -31.914  1.00  0.00     0.099 C 
HETATM   23  C   UNL     1      -5.031   2.730 -32.776  1.00  0.00     0.048 C 
BRANCH  21  24
HETATM   24  C   UNL     1      -2.755   5.609 -32.129  1.00  0.00     0.109 A 
HETATM   25  N   UNL     1      -2.974   6.917 -31.898  1.00  0.00    -0.224 NA
HETATM   26  C   UNL     1      -2.013   7.625 -31.253  1.00  0.00     0.102 A 
HETATM   27  C   UNL     1      -2.257   9.073 -30.968  1.00  0.00     0.091 C 
HETATM   28  N   UNL     1      -0.856   7.089 -30.843  1.00  0.00    -0.348 N 
HETATM   29  H   UNL     1      -0.179   7.676 -30.358  1.00  0.00     0.167 HD
HETATM   30  C   UNL     1      -0.605   5.789 -31.059  1.00  0.00     0.009 A 
HETATM   31  C   UNL     1       0.691   5.211 -30.590  1.00  0.00     0.068 C 
HETATM   32  C   UNL     1      -1.569   5.016 -31.708  1.00  0.00     0.069 A 
ENDBRANCH  21  24
ENDBRANCH   1  18
TORSDOF 5
ENDMDL
MODEL 9
REMARK VINA RESULT:      -8.5      5.606      8.852
REMARK  5 active torsions:
REMARK  status: ('A' for Active; 'I' for Inactive)
REMARK    1  A    between atoms: C_4  and  C_5 
REMARK    2  A    between atoms: C_10  and  C_11 
REMARK    3  A    between atoms: C_11  and  N_12 
REMARK    4  A    between atoms: N_12  and  C_14 
REMARK    5  A    between atoms: N_17  and  C_18 
ROOT
HETATM    1  N   UNL     1      -1.945   4.482 -32.892  1.00  0.00    -0.067 N 
HETATM    2  H   UNL     1      -1.494   3.555 -32.933  1.00  0.00     0.280 HD
HETATM    3  C   UNL     1      -2.123   4.894 -34.322  1.00  0.00     0.270 C 
ENDROOT
BRANCH   1   4
HETATM    4  C   UNL     1      -0.865   5.333 -32.223  1.00  0.00     0.277 C 
BRANCH   4   5
HETATM    5  C   UNL     1      -1.271   6.737 -31.987  1.00  0.00     0.016 A 
HETATM    6  C   UNL     1      -1.292   7.453 -30.797  1.00  0.00     0.069 A 
HETATM    7  N   UNL     1      -1.751   8.706 -31.134  1.00  0.00    -0.277 N 
HETATM    8  H   UNL     1      -1.863   9.517 -30.531  1.00  0.00     0.189 HD
HETATM    9  N   UNL     1      -2.076   8.823 -32.430  1.00  0.00    -0.186 NA
HETATM   10  C   UNL     1      -1.738   7.652 -32.958  1.00  0.00     0.149 A 
BRANCH   6  11
HETATM   11  C   UNL     1      -0.897   7.112 -29.434  1.00  0.00    -0.007 A 
HETATM   12  C   UNL     1      -1.838   7.134 -28.395  1.00  0.00     0.020 A 
HETATM   13  C   UNL     1      -1.461   6.838 -27.078  1.00  0.00    -0.061 A 
HETATM   14  C   UNL     1      -2.468   6.880 -25.964  1.00  0.00     0.048 C 
HETATM   15  C   UNL     1      -0.136   6.475 -26.812  1.00  0.00     0.007 A 
HETATM   16  C   UNL     1       0.807   6.452 -27.837  1.00  0.00     0.001 A 
HETATM   17  C   UNL     1       0.431   6.779 -29.141  1.00  0.00     0.014 A 
ENDBRANCH   6  11
ENDBRANCH   4   5
ENDBRANCH   1   4
BRANCH   1  18
HETATM   18  C   UNL     1      -3.212   4.263 -32.048  1.00  0.00     0.190 C 
HETATM   19  C   UNL     1      -4.526   4.520 -32.795  1.00  0.00     0.048 C 
HETATM   20  C   UNL     1      -5.127   3.293 -33.466  1.00  0.00     0.099 C 
HETATM   21  N   UNL     1      -5.203   2.204 -32.489  1.00  0.00    -0.268 NA
HETATM   22  C   UNL     1      -3.896   1.765 -31.984  1.00  0.00     0.099 C 
HETATM   23  C   UNL     1      -3.184   2.928 -31.289  1.00  0.00     0.048 C 
BRANCH  21  24
HETATM   24  C   UNL     1      -6.067   1.153 -32.846  1.00  0.00     0.109 A 
HETATM   25  N   UNL     1      -7.374   1.228 -32.537  1.00  0.00    -0.224 NA
HETATM   26  C   UNL     1      -8.191   0.226 -32.951  1.00  0.00     0.102 A 
HETATM   27  C   UNL     1      -9.651   0.314 -32.636  1.00  0.00     0.091 C 
HETATM   28  N   UNL     1      -7.759  -0.836 -33.643  1.00  0.00    -0.348 N 
HETATM   29  H   UNL     1      -8.427  -1.550 -33.929  1.00  0.00     0.167 HD
HETATM   30  C   UNL     1      -6.462  -0.943 -33.966  1.00  0.00     0.009 A 
HETATM   31  C   UNL     1      -6.002  -2.135 -34.741  1.00  0.00     0.068 C 
HETATM   32  C   UNL     1      -5.584   0.069 -33.573  1.00  0.00     0.069 A 
ENDBRANCH  21  24
ENDBRANCH   1  18
TORSDOF 5
ENDMDL
MODEL 10
REMARK VINA RESULT:      -8.5      3.098      7.815
REMARK  5 active torsions:
REMARK  status: ('A' for Active; 'I' for Inactive)
REMARK    1  A    between atoms: C_4  and  C_5 
REMARK    2  A    between atoms: C_10  and  C_11 
REMARK    3  A    between atoms: C_11  and  N_12 
REMARK    4  A    between atoms: N_12  and  C_14 
REMARK    5  A    between atoms: N_17  and  C_18 
ROOT
HETATM    1  N   UNL     1     -10.526   4.167 -32.572  1.00  0.00    -0.067 N 
HETATM    2  H   UNL     1     -10.062   3.334 -32.177  1.00  0.00     0.280 HD
HETATM    3  C   UNL     1     -11.554   4.561 -31.555  1.00  0.00     0.270 C 
ENDROOT
BRANCH   1   4
HETATM    4  C   UNL     1     -11.202   3.594 -33.818  1.00  0.00     0.277 C 
BRANCH   4   5
HETATM    5  C   UNL     1     -11.720   2.220 -33.639  1.00  0.00     0.016 A 
HETATM    6  C   UNL     1     -11.016   1.028 -33.518  1.00  0.00     0.069 A 
HETATM    7  N   UNL     1     -11.975   0.051 -33.375  1.00  0.00    -0.277 N 
HETATM    8  H   UNL     1     -11.838  -0.945 -33.221  1.00  0.00     0.189 HD
HETATM    9  N   UNL     1     -13.228   0.521 -33.454  1.00  0.00    -0.186 NA
HETATM   10  C   UNL     1     -13.078   1.836 -33.561  1.00  0.00     0.149 A 
BRANCH   6  11
HETATM   11  C   UNL     1      -9.588   0.727 -33.476  1.00  0.00    -0.007 A 
HETATM   12  C   UNL     1      -8.942   0.522 -32.249  1.00  0.00     0.020 A 
HETATM   13  C   UNL     1      -7.564   0.264 -32.198  1.00  0.00    -0.061 A 
HETATM   14  C   UNL     1      -6.871   0.062 -30.880  1.00  0.00     0.048 C 
HETATM   15  C   UNL     1      -6.842   0.169 -33.392  1.00  0.00     0.007 A 
HETATM   16  C   UNL     1      -7.475   0.374 -34.616  1.00  0.00     0.001 A 
HETATM   17  C   UNL     1      -8.840   0.662 -34.658  1.00  0.00     0.014 A 
ENDBRANCH   6  11
ENDBRANCH   4   5
ENDBRANCH   1   4
BRANCH   1  18
HETATM   18  C   UNL     1      -9.382   5.156 -32.852  1.00  0.00     0.190 C 
HETATM   19  C   UNL     1      -8.671   5.677 -31.598  1.00  0.00     0.048 C 
HETATM   20  C   UNL     1      -7.457   4.864 -31.169  1.00  0.00     0.099 C 
HETATM   21  N   UNL     1      -6.572   4.684 -32.322  1.00  0.00    -0.268 NA
HETATM   22  C   UNL     1      -7.175   3.924 -33.424  1.00  0.00     0.099 C 
HETATM   23  C   UNL     1      -8.423   4.646 -33.938  1.00  0.00     0.048 C 
BRANCH  21  24
HETATM   24  C   UNL     1      -5.260   4.292 -32.000  1.00  0.00     0.109 A 
HETATM   25  N   UNL     1      -4.318   5.227 -31.778  1.00  0.00    -0.224 NA
HETATM   26  C   UNL     1      -3.079   4.816 -31.409  1.00  0.00     0.102 A 
HETATM   27  C   UNL     1      -2.032   5.849 -31.133  1.00  0.00     0.091 C 
HETATM   28  N   UNL     1      -2.745   3.528 -31.262  1.00  0.00    -0.348 N 
HETATM   29  H   UNL     1      -1.797   3.288 -30.976  1.00  0.00     0.167 HD
HETATM   30  C   UNL     1      -3.659   2.570 -31.477  1.00  0.00     0.009 A 
HETATM   31  C   UNL     1      -3.266   1.138 -31.306  1.00  0.00     0.068 C 
HETATM   32  C   UNL     1      -4.952   2.943 -31.847  1.00  0.00     0.069 A 
ENDBRANCH  21  24
ENDBRANCH   1  18
TORSDOF 5
ENDMDL
