MODEL 1
REMARK VINA RESULT:      -7.8      0.000      0.000
REMARK  3 active torsions:
REMARK  status: ('A' for Active; 'I' for Inactive)
REMARK    1  A    between atoms: C_2  and  C_3 
REMARK    2  A    between atoms: C_9  and  C_10 
REMARK    3  A    between atoms: C_20  and  N_21 
ROOT
HETATM    1  C   UNL     1      -4.720  -1.969 -33.537  1.00  0.00     0.043 A 
HETATM    2  N   UNL     1      -3.834  -2.728 -32.802  1.00  0.00    -0.279 N 
HETATM    3  H   UNL     1      -3.663  -3.727 -32.868  1.00  0.00     0.189 HD
HETATM    4  N   UNL     1      -3.118  -2.019 -31.908  1.00  0.00    -0.148 NA
HETATM    5  C   UNL     1      -3.568  -0.786 -32.095  1.00  0.00     0.199 A 
HETATM    6  C   UNL     1      -4.576  -0.680 -33.057  1.00  0.00     0.035 A 
HETATM    7  C   UNL     1      -5.187   0.642 -33.373  1.00  0.00     0.107 A 
HETATM    8  C   UNL     1      -4.502   1.759 -32.588  1.00  0.00     0.081 A 
HETATM    9  C   UNL     1      -4.921   3.091 -32.879  1.00  0.00     0.100 C 
HETATM   10  N   UNL     1      -5.273   4.175 -33.099  1.00  0.00    -0.191 NA
HETATM   11  C   UNL     1      -3.517   1.529 -31.680  1.00  0.00     0.140 A 
HETATM   12  O   UNL     1      -3.057   0.237 -31.388  1.00  0.00    -0.277 OA
ENDROOT
BRANCH   7  13
HETATM   13  C   UNL     1      -6.673   0.513 -33.040  1.00  0.00    -0.022 A 
HETATM   14  C   UNL     1      -7.659   0.442 -34.042  1.00  0.00     0.041 A 
HETATM   15 CL   UNL     1      -7.274   0.472 -35.726  1.00  0.00    -0.084 Cl
HETATM   16  C   UNL     1      -9.016   0.349 -33.707  1.00  0.00     0.024 A 
HETATM   17  C   UNL     1      -9.415   0.332 -32.373  1.00  0.00     0.002 A 
HETATM   18  C   UNL     1      -8.460   0.412 -31.367  1.00  0.00     0.001 A 
HETATM   19  C   UNL     1      -7.106   0.506 -31.693  1.00  0.00     0.010 A 
ENDBRANCH   7  13
BRANCH  11  20
HETATM   20  N   UNL     1      -2.867   2.500 -30.950  1.00  0.00    -0.282 NA
HETATM   21  H   UNL     1      -2.234   3.102 -31.470  1.00  0.00     0.126 HD
HETATM   22  H   UNL     1      -3.503   3.012 -30.341  1.00  0.00     0.126 HD
ENDBRANCH  11  20
BRANCH   1  23
HETATM   23  C   UNL     1      -5.600  -2.553 -34.601  1.00  0.00     0.029 C 
HETATM   24  C   UNL     1      -7.008  -2.820 -34.072  1.00  0.00     0.016 C 
HETATM   25  C   UNL     1      -4.988  -3.821 -35.197  1.00  0.00     0.016 C 
ENDBRANCH   1  23
TORSDOF 3
ENDMDL
MODEL 2
REMARK VINA RESULT:      -7.7     13.956     15.619
REMARK  3 active torsions:
REMARK  status: ('A' for Active; 'I' for Inactive)
REMARK    1  A    between atoms: C_2  and  C_3 
REMARK    2  A    between atoms: C_9  and  C_10 
REMARK    3  A    between atoms: C_20  and  N_21 
ROOT
HETATM    1  C   UNL     1      -6.016 -13.531 -36.970  1.00  0.00     0.043 A 
HETATM    2  N   UNL     1      -5.012 -12.698 -36.522  1.00  0.00    -0.279 N 
HETATM    3  H   UNL     1      -4.874 -12.337 -35.583  1.00  0.00     0.189 HD
HETATM    4  N   UNL     1      -4.122 -12.355 -37.473  1.00  0.00    -0.148 NA
HETATM    5  C   UNL     1      -4.581 -12.994 -38.540  1.00  0.00     0.199 A 
HETATM    6  C   UNL     1      -5.759 -13.712 -38.318  1.00  0.00     0.035 A 
HETATM    7  C   UNL     1      -6.401 -14.476 -39.425  1.00  0.00     0.107 A 
HETATM    8  C   UNL     1      -5.556 -14.407 -40.695  1.00  0.00     0.081 A 
HETATM    9  C   UNL     1      -6.005 -15.186 -41.801  1.00  0.00     0.100 C 
HETATM   10  N   UNL     1      -6.377 -15.805 -42.710  1.00  0.00    -0.191 NA
HETATM   11  C   UNL     1      -4.413 -13.676 -40.784  1.00  0.00     0.140 A 
HETATM   12  O   UNL     1      -3.924 -12.920 -39.710  1.00  0.00    -0.277 OA
ENDROOT
BRANCH   7  13
HETATM   13  C   UNL     1      -7.792 -13.871 -39.607  1.00  0.00    -0.022 A 
HETATM   14  C   UNL     1      -8.966 -14.609 -39.364  1.00  0.00     0.041 A 
HETATM   15 CL   UNL     1      -8.934 -16.249 -38.820  1.00  0.00    -0.084 Cl
HETATM   16  C   UNL     1     -10.228 -14.036 -39.564  1.00  0.00     0.024 A 
HETATM   17  C   UNL     1     -10.345 -12.724 -40.015  1.00  0.00     0.002 A 
HETATM   18  C   UNL     1      -9.200 -11.979 -40.271  1.00  0.00     0.001 A 
HETATM   19  C   UNL     1      -7.939 -12.544 -40.076  1.00  0.00     0.010 A 
ENDBRANCH   7  13
BRANCH  11  20
HETATM   20  N   UNL     1      -3.616 -13.583 -41.904  1.00  0.00    -0.282 NA
HETATM   21  H   UNL     1      -4.033 -13.895 -42.777  1.00  0.00     0.126 HD
HETATM   22  H   UNL     1      -3.160 -12.675 -41.975  1.00  0.00     0.126 HD
ENDBRANCH  11  20
BRANCH   1  23
HETATM   23  C   UNL     1      -7.099 -14.052 -36.075  1.00  0.00     0.029 C 
HETATM   24  C   UNL     1      -7.116 -13.314 -34.737  1.00  0.00     0.016 C 
HETATM   25  C   UNL     1      -6.972 -15.561 -35.867  1.00  0.00     0.016 C 
ENDBRANCH   1  23
TORSDOF 3
ENDMDL
MODEL 3
REMARK VINA RESULT:      -7.5      2.760      5.271
REMARK  3 active torsions:
REMARK  status: ('A' for Active; 'I' for Inactive)
REMARK    1  A    between atoms: C_2  and  C_3 
REMARK    2  A    between atoms: C_9  and  C_10 
REMARK    3  A    between atoms: C_20  and  N_21 
ROOT
HETATM    1  C   UNL     1      -8.987   3.437 -33.056  1.00  0.00     0.043 A 
HETATM    2  N   UNL     1      -9.444   4.531 -33.760  1.00  0.00    -0.279 N 
HETATM    3  H   UNL     1     -10.406   4.821 -33.908  1.00  0.00     0.189 HD
HETATM    4  N   UNL     1      -8.464   5.287 -34.291  1.00  0.00    -0.148 NA
HETATM    5  C   UNL     1      -7.368   4.649 -33.903  1.00  0.00     0.199 A 
HETATM    6  C   UNL     1      -7.609   3.486 -33.167  1.00  0.00     0.035 A 
HETATM    7  C   UNL     1      -6.476   2.656 -32.668  1.00  0.00     0.107 A 
HETATM    8  C   UNL     1      -5.136   3.309 -33.001  1.00  0.00     0.081 A 
HETATM    9  C   UNL     1      -3.971   2.670 -32.485  1.00  0.00     0.100 C 
HETATM   10  N   UNL     1      -3.019   2.142 -32.081  1.00  0.00    -0.191 NA
HETATM   11  C   UNL     1      -5.031   4.458 -33.721  1.00  0.00     0.140 A 
HETATM   12  O   UNL     1      -6.154   5.131 -34.221  1.00  0.00    -0.277 OA
ENDROOT
BRANCH   7  13
HETATM   13  C   UNL     1      -6.640   1.282 -33.315  1.00  0.00    -0.022 A 
HETATM   14  C   UNL     1      -6.581   0.092 -32.564  1.00  0.00     0.041 A 
HETATM   15 CL   UNL     1      -6.343   0.085 -30.853  1.00  0.00    -0.084 Cl
HETATM   16  C   UNL     1      -6.710  -1.156 -33.187  1.00  0.00     0.024 A 
HETATM   17  C   UNL     1      -6.891  -1.242 -34.565  1.00  0.00     0.002 A 
HETATM   18  C   UNL     1      -6.942  -0.082 -35.328  1.00  0.00     0.001 A 
HETATM   19  C   UNL     1      -6.813   1.165 -34.713  1.00  0.00     0.010 A 
ENDBRANCH   7  13
BRANCH  11  20
HETATM   20  N   UNL     1      -3.848   5.086 -34.045  1.00  0.00    -0.282 NA
HETATM   21  H   UNL     1      -3.883   5.723 -34.837  1.00  0.00     0.126 HD
HETATM   22  H   UNL     1      -3.388   5.480 -33.228  1.00  0.00     0.126 HD
ENDBRANCH  11  20
BRANCH   1  23
HETATM   23  C   UNL     1      -9.906   2.475 -32.366  1.00  0.00     0.029 C 
HETATM   24  C   UNL     1      -9.388   2.113 -30.975  1.00  0.00     0.016 C 
HETATM   25  C   UNL     1     -10.134   1.220 -33.210  1.00  0.00     0.016 C 
ENDBRANCH   1  23
TORSDOF 3
ENDMDL
MODEL 4
REMARK VINA RESULT:      -7.3      2.892      4.547
REMARK  3 active torsions:
REMARK  status: ('A' for Active; 'I' for Inactive)
REMARK    1  A    between atoms: C_2  and  C_3 
REMARK    2  A    between atoms: C_9  and  C_10 
REMARK    3  A    between atoms: C_20  and  N_21 
ROOT
HETATM    1  C   UNL     1      -4.916  -1.482 -33.122  1.00  0.00     0.043 A 
HETATM    2  N   UNL     1      -4.820  -2.135 -34.332  1.00  0.00    -0.279 N 
HETATM    3  H   UNL     1      -4.113  -2.801 -34.628  1.00  0.00     0.189 HD
HETATM    4  N   UNL     1      -5.809  -1.833 -35.195  1.00  0.00    -0.148 NA
HETATM    5  C   UNL     1      -6.543  -0.974 -34.501  1.00  0.00     0.199 A 
HETATM    6  C   UNL     1      -6.040  -0.683 -33.230  1.00  0.00     0.035 A 
HETATM    7  C   UNL     1      -6.750   0.273 -32.334  1.00  0.00     0.107 A 
HETATM    8  C   UNL     1      -8.053   0.752 -32.973  1.00  0.00     0.081 A 
HETATM    9  C   UNL     1      -8.883   1.590 -32.173  1.00  0.00     0.100 C 
HETATM   10  N   UNL     1      -9.554   2.287 -31.532  1.00  0.00    -0.191 NA
HETATM   11  C   UNL     1      -8.441   0.387 -34.224  1.00  0.00     0.140 A 
HETATM   12  O   UNL     1      -7.666  -0.459 -35.030  1.00  0.00    -0.277 OA
ENDROOT
BRANCH   7  13
HETATM   13  C   UNL     1      -5.769   1.413 -32.068  1.00  0.00    -0.022 A 
HETATM   14  C   UNL     1      -5.295   1.704 -30.775  1.00  0.00     0.041 A 
HETATM   15 CL   UNL     1      -5.762   0.785 -29.387  1.00  0.00    -0.084 Cl
HETATM   16  C   UNL     1      -4.416   2.771 -30.556  1.00  0.00     0.024 A 
HETATM   17  C   UNL     1      -3.999   3.572 -31.616  1.00  0.00     0.002 A 
HETATM   18  C   UNL     1      -4.462   3.312 -32.900  1.00  0.00     0.001 A 
HETATM   19  C   UNL     1      -5.340   2.249 -33.125  1.00  0.00     0.010 A 
ENDBRANCH   7  13
BRANCH  11  20
HETATM   20  N   UNL     1      -9.604   0.789 -34.843  1.00  0.00    -0.282 NA
HETATM   21  H   UNL     1      -9.699   1.787 -35.012  1.00  0.00     0.126 HD
HETATM   22  H   UNL     1      -9.823   0.217 -35.657  1.00  0.00     0.126 HD
ENDBRANCH  11  20
BRANCH   1  23
HETATM   23  C   UNL     1      -3.932  -1.686 -32.009  1.00  0.00     0.029 C 
HETATM   24  C   UNL     1      -2.877  -0.582 -31.991  1.00  0.00     0.016 C 
HETATM   25  C   UNL     1      -3.280  -3.067 -32.089  1.00  0.00     0.016 C 
ENDBRANCH   1  23
TORSDOF 3
ENDMDL
MODEL 5
REMARK VINA RESULT:      -7.1      3.083      4.792
REMARK  3 active torsions:
REMARK  status: ('A' for Active; 'I' for Inactive)
REMARK    1  A    between atoms: C_2  and  C_3 
REMARK    2  A    between atoms: C_9  and  C_10 
REMARK    3  A    between atoms: C_20  and  N_21 
ROOT
HETATM    1  C   UNL     1      -5.556  -0.750 -32.702  1.00  0.00     0.043 A 
HETATM    2  N   UNL     1      -5.838  -1.766 -33.592  1.00  0.00    -0.279 N 
HETATM    3  H   UNL     1      -5.208  -2.482 -33.941  1.00  0.00     0.189 HD
HETATM    4  N   UNL     1      -7.116  -1.782 -34.015  1.00  0.00    -0.148 NA
HETATM    5  C   UNL     1      -7.645  -0.752 -33.369  1.00  0.00     0.199 A 
HETATM    6  C   UNL     1      -6.741  -0.050 -32.567  1.00  0.00     0.035 A 
HETATM    7  C   UNL     1      -7.186   1.138 -31.785  1.00  0.00     0.107 A 
HETATM    8  C   UNL     1      -8.690   1.359 -31.939  1.00  0.00     0.081 A 
HETATM    9  C   UNL     1      -9.264   2.402 -31.154  1.00  0.00     0.100 C 
HETATM   10  N   UNL     1      -9.731   3.262 -30.531  1.00  0.00    -0.191 NA
HETATM   11  C   UNL     1      -9.471   0.594 -32.747  1.00  0.00     0.140 A 
HETATM   12  O   UNL     1      -8.949  -0.459 -33.512  1.00  0.00    -0.277 OA
ENDROOT
BRANCH   7  13
HETATM   13  C   UNL     1      -6.361   2.317 -32.298  1.00  0.00    -0.022 A 
HETATM   14  C   UNL     1      -5.536   3.078 -31.448  1.00  0.00     0.041 A 
HETATM   15 CL   UNL     1      -5.368   2.730 -29.763  1.00  0.00    -0.084 Cl
HETATM   16  C   UNL     1      -4.810   4.169 -31.941  1.00  0.00     0.024 A 
HETATM   17  C   UNL     1      -4.898   4.527 -33.284  1.00  0.00     0.002 A 
HETATM   18  C   UNL     1      -5.714   3.798 -34.140  1.00  0.00     0.001 A 
HETATM   19  C   UNL     1      -6.441   2.710 -33.655  1.00  0.00     0.010 A 
ENDBRANCH   7  13
BRANCH  11  20
HETATM   20  N   UNL     1     -10.829   0.751 -32.918  1.00  0.00    -0.282 NA
HETATM   21  H   UNL     1     -11.116   1.427 -33.621  1.00  0.00     0.126 HD
HETATM   22  H   UNL     1     -11.311  -0.143 -32.994  1.00  0.00     0.126 HD
ENDBRANCH  11  20
BRANCH   1  23
HETATM   23  C   UNL     1      -4.201  -0.560 -32.090  1.00  0.00     0.029 C 
HETATM   24  C   UNL     1      -3.387   0.480 -32.858  1.00  0.00     0.016 C 
HETATM   25  C   UNL     1      -3.444  -1.884 -31.991  1.00  0.00     0.016 C 
ENDBRANCH   1  23
TORSDOF 3
ENDMDL
MODEL 6
REMARK VINA RESULT:      -7.0      3.016      5.493
REMARK  3 active torsions:
REMARK  status: ('A' for Active; 'I' for Inactive)
REMARK    1  A    between atoms: C_2  and  C_3 
REMARK    2  A    between atoms: C_9  and  C_10 
REMARK    3  A    between atoms: C_20  and  N_21 
ROOT
HETATM    1  C   UNL     1      -5.191   4.006 -32.300  1.00  0.00     0.043 A 
HETATM    2  N   UNL     1      -5.019   4.864 -31.234  1.00  0.00    -0.279 N 
HETATM    3  H   UNL     1      -4.246   5.499 -31.063  1.00  0.00     0.189 HD
HETATM    4  N   UNL     1      -6.027   4.834 -30.341  1.00  0.00    -0.148 NA
HETATM    5  C   UNL     1      -6.850   3.937 -30.867  1.00  0.00     0.199 A 
HETATM    6  C   UNL     1      -6.390   3.361 -32.054  1.00  0.00     0.035 A 
HETATM    7  C   UNL     1      -7.202   2.330 -32.760  1.00  0.00     0.107 A 
HETATM    8  C   UNL     1      -8.541   2.116 -32.056  1.00  0.00     0.081 A 
HETATM    9  C   UNL     1      -9.460   1.230 -32.692  1.00  0.00     0.100 C 
HETATM   10  N   UNL     1     -10.204   0.496 -33.196  1.00  0.00    -0.191 NA
HETATM   11  C   UNL     1      -8.879   2.750 -30.902  1.00  0.00     0.140 A 
HETATM   12  O   UNL     1      -8.015   3.649 -30.263  1.00  0.00    -0.277 OA
ENDROOT
BRANCH   7  13
HETATM   13  C   UNL     1      -6.345   1.066 -32.794  1.00  0.00    -0.022 A 
HETATM   14  C   UNL     1      -6.247   0.260 -33.945  1.00  0.00     0.041 A 
HETATM   15 CL   UNL     1      -7.065   0.645 -35.418  1.00  0.00    -0.084 Cl
HETATM   16  C   UNL     1      -5.473  -0.907 -33.940  1.00  0.00     0.024 A 
HETATM   17  C   UNL     1      -4.791  -1.298 -32.791  1.00  0.00     0.002 A 
HETATM   18  C   UNL     1      -4.882  -0.525 -31.639  1.00  0.00     0.001 A 
HETATM   19  C   UNL     1      -5.652   0.639 -31.637  1.00  0.00     0.010 A 
ENDBRANCH   7  13
BRANCH  11  20
HETATM   20  N   UNL     1     -10.072   2.593 -30.231  1.00  0.00    -0.282 NA
HETATM   21  H   UNL     1     -10.651   3.425 -30.147  1.00  0.00     0.126 HD
HETATM   22  H   UNL     1     -10.585   1.773 -30.548  1.00  0.00     0.126 HD
ENDBRANCH  11  20
BRANCH   1  23
HETATM   23  C   UNL     1      -4.201   3.894 -33.420  1.00  0.00     0.029 C 
HETATM   24  C   UNL     1      -2.771   4.088 -32.919  1.00  0.00     0.016 C 
HETATM   25  C   UNL     1      -4.524   4.874 -34.549  1.00  0.00     0.016 C 
ENDBRANCH   1  23
TORSDOF 3
ENDMDL
MODEL 7
REMARK VINA RESULT:      -6.8      3.143      4.765
REMARK  3 active torsions:
REMARK  status: ('A' for Active; 'I' for Inactive)
REMARK    1  A    between atoms: C_2  and  C_3 
REMARK    2  A    between atoms: C_9  and  C_10 
REMARK    3  A    between atoms: C_20  and  N_21 
ROOT
HETATM    1  C   UNL     1      -6.254  -0.213 -33.004  1.00  0.00     0.043 A 
HETATM    2  N   UNL     1      -7.286  -0.959 -33.533  1.00  0.00    -0.279 N 
HETATM    3  H   UNL     1      -7.222  -1.775 -34.134  1.00  0.00     0.189 HD
HETATM    4  N   UNL     1      -8.511  -0.529 -33.174  1.00  0.00    -0.148 NA
HETATM    5  C   UNL     1      -8.234   0.510 -32.399  1.00  0.00     0.199 A 
HETATM    6  C   UNL     1      -6.870   0.787 -32.272  1.00  0.00     0.035 A 
HETATM    7  C   UNL     1      -6.403   1.931 -31.439  1.00  0.00     0.107 A 
HETATM    8  C   UNL     1      -7.579   2.614 -30.744  1.00  0.00     0.081 A 
HETATM    9  C   UNL     1      -7.258   3.660 -29.830  1.00  0.00     0.100 C 
HETATM   10  N   UNL     1      -7.002   4.524 -29.098  1.00  0.00    -0.191 NA
HETATM   11  C   UNL     1      -8.872   2.243 -30.942  1.00  0.00     0.140 A 
HETATM   12  O   UNL     1      -9.226   1.201 -31.810  1.00  0.00    -0.277 OA
ENDROOT
BRANCH   7  13
HETATM   13  C   UNL     1      -5.651   2.865 -32.385  1.00  0.00    -0.022 A 
HETATM   14  C   UNL     1      -4.270   3.104 -32.258  1.00  0.00     0.041 A 
HETATM   15 CL   UNL     1      -3.305   2.345 -31.041  1.00  0.00    -0.084 Cl
HETATM   16  C   UNL     1      -3.612   3.986 -33.124  1.00  0.00     0.024 A 
HETATM   17  C   UNL     1      -4.316   4.650 -34.125  1.00  0.00     0.002 A 
HETATM   18  C   UNL     1      -5.682   4.439 -34.263  1.00  0.00     0.001 A 
HETATM   19  C   UNL     1      -6.345   3.562 -33.402  1.00  0.00     0.010 A 
ENDBRANCH   7  13
BRANCH  11  20
HETATM   20  N   UNL     1      -9.966   2.825 -30.339  1.00  0.00    -0.282 NA
HETATM   21  H   UNL     1     -10.609   2.192 -29.872  1.00  0.00     0.126 HD
HETATM   22  H   UNL     1      -9.707   3.630 -29.772  1.00  0.00     0.126 HD
ENDBRANCH  11  20
BRANCH   1  23
HETATM   23  C   UNL     1      -4.811  -0.529 -33.257  1.00  0.00     0.029 C 
HETATM   24  C   UNL     1      -4.661  -1.688 -34.241  1.00  0.00     0.016 C 
HETATM   25  C   UNL     1      -4.067  -0.816 -31.953  1.00  0.00     0.016 C 
ENDBRANCH   1  23
TORSDOF 3
ENDMDL
MODEL 8
REMARK VINA RESULT:      -6.8      2.468      3.234
REMARK  3 active torsions:
REMARK  status: ('A' for Active; 'I' for Inactive)
REMARK    1  A    between atoms: C_2  and  C_3 
REMARK    2  A    between atoms: C_9  and  C_10 
REMARK    3  A    between atoms: C_20  and  N_21 
ROOT
HETATM    1  C   UNL     1      -5.821   0.878 -33.285  1.00  0.00     0.043 A 
HETATM    2  N   UNL     1      -5.036  -0.225 -33.028  1.00  0.00    -0.279 N 
HETATM    3  H   UNL     1      -5.226  -1.195 -33.262  1.00  0.00     0.189 HD
HETATM    4  N   UNL     1      -3.879   0.062 -32.400  1.00  0.00    -0.148 NA
HETATM    5  C   UNL     1      -3.945   1.379 -32.267  1.00  0.00     0.199 A 
HETATM    6  C   UNL     1      -5.123   1.949 -32.758  1.00  0.00     0.035 A 
HETATM    7  C   UNL     1      -5.346   3.421 -32.672  1.00  0.00     0.107 A 
HETATM    8  C   UNL     1      -4.122   4.123 -32.089  1.00  0.00     0.081 A 
HETATM    9  C   UNL     1      -4.163   5.548 -32.052  1.00  0.00     0.100 C 
HETATM   10  N   UNL     1      -4.201   6.707 -32.003  1.00  0.00    -0.191 NA
HETATM   11  C   UNL     1      -3.022   3.453 -31.652  1.00  0.00     0.140 A 
HETATM   12  O   UNL     1      -2.931   2.055 -31.700  1.00  0.00    -0.277 OA
ENDROOT
BRANCH   7  13
HETATM   13  C   UNL     1      -6.598   3.610 -31.818  1.00  0.00    -0.022 A 
HETATM   14  C   UNL     1      -7.780   4.171 -32.338  1.00  0.00     0.041 A 
HETATM   15 CL   UNL     1      -7.922   4.671 -33.987  1.00  0.00    -0.084 Cl
HETATM   16  C   UNL     1      -8.904   4.357 -31.525  1.00  0.00     0.024 A 
HETATM   17  C   UNL     1      -8.872   3.994 -30.181  1.00  0.00     0.002 A 
HETATM   18  C   UNL     1      -7.714   3.448 -29.642  1.00  0.00     0.001 A 
HETATM   19  C   UNL     1      -6.588   3.262 -30.447  1.00  0.00     0.010 A 
ENDBRANCH   7  13
BRANCH  11  20
HETATM   20  N   UNL     1      -1.894   4.040 -31.122  1.00  0.00    -0.282 NA
HETATM   21  H   UNL     1      -1.527   3.618 -30.273  1.00  0.00     0.126 HD
HETATM   22  H   UNL     1      -1.182   4.210 -31.830  1.00  0.00     0.126 HD
ENDBRANCH  11  20
BRANCH   1  23
HETATM   23  C   UNL     1      -7.140   0.789 -33.994  1.00  0.00     0.029 C 
HETATM   24  C   UNL     1      -8.221   0.209 -33.083  1.00  0.00     0.016 C 
HETATM   25  C   UNL     1      -7.023  -0.017 -35.288  1.00  0.00     0.016 C 
ENDBRANCH   1  23
TORSDOF 3
ENDMDL
MODEL 9
REMARK VINA RESULT:      -6.3     13.916     15.826
REMARK  3 active torsions:
REMARK  status: ('A' for Active; 'I' for Inactive)
REMARK    1  A    between atoms: C_2  and  C_3 
REMARK    2  A    between atoms: C_9  and  C_10 
REMARK    3  A    between atoms: C_20  and  N_21 
ROOT
HETATM    1  C   UNL     1      -5.300 -12.398 -39.538  1.00  0.00     0.043 A 
HETATM    2  N   UNL     1      -4.164 -11.622 -39.457  1.00  0.00    -0.279 N 
HETATM    3  H   UNL     1      -3.809 -10.962 -40.143  1.00  0.00     0.189 HD
HETATM    4  N   UNL     1      -3.475 -11.779 -38.310  1.00  0.00    -0.148 NA
HETATM    5  C   UNL     1      -4.205 -12.673 -37.658  1.00  0.00     0.199 A 
HETATM    6  C   UNL     1      -5.325 -13.125 -38.360  1.00  0.00     0.035 A 
HETATM    7  C   UNL     1      -6.239 -14.138 -37.760  1.00  0.00     0.107 A 
HETATM    8  C   UNL     1      -5.810 -14.480 -36.335  1.00  0.00     0.081 A 
HETATM    9  C   UNL     1      -6.664 -15.359 -35.607  1.00  0.00     0.100 C 
HETATM   10  N   UNL     1      -7.347 -16.090 -35.017  1.00  0.00    -0.191 NA
HETATM   11  C   UNL     1      -4.696 -13.962 -35.752  1.00  0.00     0.140 A 
HETATM   12  O   UNL     1      -3.847 -13.072 -36.425  1.00  0.00    -0.277 OA
ENDROOT
BRANCH   7  13
HETATM   13  C   UNL     1      -6.204 -15.347 -38.693  1.00  0.00    -0.022 A 
HETATM   14  C   UNL     1      -7.380 -15.951 -39.178  1.00  0.00     0.041 A 
HETATM   15 CL   UNL     1      -8.956 -15.364 -38.779  1.00  0.00    -0.084 Cl
HETATM   16  C   UNL     1      -7.318 -17.074 -40.012  1.00  0.00     0.024 A 
HETATM   17  C   UNL     1      -6.089 -17.619 -40.373  1.00  0.00     0.002 A 
HETATM   18  C   UNL     1      -4.915 -17.047 -39.898  1.00  0.00     0.001 A 
HETATM   19  C   UNL     1      -4.969 -15.928 -39.065  1.00  0.00     0.010 A 
ENDBRANCH   7  13
BRANCH  11  20
HETATM   20  N   UNL     1      -4.268 -14.237 -34.472  1.00  0.00    -0.282 NA
HETATM   21  H   UNL     1      -3.454 -13.719 -34.151  1.00  0.00     0.126 HD
HETATM   22  H   UNL     1      -5.037 -14.237 -33.804  1.00  0.00     0.126 HD
ENDBRANCH  11  20
BRANCH   1  23
HETATM   23  C   UNL     1      -6.225 -12.365 -40.717  1.00  0.00     0.029 C 
HETATM   24  C   UNL     1      -7.688 -12.363 -40.276  1.00  0.00     0.016 C 
HETATM   25  C   UNL     1      -5.944 -13.520 -41.678  1.00  0.00     0.016 C 
ENDBRANCH   1  23
TORSDOF 3
ENDMDL
MODEL 10
REMARK VINA RESULT:      -6.3      7.992      9.643
REMARK  3 active torsions:
REMARK  status: ('A' for Active; 'I' for Inactive)
REMARK    1  A    between atoms: C_2  and  C_3 
REMARK    2  A    between atoms: C_9  and  C_10 
REMARK    3  A    between atoms: C_20  and  N_21 
ROOT
HETATM    1  C   UNL     1      -0.868   6.449 -31.255  1.00  0.00     0.043 A 
HETATM    2  N   UNL     1      -0.282   5.203 -31.329  1.00  0.00    -0.279 N 
HETATM    3  H   UNL     1      -0.338   4.531 -32.088  1.00  0.00     0.189 HD
HETATM    4  N   UNL     1       0.453   4.881 -30.247  1.00  0.00    -0.148 NA
HETATM    5  C   UNL     1       0.326   5.956 -29.483  1.00  0.00     0.199 A 
HETATM    6  C   UNL     1      -0.496   6.950 -30.021  1.00  0.00     0.035 A 
HETATM    7  C   UNL     1      -0.742   8.217 -29.274  1.00  0.00     0.107 A 
HETATM    8  C   UNL     1       0.072   8.253 -27.982  1.00  0.00     0.081 A 
HETATM    9  C   UNL     1       0.011   9.460 -27.225  1.00  0.00     0.100 C 
HETATM   10  N   UNL     1      -0.052  10.433 -26.596  1.00  0.00    -0.191 NA
HETATM   11  C   UNL     1       0.851   7.218 -27.569  1.00  0.00     0.140 A 
HETATM   12  O   UNL     1       0.961   6.027 -28.300  1.00  0.00    -0.277 OA
ENDROOT
BRANCH   7  13
HETATM   13  C   UNL     1      -2.248   8.276 -29.024  1.00  0.00    -0.022 A 
HETATM   14  C   UNL     1      -3.049   9.317 -29.531  1.00  0.00     0.041 A 
HETATM   15 CL   UNL     1      -2.404  10.598 -30.495  1.00  0.00    -0.084 Cl
HETATM   16  C   UNL     1      -4.423   9.359 -29.265  1.00  0.00     0.024 A 
HETATM   17  C   UNL     1      -5.023   8.373 -28.485  1.00  0.00     0.002 A 
HETATM   18  C   UNL     1      -4.251   7.342 -27.965  1.00  0.00     0.001 A 
HETATM   19  C   UNL     1      -2.880   7.294 -28.225  1.00  0.00     0.010 A 
ENDBRANCH   7  13
BRANCH  11  20
HETATM   20  N   UNL     1       1.605   7.203 -26.416  1.00  0.00    -0.282 NA
HETATM   21  H   UNL     1       2.265   6.435 -26.322  1.00  0.00     0.126 HD
HETATM   22  H   UNL     1       2.012   8.114 -26.213  1.00  0.00     0.126 HD
ENDBRANCH  11  20
BRANCH   1  23
HETATM   23  C   UNL     1      -1.711   7.016 -32.358  1.00  0.00     0.029 C 
HETATM   24  C   UNL     1      -3.180   6.631 -32.187  1.00  0.00     0.016 C 
HETATM   25  C   UNL     1      -1.189   6.594 -33.731  1.00  0.00     0.016 C 
ENDBRANCH   1  23
TORSDOF 3
ENDMDL
