MODEL 1
REMARK VINA RESULT:      -9.5      0.000      0.000
REMARK  4 active torsions:
REMARK  status: ('A' for Active; 'I' for Inactive)
REMARK    1  A    between atoms: C_6  and  C_7 
REMARK    2  A    between atoms: C_8  and  C_9 
REMARK       I    between atoms: C_9  and  N_10 
REMARK    3  A    between atoms: N_10  and  C_11 
REMARK    4  A    between atoms: C_18  and  C_19 
REMARK       I    between atoms: C_19  and  N_20 
ROOT
HETATM    1  C   UNL     1      -8.952   1.090 -33.505  1.00  0.00     0.035 A 
HETATM    2  C   UNL     1     -10.255   0.576 -33.539  1.00  0.00     0.046 A 
HETATM    3  C   UNL     1     -11.315   1.384 -34.003  1.00  0.00     0.030 A 
HETATM    4  C   UNL     1     -11.037   2.679 -34.420  1.00  0.00     0.063 A 
HETATM    5  N   UNL     1     -12.239   3.196 -34.817  1.00  0.00    -0.277 N 
HETATM    6  H   UNL     1     -12.416   4.123 -35.187  1.00  0.00     0.189 HD
HETATM    7  N   UNL     1     -13.279   2.356 -34.685  1.00  0.00    -0.168 NA
HETATM    8  C   UNL     1     -12.723   1.230 -34.181  1.00  0.00     0.156 A 
HETATM    9  C   UNL     1      -9.754   3.229 -34.394  1.00  0.00     0.034 A 
HETATM   10  C   UNL     1      -8.720   2.407 -33.922  1.00  0.00     0.032 A 
ENDROOT
BRANCH   1  11
HETATM   11  N   UNL     1      -7.829   0.345 -33.086  1.00  0.00    -0.327 N 
HETATM   12  C   UNL     1      -7.065   0.563 -31.959  1.00  0.00     0.227 C 
HETATM   13  O   UNL     1      -7.169   1.475 -31.156  1.00  0.00    -0.273 OA
HETATM   14  H   UNL     1      -7.590  -0.458 -33.646  1.00  0.00     0.169 HD
BRANCH  12  15
HETATM   15  C   UNL     1      -6.015  -0.459 -31.697  1.00  0.00     0.087 A 
HETATM   16  C   UNL     1      -5.009  -0.667 -32.826  1.00  0.00     0.032 A 
HETATM   17  C   UNL     1      -4.547  -0.237 -31.462  1.00  0.00     0.025 A 
BRANCH  16  18
HETATM   18  C   UNL     1      -4.840  -2.061 -33.370  1.00  0.00    -0.051 A 
HETATM   19  C   UNL     1      -5.758  -2.639 -34.259  1.00  0.00     0.031 A 
HETATM   20  C   UNL     1      -5.588  -3.951 -34.711  1.00  0.00     0.034 A 
HETATM   21  C   UNL     1      -4.506  -4.715 -34.280  1.00  0.00     0.024 A 
HETATM   22 CL   UNL     1      -6.731  -4.631 -35.803  1.00  0.00    -0.084 Cl
HETATM   23  C   UNL     1      -3.587  -4.163 -33.394  1.00  0.00     0.002 A 
HETATM   24  C   UNL     1      -3.756  -2.851 -32.948  1.00  0.00     0.007 A 
ENDBRANCH  16  18
ENDBRANCH  12  15
ENDBRANCH   1  11
BRANCH   8  25
HETATM   25  C   UNL     1     -13.539   0.045 -33.883  1.00  0.00     0.270 C 
HETATM   26  N   UNL     1     -14.843   0.149 -34.284  1.00  0.00    -0.365 N 
HETATM   27  H   UNL     1     -15.146   1.003 -34.734  1.00  0.00     0.159 HD
HETATM   28  H   UNL     1     -15.479  -0.614 -34.113  1.00  0.00     0.159 HD
HETATM   29  O   UNL     1     -13.128  -0.966 -33.325  1.00  0.00    -0.266 OA
ENDBRANCH   8  25
TORSDOF 4
ENDMDL
MODEL 2
REMARK VINA RESULT:      -9.4      1.220      1.596
REMARK  4 active torsions:
REMARK  status: ('A' for Active; 'I' for Inactive)
REMARK    1  A    between atoms: C_6  and  C_7 
REMARK    2  A    between atoms: C_8  and  C_9 
REMARK       I    between atoms: C_9  and  N_10 
REMARK    3  A    between atoms: N_10  and  C_11 
REMARK    4  A    between atoms: C_18  and  C_19 
REMARK       I    between atoms: C_19  and  N_20 
ROOT
HETATM    1  C   UNL     1      -9.304   1.559 -33.225  1.00  0.00     0.035 A 
HETATM    2  C   UNL     1     -10.541   0.924 -33.393  1.00  0.00     0.046 A 
HETATM    3  C   UNL     1     -11.722   1.695 -33.455  1.00  0.00     0.030 A 
HETATM    4  C   UNL     1     -11.627   3.075 -33.349  1.00  0.00     0.063 A 
HETATM    5  N   UNL     1     -12.910   3.535 -33.455  1.00  0.00    -0.277 N 
HETATM    6  H   UNL     1     -13.220   4.500 -33.427  1.00  0.00     0.189 HD
HETATM    7  N   UNL     1     -13.836   2.574 -33.611  1.00  0.00    -0.168 NA
HETATM    8  C   UNL     1     -13.116   1.429 -33.611  1.00  0.00     0.156 A 
HETATM    9  C   UNL     1     -10.413   3.744 -33.173  1.00  0.00     0.034 A 
HETATM   10  C   UNL     1      -9.257   2.955 -33.108  1.00  0.00     0.032 A 
ENDROOT
BRANCH   1  11
HETATM   11  N   UNL     1      -8.072   0.872 -33.183  1.00  0.00    -0.327 N 
HETATM   12  C   UNL     1      -7.237   0.736 -32.095  1.00  0.00     0.227 C 
HETATM   13  O   UNL     1      -7.367   1.240 -30.991  1.00  0.00    -0.273 OA
HETATM   14  H   UNL     1      -7.798   0.392 -34.026  1.00  0.00     0.169 HD
BRANCH  12  15
HETATM   15  C   UNL     1      -6.061  -0.152 -32.303  1.00  0.00     0.087 A 
HETATM   16  C   UNL     1      -5.790  -0.548 -33.752  1.00  0.00     0.032 A 
HETATM   17  C   UNL     1      -4.749   0.187 -32.955  1.00  0.00     0.025 A 
BRANCH  16  18
HETATM   18  C   UNL     1      -5.716  -2.016 -34.079  1.00  0.00    -0.051 A 
HETATM   19  C   UNL     1      -4.550  -2.772 -33.890  1.00  0.00     0.031 A 
HETATM   20  C   UNL     1      -4.509  -4.125 -34.242  1.00  0.00     0.034 A 
HETATM   21  C   UNL     1      -5.624  -4.748 -34.797  1.00  0.00     0.024 A 
HETATM   22 CL   UNL     1      -3.063  -5.025 -33.996  1.00  0.00    -0.084 Cl
HETATM   23  C   UNL     1      -6.789  -4.014 -34.997  1.00  0.00     0.002 A 
HETATM   24  C   UNL     1      -6.830  -2.666 -34.641  1.00  0.00     0.007 A 
ENDBRANCH  16  18
ENDBRANCH  12  15
ENDBRANCH   1  11
BRANCH   8  25
HETATM   25  C   UNL     1     -13.767   0.120 -33.758  1.00  0.00     0.270 C 
HETATM   26  N   UNL     1     -14.968   0.163 -34.412  1.00  0.00    -0.365 N 
HETATM   27  H   UNL     1     -15.315   1.059 -34.730  1.00  0.00     0.159 HD
HETATM   28  H   UNL     1     -15.490  -0.688 -34.551  1.00  0.00     0.159 HD
HETATM   29  O   UNL     1     -13.310  -0.940 -33.344  1.00  0.00    -0.266 OA
ENDBRANCH   8  25
TORSDOF 4
ENDMDL
MODEL 3
REMARK VINA RESULT:      -9.0      2.013      3.250
REMARK  4 active torsions:
REMARK  status: ('A' for Active; 'I' for Inactive)
REMARK    1  A    between atoms: C_6  and  C_7 
REMARK    2  A    between atoms: C_8  and  C_9 
REMARK       I    between atoms: C_9  and  N_10 
REMARK    3  A    between atoms: N_10  and  C_11 
REMARK    4  A    between atoms: C_18  and  C_19 
REMARK       I    between atoms: C_19  and  N_20 
ROOT
HETATM    1  C   UNL     1      -9.824   1.287 -33.767  1.00  0.00     0.035 A 
HETATM    2  C   UNL     1      -9.871   2.609 -34.228  1.00  0.00     0.046 A 
HETATM    3  C   UNL     1     -11.119   3.233 -34.443  1.00  0.00     0.030 A 
HETATM    4  C   UNL     1     -12.279   2.514 -34.189  1.00  0.00     0.063 A 
HETATM    5  N   UNL     1     -13.304   3.372 -34.474  1.00  0.00    -0.277 N 
HETATM    6  H   UNL     1     -14.298   3.188 -34.397  1.00  0.00     0.189 HD
HETATM    7  N   UNL     1     -12.915   4.584 -34.902  1.00  0.00    -0.168 NA
HETATM    8  C   UNL     1     -11.564   4.513 -34.891  1.00  0.00     0.156 A 
HETATM    9  C   UNL     1     -12.273   1.193 -33.736  1.00  0.00     0.034 A 
HETATM   10  C   UNL     1     -11.021   0.596 -33.536  1.00  0.00     0.032 A 
ENDROOT
BRANCH   1  11
HETATM   11  N   UNL     1      -8.624   0.596 -33.495  1.00  0.00    -0.327 N 
HETATM   12  C   UNL     1      -7.644   0.959 -32.597  1.00  0.00     0.227 C 
HETATM   13  O   UNL     1      -7.593   1.976 -31.925  1.00  0.00    -0.273 OA
HETATM   14  H   UNL     1      -8.494  -0.281 -33.977  1.00  0.00     0.169 HD
BRANCH  12  15
HETATM   15  C   UNL     1      -6.543  -0.028 -32.425  1.00  0.00     0.087 A 
HETATM   16  C   UNL     1      -5.815  -0.426 -33.706  1.00  0.00     0.032 A 
HETATM   17  C   UNL     1      -5.064   0.201 -32.566  1.00  0.00     0.025 A 
BRANCH  16  18
HETATM   18  C   UNL     1      -5.749  -1.890 -34.051  1.00  0.00    -0.051 A 
HETATM   19  C   UNL     1      -4.596  -2.661 -33.846  1.00  0.00     0.031 A 
HETATM   20  C   UNL     1      -4.560  -4.009 -34.217  1.00  0.00     0.034 A 
HETATM   21  C   UNL     1      -5.668  -4.613 -34.806  1.00  0.00     0.024 A 
HETATM   22 CL   UNL     1      -3.130  -4.928 -33.949  1.00  0.00    -0.084 Cl
HETATM   23  C   UNL     1      -6.820  -3.865 -35.023  1.00  0.00     0.002 A 
HETATM   24  C   UNL     1      -6.856  -2.521 -34.648  1.00  0.00     0.007 A 
ENDBRANCH  16  18
ENDBRANCH  12  15
ENDBRANCH   1  11
BRANCH   8  25
HETATM   25  C   UNL     1     -10.737   5.656 -35.302  1.00  0.00     0.270 C 
HETATM   26  N   UNL     1     -11.453   6.768 -35.651  1.00  0.00    -0.365 N 
HETATM   27  H   UNL     1     -12.464   6.727 -35.610  1.00  0.00     0.159 HD
HETATM   28  H   UNL     1     -10.969   7.597 -35.955  1.00  0.00     0.159 HD
HETATM   29  O   UNL     1      -9.511   5.654 -35.346  1.00  0.00    -0.266 OA
ENDBRANCH   8  25
TORSDOF 4
ENDMDL
MODEL 4
REMARK VINA RESULT:      -8.9      2.904      3.685
REMARK  4 active torsions:
REMARK  status: ('A' for Active; 'I' for Inactive)
REMARK    1  A    between atoms: C_6  and  C_7 
REMARK    2  A    between atoms: C_8  and  C_9 
REMARK       I    between atoms: C_9  and  N_10 
REMARK    3  A    between atoms: N_10  and  C_11 
REMARK    4  A    between atoms: C_18  and  C_19 
REMARK       I    between atoms: C_19  and  N_20 
ROOT
HETATM    1  C   UNL     1     -11.140   1.766 -33.935  1.00  0.00     0.035 A 
HETATM    2  C   UNL     1     -11.608   2.618 -32.926  1.00  0.00     0.046 A 
HETATM    3  C   UNL     1     -12.997   2.788 -32.741  1.00  0.00     0.030 A 
HETATM    4  C   UNL     1     -13.872   2.100 -33.571  1.00  0.00     0.063 A 
HETATM    5  N   UNL     1     -15.123   2.453 -33.148  1.00  0.00    -0.277 N 
HETATM    6  H   UNL     1     -16.010   2.136 -33.524  1.00  0.00     0.189 HD
HETATM    7  N   UNL     1     -15.142   3.319 -32.122  1.00  0.00    -0.168 NA
HETATM    8  C   UNL     1     -13.833   3.537 -31.859  1.00  0.00     0.156 A 
HETATM    9  C   UNL     1     -13.443   1.250 -34.593  1.00  0.00     0.034 A 
HETATM   10  C   UNL     1     -12.059   1.104 -34.759  1.00  0.00     0.032 A 
ENDROOT
BRANCH   1  11
HETATM   11  N   UNL     1      -9.771   1.513 -34.172  1.00  0.00    -0.327 N 
HETATM   12  C   UNL     1      -8.954   0.656 -33.467  1.00  0.00     0.227 C 
HETATM   13  O   UNL     1      -9.236   0.014 -32.469  1.00  0.00    -0.273 OA
HETATM   14  H   UNL     1      -9.363   1.975 -34.970  1.00  0.00     0.169 HD
BRANCH  12  15
HETATM   15  C   UNL     1      -7.581   0.491 -34.018  1.00  0.00     0.087 A 
HETATM   16  C   UNL     1      -7.349  -0.787 -34.821  1.00  0.00     0.032 A 
HETATM   17  C   UNL     1      -7.146   0.561 -35.456  1.00  0.00     0.025 A 
BRANCH  16  18
HETATM   18  C   UNL     1      -6.224  -1.691 -34.393  1.00  0.00    -0.051 A 
HETATM   19  C   UNL     1      -5.221  -1.278 -33.504  1.00  0.00     0.031 A 
HETATM   20  C   UNL     1      -4.170  -2.134 -33.161  1.00  0.00     0.034 A 
HETATM   21  C   UNL     1      -4.092  -3.415 -33.704  1.00  0.00     0.024 A 
HETATM   22 CL   UNL     1      -2.957  -1.598 -32.065  1.00  0.00    -0.084 Cl
HETATM   23  C   UNL     1      -5.074  -3.843 -34.592  1.00  0.00     0.002 A 
HETATM   24  C   UNL     1      -6.125  -2.988 -34.929  1.00  0.00     0.007 A 
ENDBRANCH  16  18
ENDBRANCH  12  15
ENDBRANCH   1  11
BRANCH   8  25
HETATM   25  C   UNL     1     -13.412   4.447 -30.784  1.00  0.00     0.270 C 
HETATM   26  N   UNL     1     -12.671   3.848 -29.803  1.00  0.00    -0.365 N 
HETATM   27  H   UNL     1     -12.477   2.857 -29.878  1.00  0.00     0.159 HD
HETATM   28  H   UNL     1     -12.347   4.393 -29.020  1.00  0.00     0.159 HD
HETATM   29  O   UNL     1     -13.683   5.642 -30.732  1.00  0.00    -0.266 OA
ENDBRANCH   8  25
TORSDOF 4
ENDMDL
MODEL 5
REMARK VINA RESULT:      -8.8      5.459      8.422
REMARK  4 active torsions:
REMARK  status: ('A' for Active; 'I' for Inactive)
REMARK    1  A    between atoms: C_6  and  C_7 
REMARK    2  A    between atoms: C_8  and  C_9 
REMARK       I    between atoms: C_9  and  N_10 
REMARK    3  A    between atoms: N_10  and  C_11 
REMARK    4  A    between atoms: C_18  and  C_19 
REMARK       I    between atoms: C_19  and  N_20 
ROOT
HETATM    1  C   UNL     1      -3.534   3.855 -32.754  1.00  0.00     0.035 A 
HETATM    2  C   UNL     1      -2.402   4.029 -31.946  1.00  0.00     0.046 A 
HETATM    3  C   UNL     1      -1.611   5.190 -32.087  1.00  0.00     0.030 A 
HETATM    4  C   UNL     1      -1.978   6.138 -33.032  1.00  0.00     0.063 A 
HETATM    5  N   UNL     1      -1.045   7.132 -32.927  1.00  0.00    -0.277 N 
HETATM    6  H   UNL     1      -1.002   7.992 -33.462  1.00  0.00     0.189 HD
HETATM    7  N   UNL     1      -0.095   6.910 -32.003  1.00  0.00    -0.168 NA
HETATM    8  C   UNL     1      -0.431   5.710 -31.476  1.00  0.00     0.156 A 
HETATM    9  C   UNL     1      -3.094   5.997 -33.861  1.00  0.00     0.034 A 
HETATM   10  C   UNL     1      -3.858   4.833 -33.704  1.00  0.00     0.032 A 
ENDROOT
BRANCH   1  11
HETATM   11  N   UNL     1      -4.398   2.743 -32.660  1.00  0.00    -0.327 N 
HETATM   12  C   UNL     1      -5.195   2.402 -31.590  1.00  0.00     0.227 C 
HETATM   13  O   UNL     1      -5.253   2.951 -30.501  1.00  0.00    -0.273 OA
HETATM   14  H   UNL     1      -4.472   2.164 -33.482  1.00  0.00     0.169 HD
BRANCH  12  15
HETATM   15  C   UNL     1      -6.103   1.244 -31.817  1.00  0.00     0.087 A 
HETATM   16  C   UNL     1      -5.473  -0.131 -31.607  1.00  0.00     0.032 A 
HETATM   17  C   UNL     1      -6.665   0.294 -30.796  1.00  0.00     0.025 A 
BRANCH  16  18
HETATM   18  C   UNL     1      -5.538  -1.116 -32.743  1.00  0.00    -0.051 A 
HETATM   19  C   UNL     1      -4.568  -2.110 -32.936  1.00  0.00     0.031 A 
HETATM   20  C   UNL     1      -4.642  -2.982 -34.027  1.00  0.00     0.034 A 
HETATM   21  C   UNL     1      -5.678  -2.875 -34.951  1.00  0.00     0.024 A 
HETATM   22 CL   UNL     1      -3.437  -4.193 -34.233  1.00  0.00    -0.084 Cl
HETATM   23  C   UNL     1      -6.648  -1.892 -34.782  1.00  0.00     0.002 A 
HETATM   24  C   UNL     1      -6.575  -1.026 -33.690  1.00  0.00     0.007 A 
ENDBRANCH  16  18
ENDBRANCH  12  15
ENDBRANCH   1  11
BRANCH   8  25
HETATM   25  C   UNL     1       0.374   5.093 -30.412  1.00  0.00     0.270 C 
HETATM   26  N   UNL     1      -0.054   5.386 -29.147  1.00  0.00    -0.365 N 
HETATM   27  H   UNL     1      -0.860   5.989 -29.034  1.00  0.00     0.159 HD
HETATM   28  H   UNL     1       0.443   5.012 -28.354  1.00  0.00     0.159 HD
HETATM   29  O   UNL     1       1.350   4.375 -30.600  1.00  0.00    -0.266 OA
ENDBRANCH   8  25
TORSDOF 4
ENDMDL
MODEL 6
REMARK VINA RESULT:      -8.6      4.623      6.787
REMARK  4 active torsions:
REMARK  status: ('A' for Active; 'I' for Inactive)
REMARK    1  A    between atoms: C_6  and  C_7 
REMARK    2  A    between atoms: C_8  and  C_9 
REMARK       I    between atoms: C_9  and  N_10 
REMARK    3  A    between atoms: N_10  and  C_11 
REMARK    4  A    between atoms: C_18  and  C_19 
REMARK       I    between atoms: C_19  and  N_20 
ROOT
HETATM    1  C   UNL     1      -4.817   3.779 -32.370  1.00  0.00     0.035 A 
HETATM    2  C   UNL     1      -5.249   4.131 -31.085  1.00  0.00     0.046 A 
HETATM    3  C   UNL     1      -4.691   5.257 -30.442  1.00  0.00     0.030 A 
HETATM    4  C   UNL     1      -3.720   5.994 -31.106  1.00  0.00     0.063 A 
HETATM    5  N   UNL     1      -3.389   7.009 -30.251  1.00  0.00    -0.277 N 
HETATM    6  H   UNL     1      -2.713   7.748 -30.409  1.00  0.00     0.189 HD
HETATM    7  N   UNL     1      -4.051   6.991 -29.083  1.00  0.00    -0.168 NA
HETATM    8  C   UNL     1      -4.860   5.912 -29.185  1.00  0.00     0.156 A 
HETATM    9  C   UNL     1      -3.258   5.670 -32.384  1.00  0.00     0.034 A 
HETATM   10  C   UNL     1      -3.824   4.544 -32.997  1.00  0.00     0.032 A 
ENDROOT
BRANCH   1  11
HETATM   11  N   UNL     1      -5.339   2.689 -33.099  1.00  0.00    -0.327 N 
HETATM   12  C   UNL     1      -6.542   2.642 -33.769  1.00  0.00     0.227 C 
HETATM   13  O   UNL     1      -7.410   3.499 -33.800  1.00  0.00    -0.273 OA
HETATM   14  H   UNL     1      -4.747   1.876 -33.174  1.00  0.00     0.169 HD
BRANCH  12  15
HETATM   15  C   UNL     1      -6.781   1.404 -34.561  1.00  0.00     0.087 A 
HETATM   16  C   UNL     1      -7.108   0.157 -33.743  1.00  0.00     0.032 A 
HETATM   17  C   UNL     1      -8.078   0.673 -34.768  1.00  0.00     0.025 A 
BRANCH  16  18
HETATM   18  C   UNL     1      -6.244  -1.061 -33.941  1.00  0.00    -0.051 A 
HETATM   19  C   UNL     1      -6.703  -2.210 -34.601  1.00  0.00     0.031 A 
HETATM   20  C   UNL     1      -5.884  -3.336 -34.730  1.00  0.00     0.034 A 
HETATM   21  C   UNL     1      -4.598  -3.343 -34.197  1.00  0.00     0.024 A 
HETATM   22 CL   UNL     1      -6.476  -4.730 -35.548  1.00  0.00    -0.084 Cl
HETATM   23  C   UNL     1      -4.125  -2.215 -33.534  1.00  0.00     0.002 A 
HETATM   24  C   UNL     1      -4.942  -1.090 -33.410  1.00  0.00     0.007 A 
ENDBRANCH  16  18
ENDBRANCH  12  15
ENDBRANCH   1  11
BRANCH   8  25
HETATM   25  C   UNL     1      -5.766   5.532 -28.092  1.00  0.00     0.270 C 
HETATM   26  N   UNL     1      -5.130   5.214 -26.923  1.00  0.00    -0.365 N 
HETATM   27  H   UNL     1      -4.119   5.253 -26.895  1.00  0.00     0.159 HD
HETATM   28  H   UNL     1      -5.672   4.933 -26.122  1.00  0.00     0.159 HD
HETATM   29  O   UNL     1      -6.988   5.489 -28.179  1.00  0.00    -0.266 OA
ENDBRANCH   8  25
TORSDOF 4
ENDMDL
MODEL 7
REMARK VINA RESULT:      -8.6      5.032      8.026
REMARK  4 active torsions:
REMARK  status: ('A' for Active; 'I' for Inactive)
REMARK    1  A    between atoms: C_6  and  C_7 
REMARK    2  A    between atoms: C_8  and  C_9 
REMARK       I    between atoms: C_9  and  N_10 
REMARK    3  A    between atoms: N_10  and  C_11 
REMARK    4  A    between atoms: C_18  and  C_19 
REMARK       I    between atoms: C_19  and  N_20 
ROOT
HETATM    1  C   UNL     1      -5.255   0.124 -33.202  1.00  0.00     0.035 A 
HETATM    2  C   UNL     1      -4.604  -1.113 -33.104  1.00  0.00     0.046 A 
HETATM    3  C   UNL     1      -5.055  -2.207 -33.873  1.00  0.00     0.030 A 
HETATM    4  C   UNL     1      -6.143  -2.027 -34.717  1.00  0.00     0.063 A 
HETATM    5  N   UNL     1      -6.332  -3.237 -35.325  1.00  0.00    -0.277 N 
HETATM    6  H   UNL     1      -7.038  -3.475 -36.012  1.00  0.00     0.189 HD
HETATM    7  N   UNL     1      -5.469  -4.193 -34.944  1.00  0.00    -0.168 NA
HETATM    8  C   UNL     1      -4.673  -3.571 -34.044  1.00  0.00     0.156 A 
HETATM    9  C   UNL     1      -6.823  -0.813 -34.836  1.00  0.00     0.034 A 
HETATM   10  C   UNL     1      -6.358   0.255 -34.057  1.00  0.00     0.032 A 
ENDROOT
BRANCH   1  11
HETATM   11  N   UNL     1      -4.854   1.277 -32.494  1.00  0.00    -0.327 N 
HETATM   12  C   UNL     1      -5.470   1.827 -31.391  1.00  0.00     0.227 C 
HETATM   13  O   UNL     1      -6.510   1.468 -30.865  1.00  0.00    -0.273 OA
HETATM   14  H   UNL     1      -4.000   1.716 -32.802  1.00  0.00     0.169 HD
BRANCH  12  15
HETATM   15  C   UNL     1      -4.754   2.975 -30.771  1.00  0.00     0.087 A 
HETATM   16  C   UNL     1      -4.852   4.295 -31.531  1.00  0.00     0.032 A 
HETATM   17  C   UNL     1      -5.347   4.191 -30.115  1.00  0.00     0.025 A 
BRANCH  16  18
HETATM   18  C   UNL     1      -3.569   4.978 -31.924  1.00  0.00    -0.051 A 
HETATM   19  C   UNL     1      -2.997   4.832 -33.196  1.00  0.00     0.031 A 
HETATM   20  C   UNL     1      -1.783   5.451 -33.511  1.00  0.00     0.034 A 
HETATM   21  C   UNL     1      -1.112   6.219 -32.563  1.00  0.00     0.024 A 
HETATM   22 CL   UNL     1      -1.109   5.254 -35.082  1.00  0.00    -0.084 Cl
HETATM   23  C   UNL     1      -1.659   6.372 -31.293  1.00  0.00     0.002 A 
HETATM   24  C   UNL     1      -2.873   5.758 -30.983  1.00  0.00     0.007 A 
ENDBRANCH  16  18
ENDBRANCH  12  15
ENDBRANCH   1  11
BRANCH   8  25
HETATM   25  C   UNL     1      -3.578  -4.285 -33.373  1.00  0.00     0.270 C 
HETATM   26  N   UNL     1      -3.116  -5.374 -34.061  1.00  0.00    -0.365 N 
HETATM   27  H   UNL     1      -3.548  -5.607 -34.946  1.00  0.00     0.159 HD
HETATM   28  H   UNL     1      -2.370  -5.929 -33.672  1.00  0.00     0.159 HD
HETATM   29  O   UNL     1      -3.094  -3.968 -32.292  1.00  0.00    -0.266 OA
ENDBRANCH   8  25
TORSDOF 4
ENDMDL
MODEL 8
REMARK VINA RESULT:      -8.6      5.606      7.845
REMARK  4 active torsions:
REMARK  status: ('A' for Active; 'I' for Inactive)
REMARK    1  A    between atoms: C_6  and  C_7 
REMARK    2  A    between atoms: C_8  and  C_9 
REMARK       I    between atoms: C_9  and  N_10 
REMARK    3  A    between atoms: N_10  and  C_11 
REMARK    4  A    between atoms: C_18  and  C_19 
REMARK       I    between atoms: C_19  and  N_20 
ROOT
HETATM    1  C   UNL     1      -4.515   4.495 -30.742  1.00  0.00     0.035 A 
HETATM    2  C   UNL     1      -3.536   5.225 -31.427  1.00  0.00     0.046 A 
HETATM    3  C   UNL     1      -3.537   6.635 -31.359  1.00  0.00     0.030 A 
HETATM    4  C   UNL     1      -4.518   7.268 -30.608  1.00  0.00     0.063 A 
HETATM    5  N   UNL     1      -4.255   8.605 -30.723  1.00  0.00    -0.277 N 
HETATM    6  H   UNL     1      -4.766   9.370 -30.299  1.00  0.00     0.189 HD
HETATM    7  N   UNL     1      -3.194   8.900 -31.493  1.00  0.00    -0.168 NA
HETATM    8  C   UNL     1      -2.740   7.691 -31.896  1.00  0.00     0.156 A 
HETATM    9  C   UNL     1      -5.515   6.575 -29.918  1.00  0.00     0.034 A 
HETATM   10  C   UNL     1      -5.494   5.176 -30.006  1.00  0.00     0.032 A 
ENDROOT
BRANCH   1  11
HETATM   11  N   UNL     1      -4.573   3.084 -30.728  1.00  0.00    -0.327 N 
HETATM   12  C   UNL     1      -5.216   2.274 -31.638  1.00  0.00     0.227 C 
HETATM   13  O   UNL     1      -5.912   2.619 -32.579  1.00  0.00    -0.273 OA
HETATM   14  H   UNL     1      -4.048   2.622 -30.002  1.00  0.00     0.169 HD
BRANCH  12  15
HETATM   15  C   UNL     1      -5.002   0.813 -31.449  1.00  0.00     0.087 A 
HETATM   16  C   UNL     1      -4.078   0.150 -32.467  1.00  0.00     0.032 A 
HETATM   17  C   UNL     1      -3.752   0.110 -31.000  1.00  0.00     0.025 A 
BRANCH  16  18
HETATM   18  C   UNL     1      -4.612  -1.027 -33.241  1.00  0.00    -0.051 A 
HETATM   19  C   UNL     1      -3.965  -2.271 -33.263  1.00  0.00     0.031 A 
HETATM   20  C   UNL     1      -4.471  -3.328 -34.025  1.00  0.00     0.034 A 
HETATM   21  C   UNL     1      -5.625  -3.165 -34.787  1.00  0.00     0.024 A 
HETATM   22 CL   UNL     1      -3.654  -4.842 -34.029  1.00  0.00    -0.084 Cl
HETATM   23  C   UNL     1      -6.280  -1.937 -34.783  1.00  0.00     0.002 A 
HETATM   24  C   UNL     1      -5.776  -0.885 -34.018  1.00  0.00     0.007 A 
ENDBRANCH  16  18
ENDBRANCH  12  15
ENDBRANCH   1  11
BRANCH   8  25
HETATM   25  C   UNL     1      -1.569   7.571 -32.775  1.00  0.00     0.270 C 
HETATM   26  N   UNL     1      -0.422   7.194 -32.131  1.00  0.00    -0.365 N 
HETATM   27  H   UNL     1      -0.457   7.037 -31.131  1.00  0.00     0.159 HD
HETATM   28  H   UNL     1       0.433   7.095 -32.654  1.00  0.00     0.159 HD
HETATM   29  O   UNL     1      -1.575   7.782 -33.983  1.00  0.00    -0.266 OA
ENDBRANCH   8  25
TORSDOF 4
ENDMDL
MODEL 9
REMARK VINA RESULT:      -8.3      4.774      7.567
REMARK  4 active torsions:
REMARK  status: ('A' for Active; 'I' for Inactive)
REMARK    1  A    between atoms: C_6  and  C_7 
REMARK    2  A    between atoms: C_8  and  C_9 
REMARK       I    between atoms: C_9  and  N_10 
REMARK    3  A    between atoms: N_10  and  C_11 
REMARK    4  A    between atoms: C_18  and  C_19 
REMARK       I    between atoms: C_19  and  N_20 
ROOT
HETATM    1  C   UNL     1      -5.042   3.697 -32.405  1.00  0.00     0.035 A 
HETATM    2  C   UNL     1      -3.706   3.941 -32.063  1.00  0.00     0.046 A 
HETATM    3  C   UNL     1      -3.378   5.065 -31.274  1.00  0.00     0.030 A 
HETATM    4  C   UNL     1      -4.398   5.907 -30.853  1.00  0.00     0.063 A 
HETATM    5  N   UNL     1      -3.782   6.878 -30.113  1.00  0.00    -0.277 N 
HETATM    6  H   UNL     1      -4.220   7.661 -29.641  1.00  0.00     0.189 HD
HETATM    7  N   UNL     1      -2.448   6.748 -30.023  1.00  0.00    -0.168 NA
HETATM    8  C   UNL     1      -2.182   5.632 -30.739  1.00  0.00     0.156 A 
HETATM    9  C   UNL     1      -5.740   5.702 -31.180  1.00  0.00     0.034 A 
HETATM   10  C   UNL     1      -6.037   4.582 -31.969  1.00  0.00     0.032 A 
ENDROOT
BRANCH   1  11
HETATM   11  N   UNL     1      -5.464   2.584 -33.163  1.00  0.00    -0.327 N 
HETATM   12  C   UNL     1      -6.663   2.441 -33.828  1.00  0.00     0.227 C 
HETATM   13  O   UNL     1      -7.609   3.213 -33.829  1.00  0.00    -0.273 OA
HETATM   14  H   UNL     1      -4.798   1.834 -33.266  1.00  0.00     0.169 HD
BRANCH  12  15
HETATM   15  C   UNL     1      -6.788   1.210 -34.655  1.00  0.00     0.087 A 
HETATM   16  C   UNL     1      -7.152  -0.058 -33.887  1.00  0.00     0.032 A 
HETATM   17  C   UNL     1      -8.038   0.445 -34.992  1.00  0.00     0.025 A 
BRANCH  16  18
HETATM   18  C   UNL     1      -6.237  -1.247 -34.019  1.00  0.00    -0.051 A 
HETATM   19  C   UNL     1      -6.608  -2.411 -34.709  1.00  0.00     0.031 A 
HETATM   20  C   UNL     1      -5.746  -3.509 -34.775  1.00  0.00     0.034 A 
HETATM   21  C   UNL     1      -4.502  -3.474 -34.151  1.00  0.00     0.024 A 
HETATM   22 CL   UNL     1      -6.231  -4.922 -35.631  1.00  0.00    -0.084 Cl
HETATM   23  C   UNL     1      -4.116  -2.332 -33.457  1.00  0.00     0.002 A 
HETATM   24  C   UNL     1      -4.976  -1.234 -33.395  1.00  0.00     0.007 A 
ENDBRANCH  16  18
ENDBRANCH  12  15
ENDBRANCH   1  11
BRANCH   8  25
HETATM   25  C   UNL     1      -0.808   5.135 -30.894  1.00  0.00     0.270 C 
HETATM   26  N   UNL     1      -0.138   4.965 -29.714  1.00  0.00    -0.365 N 
HETATM   27  H   UNL     1      -0.614   5.190 -28.849  1.00  0.00     0.159 HD
HETATM   28  H   UNL     1       0.814   4.635 -29.725  1.00  0.00     0.159 HD
HETATM   29  O   UNL     1      -0.271   4.885 -31.968  1.00  0.00    -0.266 OA
ENDBRANCH   8  25
TORSDOF 4
ENDMDL
MODEL 10
REMARK VINA RESULT:      -8.3      5.615      7.808
REMARK  4 active torsions:
REMARK  status: ('A' for Active; 'I' for Inactive)
REMARK    1  A    between atoms: C_6  and  C_7 
REMARK    2  A    between atoms: C_8  and  C_9 
REMARK       I    between atoms: C_9  and  N_10 
REMARK    3  A    between atoms: N_10  and  C_11 
REMARK    4  A    between atoms: C_18  and  C_19 
REMARK       I    between atoms: C_19  and  N_20 
ROOT
HETATM    1  C   UNL     1      -2.908   4.317 -31.761  1.00  0.00     0.035 A 
HETATM    2  C   UNL     1      -3.587   5.419 -31.226  1.00  0.00     0.046 A 
HETATM    3  C   UNL     1      -3.124   6.725 -31.495  1.00  0.00     0.030 A 
HETATM    4  C   UNL     1      -1.997   6.885 -32.290  1.00  0.00     0.063 A 
HETATM    5  N   UNL     1      -1.806   8.236 -32.377  1.00  0.00    -0.277 N 
HETATM    6  H   UNL     1      -1.075   8.721 -32.886  1.00  0.00     0.189 HD
HETATM    7  N   UNL     1      -2.703   8.971 -31.699  1.00  0.00    -0.168 NA
HETATM    8  C   UNL     1      -3.524   8.050 -31.146  1.00  0.00     0.156 A 
HETATM    9  C   UNL     1      -1.289   5.811 -32.834  1.00  0.00     0.034 A 
HETATM   10  C   UNL     1      -1.767   4.525 -32.547  1.00  0.00     0.032 A 
ENDROOT
BRANCH   1  11
HETATM   11  N   UNL     1      -3.317   2.979 -31.570  1.00  0.00    -0.327 N 
HETATM   12  C   UNL     1      -4.326   2.319 -32.237  1.00  0.00     0.227 C 
HETATM   13  O   UNL     1      -5.099   2.781 -33.060  1.00  0.00    -0.273 OA
HETATM   14  H   UNL     1      -2.782   2.438 -30.909  1.00  0.00     0.169 HD
BRANCH  12  15
HETATM   15  C   UNL     1      -4.455   0.870 -31.920  1.00  0.00     0.087 A 
HETATM   16  C   UNL     1      -3.829  -0.080 -32.938  1.00  0.00     0.032 A 
HETATM   17  C   UNL     1      -3.372  -0.087 -31.507  1.00  0.00     0.025 A 
BRANCH  16  18
HETATM   18  C   UNL     1      -4.709  -1.141 -33.545  1.00  0.00    -0.051 A 
HETATM   19  C   UNL     1      -4.314  -2.483 -33.641  1.00  0.00     0.031 A 
HETATM   20  C   UNL     1      -5.143  -3.432 -34.246  1.00  0.00     0.034 A 
HETATM   21  C   UNL     1      -6.377  -3.062 -34.775  1.00  0.00     0.024 A 
HETATM   22 CL   UNL     1      -4.631  -5.071 -34.346  1.00  0.00    -0.084 Cl
HETATM   23  C   UNL     1      -6.786  -1.734 -34.696  1.00  0.00     0.002 A 
HETATM   24  C   UNL     1      -5.959  -0.789 -34.086  1.00  0.00     0.007 A 
ENDBRANCH  16  18
ENDBRANCH  12  15
ENDBRANCH   1  11
BRANCH   8  25
HETATM   25  C   UNL     1      -4.662   8.450 -30.306  1.00  0.00     0.270 C 
HETATM   26  N   UNL     1      -5.536   9.305 -30.918  1.00  0.00    -0.365 N 
HETATM   27  H   UNL     1      -5.344   9.598 -31.868  1.00  0.00     0.159 HD
HETATM   28  H   UNL     1      -6.342   9.639 -30.413  1.00  0.00     0.159 HD
HETATM   29  O   UNL     1      -4.847   8.075 -29.153  1.00  0.00    -0.266 OA
ENDBRANCH   8  25
TORSDOF 4
ENDMDL
