MODEL 1
REMARK VINA RESULT:      -9.7      0.000      0.000
REMARK  7 active torsions:
REMARK  status: ('A' for Active; 'I' for Inactive)
REMARK    1  A    between atoms: C_7  and  C_8 
REMARK    2  A    between atoms: C_11  and  N_12 
REMARK       I    between atoms: N_12  and  C_13 
REMARK    3  A    between atoms: C_13  and  C_14 
REMARK    4  A    between atoms: C_14  and  N_15 
REMARK    5  A    between atoms: N_15  and  C_16 
REMARK    6  A    between atoms: C_17  and  O_18 
REMARK    7  A    between atoms: C_22  and  N_23 
REMARK       I    between atoms: N_23  and  C_24 
ROOT
HETATM    1  N   UNL     1      -4.427   6.278 -30.840  1.00  0.00    -0.326 N 
HETATM    2  C   UNL     1      -5.033   7.451 -31.246  1.00  0.00     0.239 C 
HETATM    3  O   UNL     1      -6.025   7.523 -31.970  1.00  0.00    -0.271 OA
HETATM    4  H   UNL     1      -3.743   6.377 -30.109  1.00  0.00     0.169 HD
ENDROOT
BRANCH   2   5
HETATM    5  C   UNL     1      -4.310   8.736 -30.755  1.00  0.00     0.148 C 
HETATM    6  C   UNL     1      -5.205   9.969 -30.796  1.00  0.00     0.036 C 
BRANCH   5   7
HETATM    7  N   UNL     1      -2.968   8.982 -31.341  1.00  0.00    -0.278 NA
HETATM    8  H   UNL     1      -2.690   9.948 -31.123  1.00  0.00     0.128 HD
BRANCH   7   9
HETATM    9  C   UNL     1      -1.839   8.187 -31.091  1.00  0.00     0.044 C 
HETATM   10  C   UNL     1      -1.166   7.600 -32.186  1.00  0.00     0.089 C 
HETATM   11  C   UNL     1       0.004   6.868 -31.987  1.00  0.00     0.041 C 
HETATM   12  C   UNL     1       0.510   6.695 -30.696  1.00  0.00     0.032 C 
HETATM   13  C   UNL     1      -0.170   7.208 -29.594  1.00  0.00     0.036 C 
HETATM   14  C   UNL     1      -1.373   7.901 -29.802  1.00  0.00     0.055 C 
BRANCH  10  15
HETATM   15  O   UNL     1      -1.718   7.852 -33.422  1.00  0.00    -0.354 OA
HETATM   16  C   UNL     1      -1.859   6.718 -34.272  1.00  0.00     0.210 C 
ENDBRANCH  10  15
BRANCH  13  17
HETATM   17  N   UNL     1       0.303   7.122 -28.267  1.00  0.00    -0.327 N 
HETATM   18  C   UNL     1       1.245   7.936 -27.660  1.00  0.00     0.218 C 
HETATM   19  C   UNL     1       1.397   7.642 -26.189  1.00  0.00     0.117 C 
HETATM   20  O   UNL     1       1.874   8.850 -28.182  1.00  0.00    -0.274 OA
HETATM   21  H   UNL     1      -0.139   6.427 -27.679  1.00  0.00     0.169 HD
ENDBRANCH  13  17
ENDBRANCH   7   9
ENDBRANCH   5   7
ENDBRANCH   2   5
BRANCH   1  22
HETATM   22  C   UNL     1      -4.683   4.957 -31.237  1.00  0.00     0.034 A 
HETATM   23  C   UNL     1      -5.691   4.153 -30.710  1.00  0.00     0.030 A 
HETATM   24  C   UNL     1      -5.910   2.862 -31.222  1.00  0.00     0.016 A 
HETATM   25  C   UNL     1      -5.125   2.351 -32.268  1.00  0.00    -0.000 A 
HETATM   26  C   UNL     1      -4.106   3.171 -32.776  1.00  0.00     0.016 A 
HETATM   27  C   UNL     1      -3.887   4.452 -32.269  1.00  0.00     0.030 A 
BRANCH  25  28
HETATM   28  C   UNL     1      -5.314   1.018 -32.877  1.00  0.00     0.109 A 
HETATM   29  N   UNL     1      -4.384   0.082 -32.860  1.00  0.00    -0.240 NA
HETATM   30  C   UNL     1      -4.837  -1.070 -33.474  1.00  0.00     0.075 A 
HETATM   31  C   UNL     1      -6.138  -1.009 -33.967  1.00  0.00     0.036 A 
HETATM   32  C   UNL     1      -4.105  -2.263 -33.628  1.00  0.00     0.033 A 
HETATM   33  C   UNL     1      -6.740  -2.105 -34.610  1.00  0.00     0.028 A 
HETATM   34  S   UNL     1      -6.784   0.553 -33.641  1.00  0.00    -0.067 SA
HETATM   35  C   UNL     1      -6.001  -3.291 -34.753  1.00  0.00    -0.061 A 
HETATM   36  C   UNL     1      -6.604  -4.490 -35.428  1.00  0.00     0.048 C 
HETATM   37  C   UNL     1      -4.694  -3.361 -34.265  1.00  0.00     0.009 A 
ENDBRANCH  25  28
ENDBRANCH   1  22
TORSDOF 7
ENDMDL
MODEL 2
REMARK VINA RESULT:      -9.5      1.342      3.311
REMARK  7 active torsions:
REMARK  status: ('A' for Active; 'I' for Inactive)
REMARK    1  A    between atoms: C_7  and  C_8 
REMARK    2  A    between atoms: C_11  and  N_12 
REMARK       I    between atoms: N_12  and  C_13 
REMARK    3  A    between atoms: C_13  and  C_14 
REMARK    4  A    between atoms: C_14  and  N_15 
REMARK    5  A    between atoms: N_15  and  C_16 
REMARK    6  A    between atoms: C_17  and  O_18 
REMARK    7  A    between atoms: C_22  and  N_23 
REMARK       I    between atoms: N_23  and  C_24 
ROOT
HETATM    1  N   UNL     1      -4.557   5.672 -29.662  1.00  0.00    -0.326 N 
HETATM    2  C   UNL     1      -4.911   6.988 -29.880  1.00  0.00     0.239 C 
HETATM    3  O   UNL     1      -5.569   7.397 -30.836  1.00  0.00    -0.271 OA
HETATM    4  H   UNL     1      -4.178   5.472 -28.752  1.00  0.00     0.169 HD
ENDROOT
BRANCH   2   5
HETATM    5  C   UNL     1      -4.347   7.976 -28.822  1.00  0.00     0.148 C 
HETATM    6  C   UNL     1      -5.416   8.892 -28.238  1.00  0.00     0.036 C 
BRANCH   5   7
HETATM    7  N   UNL     1      -3.118   8.711 -29.219  1.00  0.00    -0.278 NA
HETATM    8  H   UNL     1      -2.807   9.280 -28.421  1.00  0.00     0.128 HD
BRANCH   7   9
HETATM    9  C   UNL     1      -1.965   8.101 -29.735  1.00  0.00     0.044 C 
HETATM   10  C   UNL     1      -0.767   8.172 -28.989  1.00  0.00     0.089 C 
HETATM   11  C   UNL     1       0.380   7.512 -29.429  1.00  0.00     0.041 C 
HETATM   12  C   UNL     1       0.357   6.790 -30.625  1.00  0.00     0.032 C 
HETATM   13  C   UNL     1      -0.793   6.759 -31.411  1.00  0.00     0.036 C 
HETATM   14  C   UNL     1      -1.926   7.467 -30.983  1.00  0.00     0.055 C 
BRANCH  10  15
HETATM   15  O   UNL     1      -0.848   8.876 -27.808  1.00  0.00    -0.354 OA
HETATM   16  C   UNL     1      -0.629   8.113 -26.626  1.00  0.00     0.210 C 
ENDBRANCH  10  15
BRANCH  13  17
HETATM   17  N   UNL     1      -0.912   6.010 -32.602  1.00  0.00    -0.327 N 
HETATM   18  C   UNL     1      -1.258   6.485 -33.857  1.00  0.00     0.218 C 
HETATM   19  C   UNL     1      -1.143   5.425 -34.923  1.00  0.00     0.117 C 
HETATM   20  O   UNL     1      -1.570   7.633 -34.148  1.00  0.00    -0.274 OA
HETATM   21  H   UNL     1      -0.658   5.033 -32.544  1.00  0.00     0.169 HD
ENDBRANCH  13  17
ENDBRANCH   7   9
ENDBRANCH   5   7
ENDBRANCH   2   5
BRANCH   1  22
HETATM   22  C   UNL     1      -4.723   4.553 -30.492  1.00  0.00     0.034 A 
HETATM   23  C   UNL     1      -4.108   4.388 -31.731  1.00  0.00     0.030 A 
HETATM   24  C   UNL     1      -4.286   3.198 -32.459  1.00  0.00     0.016 A 
HETATM   25  C   UNL     1      -5.083   2.154 -31.963  1.00  0.00    -0.000 A 
HETATM   26  C   UNL     1      -5.704   2.344 -30.720  1.00  0.00     0.016 A 
HETATM   27  C   UNL     1      -5.529   3.525 -29.997  1.00  0.00     0.030 A 
BRANCH  25  28
HETATM   28  C   UNL     1      -5.292   0.865 -32.656  1.00  0.00     0.109 A 
HETATM   29  N   UNL     1      -4.363  -0.069 -32.730  1.00  0.00    -0.240 NA
HETATM   30  C   UNL     1      -4.836  -1.177 -33.406  1.00  0.00     0.075 A 
HETATM   31  C   UNL     1      -6.150  -1.084 -33.856  1.00  0.00     0.036 A 
HETATM   32  C   UNL     1      -4.110  -2.356 -33.662  1.00  0.00     0.033 A 
HETATM   33  C   UNL     1      -6.772  -2.134 -34.554  1.00  0.00     0.028 A 
HETATM   34  S   UNL     1      -6.784   0.452 -33.406  1.00  0.00    -0.067 SA
HETATM   35  C   UNL     1      -6.039  -3.307 -34.797  1.00  0.00    -0.061 A 
HETATM   36  C   UNL     1      -6.664  -4.458 -35.535  1.00  0.00     0.048 C 
HETATM   37  C   UNL     1      -4.719  -3.410 -34.355  1.00  0.00     0.009 A 
ENDBRANCH  25  28
ENDBRANCH   1  22
TORSDOF 7
ENDMDL
MODEL 3
REMARK VINA RESULT:      -9.2      1.702      2.230
REMARK  7 active torsions:
REMARK  status: ('A' for Active; 'I' for Inactive)
REMARK    1  A    between atoms: C_7  and  C_8 
REMARK    2  A    between atoms: C_11  and  N_12 
REMARK       I    between atoms: N_12  and  C_13 
REMARK    3  A    between atoms: C_13  and  C_14 
REMARK    4  A    between atoms: C_14  and  N_15 
REMARK    5  A    between atoms: N_15  and  C_16 
REMARK    6  A    between atoms: C_17  and  O_18 
REMARK    7  A    between atoms: C_22  and  N_23 
REMARK       I    between atoms: N_23  and  C_24 
ROOT
HETATM    1  N   UNL     1      -3.671   5.808 -30.354  1.00  0.00    -0.326 N 
HETATM    2  C   UNL     1      -3.762   7.054 -30.942  1.00  0.00     0.239 C 
HETATM    3  O   UNL     1      -4.353   7.301 -31.992  1.00  0.00    -0.271 OA
HETATM    4  H   UNL     1      -3.314   5.801 -29.413  1.00  0.00     0.169 HD
ENDROOT
BRANCH   2   5
HETATM    5  C   UNL     1      -2.982   8.166 -30.187  1.00  0.00     0.148 C 
HETATM    6  C   UNL     1      -3.509   9.565 -30.485  1.00  0.00     0.036 C 
BRANCH   5   7
HETATM    7  N   UNL     1      -1.501   8.083 -30.270  1.00  0.00    -0.278 NA
HETATM    8  H   UNL     1      -1.147   8.964 -30.665  1.00  0.00     0.128 HD
BRANCH   7   9
HETATM    9  C   UNL     1      -0.665   7.778 -29.185  1.00  0.00     0.044 C 
HETATM   10  C   UNL     1      -0.153   6.467 -29.069  1.00  0.00     0.089 C 
HETATM   11  C   UNL     1       0.744   6.146 -28.051  1.00  0.00     0.041 C 
HETATM   12  C   UNL     1       1.127   7.118 -27.122  1.00  0.00     0.032 C 
HETATM   13  C   UNL     1       0.585   8.400 -27.176  1.00  0.00     0.036 C 
HETATM   14  C   UNL     1      -0.353   8.698 -28.176  1.00  0.00     0.055 C 
BRANCH  10  15
HETATM   15  O   UNL     1      -0.558   5.586 -30.047  1.00  0.00    -0.354 OA
HETATM   16  C   UNL     1       0.445   5.213 -30.987  1.00  0.00     0.210 C 
ENDBRANCH  10  15
BRANCH  13  17
HETATM   17  N   UNL     1       0.961   9.450 -26.310  1.00  0.00    -0.327 N 
HETATM   18  C   UNL     1       0.293   9.874 -25.173  1.00  0.00     0.218 C 
HETATM   19  C   UNL     1       1.063  10.926 -24.414  1.00  0.00     0.117 C 
HETATM   20  O   UNL     1      -0.769   9.445 -24.740  1.00  0.00    -0.274 OA
HETATM   21  H   UNL     1       1.844   9.901 -26.510  1.00  0.00     0.169 HD
ENDBRANCH  13  17
ENDBRANCH   7   9
ENDBRANCH   5   7
ENDBRANCH   2   5
BRANCH   1  22
HETATM   22  C   UNL     1      -4.080   4.558 -30.841  1.00  0.00     0.034 A 
HETATM   23  C   UNL     1      -5.347   4.011 -30.653  1.00  0.00     0.030 A 
HETATM   24  C   UNL     1      -5.681   2.778 -31.240  1.00  0.00     0.016 A 
HETATM   25  C   UNL     1      -4.756   2.069 -32.022  1.00  0.00    -0.000 A 
HETATM   26  C   UNL     1      -3.481   2.630 -32.190  1.00  0.00     0.016 A 
HETATM   27  C   UNL     1      -3.147   3.854 -31.608  1.00  0.00     0.030 A 
BRANCH  25  28
HETATM   28  C   UNL     1      -5.044   0.785 -32.694  1.00  0.00     0.109 A 
HETATM   29  N   UNL     1      -4.126  -0.141 -32.897  1.00  0.00    -0.240 NA
HETATM   30  C   UNL     1      -4.674  -1.247 -33.517  1.00  0.00     0.075 A 
HETATM   31  C   UNL     1      -6.037  -1.161 -33.792  1.00  0.00     0.036 A 
HETATM   32  C   UNL     1      -3.980  -2.418 -33.876  1.00  0.00     0.033 A 
HETATM   33  C   UNL     1      -6.737  -2.210 -34.414  1.00  0.00     0.028 A 
HETATM   34  S   UNL     1      -6.618   0.366 -33.249  1.00  0.00    -0.067 SA
HETATM   35  C   UNL     1      -6.033  -3.375 -34.762  1.00  0.00    -0.061 A 
HETATM   36  C   UNL     1      -6.740  -4.524 -35.424  1.00  0.00     0.048 C 
HETATM   37  C   UNL     1      -4.666  -3.470 -34.495  1.00  0.00     0.009 A 
ENDBRANCH  25  28
ENDBRANCH   1  22
TORSDOF 7
ENDMDL
MODEL 4
REMARK VINA RESULT:      -8.8      3.140      4.522
REMARK  7 active torsions:
REMARK  status: ('A' for Active; 'I' for Inactive)
REMARK    1  A    between atoms: C_7  and  C_8 
REMARK    2  A    between atoms: C_11  and  N_12 
REMARK       I    between atoms: N_12  and  C_13 
REMARK    3  A    between atoms: C_13  and  C_14 
REMARK    4  A    between atoms: C_14  and  N_15 
REMARK    5  A    between atoms: N_15  and  C_16 
REMARK    6  A    between atoms: C_17  and  O_18 
REMARK    7  A    between atoms: C_22  and  N_23 
REMARK       I    between atoms: N_23  and  C_24 
ROOT
HETATM    1  N   UNL     1      -1.886   4.929 -30.906  1.00  0.00    -0.326 N 
HETATM    2  C   UNL     1      -0.803   5.421 -31.608  1.00  0.00     0.239 C 
HETATM    3  O   UNL     1      -0.733   5.505 -32.834  1.00  0.00    -0.271 OA
HETATM    4  H   UNL     1      -1.866   5.093 -29.914  1.00  0.00     0.169 HD
ENDROOT
BRANCH   2   5
HETATM    5  C   UNL     1       0.400   5.822 -30.712  1.00  0.00     0.148 C 
HETATM    6  C   UNL     1       0.747   4.759 -29.676  1.00  0.00     0.036 C 
BRANCH   5   7
HETATM    7  N   UNL     1       0.344   7.189 -30.133  1.00  0.00    -0.278 NA
HETATM    8  H   UNL     1      -0.359   7.732 -30.650  1.00  0.00     0.128 HD
BRANCH   7   9
HETATM    9  C   UNL     1       0.127   7.463 -28.774  1.00  0.00     0.044 C 
HETATM   10  C   UNL     1      -1.201   7.502 -28.292  1.00  0.00     0.089 C 
HETATM   11  C   UNL     1      -1.455   7.693 -26.935  1.00  0.00     0.041 C 
HETATM   12  C   UNL     1      -0.394   7.866 -26.041  1.00  0.00     0.032 C 
HETATM   13  C   UNL     1       0.920   7.896 -26.501  1.00  0.00     0.036 C 
HETATM   14  C   UNL     1       1.162   7.753 -27.876  1.00  0.00     0.055 C 
BRANCH  10  15
HETATM   15  O   UNL     1      -2.178   7.288 -29.238  1.00  0.00    -0.354 OA
HETATM   16  C   UNL     1      -3.517   7.462 -28.784  1.00  0.00     0.210 C 
ENDBRANCH  10  15
BRANCH  13  17
HETATM   17  N   UNL     1       2.046   8.013 -25.657  1.00  0.00    -0.327 N 
HETATM   18  C   UNL     1       2.499   9.157 -25.021  1.00  0.00     0.218 C 
HETATM   19  C   UNL     1       3.646   8.877 -24.083  1.00  0.00     0.117 C 
HETATM   20  O   UNL     1       2.031  10.286 -25.115  1.00  0.00    -0.274 OA
HETATM   21  H   UNL     1       2.539   7.155 -25.448  1.00  0.00     0.169 HD
ENDBRANCH  13  17
ENDBRANCH   7   9
ENDBRANCH   5   7
ENDBRANCH   2   5
BRANCH   1  22
HETATM   22  C   UNL     1      -3.052   4.309 -31.380  1.00  0.00     0.034 A 
HETATM   23  C   UNL     1      -3.223   2.932 -31.502  1.00  0.00     0.030 A 
HETATM   24  C   UNL     1      -4.455   2.405 -31.926  1.00  0.00     0.016 A 
HETATM   25  C   UNL     1      -5.537   3.243 -32.237  1.00  0.00    -0.000 A 
HETATM   26  C   UNL     1      -5.342   4.628 -32.121  1.00  0.00     0.016 A 
HETATM   27  C   UNL     1      -4.119   5.153 -31.701  1.00  0.00     0.030 A 
BRANCH  25  28
HETATM   28  C   UNL     1      -6.869   2.762 -32.659  1.00  0.00     0.109 A 
HETATM   29  N   UNL     1      -7.363   1.597 -32.285  1.00  0.00    -0.240 NA
HETATM   30  C   UNL     1      -8.633   1.415 -32.800  1.00  0.00     0.075 A 
HETATM   31  C   UNL     1      -9.114   2.463 -33.581  1.00  0.00     0.036 A 
HETATM   32  C   UNL     1      -9.450   0.287 -32.595  1.00  0.00     0.033 A 
HETATM   33  C   UNL     1     -10.391   2.426 -34.167  1.00  0.00     0.028 A 
HETATM   34  S   UNL     1      -7.914   3.695 -33.658  1.00  0.00    -0.067 SA
HETATM   35  C   UNL     1     -11.198   1.297 -33.950  1.00  0.00    -0.061 A 
HETATM   36  C   UNL     1     -12.573   1.215 -34.551  1.00  0.00     0.048 C 
HETATM   37  C   UNL     1     -10.724   0.239 -33.171  1.00  0.00     0.009 A 
ENDBRANCH  25  28
ENDBRANCH   1  22
TORSDOF 7
ENDMDL
MODEL 5
REMARK VINA RESULT:      -8.7      7.172     10.589
REMARK  7 active torsions:
REMARK  status: ('A' for Active; 'I' for Inactive)
REMARK    1  A    between atoms: C_7  and  C_8 
REMARK    2  A    between atoms: C_11  and  N_12 
REMARK       I    between atoms: N_12  and  C_13 
REMARK    3  A    between atoms: C_13  and  C_14 
REMARK    4  A    between atoms: C_14  and  N_15 
REMARK    5  A    between atoms: N_15  and  C_16 
REMARK    6  A    between atoms: C_17  and  O_18 
REMARK    7  A    between atoms: C_22  and  N_23 
REMARK       I    between atoms: N_23  and  C_24 
ROOT
HETATM    1  N   UNL     1     -10.958   4.487 -33.555  1.00  0.00    -0.326 N 
HETATM    2  C   UNL     1     -11.318   5.202 -32.430  1.00  0.00     0.239 C 
HETATM    3  O   UNL     1     -10.750   5.141 -31.340  1.00  0.00    -0.271 OA
HETATM    4  H   UNL     1     -11.400   4.779 -34.410  1.00  0.00     0.169 HD
ENDROOT
BRANCH   2   5
HETATM    5  C   UNL     1     -12.583   6.084 -32.621  1.00  0.00     0.148 C 
HETATM    6  C   UNL     1     -12.260   7.571 -32.704  1.00  0.00     0.036 C 
BRANCH   5   7
HETATM    7  N   UNL     1     -13.714   5.794 -31.703  1.00  0.00    -0.278 NA
HETATM    8  H   UNL     1     -14.314   6.627 -31.653  1.00  0.00     0.128 HD
BRANCH   7   9
HETATM    9  C   UNL     1     -14.580   4.698 -31.838  1.00  0.00     0.044 C 
HETATM   10  C   UNL     1     -15.973   4.920 -31.772  1.00  0.00     0.089 C 
HETATM   11  C   UNL     1     -16.867   3.870 -31.981  1.00  0.00     0.041 C 
HETATM   12  C   UNL     1     -16.388   2.583 -32.237  1.00  0.00     0.032 C 
HETATM   13  C   UNL     1     -15.019   2.325 -32.242  1.00  0.00     0.036 C 
HETATM   14  C   UNL     1     -14.129   3.379 -31.983  1.00  0.00     0.055 C 
BRANCH  10  15
HETATM   15  O   UNL     1     -16.353   6.225 -31.549  1.00  0.00    -0.354 OA
HETATM   16  C   UNL     1     -17.398   6.709 -32.387  1.00  0.00     0.210 C 
ENDBRANCH  10  15
BRANCH  13  17
HETATM   17  N   UNL     1     -14.456   1.066 -32.546  1.00  0.00    -0.327 N 
HETATM   18  C   UNL     1     -13.957   0.646 -33.768  1.00  0.00     0.218 C 
HETATM   19  C   UNL     1     -13.300  -0.709 -33.685  1.00  0.00     0.117 C 
HETATM   20  O   UNL     1     -13.959   1.276 -34.819  1.00  0.00    -0.274 OA
HETATM   21  H   UNL     1     -14.351   0.425 -31.771  1.00  0.00     0.169 HD
ENDBRANCH  13  17
ENDBRANCH   7   9
ENDBRANCH   5   7
ENDBRANCH   2   5
BRANCH   1  22
HETATM   22  C   UNL     1     -10.004   3.469 -33.699  1.00  0.00     0.034 A 
HETATM   23  C   UNL     1      -8.630   3.677 -33.787  1.00  0.00     0.030 A 
HETATM   24  C   UNL     1      -7.750   2.584 -33.863  1.00  0.00     0.016 A 
HETATM   25  C   UNL     1      -8.227   1.263 -33.856  1.00  0.00    -0.000 A 
HETATM   26  C   UNL     1      -9.615   1.074 -33.780  1.00  0.00     0.016 A 
HETATM   27  C   UNL     1     -10.490   2.158 -33.705  1.00  0.00     0.030 A 
BRANCH  25  28
HETATM   28  C   UNL     1      -7.363   0.065 -33.902  1.00  0.00     0.109 A 
HETATM   29  N   UNL     1      -7.748  -1.077 -34.440  1.00  0.00    -0.240 NA
HETATM   30  C   UNL     1      -6.736  -2.016 -34.373  1.00  0.00     0.075 A 
HETATM   31  C   UNL     1      -5.559  -1.579 -33.772  1.00  0.00     0.036 A 
HETATM   32  C   UNL     1      -6.806  -3.336 -34.856  1.00  0.00     0.033 A 
HETATM   33  C   UNL     1      -4.438  -2.418 -33.638  1.00  0.00     0.028 A 
HETATM   34  S   UNL     1      -5.758   0.059 -33.283  1.00  0.00    -0.067 SA
HETATM   35  C   UNL     1      -4.519  -3.732 -34.128  1.00  0.00    -0.061 A 
HETATM   36  C   UNL     1      -3.346  -4.663 -34.012  1.00  0.00     0.048 C 
HETATM   37  C   UNL     1      -5.697  -4.181 -34.729  1.00  0.00     0.009 A 
ENDBRANCH  25  28
ENDBRANCH   1  22
TORSDOF 7
ENDMDL
MODEL 6
REMARK VINA RESULT:      -8.6      2.213      3.192
REMARK  7 active torsions:
REMARK  status: ('A' for Active; 'I' for Inactive)
REMARK    1  A    between atoms: C_7  and  C_8 
REMARK    2  A    between atoms: C_11  and  N_12 
REMARK       I    between atoms: N_12  and  C_13 
REMARK    3  A    between atoms: C_13  and  C_14 
REMARK    4  A    between atoms: C_14  and  N_15 
REMARK    5  A    between atoms: N_15  and  C_16 
REMARK    6  A    between atoms: C_17  and  O_18 
REMARK    7  A    between atoms: C_22  and  N_23 
REMARK       I    between atoms: N_23  and  C_24 
ROOT
HETATM    1  N   UNL     1      -3.695   5.729 -30.412  1.00  0.00    -0.326 N 
HETATM    2  C   UNL     1      -3.360   6.898 -31.067  1.00  0.00     0.239 C 
HETATM    3  O   UNL     1      -3.512   7.104 -32.271  1.00  0.00    -0.271 OA
HETATM    4  H   UNL     1      -3.681   5.779 -29.408  1.00  0.00     0.169 HD
ENDROOT
BRANCH   2   5
HETATM    5  C   UNL     1      -2.693   7.963 -30.154  1.00  0.00     0.148 C 
HETATM    6  C   UNL     1      -2.008   9.073 -30.943  1.00  0.00     0.036 C 
BRANCH   5   7
HETATM    7  N   UNL     1      -1.842   7.431 -29.059  1.00  0.00    -0.278 NA
HETATM    8  H   UNL     1      -0.857   7.527 -29.337  1.00  0.00     0.128 HD
BRANCH   7   9
HETATM    9  C   UNL     1      -1.915   7.856 -27.724  1.00  0.00     0.044 C 
HETATM   10  C   UNL     1      -3.005   7.430 -26.934  1.00  0.00     0.089 C 
HETATM   11  C   UNL     1      -3.072   7.766 -25.582  1.00  0.00     0.041 C 
HETATM   12  C   UNL     1      -2.067   8.545 -25.003  1.00  0.00     0.032 C 
HETATM   13  C   UNL     1      -1.016   9.032 -25.776  1.00  0.00     0.036 C 
HETATM   14  C   UNL     1      -0.984   8.729 -27.146  1.00  0.00     0.055 C 
BRANCH  10  15
HETATM   15  O   UNL     1      -3.929   6.638 -27.580  1.00  0.00    -0.354 OA
HETATM   16  C   UNL     1      -5.279   7.083 -27.497  1.00  0.00     0.210 C 
ENDBRANCH  10  15
BRANCH  13  17
HETATM   17  N   UNL     1       0.063   9.779 -25.256  1.00  0.00    -0.327 N 
HETATM   18  C   UNL     1       1.358   9.337 -25.038  1.00  0.00     0.218 C 
HETATM   19  C   UNL     1       2.281  10.450 -24.610  1.00  0.00     0.117 C 
HETATM   20  O   UNL     1       1.787   8.203 -25.213  1.00  0.00    -0.274 OA
HETATM   21  H   UNL     1      -0.114  10.760 -25.081  1.00  0.00     0.169 HD
ENDBRANCH  13  17
ENDBRANCH   7   9
ENDBRANCH   5   7
ENDBRANCH   2   5
BRANCH   1  22
HETATM   22  C   UNL     1      -4.133   4.505 -30.938  1.00  0.00     0.034 A 
HETATM   23  C   UNL     1      -5.469   4.151 -31.115  1.00  0.00     0.030 A 
HETATM   24  C   UNL     1      -5.805   2.924 -31.713  1.00  0.00     0.016 A 
HETATM   25  C   UNL     1      -4.813   2.027 -32.142  1.00  0.00    -0.000 A 
HETATM   26  C   UNL     1      -3.474   2.395 -31.943  1.00  0.00     0.016 A 
HETATM   27  C   UNL     1      -3.139   3.613 -31.350  1.00  0.00     0.030 A 
BRANCH  25  28
HETATM   28  C   UNL     1      -5.089   0.736 -32.805  1.00  0.00     0.109 A 
HETATM   29  N   UNL     1      -4.187  -0.221 -32.916  1.00  0.00    -0.240 NA
HETATM   30  C   UNL     1      -4.720  -1.326 -33.551  1.00  0.00     0.075 A 
HETATM   31  C   UNL     1      -6.054  -1.208 -33.931  1.00  0.00     0.036 A 
HETATM   32  C   UNL     1      -4.036  -2.525 -33.829  1.00  0.00     0.033 A 
HETATM   33  C   UNL     1      -6.737  -2.252 -34.580  1.00  0.00     0.028 A 
HETATM   34  S   UNL     1      -6.628   0.348 -33.468  1.00  0.00    -0.067 SA
HETATM   35  C   UNL     1      -6.044  -3.444 -34.847  1.00  0.00    -0.061 A 
HETATM   36  C   UNL     1      -6.734  -4.589 -35.534  1.00  0.00     0.048 C 
HETATM   37  C   UNL     1      -4.705  -3.572 -34.474  1.00  0.00     0.009 A 
ENDBRANCH  25  28
ENDBRANCH   1  22
TORSDOF 7
ENDMDL
MODEL 7
REMARK VINA RESULT:      -8.4      3.395     11.060
REMARK  7 active torsions:
REMARK  status: ('A' for Active; 'I' for Inactive)
REMARK    1  A    between atoms: C_7  and  C_8 
REMARK    2  A    between atoms: C_11  and  N_12 
REMARK       I    between atoms: N_12  and  C_13 
REMARK    3  A    between atoms: C_13  and  C_14 
REMARK    4  A    between atoms: C_14  and  N_15 
REMARK    5  A    between atoms: N_15  and  C_16 
REMARK    6  A    between atoms: C_17  and  O_18 
REMARK    7  A    between atoms: C_22  and  N_23 
REMARK       I    between atoms: N_23  and  C_24 
ROOT
HETATM    1  N   UNL     1      -2.424   5.617 -31.691  1.00  0.00    -0.326 N 
HETATM    2  C   UNL     1      -2.749   5.955 -32.990  1.00  0.00     0.239 C 
HETATM    3  O   UNL     1      -2.437   7.006 -33.548  1.00  0.00    -0.271 OA
HETATM    4  H   UNL     1      -2.591   4.657 -31.441  1.00  0.00     0.169 HD
ENDROOT
BRANCH   2   5
HETATM    5  C   UNL     1      -3.627   4.898 -33.716  1.00  0.00     0.148 C 
HETATM    6  C   UNL     1      -3.808   5.198 -35.199  1.00  0.00     0.036 C 
BRANCH   5   7
HETATM    7  N   UNL     1      -4.904   4.550 -33.042  1.00  0.00    -0.278 NA
HETATM    8  H   UNL     1      -5.663   4.608 -33.733  1.00  0.00     0.128 HD
BRANCH   7   9
HETATM    9  C   UNL     1      -5.120   3.365 -32.323  1.00  0.00     0.044 C 
HETATM   10  C   UNL     1      -5.192   3.428 -30.914  1.00  0.00     0.089 C 
HETATM   11  C   UNL     1      -5.484   2.287 -30.169  1.00  0.00     0.041 C 
HETATM   12  C   UNL     1      -5.689   1.063 -30.813  1.00  0.00     0.032 C 
HETATM   13  C   UNL     1      -5.560   0.962 -32.196  1.00  0.00     0.036 C 
HETATM   14  C   UNL     1      -5.217   2.107 -32.931  1.00  0.00     0.055 C 
BRANCH  10  15
HETATM   15  O   UNL     1      -5.010   4.680 -30.369  1.00  0.00    -0.354 OA
HETATM   16  C   UNL     1      -5.804   4.968 -29.222  1.00  0.00     0.210 C 
ENDBRANCH  10  15
BRANCH  13  17
HETATM   17  N   UNL     1      -5.803  -0.223 -32.925  1.00  0.00    -0.327 N 
HETATM   18  C   UNL     1      -7.032  -0.717 -33.330  1.00  0.00     0.218 C 
HETATM   19  C   UNL     1      -6.900  -1.931 -34.215  1.00  0.00     0.117 C 
HETATM   20  O   UNL     1      -8.134  -0.239 -33.087  1.00  0.00    -0.274 OA
HETATM   21  H   UNL     1      -4.987  -0.733 -33.235  1.00  0.00     0.169 HD
ENDBRANCH  13  17
ENDBRANCH   7   9
ENDBRANCH   5   7
ENDBRANCH   2   5
BRANCH   1  22
HETATM   22  C   UNL     1      -1.817   6.392 -30.692  1.00  0.00     0.034 A 
HETATM   23  C   UNL     1      -2.499   7.240 -29.823  1.00  0.00     0.030 A 
HETATM   24  C   UNL     1      -1.806   7.924 -28.810  1.00  0.00     0.016 A 
HETATM   25  C   UNL     1      -0.420   7.776 -28.647  1.00  0.00    -0.000 A 
HETATM   26  C   UNL     1       0.252   6.927 -29.540  1.00  0.00     0.016 A 
HETATM   27  C   UNL     1      -0.434   6.247 -30.547  1.00  0.00     0.030 A 
BRANCH  25  28
HETATM   28  C   UNL     1       0.370   8.438 -27.589  1.00  0.00     0.109 A 
HETATM   29  N   UNL     1       0.243   9.717 -27.291  1.00  0.00    -0.240 NA
HETATM   30  C   UNL     1       1.079  10.063 -26.247  1.00  0.00     0.075 A 
HETATM   31  C   UNL     1       1.858   9.027 -25.740  1.00  0.00     0.036 A 
HETATM   32  C   UNL     1       1.193  11.344 -25.674  1.00  0.00     0.033 A 
HETATM   33  C   UNL     1       2.751   9.223 -24.672  1.00  0.00     0.028 A 
HETATM   34  S   UNL     1       1.513   7.589 -26.622  1.00  0.00    -0.067 SA
HETATM   35  C   UNL     1       2.852  10.505 -24.106  1.00  0.00    -0.061 A 
HETATM   36  C   UNL     1       3.789  10.762 -22.960  1.00  0.00     0.048 C 
HETATM   37  C   UNL     1       2.078  11.553 -24.610  1.00  0.00     0.009 A 
ENDBRANCH  25  28
ENDBRANCH   1  22
TORSDOF 7
ENDMDL
MODEL 8
REMARK VINA RESULT:      -8.2      1.732      2.915
REMARK  7 active torsions:
REMARK  status: ('A' for Active; 'I' for Inactive)
REMARK    1  A    between atoms: C_7  and  C_8 
REMARK    2  A    between atoms: C_11  and  N_12 
REMARK       I    between atoms: N_12  and  C_13 
REMARK    3  A    between atoms: C_13  and  C_14 
REMARK    4  A    between atoms: C_14  and  N_15 
REMARK    5  A    between atoms: N_15  and  C_16 
REMARK    6  A    between atoms: C_17  and  O_18 
REMARK    7  A    between atoms: C_22  and  N_23 
REMARK       I    between atoms: N_23  and  C_24 
ROOT
HETATM    1  N   UNL     1      -4.988   5.894 -29.840  1.00  0.00    -0.326 N 
HETATM    2  C   UNL     1      -5.381   7.124 -30.328  1.00  0.00     0.239 C 
HETATM    3  O   UNL     1      -6.114   7.300 -31.301  1.00  0.00    -0.271 OA
HETATM    4  H   UNL     1      -4.541   5.910 -28.939  1.00  0.00     0.169 HD
ENDROOT
BRANCH   2   5
HETATM    5  C   UNL     1      -4.761   8.330 -29.570  1.00  0.00     0.148 C 
HETATM    6  C   UNL     1      -4.094   9.335 -30.502  1.00  0.00     0.036 C 
BRANCH   5   7
HETATM    7  N   UNL     1      -3.915   7.988 -28.398  1.00  0.00    -0.278 NA
HETATM    8  H   UNL     1      -4.156   7.037 -28.090  1.00  0.00     0.128 HD
BRANCH   7   9
HETATM    9  C   UNL     1      -2.514   8.059 -28.387  1.00  0.00     0.044 C 
HETATM   10  C   UNL     1      -1.894   9.161 -27.757  1.00  0.00     0.089 C 
HETATM   11  C   UNL     1      -0.506   9.228 -27.656  1.00  0.00     0.041 C 
HETATM   12  C   UNL     1       0.286   8.211 -28.195  1.00  0.00     0.032 C 
HETATM   13  C   UNL     1      -0.298   7.147 -28.878  1.00  0.00     0.036 C 
HETATM   14  C   UNL     1      -1.694   7.114 -29.017  1.00  0.00     0.055 C 
BRANCH  10  15
HETATM   15  O   UNL     1      -2.754  10.097 -27.225  1.00  0.00    -0.354 OA
HETATM   16  C   UNL     1      -2.208  10.908 -26.190  1.00  0.00     0.210 C 
ENDBRANCH  10  15
BRANCH  13  17
HETATM   17  N   UNL     1       0.428   6.055 -29.404  1.00  0.00    -0.327 N 
HETATM   18  C   UNL     1       0.556   5.702 -30.737  1.00  0.00     0.218 C 
HETATM   19  C   UNL     1       1.527   4.565 -30.939  1.00  0.00     0.117 C 
HETATM   20  O   UNL     1       0.024   6.246 -31.697  1.00  0.00    -0.274 OA
HETATM   21  H   UNL     1       0.959   5.509 -28.739  1.00  0.00     0.169 HD
ENDBRANCH  13  17
ENDBRANCH   7   9
ENDBRANCH   5   7
ENDBRANCH   2   5
BRANCH   1  22
HETATM   22  C   UNL     1      -5.192   4.614 -30.377  1.00  0.00     0.034 A 
HETATM   23  C   UNL     1      -6.234   3.761 -30.018  1.00  0.00     0.030 A 
HETATM   24  C   UNL     1      -6.391   2.522 -30.663  1.00  0.00     0.016 A 
HETATM   25  C   UNL     1      -5.509   2.111 -31.675  1.00  0.00    -0.000 A 
HETATM   26  C   UNL     1      -4.458   2.977 -32.013  1.00  0.00     0.016 A 
HETATM   27  C   UNL     1      -4.300   4.207 -31.374  1.00  0.00     0.030 A 
BRANCH  25  28
HETATM   28  C   UNL     1      -5.628   0.839 -32.417  1.00  0.00     0.109 A 
HETATM   29  N   UNL     1      -4.588   0.085 -32.720  1.00  0.00    -0.240 NA
HETATM   30  C   UNL     1      -4.989  -1.057 -33.388  1.00  0.00     0.075 A 
HETATM   31  C   UNL     1      -6.360  -1.173 -33.597  1.00  0.00     0.036 A 
HETATM   32  C   UNL     1      -4.140  -2.079 -33.854  1.00  0.00     0.033 A 
HETATM   33  C   UNL     1      -6.919  -2.282 -34.256  1.00  0.00     0.028 A 
HETATM   34  S   UNL     1      -7.144   0.207 -32.930  1.00  0.00    -0.067 SA
HETATM   35  C   UNL     1      -6.062  -3.297 -34.710  1.00  0.00    -0.061 A 
HETATM   36  C   UNL     1      -6.614  -4.504 -35.415  1.00  0.00     0.048 C 
HETATM   37  C   UNL     1      -4.684  -3.189 -34.509  1.00  0.00     0.009 A 
ENDBRANCH  25  28
ENDBRANCH   1  22
TORSDOF 7
ENDMDL
MODEL 9
REMARK VINA RESULT:      -7.9      3.657      4.792
REMARK  7 active torsions:
REMARK  status: ('A' for Active; 'I' for Inactive)
REMARK    1  A    between atoms: C_7  and  C_8 
REMARK    2  A    between atoms: C_11  and  N_12 
REMARK       I    between atoms: N_12  and  C_13 
REMARK    3  A    between atoms: C_13  and  C_14 
REMARK    4  A    between atoms: C_14  and  N_15 
REMARK    5  A    between atoms: N_15  and  C_16 
REMARK    6  A    between atoms: C_17  and  O_18 
REMARK    7  A    between atoms: C_22  and  N_23 
REMARK       I    between atoms: N_23  and  C_24 
ROOT
HETATM    1  N   UNL     1      -3.178   5.367 -32.380  1.00  0.00    -0.326 N 
HETATM    2  C   UNL     1      -2.032   4.852 -31.808  1.00  0.00     0.239 C 
HETATM    3  O   UNL     1      -1.904   3.703 -31.386  1.00  0.00    -0.271 OA
HETATM    4  H   UNL     1      -3.070   6.257 -32.836  1.00  0.00     0.169 HD
ENDROOT
BRANCH   2   5
HETATM    5  C   UNL     1      -0.879   5.885 -31.667  1.00  0.00     0.148 C 
HETATM    6  C   UNL     1       0.390   5.278 -31.081  1.00  0.00     0.036 C 
BRANCH   5   7
HETATM    7  N   UNL     1      -1.245   7.175 -31.029  1.00  0.00    -0.278 NA
HETATM    8  H   UNL     1      -2.133   7.499 -31.435  1.00  0.00     0.128 HD
BRANCH   7   9
HETATM    9  C   UNL     1      -1.357   7.368 -29.644  1.00  0.00     0.044 C 
HETATM   10  C   UNL     1      -2.640   7.338 -29.055  1.00  0.00     0.089 C 
HETATM   11  C   UNL     1      -2.786   7.446 -27.673  1.00  0.00     0.041 C 
HETATM   12  C   UNL     1      -1.661   7.605 -26.860  1.00  0.00     0.032 C 
HETATM   13  C   UNL     1      -0.390   7.704 -27.422  1.00  0.00     0.036 C 
HETATM   14  C   UNL     1      -0.260   7.643 -28.818  1.00  0.00     0.055 C 
BRANCH  10  15
HETATM   15  O   UNL     1      -3.686   7.143 -29.929  1.00  0.00    -0.354 OA
HETATM   16  C   UNL     1      -4.625   8.211 -30.007  1.00  0.00     0.210 C 
ENDBRANCH  10  15
BRANCH  13  17
HETATM   17  N   UNL     1       0.798   7.812 -26.667  1.00  0.00    -0.327 N 
HETATM   18  C   UNL     1       1.345   8.965 -26.129  1.00  0.00     0.218 C 
HETATM   19  C   UNL     1       2.544   8.681 -25.259  1.00  0.00     0.117 C 
HETATM   20  O   UNL     1       0.920  10.108 -26.253  1.00  0.00    -0.274 OA
HETATM   21  H   UNL     1       1.267   6.944 -26.445  1.00  0.00     0.169 HD
ENDBRANCH  13  17
ENDBRANCH   7   9
ENDBRANCH   5   7
ENDBRANCH   2   5
BRANCH   1  22
HETATM   22  C   UNL     1      -4.454   4.795 -32.494  1.00  0.00     0.034 A 
HETATM   23  C   UNL     1      -5.370   4.687 -31.449  1.00  0.00     0.030 A 
HETATM   24  C   UNL     1      -6.651   4.157 -31.681  1.00  0.00     0.016 A 
HETATM   25  C   UNL     1      -7.040   3.723 -32.958  1.00  0.00    -0.000 A 
HETATM   26  C   UNL     1      -6.100   3.828 -33.994  1.00  0.00     0.016 A 
HETATM   27  C   UNL     1      -4.827   4.353 -33.767  1.00  0.00     0.030 A 
BRANCH  25  28
HETATM   28  C   UNL     1      -8.376   3.184 -33.284  1.00  0.00     0.109 A 
HETATM   29  N   UNL     1      -9.189   3.756 -34.151  1.00  0.00    -0.240 NA
HETATM   30  C   UNL     1     -10.356   3.028 -34.284  1.00  0.00     0.075 A 
HETATM   31  C   UNL     1     -10.432   1.879 -33.501  1.00  0.00     0.036 A 
HETATM   32  C   UNL     1     -11.436   3.351 -35.128  1.00  0.00     0.033 A 
HETATM   33  C   UNL     1     -11.554   1.032 -33.533  1.00  0.00     0.028 A 
HETATM   34  S   UNL     1      -8.985   1.737 -32.580  1.00  0.00    -0.067 SA
HETATM   35  C   UNL     1     -12.622   1.362 -34.383  1.00  0.00    -0.061 A 
HETATM   36  C   UNL     1     -13.840   0.484 -34.455  1.00  0.00     0.048 C 
HETATM   37  C   UNL     1     -12.558   2.515 -35.170  1.00  0.00     0.009 A 
ENDBRANCH  25  28
ENDBRANCH   1  22
TORSDOF 7
ENDMDL
MODEL 10
REMARK VINA RESULT:      -7.8      2.751      3.927
REMARK  7 active torsions:
REMARK  status: ('A' for Active; 'I' for Inactive)
REMARK    1  A    between atoms: C_7  and  C_8 
REMARK    2  A    between atoms: C_11  and  N_12 
REMARK       I    between atoms: N_12  and  C_13 
REMARK    3  A    between atoms: C_13  and  C_14 
REMARK    4  A    between atoms: C_14  and  N_15 
REMARK    5  A    between atoms: N_15  and  C_16 
REMARK    6  A    between atoms: C_17  and  O_18 
REMARK    7  A    between atoms: C_22  and  N_23 
REMARK       I    between atoms: N_23  and  C_24 
ROOT
HETATM    1  N   UNL     1      -3.798   5.527 -30.136  1.00  0.00    -0.326 N 
HETATM    2  C   UNL     1      -3.520   6.713 -30.787  1.00  0.00     0.239 C 
HETATM    3  O   UNL     1      -3.680   6.915 -31.990  1.00  0.00    -0.271 OA
HETATM    4  H   UNL     1      -3.787   5.575 -29.131  1.00  0.00     0.169 HD
ENDROOT
BRANCH   2   5
HETATM    5  C   UNL     1      -2.905   7.806 -29.871  1.00  0.00     0.148 C 
HETATM    6  C   UNL     1      -1.952   8.734 -30.614  1.00  0.00     0.036 C 
BRANCH   5   7
HETATM    7  N   UNL     1      -2.347   7.326 -28.580  1.00  0.00    -0.278 NA
HETATM    8  H   UNL     1      -1.452   6.857 -28.768  1.00  0.00     0.128 HD
BRANCH   7   9
HETATM    9  C   UNL     1      -2.132   8.142 -27.460  1.00  0.00     0.044 C 
HETATM   10  C   UNL     1      -0.805   8.467 -27.100  1.00  0.00     0.089 C 
HETATM   11  C   UNL     1      -0.553   9.339 -26.042  1.00  0.00     0.041 C 
HETATM   12  C   UNL     1      -1.615   9.884 -25.314  1.00  0.00     0.032 C 
HETATM   13  C   UNL     1      -2.929   9.527 -25.607  1.00  0.00     0.036 C 
HETATM   14  C   UNL     1      -3.169   8.611 -26.643  1.00  0.00     0.055 C 
BRANCH  10  15
HETATM   15  O   UNL     1       0.174   7.912 -27.894  1.00  0.00    -0.354 OA
HETATM   16  C   UNL     1       1.174   7.171 -27.202  1.00  0.00     0.210 C 
ENDBRANCH  10  15
BRANCH  13  17
HETATM   17  N   UNL     1      -4.057  10.073 -24.956  1.00  0.00    -0.327 N 
HETATM   18  C   UNL     1      -4.950  11.000 -25.467  1.00  0.00     0.218 C 
HETATM   19  C   UNL     1      -6.116  11.245 -24.542  1.00  0.00     0.117 C 
HETATM   20  O   UNL     1      -4.895  11.550 -26.561  1.00  0.00    -0.274 OA
HETATM   21  H   UNL     1      -4.267   9.701 -24.039  1.00  0.00     0.169 HD
ENDBRANCH  13  17
ENDBRANCH   7   9
ENDBRANCH   5   7
ENDBRANCH   2   5
BRANCH   1  22
HETATM   22  C   UNL     1      -4.176   4.285 -30.666  1.00  0.00     0.034 A 
HETATM   23  C   UNL     1      -5.420   3.688 -30.475  1.00  0.00     0.030 A 
HETATM   24  C   UNL     1      -5.726   2.468 -31.105  1.00  0.00     0.016 A 
HETATM   25  C   UNL     1      -4.794   1.822 -31.933  1.00  0.00    -0.000 A 
HETATM   26  C   UNL     1      -3.542   2.432 -32.102  1.00  0.00     0.016 A 
HETATM   27  C   UNL     1      -3.236   3.643 -31.478  1.00  0.00     0.030 A 
BRANCH  25  28
HETATM   28  C   UNL     1      -5.054   0.557 -32.650  1.00  0.00     0.109 A 
HETATM   29  N   UNL     1      -4.157  -0.406 -32.755  1.00  0.00    -0.240 NA
HETATM   30  C   UNL     1      -4.674  -1.483 -33.450  1.00  0.00     0.075 A 
HETATM   31  C   UNL     1      -5.989  -1.336 -33.882  1.00  0.00     0.036 A 
HETATM   32  C   UNL     1      -3.991  -2.679 -33.739  1.00  0.00     0.033 A 
HETATM   33  C   UNL     1      -6.653  -2.350 -34.595  1.00  0.00     0.028 A 
HETATM   34  S   UNL     1      -6.567   0.210 -33.392  1.00  0.00    -0.067 SA
HETATM   35  C   UNL     1      -5.963  -3.541 -34.873  1.00  0.00    -0.061 A 
HETATM   36  C   UNL     1      -6.633  -4.654 -35.627  1.00  0.00     0.048 C 
HETATM   37  C   UNL     1      -4.641  -3.697 -34.447  1.00  0.00     0.009 A 
ENDBRANCH  25  28
ENDBRANCH   1  22
TORSDOF 7
ENDMDL
