MODEL 1
REMARK VINA RESULT:      -8.5      0.000      0.000
REMARK  8 active torsions:
REMARK  status: ('A' for Active; 'I' for Inactive)
REMARK    1  A    between atoms: O_2  and  C_3 
REMARK    2  A    between atoms: C_10  and  C_11 
REMARK    3  A    between atoms: N_12  and  N_13 
REMARK       I    between atoms: N_13  and  C_14 
REMARK    4  A    between atoms: C_14  and  C_15 
REMARK    5  A    between atoms: N_18  and  C_19 
REMARK    6  A    between atoms: C_23  and  N_24 
REMARK    7  A    between atoms: C_25  and  C_26 
REMARK    8  A    between atoms: C_26  and  N_27 
ROOT
HETATM    1  C   UNL     1      -8.902   4.505 -34.143  1.00  0.00     0.176 C 
HETATM    2  N   UNL     1      -9.655   5.336 -34.920  1.00  0.00    -0.124 NA
HETATM    3  N   UNL     1     -10.871   4.832 -35.001  1.00  0.00    -0.058 NA
HETATM    4  N   UNL     1     -10.909   3.639 -34.350  1.00  0.00    -0.191 N 
HETATM    5  C   UNL     1      -9.695   3.464 -33.672  1.00  0.00     0.102 C 
ENDROOT
BRANCH   1   6
HETATM    6  C   UNL     1      -7.489   4.742 -33.882  1.00  0.00     0.294 C 
HETATM    7  N   UNL     1      -7.203   6.003 -33.399  1.00  0.00    -0.242 N 
HETATM    8  H   UNL     1      -7.950   6.682 -33.262  1.00  0.00     0.192 HD
HETATM    9  O   UNL     1      -6.666   3.848 -34.081  1.00  0.00    -0.264 OA
BRANCH   7  10
HETATM   10  N   UNL     1      -5.914   6.336 -33.115  1.00  0.00    -0.183 NA
HETATM   11  C   UNL     1      -5.624   6.451 -31.856  1.00  0.00     0.153 C 
BRANCH  11  12
HETATM   12  C   UNL     1      -4.261   6.812 -31.411  1.00  0.00     0.020 A 
HETATM   13  C   UNL     1      -3.301   5.814 -31.192  1.00  0.00     0.101 A 
HETATM   14  C   UNL     1      -1.993   6.183 -30.844  1.00  0.00     0.069 A 
HETATM   15 CL   UNL     1      -0.734   5.013 -30.670  1.00  0.00    -0.081 Cl
HETATM   16  C   UNL     1      -1.665   7.528 -30.656  1.00  0.00     0.050 A 
HETATM   17  C   UNL     1      -2.638   8.506 -30.838  1.00  0.00     0.036 A 
HETATM   18 CL   UNL     1      -2.236  10.163 -30.607  1.00  0.00    -0.084 Cl
HETATM   19  C   UNL     1      -3.931   8.160 -31.221  1.00  0.00     0.039 A 
BRANCH  13  20
HETATM   20  O   UNL     1      -3.640   4.500 -31.400  1.00  0.00    -0.353 OA
HETATM   21  C   UNL     1      -3.179   4.050 -32.679  1.00  0.00     0.210 C 
ENDBRANCH  13  20
ENDBRANCH  11  12
ENDBRANCH   7  10
ENDBRANCH   1   6
BRANCH   5  22
HETATM   22  C   UNL     1      -9.413   2.308 -32.774  1.00  0.00     0.296 C 
BRANCH  22  23
HETATM   23  N   UNL     1      -8.300   1.369 -33.217  1.00  0.00    -0.066 N 
HETATM   24  H   UNL     1      -7.474   1.978 -33.389  1.00  0.00     0.280 HD
HETATM   25  C   UNL     1      -7.912   0.395 -32.136  1.00  0.00     0.235 C 
HETATM   26  C   UNL     1      -6.619  -0.344 -32.455  1.00  0.00     0.028 C 
HETATM   27  C   UNL     1      -6.790  -1.417 -33.524  1.00  0.00     0.002 C 
HETATM   28  C   UNL     1      -6.657  -0.917 -34.957  1.00  0.00     0.002 C 
HETATM   29  C   UNL     1      -7.334   0.404 -35.307  1.00  0.00     0.028 C 
HETATM   30  C   UNL     1      -8.616   0.723 -34.551  1.00  0.00     0.235 C 
ENDBRANCH  22  23
ENDBRANCH   5  22
BRANCH   4  31
HETATM   31  C   UNL     1     -12.026   2.772 -34.435  1.00  0.00     0.229 A 
HETATM   32  N   UNL     1     -12.318   2.164 -35.586  1.00  0.00    -0.081 NA
HETATM   33  O   UNL     1     -13.476   1.437 -35.295  1.00  0.00    -0.103 OA
HETATM   34  N   UNL     1     -13.862   1.618 -33.974  1.00  0.00    -0.083 NA
HETATM   35  C   UNL     1     -12.969   2.449 -33.443  1.00  0.00     0.201 A 
BRANCH  35  36
HETATM   36  N   UNL     1     -12.991   2.877 -32.170  1.00  0.00    -0.379 N 
HETATM   37  H   UNL     1     -12.404   2.419 -31.477  1.00  0.00     0.158 HD
HETATM   38  H   UNL     1     -13.751   3.428 -31.778  1.00  0.00     0.158 HD
ENDBRANCH  35  36
ENDBRANCH   4  31
TORSDOF 8
ENDMDL
MODEL 2
REMARK VINA RESULT:      -8.4      3.715      6.217
REMARK  8 active torsions:
REMARK  status: ('A' for Active; 'I' for Inactive)
REMARK    1  A    between atoms: O_2  and  C_3 
REMARK    2  A    between atoms: C_10  and  C_11 
REMARK    3  A    between atoms: N_12  and  N_13 
REMARK       I    between atoms: N_13  and  C_14 
REMARK    4  A    between atoms: C_14  and  C_15 
REMARK    5  A    between atoms: N_18  and  C_19 
REMARK    6  A    between atoms: C_23  and  N_24 
REMARK    7  A    between atoms: C_25  and  C_26 
REMARK    8  A    between atoms: C_26  and  N_27 
ROOT
HETATM    1  C   UNL     1      -4.238  -0.628 -32.270  1.00  0.00     0.176 C 
HETATM    2  N   UNL     1      -3.429  -1.650 -31.869  1.00  0.00    -0.124 NA
HETATM    3  N   UNL     1      -3.683  -2.699 -32.628  1.00  0.00    -0.058 NA
HETATM    4  N   UNL     1      -4.704  -2.403 -33.476  1.00  0.00    -0.191 N 
HETATM    5  C   UNL     1      -4.993  -1.037 -33.365  1.00  0.00     0.102 C 
ENDROOT
BRANCH   1   6
HETATM    6  C   UNL     1      -4.248   0.670 -31.611  1.00  0.00     0.294 C 
HETATM    7  N   UNL     1      -3.108   1.421 -31.817  1.00  0.00    -0.242 N 
HETATM    8  H   UNL     1      -2.345   1.052 -32.382  1.00  0.00     0.192 HD
HETATM    9  O   UNL     1      -5.227   1.019 -30.951  1.00  0.00    -0.264 OA
BRANCH   7  10
HETATM   10  N   UNL     1      -3.009   2.656 -31.252  1.00  0.00    -0.183 NA
HETATM   11  C   UNL     1      -2.662   3.617 -32.051  1.00  0.00     0.153 C 
BRANCH  11  12
HETATM   12  C   UNL     1      -2.513   5.005 -31.563  1.00  0.00     0.020 A 
HETATM   13  C   UNL     1      -3.611   5.877 -31.564  1.00  0.00     0.101 A 
HETATM   14  C   UNL     1      -3.467   7.165 -31.028  1.00  0.00     0.069 A 
HETATM   15 CL   UNL     1      -4.804   8.250 -30.893  1.00  0.00    -0.081 Cl
HETATM   16  C   UNL     1      -2.226   7.598 -30.554  1.00  0.00     0.050 A 
HETATM   17  C   UNL     1      -1.134   6.735 -30.596  1.00  0.00     0.036 A 
HETATM   18 CL   UNL     1       0.395   7.266 -30.012  1.00  0.00    -0.084 Cl
HETATM   19  C   UNL     1      -1.269   5.440 -31.089  1.00  0.00     0.039 A 
BRANCH  13  20
HETATM   20  O   UNL     1      -4.825   5.425 -32.017  1.00  0.00    -0.353 OA
HETATM   21  C   UNL     1      -5.006   5.744 -33.401  1.00  0.00     0.210 C 
ENDBRANCH  13  20
ENDBRANCH  11  12
ENDBRANCH   7  10
ENDBRANCH   1   6
BRANCH   5  22
HETATM   22  C   UNL     1      -5.998  -0.337 -34.214  1.00  0.00     0.296 C 
BRANCH  22  23
HETATM   23  N   UNL     1      -6.961   0.593 -33.489  1.00  0.00    -0.066 N 
HETATM   24  H   UNL     1      -6.655   0.589 -32.494  1.00  0.00     0.280 HD
HETATM   25  C   UNL     1      -6.857   2.014 -33.976  1.00  0.00     0.235 C 
HETATM   26  C   UNL     1      -7.589   2.996 -33.070  1.00  0.00     0.028 C 
HETATM   27  C   UNL     1      -9.105   2.931 -33.219  1.00  0.00     0.002 C 
HETATM   28  C   UNL     1      -9.788   1.883 -32.349  1.00  0.00     0.002 C 
HETATM   29  C   UNL     1      -9.127   0.511 -32.250  1.00  0.00     0.028 C 
HETATM   30  C   UNL     1      -8.371   0.040 -33.485  1.00  0.00     0.235 C 
ENDBRANCH  22  23
ENDBRANCH   5  22
BRANCH   4  31
HETATM   31  C   UNL     1      -5.327  -3.395 -34.273  1.00  0.00     0.229 A 
HETATM   32  N   UNL     1      -6.491  -3.140 -34.873  1.00  0.00    -0.081 NA
HETATM   33  O   UNL     1      -6.799  -4.338 -35.525  1.00  0.00    -0.103 OA
HETATM   34  N   UNL     1      -5.817  -5.294 -35.308  1.00  0.00    -0.083 NA
HETATM   35  C   UNL     1      -4.908  -4.713 -34.528  1.00  0.00     0.201 A 
BRANCH  35  36
HETATM   36  N   UNL     1      -3.789  -5.311 -34.088  1.00  0.00    -0.379 N 
HETATM   37  H   UNL     1      -2.927  -4.777 -34.021  1.00  0.00     0.158 HD
HETATM   38  H   UNL     1      -3.658  -6.320 -34.087  1.00  0.00     0.158 HD
ENDBRANCH  35  36
ENDBRANCH   4  31
TORSDOF 8
ENDMDL
MODEL 3
REMARK VINA RESULT:      -8.2      5.110      9.774
REMARK  8 active torsions:
REMARK  status: ('A' for Active; 'I' for Inactive)
REMARK    1  A    between atoms: O_2  and  C_3 
REMARK    2  A    between atoms: C_10  and  C_11 
REMARK    3  A    between atoms: N_12  and  N_13 
REMARK       I    between atoms: N_13  and  C_14 
REMARK    4  A    between atoms: C_14  and  C_15 
REMARK    5  A    between atoms: N_18  and  C_19 
REMARK    6  A    between atoms: C_23  and  N_24 
REMARK    7  A    between atoms: C_25  and  C_26 
REMARK    8  A    between atoms: C_26  and  N_27 
ROOT
HETATM    1  C   UNL     1      -4.178   6.564 -29.281  1.00  0.00     0.176 C 
HETATM    2  N   UNL     1      -4.894   7.039 -28.222  1.00  0.00    -0.124 NA
HETATM    3  N   UNL     1      -4.064   7.669 -27.413  1.00  0.00    -0.058 NA
HETATM    4  N   UNL     1      -2.796   7.550 -27.888  1.00  0.00    -0.191 N 
HETATM    5  C   UNL     1      -2.850   6.960 -29.158  1.00  0.00     0.102 C 
ENDROOT
BRANCH   1   6
HETATM    6  C   UNL     1      -4.782   5.775 -30.346  1.00  0.00     0.294 C 
HETATM    7  N   UNL     1      -4.890   4.428 -30.064  1.00  0.00    -0.242 N 
HETATM    8  H   UNL     1      -4.553   4.060 -29.177  1.00  0.00     0.192 HD
HETATM    9  O   UNL     1      -5.158   6.323 -31.382  1.00  0.00    -0.264 OA
BRANCH   7  10
HETATM   10  N   UNL     1      -5.444   3.593 -30.987  1.00  0.00    -0.183 NA
HETATM   11  C   UNL     1      -5.498   2.341 -30.655  1.00  0.00     0.153 C 
BRANCH  11  12
HETATM   12  C   UNL     1      -6.071   1.329 -31.569  1.00  0.00     0.020 A 
HETATM   13  C   UNL     1      -5.229   0.512 -32.336  1.00  0.00     0.101 A 
HETATM   14  C   UNL     1      -5.790  -0.492 -33.140  1.00  0.00     0.069 A 
HETATM   15 CL   UNL     1      -4.809  -1.607 -34.021  1.00  0.00    -0.081 Cl
HETATM   16  C   UNL     1      -7.177  -0.636 -33.224  1.00  0.00     0.050 A 
HETATM   17  C   UNL     1      -8.003   0.209 -32.488  1.00  0.00     0.036 A 
HETATM   18 CL   UNL     1      -9.712   0.034 -32.591  1.00  0.00    -0.084 Cl
HETATM   19  C   UNL     1      -7.461   1.185 -31.656  1.00  0.00     0.039 A 
BRANCH  13  20
HETATM   20  O   UNL     1      -3.868   0.658 -32.223  1.00  0.00    -0.353 OA
HETATM   21  C   UNL     1      -3.336  -0.247 -31.250  1.00  0.00     0.210 C 
ENDBRANCH  13  20
ENDBRANCH  11  12
ENDBRANCH   7  10
ENDBRANCH   1   6
BRANCH   5  22
HETATM   22  C   UNL     1      -1.654   6.757 -30.023  1.00  0.00     0.296 C 
BRANCH  22  23
HETATM   23  N   UNL     1      -1.928   6.390 -31.475  1.00  0.00    -0.066 N 
HETATM   24  H   UNL     1      -2.964   6.411 -31.577  1.00  0.00     0.280 HD
HETATM   25  C   UNL     1      -1.369   7.406 -32.435  1.00  0.00     0.235 C 
HETATM   26  C   UNL     1      -1.884   7.210 -33.856  1.00  0.00     0.028 C 
HETATM   27  C   UNL     1      -1.249   6.019 -34.563  1.00  0.00     0.002 C 
HETATM   28  C   UNL     1      -1.940   4.685 -34.312  1.00  0.00     0.002 C 
HETATM   29  C   UNL     1      -2.382   4.379 -32.884  1.00  0.00     0.028 C 
HETATM   30  C   UNL     1      -1.518   4.962 -31.774  1.00  0.00     0.235 C 
ENDBRANCH  22  23
ENDBRANCH   5  22
BRANCH   4  31
HETATM   31  C   UNL     1      -1.670   7.953 -27.130  1.00  0.00     0.229 A 
HETATM   32  N   UNL     1      -1.402   9.250 -26.963  1.00  0.00    -0.081 NA
HETATM   33  O   UNL     1      -0.227   9.253 -26.206  1.00  0.00    -0.103 OA
HETATM   34  N   UNL     1       0.194   7.960 -25.929  1.00  0.00    -0.083 NA
HETATM   35  C   UNL     1      -0.695   7.155 -26.506  1.00  0.00     0.201 A 
BRANCH  35  36
HETATM   36  N   UNL     1      -0.643   5.813 -26.469  1.00  0.00    -0.379 N 
HETATM   37  H   UNL     1      -1.503   5.275 -26.542  1.00  0.00     0.158 HD
HETATM   38  H   UNL     1       0.145   5.294 -26.087  1.00  0.00     0.158 HD
ENDBRANCH  35  36
ENDBRANCH   4  31
TORSDOF 8
ENDMDL
MODEL 4
REMARK VINA RESULT:      -8.2      4.232      8.657
REMARK  8 active torsions:
REMARK  status: ('A' for Active; 'I' for Inactive)
REMARK    1  A    between atoms: O_2  and  C_3 
REMARK    2  A    between atoms: C_10  and  C_11 
REMARK    3  A    between atoms: N_12  and  N_13 
REMARK       I    between atoms: N_13  and  C_14 
REMARK    4  A    between atoms: C_14  and  C_15 
REMARK    5  A    between atoms: N_18  and  C_19 
REMARK    6  A    between atoms: C_23  and  N_24 
REMARK    7  A    between atoms: C_25  and  C_26 
REMARK    8  A    between atoms: C_26  and  N_27 
ROOT
HETATM    1  C   UNL     1      -5.176   5.249 -33.371  1.00  0.00     0.176 C 
HETATM    2  N   UNL     1      -4.402   5.632 -34.425  1.00  0.00    -0.124 NA
HETATM    3  N   UNL     1      -3.136   5.525 -34.067  1.00  0.00    -0.058 NA
HETATM    4  N   UNL     1      -3.069   5.148 -32.762  1.00  0.00    -0.191 N 
HETATM    5  C   UNL     1      -4.361   4.831 -32.323  1.00  0.00     0.102 C 
ENDROOT
BRANCH   1   6
HETATM    6  C   UNL     1      -6.631   5.289 -33.410  1.00  0.00     0.294 C 
HETATM    7  N   UNL     1      -7.217   4.157 -33.942  1.00  0.00    -0.242 N 
HETATM    8  H   UNL     1      -6.638   3.388 -34.275  1.00  0.00     0.192 HD
HETATM    9  O   UNL     1      -7.234   6.271 -32.978  1.00  0.00    -0.264 OA
BRANCH   7  10
HETATM   10  N   UNL     1      -8.574   4.080 -34.025  1.00  0.00    -0.183 NA
HETATM   11  C   UNL     1      -9.132   3.149 -33.315  1.00  0.00     0.153 C 
BRANCH  11  12
HETATM   12  C   UNL     1     -10.598   2.956 -33.319  1.00  0.00     0.020 A 
HETATM   13  C   UNL     1     -11.144   1.698 -33.610  1.00  0.00     0.101 A 
HETATM   14  C   UNL     1     -12.534   1.517 -33.535  1.00  0.00     0.069 A 
HETATM   15 CL   UNL     1     -13.264  -0.030 -33.768  1.00  0.00    -0.081 Cl
HETATM   16  C   UNL     1     -13.370   2.595 -33.235  1.00  0.00     0.050 A 
HETATM   17  C   UNL     1     -12.817   3.849 -32.989  1.00  0.00     0.036 A 
HETATM   18 CL   UNL     1     -13.846   5.177 -32.619  1.00  0.00    -0.084 Cl
HETATM   19  C   UNL     1     -11.438   4.036 -33.021  1.00  0.00     0.039 A 
BRANCH  13  20
HETATM   20  O   UNL     1     -10.302   0.648 -33.883  1.00  0.00    -0.353 OA
HETATM   21  C   UNL     1     -10.003  -0.090 -32.694  1.00  0.00     0.210 C 
ENDBRANCH  13  20
ENDBRANCH  11  12
ENDBRANCH   7  10
ENDBRANCH   1   6
BRANCH   5  22
HETATM   22  C   UNL     1      -4.660   4.289 -30.968  1.00  0.00     0.296 C 
BRANCH  22  23
HETATM   23  N   UNL     1      -4.688   2.772 -30.840  1.00  0.00    -0.066 N 
HETATM   24  H   UNL     1      -3.884   2.530 -30.225  1.00  0.00     0.280 HD
HETATM   25  C   UNL     1      -5.933   2.280 -30.151  1.00  0.00     0.235 C 
HETATM   26  C   UNL     1      -5.840   0.812 -29.757  1.00  0.00     0.028 C 
HETATM   27  C   UNL     1      -5.979  -0.136 -30.943  1.00  0.00     0.002 C 
HETATM   28  C   UNL     1      -4.680  -0.429 -31.682  1.00  0.00     0.002 C 
HETATM   29  C   UNL     1      -3.742   0.745 -31.948  1.00  0.00     0.028 C 
HETATM   30  C   UNL     1      -4.405   2.098 -32.167  1.00  0.00     0.235 C 
ENDBRANCH  22  23
ENDBRANCH   5  22
BRANCH   4  31
HETATM   31  C   UNL     1      -1.848   5.144 -32.045  1.00  0.00     0.229 A 
HETATM   32  N   UNL     1      -1.541   4.121 -31.246  1.00  0.00    -0.081 NA
HETATM   33  O   UNL     1      -0.306   4.483 -30.700  1.00  0.00    -0.103 OA
HETATM   34  N   UNL     1       0.112   5.716 -31.178  1.00  0.00    -0.083 NA
HETATM   35  C   UNL     1      -0.845   6.130 -32.006  1.00  0.00     0.201 A 
BRANCH  35  36
HETATM   36  N   UNL     1      -0.818   7.291 -32.680  1.00  0.00    -0.379 N 
HETATM   37  H   UNL     1       0.053   7.811 -32.751  1.00  0.00     0.158 HD
HETATM   38  H   UNL     1      -1.651   7.841 -32.881  1.00  0.00     0.158 HD
ENDBRANCH  35  36
ENDBRANCH   4  31
TORSDOF 8
ENDMDL
MODEL 5
REMARK VINA RESULT:      -8.1      5.104      9.557
REMARK  8 active torsions:
REMARK  status: ('A' for Active; 'I' for Inactive)
REMARK    1  A    between atoms: O_2  and  C_3 
REMARK    2  A    between atoms: C_10  and  C_11 
REMARK    3  A    between atoms: N_12  and  N_13 
REMARK       I    between atoms: N_13  and  C_14 
REMARK    4  A    between atoms: C_14  and  C_15 
REMARK    5  A    between atoms: N_18  and  C_19 
REMARK    6  A    between atoms: C_23  and  N_24 
REMARK    7  A    between atoms: C_25  and  C_26 
REMARK    8  A    between atoms: C_26  and  N_27 
ROOT
HETATM    1  C   UNL     1      -5.573   5.746 -28.433  1.00  0.00     0.176 C 
HETATM    2  N   UNL     1      -5.933   5.835 -27.121  1.00  0.00    -0.124 NA
HETATM    3  N   UNL     1      -5.318   6.877 -26.595  1.00  0.00    -0.058 NA
HETATM    4  N   UNL     1      -4.496   7.431 -27.526  1.00  0.00    -0.191 N 
HETATM    5  C   UNL     1      -4.738   6.810 -28.759  1.00  0.00     0.102 C 
ENDROOT
BRANCH   1   6
HETATM    6  C   UNL     1      -6.038   4.676 -29.305  1.00  0.00     0.294 C 
HETATM    7  N   UNL     1      -5.207   3.573 -29.344  1.00  0.00    -0.242 N 
HETATM    8  H   UNL     1      -4.346   3.560 -28.801  1.00  0.00     0.192 HD
HETATM    9  O   UNL     1      -7.098   4.796 -29.918  1.00  0.00    -0.264 OA
BRANCH   7  10
HETATM   10  N   UNL     1      -5.544   2.509 -30.123  1.00  0.00    -0.183 NA
HETATM   11  C   UNL     1      -4.775   2.290 -31.144  1.00  0.00     0.153 C 
BRANCH  11  12
HETATM   12  C   UNL     1      -5.033   1.169 -32.073  1.00  0.00     0.020 A 
HETATM   13  C   UNL     1      -5.986   1.300 -33.094  1.00  0.00     0.101 A 
HETATM   14  C   UNL     1      -6.161   0.253 -34.010  1.00  0.00     0.069 A 
HETATM   15 CL   UNL     1      -7.234   0.392 -35.356  1.00  0.00    -0.081 Cl
HETATM   16  C   UNL     1      -5.440  -0.935 -33.871  1.00  0.00     0.050 A 
HETATM   17  C   UNL     1      -4.526  -1.068 -32.829  1.00  0.00     0.036 A 
HETATM   18 CL   UNL     1      -3.636  -2.531 -32.656  1.00  0.00    -0.084 Cl
HETATM   19  C   UNL     1      -4.311  -0.024 -31.934  1.00  0.00     0.039 A 
BRANCH  13  20
HETATM   20  O   UNL     1      -6.670   2.484 -33.223  1.00  0.00    -0.353 OA
HETATM   21  C   UNL     1      -5.989   3.373 -34.115  1.00  0.00     0.210 C 
ENDBRANCH  13  20
ENDBRANCH  11  12
ENDBRANCH   7  10
ENDBRANCH   1   6
BRANCH   5  22
HETATM   22  C   UNL     1      -4.082   7.225 -30.031  1.00  0.00     0.296 C 
BRANCH  22  23
HETATM   23  N   UNL     1      -2.722   6.606 -30.320  1.00  0.00    -0.066 N 
HETATM   24  H   UNL     1      -2.466   6.082 -29.458  1.00  0.00     0.280 HD
HETATM   25  C   UNL     1      -2.778   5.605 -31.444  1.00  0.00     0.235 C 
HETATM   26  C   UNL     1      -1.506   4.773 -31.547  1.00  0.00     0.028 C 
HETATM   27  C   UNL     1      -0.331   5.544 -32.135  1.00  0.00     0.002 C 
HETATM   28  C   UNL     1       0.478   6.344 -31.122  1.00  0.00     0.002 C 
HETATM   29  C   UNL     1      -0.294   7.125 -30.063  1.00  0.00     0.028 C 
HETATM   30  C   UNL     1      -1.652   7.666 -30.486  1.00  0.00     0.235 C 
ENDBRANCH  22  23
ENDBRANCH   5  22
BRANCH   4  31
HETATM   31  C   UNL     1      -3.561   8.441 -27.194  1.00  0.00     0.229 A 
HETATM   32  N   UNL     1      -3.900   9.728 -27.286  1.00  0.00    -0.081 NA
HETATM   33  O   UNL     1      -2.736  10.408 -26.917  1.00  0.00    -0.103 OA
HETATM   34  N   UNL     1      -1.715   9.521 -26.607  1.00  0.00    -0.083 NA
HETATM   35  C   UNL     1      -2.222   8.303 -26.784  1.00  0.00     0.201 A 
BRANCH  35  36
HETATM   36  N   UNL     1      -1.545   7.160 -26.586  1.00  0.00    -0.379 N 
HETATM   37  H   UNL     1      -0.708   7.166 -26.009  1.00  0.00     0.158 HD
HETATM   38  H   UNL     1      -1.631   6.347 -27.192  1.00  0.00     0.158 HD
ENDBRANCH  35  36
ENDBRANCH   4  31
TORSDOF 8
ENDMDL
MODEL 6
REMARK VINA RESULT:      -8.1      2.057      2.749
REMARK  8 active torsions:
REMARK  status: ('A' for Active; 'I' for Inactive)
REMARK    1  A    between atoms: O_2  and  C_3 
REMARK    2  A    between atoms: C_10  and  C_11 
REMARK    3  A    between atoms: N_12  and  N_13 
REMARK       I    between atoms: N_13  and  C_14 
REMARK    4  A    between atoms: C_14  and  C_15 
REMARK    5  A    between atoms: N_18  and  C_19 
REMARK    6  A    between atoms: C_23  and  N_24 
REMARK    7  A    between atoms: C_25  and  C_26 
REMARK    8  A    between atoms: C_26  and  N_27 
ROOT
HETATM    1  C   UNL     1      -7.812   2.926 -31.184  1.00  0.00     0.176 C 
HETATM    2  N   UNL     1      -8.938   3.196 -30.464  1.00  0.00    -0.124 NA
HETATM    3  N   UNL     1      -9.984   2.949 -31.228  1.00  0.00    -0.058 NA
HETATM    4  N   UNL     1      -9.560   2.592 -32.470  1.00  0.00    -0.191 N 
HETATM    5  C   UNL     1      -8.168   2.436 -32.437  1.00  0.00     0.102 C 
ENDROOT
BRANCH   1   6
HETATM    6  C   UNL     1      -6.472   3.134 -30.653  1.00  0.00     0.294 C 
HETATM    7  N   UNL     1      -5.956   4.392 -30.890  1.00  0.00    -0.242 N 
HETATM    8  H   UNL     1      -6.499   5.081 -31.407  1.00  0.00     0.192 HD
HETATM    9  O   UNL     1      -5.903   2.230 -30.041  1.00  0.00    -0.264 OA
BRANCH   7  10
HETATM   10  N   UNL     1      -4.710   4.702 -30.436  1.00  0.00    -0.183 NA
HETATM   11  C   UNL     1      -4.137   5.717 -31.004  1.00  0.00     0.153 C 
BRANCH  11  12
HETATM   12  C   UNL     1      -2.782   6.155 -30.607  1.00  0.00     0.020 A 
HETATM   13  C   UNL     1      -1.658   5.407 -30.985  1.00  0.00     0.101 A 
HETATM   14  C   UNL     1      -0.377   5.880 -30.663  1.00  0.00     0.069 A 
HETATM   15 CL   UNL     1       1.053   5.071 -31.195  1.00  0.00    -0.081 Cl
HETATM   16  C   UNL     1      -0.224   7.052 -29.917  1.00  0.00     0.050 A 
HETATM   17  C   UNL     1      -1.350   7.763 -29.513  1.00  0.00     0.036 A 
HETATM   18 CL   UNL     1      -1.163   9.207 -28.596  1.00  0.00    -0.084 Cl
HETATM   19  C   UNL     1      -2.627   7.329 -29.858  1.00  0.00     0.039 A 
BRANCH  13  20
HETATM   20  O   UNL     1      -1.831   4.269 -31.733  1.00  0.00    -0.353 OA
HETATM   21  C   UNL     1      -1.877   4.578 -33.130  1.00  0.00     0.210 C 
ENDBRANCH  13  20
ENDBRANCH  11  12
ENDBRANCH   7  10
ENDBRANCH   1   6
BRANCH   5  22
HETATM   22  C   UNL     1      -7.365   1.959 -33.599  1.00  0.00     0.296 C 
BRANCH  22  23
HETATM   23  N   UNL     1      -6.806   0.547 -33.495  1.00  0.00    -0.066 N 
HETATM   24  H   UNL     1      -7.266   0.126 -32.662  1.00  0.00     0.280 HD
HETATM   25  C   UNL     1      -7.178  -0.302 -34.682  1.00  0.00     0.235 C 
HETATM   26  C   UNL     1      -6.881  -1.779 -34.457  1.00  0.00     0.028 C 
HETATM   27  C   UNL     1      -5.396  -2.110 -34.537  1.00  0.00     0.002 C 
HETATM   28  C   UNL     1      -4.631  -1.934 -33.232  1.00  0.00     0.002 C 
HETATM   29  C   UNL     1      -4.934  -0.690 -32.401  1.00  0.00     0.028 C 
HETATM   30  C   UNL     1      -5.324   0.559 -33.181  1.00  0.00     0.235 C 
ENDBRANCH  22  23
ENDBRANCH   5  22
BRANCH   4  31
HETATM   31  C   UNL     1     -10.456   2.460 -33.559  1.00  0.00     0.229 A 
HETATM   32  N   UNL     1     -10.594   3.453 -34.439  1.00  0.00    -0.081 NA
HETATM   33  O   UNL     1     -11.564   2.979 -35.327  1.00  0.00    -0.103 OA
HETATM   34  N   UNL     1     -11.994   1.710 -34.969  1.00  0.00    -0.083 NA
HETATM   35  C   UNL     1     -11.313   1.390 -33.871  1.00  0.00     0.201 A 
BRANCH  35  36
HETATM   36  N   UNL     1     -11.442   0.230 -33.206  1.00  0.00    -0.379 N 
HETATM   37  H   UNL     1     -11.652   0.242 -32.212  1.00  0.00     0.158 HD
HETATM   38  H   UNL     1     -11.067  -0.654 -33.545  1.00  0.00     0.158 HD
ENDBRANCH  35  36
ENDBRANCH   4  31
TORSDOF 8
ENDMDL
MODEL 7
REMARK VINA RESULT:      -8.0      1.721      2.429
REMARK  8 active torsions:
REMARK  status: ('A' for Active; 'I' for Inactive)
REMARK    1  A    between atoms: O_2  and  C_3 
REMARK    2  A    between atoms: C_10  and  C_11 
REMARK    3  A    between atoms: N_12  and  N_13 
REMARK       I    between atoms: N_13  and  C_14 
REMARK    4  A    between atoms: C_14  and  C_15 
REMARK    5  A    between atoms: N_18  and  C_19 
REMARK    6  A    between atoms: C_23  and  N_24 
REMARK    7  A    between atoms: C_25  and  C_26 
REMARK    8  A    between atoms: C_26  and  N_27 
ROOT
HETATM    1  C   UNL     1     -10.485   4.482 -33.448  1.00  0.00     0.176 C 
HETATM    2  N   UNL     1     -11.509   5.245 -32.969  1.00  0.00    -0.124 NA
HETATM    3  N   UNL     1     -12.599   4.502 -32.948  1.00  0.00    -0.058 NA
HETATM    4  N   UNL     1     -12.323   3.281 -33.479  1.00  0.00    -0.191 N 
HETATM    5  C   UNL     1     -10.940   3.189 -33.686  1.00  0.00     0.102 C 
ENDROOT
BRANCH   1   6
HETATM    6  C   UNL     1      -9.141   5.007 -33.645  1.00  0.00     0.294 C 
HETATM    7  N   UNL     1      -8.388   5.090 -32.491  1.00  0.00    -0.242 N 
HETATM    8  H   UNL     1      -8.785   4.805 -31.597  1.00  0.00     0.192 HD
HETATM    9  O   UNL     1      -8.760   5.321 -34.773  1.00  0.00    -0.264 OA
BRANCH   7  10
HETATM   10  N   UNL     1      -7.112   5.563 -32.556  1.00  0.00    -0.183 NA
HETATM   11  C   UNL     1      -6.175   4.687 -32.369  1.00  0.00     0.153 C 
BRANCH  11  12
HETATM   12  C   UNL     1      -4.747   5.070 -32.409  1.00  0.00     0.020 A 
HETATM   13  C   UNL     1      -4.130   5.619 -31.276  1.00  0.00     0.101 A 
HETATM   14  C   UNL     1      -2.758   5.906 -31.311  1.00  0.00     0.069 A 
HETATM   15 CL   UNL     1      -1.911   6.476 -29.917  1.00  0.00    -0.081 Cl
HETATM   16  C   UNL     1      -2.024   5.706 -32.483  1.00  0.00     0.050 A 
HETATM   17  C   UNL     1      -2.658   5.199 -33.614  1.00  0.00     0.036 A 
HETATM   18 CL   UNL     1      -1.756   4.951 -35.058  1.00  0.00    -0.084 Cl
HETATM   19  C   UNL     1      -4.011   4.872 -33.584  1.00  0.00     0.039 A 
BRANCH  13  20
HETATM   20  O   UNL     1      -4.866   5.790 -30.129  1.00  0.00    -0.353 OA
HETATM   21  C   UNL     1      -5.225   7.164 -29.952  1.00  0.00     0.210 C 
ENDBRANCH  13  20
ENDBRANCH  11  12
ENDBRANCH   7  10
ENDBRANCH   1   6
BRANCH   5  22
HETATM   22  C   UNL     1     -10.261   1.955 -34.172  1.00  0.00     0.296 C 
BRANCH  22  23
HETATM   23  N   UNL     1      -8.915   1.633 -33.539  1.00  0.00    -0.066 N 
HETATM   24  H   UNL     1      -8.551   2.542 -33.183  1.00  0.00     0.280 HD
HETATM   25  C   UNL     1      -9.048   0.716 -32.352  1.00  0.00     0.235 C 
HETATM   26  C   UNL     1      -7.762   0.624 -31.540  1.00  0.00     0.028 C 
HETATM   27  C   UNL     1      -6.684  -0.215 -32.218  1.00  0.00     0.002 C 
HETATM   28  C   UNL     1      -5.807   0.548 -33.202  1.00  0.00     0.002 C 
HETATM   29  C   UNL     1      -6.495   1.530 -34.144  1.00  0.00     0.028 C 
HETATM   30  C   UNL     1      -7.911   1.169 -34.574  1.00  0.00     0.235 C 
ENDBRANCH  22  23
ENDBRANCH   5  22
BRANCH   4  31
HETATM   31  C   UNL     1     -13.342   2.342 -33.769  1.00  0.00     0.229 A 
HETATM   32  N   UNL     1     -13.433   1.805 -34.987  1.00  0.00    -0.081 NA
HETATM   33  O   UNL     1     -14.552   0.971 -34.900  1.00  0.00    -0.103 OA
HETATM   34  N   UNL     1     -15.117   1.019 -33.634  1.00  0.00    -0.083 NA
HETATM   35  C   UNL     1     -14.372   1.872 -32.934  1.00  0.00     0.201 A 
BRANCH  35  36
HETATM   36  N   UNL     1     -14.591   2.197 -31.649  1.00  0.00    -0.379 N 
HETATM   37  H   UNL     1     -13.933   1.893 -30.936  1.00  0.00     0.158 HD
HETATM   38  H   UNL     1     -15.502   2.473 -31.290  1.00  0.00     0.158 HD
ENDBRANCH  35  36
ENDBRANCH   4  31
TORSDOF 8
ENDMDL
MODEL 8
REMARK VINA RESULT:      -8.0      3.881      6.715
REMARK  8 active torsions:
REMARK  status: ('A' for Active; 'I' for Inactive)
REMARK    1  A    between atoms: O_2  and  C_3 
REMARK    2  A    between atoms: C_10  and  C_11 
REMARK    3  A    between atoms: N_12  and  N_13 
REMARK       I    between atoms: N_13  and  C_14 
REMARK    4  A    between atoms: C_14  and  C_15 
REMARK    5  A    between atoms: N_18  and  C_19 
REMARK    6  A    between atoms: C_23  and  N_24 
REMARK    7  A    between atoms: C_25  and  C_26 
REMARK    8  A    between atoms: C_26  and  N_27 
ROOT
HETATM    1  C   UNL     1     -10.473   3.049 -34.159  1.00  0.00     0.176 C 
HETATM    2  N   UNL     1     -11.200   3.352 -35.273  1.00  0.00    -0.124 NA
HETATM    3  N   UNL     1     -12.319   3.934 -34.888  1.00  0.00    -0.058 NA
HETATM    4  N   UNL     1     -12.374   3.950 -33.529  1.00  0.00    -0.191 N 
HETATM    5  C   UNL     1     -11.141   3.511 -33.029  1.00  0.00     0.102 C 
ENDROOT
BRANCH   1   6
HETATM    6  C   UNL     1      -9.195   2.355 -34.221  1.00  0.00     0.294 C 
HETATM    7  N   UNL     1      -9.261   1.090 -34.771  1.00  0.00    -0.242 N 
HETATM    8  H   UNL     1     -10.153   0.713 -35.084  1.00  0.00     0.192 HD
HETATM    9  O   UNL     1      -8.172   2.907 -33.814  1.00  0.00    -0.264 OA
BRANCH   7  10
HETATM   10  N   UNL     1      -8.124   0.349 -34.883  1.00  0.00    -0.183 NA
HETATM   11  C   UNL     1      -7.913  -0.509 -33.934  1.00  0.00     0.153 C 
BRANCH  11  12
HETATM   12  C   UNL     1      -6.713  -1.373 -33.933  1.00  0.00     0.020 A 
HETATM   13  C   UNL     1      -5.561  -0.983 -33.236  1.00  0.00     0.101 A 
HETATM   14  C   UNL     1      -4.460  -1.851 -33.185  1.00  0.00     0.069 A 
HETATM   15 CL   UNL     1      -3.054  -1.485 -32.252  1.00  0.00    -0.081 Cl
HETATM   16  C   UNL     1      -4.488  -3.066 -33.874  1.00  0.00     0.050 A 
HETATM   17  C   UNL     1      -5.623  -3.424 -34.596  1.00  0.00     0.036 A 
HETATM   18 CL   UNL     1      -5.659  -4.920 -35.444  1.00  0.00    -0.084 Cl
HETATM   19  C   UNL     1      -6.739  -2.591 -34.624  1.00  0.00     0.039 A 
BRANCH  13  20
HETATM   20  O   UNL     1      -5.563   0.207 -32.551  1.00  0.00    -0.353 OA
HETATM   21  C   UNL     1      -5.915   0.005 -31.178  1.00  0.00     0.210 C 
ENDBRANCH  13  20
ENDBRANCH  11  12
ENDBRANCH   7  10
ENDBRANCH   1   6
BRANCH   5  22
HETATM   22  C   UNL     1     -10.804   3.485 -31.578  1.00  0.00     0.296 C 
BRANCH  22  23
HETATM   23  N   UNL     1      -9.466   4.098 -31.187  1.00  0.00    -0.066 N 
HETATM   24  H   UNL     1      -8.918   4.155 -32.070  1.00  0.00     0.280 HD
HETATM   25  C   UNL     1      -9.613   5.503 -30.667  1.00  0.00     0.235 C 
HETATM   26  C   UNL     1      -8.276   6.224 -30.552  1.00  0.00     0.028 C 
HETATM   27  C   UNL     1      -7.439   5.749 -29.371  1.00  0.00     0.002 C 
HETATM   28  C   UNL     1      -6.565   4.534 -29.656  1.00  0.00     0.002 C 
HETATM   29  C   UNL     1      -7.183   3.395 -30.461  1.00  0.00     0.028 C 
HETATM   30  C   UNL     1      -8.679   3.177 -30.276  1.00  0.00     0.235 C 
ENDBRANCH  22  23
ENDBRANCH   5  22
BRANCH   4  31
HETATM   31  C   UNL     1     -13.545   4.332 -32.831  1.00  0.00     0.229 A 
HETATM   32  N   UNL     1     -13.897   5.617 -32.760  1.00  0.00    -0.081 NA
HETATM   33  O   UNL     1     -15.058   5.603 -31.982  1.00  0.00    -0.103 OA
HETATM   34  N   UNL     1     -15.388   4.311 -31.597  1.00  0.00    -0.083 NA
HETATM   35  C   UNL     1     -14.449   3.524 -32.117  1.00  0.00     0.201 A 
BRANCH  35  36
HETATM   36  N   UNL     1     -14.409   2.189 -31.971  1.00  0.00    -0.379 N 
HETATM   37  H   UNL     1     -14.600   1.591 -32.771  1.00  0.00     0.158 HD
HETATM   38  H   UNL     1     -14.486   1.722 -31.071  1.00  0.00     0.158 HD
ENDBRANCH  35  36
ENDBRANCH   4  31
TORSDOF 8
ENDMDL
MODEL 9
REMARK VINA RESULT:      -8.0      4.315      8.719
REMARK  8 active torsions:
REMARK  status: ('A' for Active; 'I' for Inactive)
REMARK    1  A    between atoms: O_2  and  C_3 
REMARK    2  A    between atoms: C_10  and  C_11 
REMARK    3  A    between atoms: N_12  and  N_13 
REMARK       I    between atoms: N_13  and  C_14 
REMARK    4  A    between atoms: C_14  and  C_15 
REMARK    5  A    between atoms: N_18  and  C_19 
REMARK    6  A    between atoms: C_23  and  N_24 
REMARK    7  A    between atoms: C_25  and  C_26 
REMARK    8  A    between atoms: C_26  and  N_27 
ROOT
HETATM    1  C   UNL     1      -5.586   5.010 -33.598  1.00  0.00     0.176 C 
HETATM    2  N   UNL     1      -4.863   5.370 -34.696  1.00  0.00    -0.124 NA
HETATM    3  N   UNL     1      -3.582   5.299 -34.386  1.00  0.00    -0.058 NA
HETATM    4  N   UNL     1      -3.455   4.971 -33.072  1.00  0.00    -0.191 N 
HETATM    5  C   UNL     1      -4.722   4.645 -32.571  1.00  0.00     0.102 C 
ENDROOT
BRANCH   1   6
HETATM    6  C   UNL     1      -7.042   5.022 -33.579  1.00  0.00     0.294 C 
HETATM    7  N   UNL     1      -7.626   3.852 -34.025  1.00  0.00    -0.242 N 
HETATM    8  H   UNL     1      -7.045   3.077 -34.341  1.00  0.00     0.192 HD
HETATM    9  O   UNL     1      -7.647   6.015 -33.175  1.00  0.00    -0.264 OA
BRANCH   7  10
HETATM   10  N   UNL     1      -8.983   3.747 -34.048  1.00  0.00    -0.183 NA
HETATM   11  C   UNL     1      -9.504   2.968 -33.152  1.00  0.00     0.153 C 
BRANCH  11  12
HETATM   12  C   UNL     1     -10.966   2.762 -33.071  1.00  0.00     0.020 A 
HETATM   13  C   UNL     1     -11.796   3.772 -32.561  1.00  0.00     0.101 A 
HETATM   14  C   UNL     1     -13.186   3.585 -32.563  1.00  0.00     0.069 A 
HETATM   15 CL   UNL     1     -14.272   4.830 -32.058  1.00  0.00    -0.081 Cl
HETATM   16  C   UNL     1     -13.737   2.381 -33.009  1.00  0.00     0.050 A 
HETATM   17  C   UNL     1     -12.899   1.371 -33.474  1.00  0.00     0.036 A 
HETATM   18 CL   UNL     1     -13.576  -0.112 -34.024  1.00  0.00    -0.084 Cl
HETATM   19  C   UNL     1     -11.520   1.555 -33.516  1.00  0.00     0.039 A 
BRANCH  13  20
HETATM   20  O   UNL     1     -11.235   4.954 -32.146  1.00  0.00    -0.353 OA
HETATM   21  C   UNL     1     -11.043   4.958 -30.728  1.00  0.00     0.210 C 
ENDBRANCH  13  20
ENDBRANCH  11  12
ENDBRANCH   7  10
ENDBRANCH   1   6
BRANCH   5  22
HETATM   22  C   UNL     1      -4.955   4.147 -31.185  1.00  0.00     0.296 C 
BRANCH  22  23
HETATM   23  N   UNL     1      -4.934   2.636 -31.002  1.00  0.00    -0.066 N 
HETATM   24  H   UNL     1      -4.049   2.430 -30.493  1.00  0.00     0.280 HD
HETATM   25  C   UNL     1      -6.065   2.151 -30.134  1.00  0.00     0.235 C 
HETATM   26  C   UNL     1      -5.888   0.700 -29.704  1.00  0.00     0.028 C 
HETATM   27  C   UNL     1      -6.165  -0.294 -30.826  1.00  0.00     0.002 C 
HETATM   28  C   UNL     1      -4.971  -0.594 -31.723  1.00  0.00     0.002 C 
HETATM   29  C   UNL     1      -4.103   0.584 -32.155  1.00  0.00     0.028 C 
HETATM   30  C   UNL     1      -4.817   1.916 -32.330  1.00  0.00     0.235 C 
ENDBRANCH  22  23
ENDBRANCH   5  22
BRANCH   4  31
HETATM   31  C   UNL     1      -2.206   5.016 -32.406  1.00  0.00     0.229 A 
HETATM   32  N   UNL     1      -1.862   4.045 -31.557  1.00  0.00    -0.081 NA
HETATM   33  O   UNL     1      -0.608   4.444 -31.085  1.00  0.00    -0.103 OA
HETATM   34  N   UNL     1      -0.217   5.647 -31.656  1.00  0.00    -0.083 NA
HETATM   35  C   UNL     1      -1.207   6.004 -32.470  1.00  0.00     0.201 A 
BRANCH  35  36
HETATM   36  N   UNL     1      -1.214   7.121 -33.216  1.00  0.00    -0.379 N 
HETATM   37  H   UNL     1      -1.441   7.063 -34.205  1.00  0.00     0.158 HD
HETATM   38  H   UNL     1      -0.734   7.977 -32.946  1.00  0.00     0.158 HD
ENDBRANCH  35  36
ENDBRANCH   4  31
TORSDOF 8
ENDMDL
MODEL 10
REMARK VINA RESULT:      -7.9      4.334      8.564
REMARK  8 active torsions:
REMARK  status: ('A' for Active; 'I' for Inactive)
REMARK    1  A    between atoms: O_2  and  C_3 
REMARK    2  A    between atoms: C_10  and  C_11 
REMARK    3  A    between atoms: N_12  and  N_13 
REMARK       I    between atoms: N_13  and  C_14 
REMARK    4  A    between atoms: C_14  and  C_15 
REMARK    5  A    between atoms: N_18  and  C_19 
REMARK    6  A    between atoms: C_23  and  N_24 
REMARK    7  A    between atoms: C_25  and  C_26 
REMARK    8  A    between atoms: C_26  and  N_27 
ROOT
HETATM    1  C   UNL     1      -6.261   3.784 -33.370  1.00  0.00     0.176 C 
HETATM    2  N   UNL     1      -5.994   4.816 -34.220  1.00  0.00    -0.124 NA
HETATM    3  N   UNL     1      -4.731   5.164 -34.060  1.00  0.00    -0.058 NA
HETATM    4  N   UNL     1      -4.184   4.424 -33.058  1.00  0.00    -0.191 N 
HETATM    5  C   UNL     1      -5.102   3.434 -32.685  1.00  0.00     0.102 C 
ENDROOT
BRANCH   1   6
HETATM    6  C   UNL     1      -7.583   3.183 -33.256  1.00  0.00     0.294 C 
HETATM    7  N   UNL     1      -8.420   3.816 -32.359  1.00  0.00    -0.242 N 
HETATM    8  H   UNL     1      -8.093   4.626 -31.835  1.00  0.00     0.192 HD
HETATM    9  O   UNL     1      -7.876   2.202 -33.940  1.00  0.00    -0.264 OA
BRANCH   7  10
HETATM   10  N   UNL     1      -9.683   3.343 -32.173  1.00  0.00    -0.183 NA
HETATM   11  C   UNL     1     -10.539   3.639 -33.101  1.00  0.00     0.153 C 
BRANCH  11  12
HETATM   12  C   UNL     1     -11.946   3.192 -33.019  1.00  0.00     0.020 A 
HETATM   13  C   UNL     1     -12.319   1.935 -33.517  1.00  0.00     0.101 A 
HETATM   14  C   UNL     1     -13.643   1.498 -33.361  1.00  0.00     0.069 A 
HETATM   15 CL   UNL     1     -14.143  -0.082 -33.846  1.00  0.00    -0.081 Cl
HETATM   16  C   UNL     1     -14.597   2.333 -32.773  1.00  0.00     0.050 A 
HETATM   17  C   UNL     1     -14.222   3.595 -32.320  1.00  0.00     0.036 A 
HETATM   18 CL   UNL     1     -15.396   4.624 -31.595  1.00  0.00    -0.084 Cl
HETATM   19  C   UNL     1     -12.904   4.028 -32.431  1.00  0.00     0.039 A 
BRANCH  13  20
HETATM   20  O   UNL     1     -11.361   1.124 -34.073  1.00  0.00    -0.353 OA
HETATM   21  C   UNL     1     -10.816   0.231 -33.096  1.00  0.00     0.210 C 
ENDBRANCH  13  20
ENDBRANCH  11  12
ENDBRANCH   7  10
ENDBRANCH   1   6
BRANCH   5  22
HETATM   22  C   UNL     1      -4.807   2.377 -31.676  1.00  0.00     0.296 C 
BRANCH  22  23
HETATM   23  N   UNL     1      -4.322   1.042 -32.223  1.00  0.00    -0.066 N 
HETATM   24  H   UNL     1      -3.821   1.268 -33.107  1.00  0.00     0.280 HD
HETATM   25  C   UNL     1      -3.325   0.380 -31.309  1.00  0.00     0.235 C 
HETATM   26  C   UNL     1      -2.618  -0.796 -31.971  1.00  0.00     0.028 C 
HETATM   27  C   UNL     1      -3.502  -2.032 -32.097  1.00  0.00     0.002 C 
HETATM   28  C   UNL     1      -4.371  -2.071 -33.347  1.00  0.00     0.002 C 
HETATM   29  C   UNL     1      -5.070  -0.779 -33.758  1.00  0.00     0.028 C 
HETATM   30  C   UNL     1      -5.481   0.153 -32.626  1.00  0.00     0.235 C 
ENDBRANCH  22  23
ENDBRANCH   5  22
BRANCH   4  31
HETATM   31  C   UNL     1      -2.903   4.712 -32.528  1.00  0.00     0.229 A 
HETATM   32  N   UNL     1      -1.806   4.453 -33.241  1.00  0.00    -0.081 NA
HETATM   33  O   UNL     1      -0.760   4.831 -32.395  1.00  0.00    -0.103 OA
HETATM   34  N   UNL     1      -1.243   5.313 -31.186  1.00  0.00    -0.083 NA
HETATM   35  C   UNL     1      -2.569   5.234 -31.265  1.00  0.00     0.201 A 
BRANCH  35  36
HETATM   36  N   UNL     1      -3.413   5.607 -30.289  1.00  0.00    -0.379 N 
HETATM   37  H   UNL     1      -3.114   5.550 -29.318  1.00  0.00     0.158 HD
HETATM   38  H   UNL     1      -4.420   5.671 -30.414  1.00  0.00     0.158 HD
ENDBRANCH  35  36
ENDBRANCH   4  31
TORSDOF 8
ENDMDL
