MODEL 1
REMARK VINA RESULT:      -9.6      0.000      0.000
REMARK  8 active torsions:
REMARK  status: ('A' for Active; 'I' for Inactive)
REMARK    1  A    between atoms: O_2  and  C_3 
REMARK    2  A    between atoms: C_4  and  N_5 
REMARK       I    between atoms: N_5  and  C_6 
REMARK       I    between atoms: C_6  and  N_7 
REMARK    3  A    between atoms: N_7  and  C_8 
REMARK    4  A    between atoms: C_11  and  C_12 
REMARK    5  A    between atoms: C_12  and  C_13 
REMARK       I    between atoms: C_13  and  N_14 
REMARK    6  A    between atoms: N_14  and  C_15 
REMARK    7  A    between atoms: C_16  and  O_17 
REMARK    8  A    between atoms: O_17  and  C_18 
ROOT
HETATM    1  C   UNL     1      -7.266   1.912 -32.983  1.00  0.00     0.174 C 
HETATM    2  S   UNL     1      -8.640   2.165 -32.008  1.00  0.00    -0.062 SA
HETATM    3  C   UNL     1      -7.607   2.588 -30.708  1.00  0.00     0.081 C 
HETATM    4  C   UNL     1      -6.283   2.478 -31.100  1.00  0.00     0.052 C 
HETATM    5  N   UNL     1      -6.101   2.176 -32.446  1.00  0.00    -0.228 NA
ENDROOT
BRANCH   4   6
HETATM    6  C   UNL     1      -5.090   2.598 -30.209  1.00  0.00     0.163 C 
BRANCH   6   7
HETATM    7  C   UNL     1      -3.851   2.882 -31.054  1.00  0.00     0.227 C 
HETATM    8  N   UNL     1      -3.809   4.165 -31.568  1.00  0.00    -0.324 N 
HETATM    9  H   UNL     1      -4.436   4.862 -31.180  1.00  0.00     0.169 HD
HETATM   10  O   UNL     1      -2.996   2.015 -31.234  1.00  0.00    -0.273 OA
BRANCH   8  11
HETATM   11  C   UNL     1      -2.965   4.645 -32.597  1.00  0.00     0.069 A 
HETATM   12  C   UNL     1      -1.679   5.087 -32.244  1.00  0.00     0.102 A 
HETATM   13  C   UNL     1      -0.837   5.682 -33.192  1.00  0.00     0.039 A 
HETATM   14  C   UNL     1      -1.256   5.792 -34.516  1.00  0.00     0.003 A 
HETATM   15  C   UNL     1      -2.515   5.322 -34.885  1.00  0.00     0.002 A 
HETATM   16  C   UNL     1      -3.367   4.755 -33.931  1.00  0.00     0.032 A 
BRANCH  12  17
HETATM   17  O   UNL     1      -1.287   4.964 -30.925  1.00  0.00    -0.309 OA
BRANCH  17  18
HETATM   18  C   UNL     1      -1.091   6.127 -30.211  1.00  0.00     0.076 A 
HETATM   19  C   UNL     1       0.205   6.361 -29.749  1.00  0.00     0.037 A 
HETATM   20  C   UNL     1       0.491   7.520 -29.027  1.00  0.00     0.003 A 
HETATM   21  C   UNL     1      -0.515   8.453 -28.776  1.00  0.00     0.000 A 
HETATM   22  C   UNL     1      -1.806   8.233 -29.258  1.00  0.00     0.003 A 
HETATM   23  C   UNL     1      -2.093   7.077 -29.986  1.00  0.00     0.037 A 
ENDBRANCH  17  18
ENDBRANCH  12  17
ENDBRANCH   8  11
ENDBRANCH   6   7
ENDBRANCH   4   6
BRANCH   1  24
HETATM   24  N   UNL     1      -7.547   1.412 -34.219  1.00  0.00    -0.287 N 
HETATM   25  C   UNL     1      -7.350   0.132 -34.640  1.00  0.00     0.326 C 
HETATM   26  N   UNL     1      -6.459  -0.626 -33.934  1.00  0.00    -0.306 N 
HETATM   27  O   UNL     1      -7.926  -0.225 -35.668  1.00  0.00    -0.247 OA
HETATM   28  H   UNL     1      -5.855  -0.127 -33.286  1.00  0.00     0.171 HD
HETATM   29  H   UNL     1      -8.103   1.987 -34.833  1.00  0.00     0.172 HD
BRANCH  26  30
HETATM   30  C   UNL     1      -6.094  -1.961 -34.201  1.00  0.00     0.069 A 
HETATM   31  C   UNL     1      -4.746  -2.325 -34.042  1.00  0.00     0.095 A 
HETATM   32  C   UNL     1      -4.338  -3.646 -34.256  1.00  0.00     0.039 A 
HETATM   33  C   UNL     1      -5.270  -4.604 -34.655  1.00  0.00     0.003 A 
HETATM   34  C   UNL     1      -6.605  -4.246 -34.831  1.00  0.00     0.002 A 
HETATM   35  C   UNL     1      -7.017  -2.929 -34.607  1.00  0.00     0.032 A 
BRANCH  31  36
HETATM   36  O   UNL     1      -3.856  -1.345 -33.672  1.00  0.00    -0.354 OA
HETATM   37  C   UNL     1      -3.427  -1.491 -32.316  1.00  0.00     0.210 C 
ENDBRANCH  31  36
ENDBRANCH  26  30
ENDBRANCH   1  24
TORSDOF 8
ENDMDL
MODEL 2
REMARK VINA RESULT:      -9.1      2.059      3.761
REMARK  8 active torsions:
REMARK  status: ('A' for Active; 'I' for Inactive)
REMARK    1  A    between atoms: O_2  and  C_3 
REMARK    2  A    between atoms: C_4  and  N_5 
REMARK       I    between atoms: N_5  and  C_6 
REMARK       I    between atoms: C_6  and  N_7 
REMARK    3  A    between atoms: N_7  and  C_8 
REMARK    4  A    between atoms: C_11  and  C_12 
REMARK    5  A    between atoms: C_12  and  C_13 
REMARK       I    between atoms: C_13  and  N_14 
REMARK    6  A    between atoms: N_14  and  C_15 
REMARK    7  A    between atoms: C_16  and  O_17 
REMARK    8  A    between atoms: O_17  and  C_18 
ROOT
HETATM    1  C   UNL     1      -4.849   3.550 -32.941  1.00  0.00     0.174 C 
HETATM    2  S   UNL     1      -5.740   4.515 -34.026  1.00  0.00    -0.062 SA
HETATM    3  C   UNL     1      -4.285   5.289 -34.493  1.00  0.00     0.081 C 
HETATM    4  C   UNL     1      -3.222   4.777 -33.767  1.00  0.00     0.052 C 
HETATM    5  N   UNL     1      -3.548   3.707 -32.939  1.00  0.00    -0.228 NA
ENDROOT
BRANCH   4   6
HETATM    6  C   UNL     1      -1.824   5.304 -33.763  1.00  0.00     0.163 C 
BRANCH   6   7
HETATM    7  C   UNL     1      -1.809   6.705 -33.158  1.00  0.00     0.227 C 
HETATM    8  N   UNL     1      -2.277   6.755 -31.857  1.00  0.00    -0.324 N 
HETATM    9  H   UNL     1      -2.366   5.886 -31.341  1.00  0.00     0.169 HD
HETATM   10  O   UNL     1      -1.410   7.671 -33.807  1.00  0.00    -0.273 OA
BRANCH   8  11
HETATM   11  C   UNL     1      -2.653   7.907 -31.128  1.00  0.00     0.069 A 
HETATM   12  C   UNL     1      -1.755   8.402 -30.167  1.00  0.00     0.102 A 
HETATM   13  C   UNL     1      -2.112   9.467 -29.330  1.00  0.00     0.039 A 
HETATM   14  C   UNL     1      -3.352  10.082 -29.485  1.00  0.00     0.003 A 
HETATM   15  C   UNL     1      -4.235   9.624 -30.461  1.00  0.00     0.002 A 
HETATM   16  C   UNL     1      -3.890   8.540 -31.276  1.00  0.00     0.032 A 
BRANCH  12  17
HETATM   17  O   UNL     1      -0.530   7.777 -30.036  1.00  0.00    -0.309 OA
BRANCH  17  18
HETATM   18  C   UNL     1      -0.049   7.586 -28.758  1.00  0.00     0.076 A 
HETATM   19  C   UNL     1       1.084   8.321 -28.406  1.00  0.00     0.037 A 
HETATM   20  C   UNL     1       1.629   8.195 -27.127  1.00  0.00     0.003 A 
HETATM   21  C   UNL     1       1.034   7.344 -26.196  1.00  0.00     0.000 A 
HETATM   22  C   UNL     1      -0.113   6.628 -26.538  1.00  0.00     0.003 A 
HETATM   23  C   UNL     1      -0.664   6.756 -27.814  1.00  0.00     0.037 A 
ENDBRANCH  17  18
ENDBRANCH  12  17
ENDBRANCH   8  11
ENDBRANCH   6   7
ENDBRANCH   4   6
BRANCH   1  24
HETATM   24  N   UNL     1      -5.616   2.744 -32.157  1.00  0.00    -0.287 N 
HETATM   25  C   UNL     1      -5.774   1.396 -32.288  1.00  0.00     0.326 C 
HETATM   26  N   UNL     1      -5.470   0.849 -33.502  1.00  0.00    -0.306 N 
HETATM   27  O   UNL     1      -6.251   0.784 -31.333  1.00  0.00    -0.247 OA
HETATM   28  H   UNL     1      -5.355   1.499 -34.275  1.00  0.00     0.171 HD
HETATM   29  H   UNL     1      -5.973   3.137 -31.300  1.00  0.00     0.172 HD
BRANCH  26  30
HETATM   30  C   UNL     1      -5.573  -0.511 -33.861  1.00  0.00     0.069 A 
HETATM   31  C   UNL     1      -4.446  -1.331 -33.684  1.00  0.00     0.095 A 
HETATM   32  C   UNL     1      -4.508  -2.695 -33.987  1.00  0.00     0.039 A 
HETATM   33  C   UNL     1      -5.688  -3.241 -34.492  1.00  0.00     0.003 A 
HETATM   34  C   UNL     1      -6.804  -2.430 -34.686  1.00  0.00     0.002 A 
HETATM   35  C   UNL     1      -6.747  -1.069 -34.373  1.00  0.00     0.032 A 
BRANCH  31  36
HETATM   36  O   UNL     1      -3.296  -0.747 -33.207  1.00  0.00    -0.354 OA
HETATM   37  C   UNL     1      -2.919  -1.267 -31.930  1.00  0.00     0.210 C 
ENDBRANCH  31  36
ENDBRANCH  26  30
ENDBRANCH   1  24
TORSDOF 8
ENDMDL
MODEL 3
REMARK VINA RESULT:      -9.1      2.054      8.942
REMARK  8 active torsions:
REMARK  status: ('A' for Active; 'I' for Inactive)
REMARK    1  A    between atoms: O_2  and  C_3 
REMARK    2  A    between atoms: C_4  and  N_5 
REMARK       I    between atoms: N_5  and  C_6 
REMARK       I    between atoms: C_6  and  N_7 
REMARK    3  A    between atoms: N_7  and  C_8 
REMARK    4  A    between atoms: C_11  and  C_12 
REMARK    5  A    between atoms: C_12  and  C_13 
REMARK       I    between atoms: C_13  and  N_14 
REMARK    6  A    between atoms: N_14  and  C_15 
REMARK    7  A    between atoms: C_16  and  O_17 
REMARK    8  A    between atoms: O_17  and  C_18 
ROOT
HETATM    1  C   UNL     1      -4.047   2.369 -31.781  1.00  0.00     0.174 C 
HETATM    2  S   UNL     1      -5.351   1.784 -30.853  1.00  0.00    -0.062 SA
HETATM    3  C   UNL     1      -4.483   0.329 -30.599  1.00  0.00     0.081 C 
HETATM    4  C   UNL     1      -3.270   0.379 -31.266  1.00  0.00     0.052 C 
HETATM    5  N   UNL     1      -2.990   1.602 -31.868  1.00  0.00    -0.228 NA
ENDROOT
BRANCH   4   6
HETATM    6  C   UNL     1      -2.307  -0.753 -31.426  1.00  0.00     0.163 C 
BRANCH   6   7
HETATM    7  C   UNL     1      -3.015  -1.935 -32.083  1.00  0.00     0.227 C 
HETATM    8  N   UNL     1      -3.710  -1.601 -33.231  1.00  0.00    -0.324 N 
HETATM    9  H   UNL     1      -3.519  -0.705 -33.669  1.00  0.00     0.169 HD
HETATM   10  O   UNL     1      -2.947  -3.063 -31.596  1.00  0.00    -0.273 OA
BRANCH   8  11
HETATM   11  C   UNL     1      -4.681  -2.382 -33.900  1.00  0.00     0.069 A 
HETATM   12  C   UNL     1      -5.915  -1.783 -34.204  1.00  0.00     0.102 A 
HETATM   13  C   UNL     1      -6.960  -2.532 -34.760  1.00  0.00     0.039 A 
HETATM   14  C   UNL     1      -6.761  -3.877 -35.064  1.00  0.00     0.003 A 
HETATM   15  C   UNL     1      -5.529  -4.472 -34.801  1.00  0.00     0.002 A 
HETATM   16  C   UNL     1      -4.494  -3.730 -34.218  1.00  0.00     0.032 A 
BRANCH  12  17
HETATM   17  O   UNL     1      -6.085  -0.447 -33.896  1.00  0.00    -0.309 OA
BRANCH  17  18
HETATM   18  C   UNL     1      -7.372  -0.010 -33.665  1.00  0.00     0.076 A 
HETATM   19  C   UNL     1      -8.018   0.608 -34.736  1.00  0.00     0.037 A 
HETATM   20  C   UNL     1      -9.327   1.071 -34.590  1.00  0.00     0.003 A 
HETATM   21  C   UNL     1      -9.995   0.904 -33.377  1.00  0.00     0.000 A 
HETATM   22  C   UNL     1      -9.359   0.264 -32.313  1.00  0.00     0.003 A 
HETATM   23  C   UNL     1      -8.052  -0.205 -32.458  1.00  0.00     0.037 A 
ENDBRANCH  17  18
ENDBRANCH  12  17
ENDBRANCH   8  11
ENDBRANCH   6   7
ENDBRANCH   4   6
BRANCH   1  24
HETATM   24  N   UNL     1      -4.283   3.574 -32.370  1.00  0.00    -0.287 N 
HETATM   25  C   UNL     1      -3.638   4.746 -32.109  1.00  0.00     0.326 C 
HETATM   26  N   UNL     1      -2.979   4.840 -30.915  1.00  0.00    -0.306 N 
HETATM   27  O   UNL     1      -3.760   5.658 -32.927  1.00  0.00    -0.247 OA
HETATM   28  H   UNL     1      -3.191   4.126 -30.225  1.00  0.00     0.171 HD
HETATM   29  H   UNL     1      -4.869   3.580 -33.191  1.00  0.00     0.172 HD
BRANCH  26  30
HETATM   30  C   UNL     1      -2.264   5.957 -30.437  1.00  0.00     0.069 A 
HETATM   31  C   UNL     1      -0.864   5.948 -30.552  1.00  0.00     0.095 A 
HETATM   32  C   UNL     1      -0.110   7.047 -30.128  1.00  0.00     0.039 A 
HETATM   33  C   UNL     1      -0.749   8.151 -29.564  1.00  0.00     0.003 A 
HETATM   34  C   UNL     1      -2.137   8.160 -29.431  1.00  0.00     0.002 A 
HETATM   35  C   UNL     1      -2.892   7.067 -29.864  1.00  0.00     0.032 A 
BRANCH  31  36
HETATM   36  O   UNL     1      -0.272   4.829 -31.090  1.00  0.00    -0.354 OA
HETATM   37  C   UNL     1       1.112   4.736 -30.747  1.00  0.00     0.210 C 
ENDBRANCH  31  36
ENDBRANCH  26  30
ENDBRANCH   1  24
TORSDOF 8
ENDMDL
MODEL 4
REMARK VINA RESULT:      -9.1      2.051      4.202
REMARK  8 active torsions:
REMARK  status: ('A' for Active; 'I' for Inactive)
REMARK    1  A    between atoms: O_2  and  C_3 
REMARK    2  A    between atoms: C_4  and  N_5 
REMARK       I    between atoms: N_5  and  C_6 
REMARK       I    between atoms: C_6  and  N_7 
REMARK    3  A    between atoms: N_7  and  C_8 
REMARK    4  A    between atoms: C_11  and  C_12 
REMARK    5  A    between atoms: C_12  and  C_13 
REMARK       I    between atoms: C_13  and  N_14 
REMARK    6  A    between atoms: N_14  and  C_15 
REMARK    7  A    between atoms: C_16  and  O_17 
REMARK    8  A    between atoms: O_17  and  C_18 
ROOT
HETATM    1  C   UNL     1      -6.714   3.434 -29.918  1.00  0.00     0.174 C 
HETATM    2  S   UNL     1      -8.027   3.932 -30.883  1.00  0.00    -0.062 SA
HETATM    3  C   UNL     1      -7.393   5.524 -30.877  1.00  0.00     0.081 C 
HETATM    4  C   UNL     1      -6.238   5.571 -30.114  1.00  0.00     0.052 C 
HETATM    5  N   UNL     1      -5.805   4.336 -29.642  1.00  0.00    -0.228 NA
ENDROOT
BRANCH   4   6
HETATM    6  C   UNL     1      -5.488   6.805 -29.729  1.00  0.00     0.163 C 
BRANCH   6   7
HETATM    7  C   UNL     1      -4.186   6.877 -30.522  1.00  0.00     0.227 C 
HETATM    8  N   UNL     1      -3.159   6.130 -29.975  1.00  0.00    -0.324 N 
HETATM    9  H   UNL     1      -3.386   5.437 -29.269  1.00  0.00     0.169 HD
HETATM   10  O   UNL     1      -4.106   7.553 -31.547  1.00  0.00    -0.273 OA
BRANCH   8  11
HETATM   11  C   UNL     1      -1.783   6.207 -30.296  1.00  0.00     0.069 A 
HETATM   12  C   UNL     1      -1.229   5.179 -31.078  1.00  0.00     0.102 A 
HETATM   13  C   UNL     1       0.147   5.132 -31.334  1.00  0.00     0.039 A 
HETATM   14  C   UNL     1       0.975   6.143 -30.851  1.00  0.00     0.003 A 
HETATM   15  C   UNL     1       0.430   7.188 -30.107  1.00  0.00     0.002 A 
HETATM   16  C   UNL     1      -0.941   7.218 -29.826  1.00  0.00     0.032 A 
BRANCH  12  17
HETATM   17  O   UNL     1      -2.072   4.190 -31.547  1.00  0.00    -0.309 OA
BRANCH  17  18
HETATM   18  C   UNL     1      -2.772   4.452 -32.705  1.00  0.00     0.076 A 
HETATM   19  C   UNL     1      -4.107   4.046 -32.728  1.00  0.00     0.037 A 
HETATM   20  C   UNL     1      -4.891   4.282 -33.859  1.00  0.00     0.003 A 
HETATM   21  C   UNL     1      -4.344   4.936 -34.962  1.00  0.00     0.000 A 
HETATM   22  C   UNL     1      -3.017   5.365 -34.932  1.00  0.00     0.003 A 
HETATM   23  C   UNL     1      -2.233   5.135 -33.800  1.00  0.00     0.037 A 
ENDBRANCH  17  18
ENDBRANCH  12  17
ENDBRANCH   8  11
ENDBRANCH   6   7
ENDBRANCH   4   6
BRANCH   1  24
HETATM   24  N   UNL     1      -6.789   2.138 -29.504  1.00  0.00    -0.287 N 
HETATM   25  C   UNL     1      -6.440   1.035 -30.223  1.00  0.00     0.326 C 
HETATM   26  N   UNL     1      -6.374   1.172 -31.581  1.00  0.00    -0.306 N 
HETATM   27  O   UNL     1      -6.286  -0.021 -29.608  1.00  0.00    -0.247 OA
HETATM   28  H   UNL     1      -6.791   2.012 -31.971  1.00  0.00     0.171 HD
HETATM   29  H   UNL     1      -6.960   1.976 -28.524  1.00  0.00     0.172 HD
BRANCH  26  30
HETATM   30  C   UNL     1      -6.050   0.164 -32.513  1.00  0.00     0.069 A 
HETATM   31  C   UNL     1      -4.692  -0.109 -32.749  1.00  0.00     0.095 A 
HETATM   32  C   UNL     1      -4.317  -1.125 -33.634  1.00  0.00     0.039 A 
HETATM   33  C   UNL     1      -5.296  -1.856 -34.307  1.00  0.00     0.003 A 
HETATM   34  C   UNL     1      -6.645  -1.579 -34.090  1.00  0.00     0.002 A 
HETATM   35  C   UNL     1      -7.021  -0.571 -33.197  1.00  0.00     0.032 A 
BRANCH  31  36
HETATM   36  O   UNL     1      -3.759   0.652 -32.084  1.00  0.00    -0.354 OA
HETATM   37  C   UNL     1      -2.906  -0.144 -31.259  1.00  0.00     0.210 C 
ENDBRANCH  31  36
ENDBRANCH  26  30
ENDBRANCH   1  24
TORSDOF 8
ENDMDL
MODEL 5
REMARK VINA RESULT:      -9.0      2.889      7.367
REMARK  8 active torsions:
REMARK  status: ('A' for Active; 'I' for Inactive)
REMARK    1  A    between atoms: O_2  and  C_3 
REMARK    2  A    between atoms: C_4  and  N_5 
REMARK       I    between atoms: N_5  and  C_6 
REMARK       I    between atoms: C_6  and  N_7 
REMARK    3  A    between atoms: N_7  and  C_8 
REMARK    4  A    between atoms: C_11  and  C_12 
REMARK    5  A    between atoms: C_12  and  C_13 
REMARK       I    between atoms: C_13  and  N_14 
REMARK    6  A    between atoms: N_14  and  C_15 
REMARK    7  A    between atoms: C_16  and  O_17 
REMARK    8  A    between atoms: O_17  and  C_18 
ROOT
HETATM    1  C   UNL     1      -6.612   6.342 -32.668  1.00  0.00     0.174 C 
HETATM    2  S   UNL     1      -5.908   7.528 -31.668  1.00  0.00    -0.062 SA
HETATM    3  C   UNL     1      -4.362   6.902 -32.059  1.00  0.00     0.081 C 
HETATM    4  C   UNL     1      -4.492   5.811 -32.903  1.00  0.00     0.052 C 
HETATM    5  N   UNL     1      -5.794   5.555 -33.322  1.00  0.00    -0.228 NA
ENDROOT
BRANCH   4   6
HETATM    6  C   UNL     1      -3.393   4.895 -33.332  1.00  0.00     0.163 C 
BRANCH   6   7
HETATM    7  C   UNL     1      -3.428   3.626 -32.484  1.00  0.00     0.227 C 
HETATM    8  N   UNL     1      -4.676   3.033 -32.421  1.00  0.00    -0.324 N 
HETATM    9  H   UNL     1      -5.383   3.320 -33.090  1.00  0.00     0.169 HD
HETATM   10  O   UNL     1      -2.414   3.209 -31.926  1.00  0.00    -0.273 OA
BRANCH   8  11
HETATM   11  C   UNL     1      -5.101   2.034 -31.513  1.00  0.00     0.069 A 
HETATM   12  C   UNL     1      -5.231   0.720 -31.992  1.00  0.00     0.102 A 
HETATM   13  C   UNL     1      -5.758  -0.293 -31.180  1.00  0.00     0.039 A 
HETATM   14  C   UNL     1      -6.111  -0.009 -29.863  1.00  0.00     0.003 A 
HETATM   15  C   UNL     1      -5.951   1.283 -29.366  1.00  0.00     0.002 A 
HETATM   16  C   UNL     1      -5.452   2.301 -30.187  1.00  0.00     0.032 A 
BRANCH  12  17
HETATM   17  O   UNL     1      -4.871   0.464 -33.301  1.00  0.00    -0.309 OA
BRANCH  17  18
HETATM   18  C   UNL     1      -5.212  -0.766 -33.823  1.00  0.00     0.076 A 
HETATM   19  C   UNL     1      -6.514  -0.894 -34.309  1.00  0.00     0.037 A 
HETATM   20  C   UNL     1      -6.937  -2.103 -34.863  1.00  0.00     0.003 A 
HETATM   21  C   UNL     1      -6.056  -3.181 -34.944  1.00  0.00     0.000 A 
HETATM   22  C   UNL     1      -4.746  -3.047 -34.481  1.00  0.00     0.003 A 
HETATM   23  C   UNL     1      -4.318  -1.838 -33.932  1.00  0.00     0.037 A 
ENDBRANCH  17  18
ENDBRANCH  12  17
ENDBRANCH   8  11
ENDBRANCH   6   7
ENDBRANCH   4   6
BRANCH   1  24
HETATM   24  N   UNL     1      -7.974   6.324 -32.633  1.00  0.00    -0.287 N 
HETATM   25  C   UNL     1      -8.770   5.222 -32.542  1.00  0.00     0.326 C 
HETATM   26  N   UNL     1      -8.216   4.024 -32.898  1.00  0.00    -0.306 N 
HETATM   27  O   UNL     1      -9.946   5.393 -32.223  1.00  0.00    -0.247 OA
HETATM   28  H   UNL     1      -7.335   4.065 -33.402  1.00  0.00     0.171 HD
HETATM   29  H   UNL     1      -8.444   7.206 -32.494  1.00  0.00     0.172 HD
BRANCH  26  30
HETATM   30  C   UNL     1      -8.857   2.768 -32.896  1.00  0.00     0.069 A 
HETATM   31  C   UNL     1      -9.670   2.436 -33.993  1.00  0.00     0.095 A 
HETATM   32  C   UNL     1     -10.297   1.188 -34.058  1.00  0.00     0.039 A 
HETATM   33  C   UNL     1     -10.135   0.274 -33.016  1.00  0.00     0.003 A 
HETATM   34  C   UNL     1      -9.343   0.603 -31.918  1.00  0.00     0.002 A 
HETATM   35  C   UNL     1      -8.707   1.847 -31.856  1.00  0.00     0.032 A 
BRANCH  31  36
HETATM   36  O   UNL     1      -9.824   3.375 -34.986  1.00  0.00    -0.354 OA
HETATM   37  C   UNL     1     -11.186   3.780 -35.137  1.00  0.00     0.210 C 
ENDBRANCH  31  36
ENDBRANCH  26  30
ENDBRANCH   1  24
TORSDOF 8
ENDMDL
MODEL 6
REMARK VINA RESULT:      -8.9      2.619      9.902
REMARK  8 active torsions:
REMARK  status: ('A' for Active; 'I' for Inactive)
REMARK    1  A    between atoms: O_2  and  C_3 
REMARK    2  A    between atoms: C_4  and  N_5 
REMARK       I    between atoms: N_5  and  C_6 
REMARK       I    between atoms: C_6  and  N_7 
REMARK    3  A    between atoms: N_7  and  C_8 
REMARK    4  A    between atoms: C_11  and  C_12 
REMARK    5  A    between atoms: C_12  and  C_13 
REMARK       I    between atoms: C_13  and  N_14 
REMARK    6  A    between atoms: N_14  and  C_15 
REMARK    7  A    between atoms: C_16  and  O_17 
REMARK    8  A    between atoms: O_17  and  C_18 
ROOT
HETATM    1  C   UNL     1      -2.825   6.705 -32.238  1.00  0.00     0.174 C 
HETATM    2  S   UNL     1      -1.869   6.734 -33.648  1.00  0.00    -0.062 SA
HETATM    3  C   UNL     1      -2.082   5.041 -33.796  1.00  0.00     0.081 C 
HETATM    4  C   UNL     1      -2.844   4.565 -32.742  1.00  0.00     0.052 C 
HETATM    5  N   UNL     1      -3.346   5.552 -31.898  1.00  0.00    -0.228 NA
ENDROOT
BRANCH   4   6
HETATM    6  C   UNL     1      -3.108   3.129 -32.424  1.00  0.00     0.163 C 
BRANCH   6   7
HETATM    7  C   UNL     1      -4.564   2.797 -32.740  1.00  0.00     0.227 C 
HETATM    8  N   UNL     1      -5.033   1.674 -32.084  1.00  0.00    -0.324 N 
HETATM    9  H   UNL     1      -4.497   1.309 -31.304  1.00  0.00     0.169 HD
HETATM   10  O   UNL     1      -5.217   3.493 -33.516  1.00  0.00    -0.273 OA
BRANCH   8  11
HETATM   11  C   UNL     1      -6.215   0.950 -32.370  1.00  0.00     0.069 A 
HETATM   12  C   UNL     1      -6.137  -0.100 -33.300  1.00  0.00     0.102 A 
HETATM   13  C   UNL     1      -7.289  -0.781 -33.714  1.00  0.00     0.039 A 
HETATM   14  C   UNL     1      -8.525  -0.450 -33.162  1.00  0.00     0.003 A 
HETATM   15  C   UNL     1      -8.608   0.566 -32.211  1.00  0.00     0.002 A 
HETATM   16  C   UNL     1      -7.460   1.265 -31.819  1.00  0.00     0.032 A 
BRANCH  12  17
HETATM   17  O   UNL     1      -4.900  -0.412 -33.830  1.00  0.00    -0.309 OA
BRANCH  17  18
HETATM   18  C   UNL     1      -4.389  -1.662 -33.552  1.00  0.00     0.076 A 
HETATM   19  C   UNL     1      -3.708  -1.799 -32.342  1.00  0.00     0.037 A 
HETATM   20  C   UNL     1      -3.168  -3.034 -31.979  1.00  0.00     0.003 A 
HETATM   21  C   UNL     1      -3.320  -4.136 -32.820  1.00  0.00     0.000 A 
HETATM   22  C   UNL     1      -4.022  -4.008 -34.019  1.00  0.00     0.003 A 
HETATM   23  C   UNL     1      -4.568  -2.775 -34.382  1.00  0.00     0.037 A 
ENDBRANCH  17  18
ENDBRANCH  12  17
ENDBRANCH   8  11
ENDBRANCH   6   7
ENDBRANCH   4   6
BRANCH   1  24
HETATM   24  N   UNL     1      -2.900   7.903 -31.594  1.00  0.00    -0.287 N 
HETATM   25  C   UNL     1      -2.138   8.306 -30.538  1.00  0.00     0.326 C 
HETATM   26  N   UNL     1      -1.520   7.330 -29.808  1.00  0.00    -0.306 N 
HETATM   27  O   UNL     1      -2.123   9.507 -30.272  1.00  0.00    -0.247 OA
HETATM   28  H   UNL     1      -1.838   6.377 -29.966  1.00  0.00     0.171 HD
HETATM   29  H   UNL     1      -3.448   8.628 -32.029  1.00  0.00     0.172 HD
BRANCH  26  30
HETATM   30  C   UNL     1      -0.703   7.518 -28.675  1.00  0.00     0.069 A 
HETATM   31  C   UNL     1      -1.283   7.362 -27.405  1.00  0.00     0.095 A 
HETATM   32  C   UNL     1      -0.508   7.499 -26.249  1.00  0.00     0.039 A 
HETATM   33  C   UNL     1       0.847   7.817 -26.356  1.00  0.00     0.003 A 
HETATM   34  C   UNL     1       1.425   7.990 -27.612  1.00  0.00     0.002 A 
HETATM   35  C   UNL     1       0.653   7.842 -28.768  1.00  0.00     0.032 A 
BRANCH  31  36
HETATM   36  O   UNL     1      -2.627   7.074 -27.344  1.00  0.00    -0.354 OA
HETATM   37  C   UNL     1      -3.268   7.729 -26.248  1.00  0.00     0.210 C 
ENDBRANCH  31  36
ENDBRANCH  26  30
ENDBRANCH   1  24
TORSDOF 8
ENDMDL
MODEL 7
REMARK VINA RESULT:      -8.9      2.105      2.660
REMARK  8 active torsions:
REMARK  status: ('A' for Active; 'I' for Inactive)
REMARK    1  A    between atoms: O_2  and  C_3 
REMARK    2  A    between atoms: C_4  and  N_5 
REMARK       I    between atoms: N_5  and  C_6 
REMARK       I    between atoms: C_6  and  N_7 
REMARK    3  A    between atoms: N_7  and  C_8 
REMARK    4  A    between atoms: C_11  and  C_12 
REMARK    5  A    between atoms: C_12  and  C_13 
REMARK       I    between atoms: C_13  and  N_14 
REMARK    6  A    between atoms: N_14  and  C_15 
REMARK    7  A    between atoms: C_16  and  O_17 
REMARK    8  A    between atoms: O_17  and  C_18 
ROOT
HETATM    1  C   UNL     1      -9.161   3.063 -31.032  1.00  0.00     0.174 C 
HETATM    2  S   UNL     1     -10.244   4.223 -30.412  1.00  0.00    -0.062 SA
HETATM    3  C   UNL     1      -8.906   5.203 -29.981  1.00  0.00     0.081 C 
HETATM    4  C   UNL     1      -7.724   4.563 -30.313  1.00  0.00     0.052 C 
HETATM    5  N   UNL     1      -7.887   3.367 -31.006  1.00  0.00    -0.228 NA
ENDROOT
BRANCH   4   6
HETATM    6  C   UNL     1      -6.347   5.015 -29.949  1.00  0.00     0.163 C 
BRANCH   6   7
HETATM    7  C   UNL     1      -5.643   5.555 -31.191  1.00  0.00     0.227 C 
HETATM    8  N   UNL     1      -5.082   4.572 -31.985  1.00  0.00    -0.324 N 
HETATM    9  H   UNL     1      -5.362   3.609 -31.834  1.00  0.00     0.169 HD
HETATM   10  O   UNL     1      -5.603   6.763 -31.420  1.00  0.00    -0.273 OA
BRANCH   8  11
HETATM   11  C   UNL     1      -4.140   4.750 -33.026  1.00  0.00     0.069 A 
HETATM   12  C   UNL     1      -2.776   4.742 -32.689  1.00  0.00     0.102 A 
HETATM   13  C   UNL     1      -1.796   5.027 -33.649  1.00  0.00     0.039 A 
HETATM   14  C   UNL     1      -2.172   5.271 -34.969  1.00  0.00     0.003 A 
HETATM   15  C   UNL     1      -3.520   5.244 -35.321  1.00  0.00     0.002 A 
HETATM   16  C   UNL     1      -4.500   4.988 -34.354  1.00  0.00     0.032 A 
BRANCH  12  17
HETATM   17  O   UNL     1      -2.429   4.493 -31.375  1.00  0.00    -0.309 OA
BRANCH  17  18
HETATM   18  C   UNL     1      -1.576   5.388 -30.765  1.00  0.00     0.076 A 
HETATM   19  C   UNL     1      -2.102   6.648 -30.479  1.00  0.00     0.037 A 
HETATM   20  C   UNL     1      -1.308   7.610 -29.852  1.00  0.00     0.003 A 
HETATM   21  C   UNL     1       0.007   7.308 -29.499  1.00  0.00     0.000 A 
HETATM   22  C   UNL     1       0.526   6.040 -29.761  1.00  0.00     0.003 A 
HETATM   23  C   UNL     1      -0.267   5.074 -30.383  1.00  0.00     0.037 A 
ENDBRANCH  17  18
ENDBRANCH  12  17
ENDBRANCH   8  11
ENDBRANCH   6   7
ENDBRANCH   4   6
BRANCH   1  24
HETATM   24  N   UNL     1      -9.759   1.913 -31.451  1.00  0.00    -0.287 N 
HETATM   25  C   UNL     1      -9.140   0.826 -31.991  1.00  0.00     0.326 C 
HETATM   26  N   UNL     1      -7.894   1.018 -32.519  1.00  0.00    -0.306 N 
HETATM   27  O   UNL     1      -9.775  -0.228 -32.035  1.00  0.00    -0.247 OA
HETATM   28  H   UNL     1      -7.609   1.982 -32.664  1.00  0.00     0.171 HD
HETATM   29  H   UNL     1     -10.724   1.774 -31.192  1.00  0.00     0.172 HD
BRANCH  26  30
HETATM   30  C   UNL     1      -7.084   0.044 -33.138  1.00  0.00     0.069 A 
HETATM   31  C   UNL     1      -5.947  -0.409 -32.448  1.00  0.00     0.095 A 
HETATM   32  C   UNL     1      -5.132  -1.402 -33.000  1.00  0.00     0.039 A 
HETATM   33  C   UNL     1      -5.435  -1.931 -34.255  1.00  0.00     0.003 A 
HETATM   34  C   UNL     1      -6.553  -1.475 -34.951  1.00  0.00     0.002 A 
HETATM   35  C   UNL     1      -7.374  -0.490 -34.396  1.00  0.00     0.032 A 
BRANCH  31  36
HETATM   36  O   UNL     1      -5.670   0.157 -31.226  1.00  0.00    -0.354 OA
HETATM   37  C   UNL     1      -4.513   0.995 -31.271  1.00  0.00     0.210 C 
ENDBRANCH  31  36
ENDBRANCH  26  30
ENDBRANCH   1  24
TORSDOF 8
ENDMDL
MODEL 8
REMARK VINA RESULT:      -8.9      2.196      4.327
REMARK  8 active torsions:
REMARK  status: ('A' for Active; 'I' for Inactive)
REMARK    1  A    between atoms: O_2  and  C_3 
REMARK    2  A    between atoms: C_4  and  N_5 
REMARK       I    between atoms: N_5  and  C_6 
REMARK       I    between atoms: C_6  and  N_7 
REMARK    3  A    between atoms: N_7  and  C_8 
REMARK    4  A    between atoms: C_11  and  C_12 
REMARK    5  A    between atoms: C_12  and  C_13 
REMARK       I    between atoms: C_13  and  N_14 
REMARK    6  A    between atoms: N_14  and  C_15 
REMARK    7  A    between atoms: C_16  and  O_17 
REMARK    8  A    between atoms: O_17  and  C_18 
ROOT
HETATM    1  C   UNL     1      -4.314   3.379 -32.538  1.00  0.00     0.174 C 
HETATM    2  S   UNL     1      -5.721   4.313 -32.765  1.00  0.00    -0.062 SA
HETATM    3  C   UNL     1      -4.834   5.348 -33.803  1.00  0.00     0.081 C 
HETATM    4  C   UNL     1      -3.517   4.925 -33.882  1.00  0.00     0.052 C 
HETATM    5  N   UNL     1      -3.252   3.731 -33.218  1.00  0.00    -0.228 NA
ENDROOT
BRANCH   4   6
HETATM    6  C   UNL     1      -2.397   5.656 -34.548  1.00  0.00     0.163 C 
BRANCH   6   7
HETATM    7  C   UNL     1      -1.676   6.527 -33.523  1.00  0.00     0.227 C 
HETATM    8  N   UNL     1      -1.307   5.849 -32.376  1.00  0.00    -0.324 N 
HETATM    9  H   UNL     1      -1.320   4.834 -32.389  1.00  0.00     0.169 HD
HETATM   10  O   UNL     1      -1.467   7.720 -33.742  1.00  0.00    -0.273 OA
BRANCH   8  11
HETATM   11  C   UNL     1      -0.890   6.412 -31.147  1.00  0.00     0.069 A 
HETATM   12  C   UNL     1      -1.857   6.596 -30.144  1.00  0.00     0.102 A 
HETATM   13  C   UNL     1      -1.538   7.254 -28.949  1.00  0.00     0.039 A 
HETATM   14  C   UNL     1      -0.233   7.687 -28.726  1.00  0.00     0.003 A 
HETATM   15  C   UNL     1       0.743   7.475 -29.698  1.00  0.00     0.002 A 
HETATM   16  C   UNL     1       0.416   6.845 -30.905  1.00  0.00     0.032 A 
BRANCH  12  17
HETATM   17  O   UNL     1      -3.143   6.154 -30.389  1.00  0.00    -0.309 OA
BRANCH  17  18
HETATM   18  C   UNL     1      -4.165   7.069 -30.247  1.00  0.00     0.076 A 
HETATM   19  C   UNL     1      -4.153   8.154 -31.126  1.00  0.00     0.037 A 
HETATM   20  C   UNL     1      -5.157   9.121 -31.057  1.00  0.00     0.003 A 
HETATM   21  C   UNL     1      -6.181   8.997 -30.118  1.00  0.00     0.000 A 
HETATM   22  C   UNL     1      -6.209   7.901 -29.256  1.00  0.00     0.003 A 
HETATM   23  C   UNL     1      -5.210   6.929 -29.327  1.00  0.00     0.037 A 
ENDBRANCH  17  18
ENDBRANCH  12  17
ENDBRANCH   8  11
ENDBRANCH   6   7
ENDBRANCH   4   6
BRANCH   1  24
HETATM   24  N   UNL     1      -4.453   2.381 -31.621  1.00  0.00    -0.287 N 
HETATM   25  C   UNL     1      -4.596   1.051 -31.884  1.00  0.00     0.326 C 
HETATM   26  N   UNL     1      -5.020   0.707 -33.137  1.00  0.00    -0.306 N 
HETATM   27  O   UNL     1      -4.408   0.264 -30.957  1.00  0.00    -0.247 OA
HETATM   28  H   UNL     1      -5.400   1.457 -33.707  1.00  0.00     0.171 HD
HETATM   29  H   UNL     1      -4.270   2.611 -30.657  1.00  0.00     0.172 HD
BRANCH  26  30
HETATM   30  C   UNL     1      -5.249  -0.599 -33.617  1.00  0.00     0.069 A 
HETATM   31  C   UNL     1      -6.574  -0.989 -33.875  1.00  0.00     0.095 A 
HETATM   32  C   UNL     1      -6.851  -2.259 -34.389  1.00  0.00     0.039 A 
HETATM   33  C   UNL     1      -5.809  -3.156 -34.626  1.00  0.00     0.003 A 
HETATM   34  C   UNL     1      -4.494  -2.781 -34.357  1.00  0.00     0.002 A 
HETATM   35  C   UNL     1      -4.213  -1.508 -33.853  1.00  0.00     0.032 A 
BRANCH  31  36
HETATM   36  O   UNL     1      -7.573  -0.084 -33.604  1.00  0.00    -0.354 OA
HETATM   37  C   UNL     1      -8.217   0.378 -34.793  1.00  0.00     0.210 C 
ENDBRANCH  31  36
ENDBRANCH  26  30
ENDBRANCH   1  24
TORSDOF 8
ENDMDL
MODEL 9
REMARK VINA RESULT:      -8.8      2.242      3.662
REMARK  8 active torsions:
REMARK  status: ('A' for Active; 'I' for Inactive)
REMARK    1  A    between atoms: O_2  and  C_3 
REMARK    2  A    between atoms: C_4  and  N_5 
REMARK       I    between atoms: N_5  and  C_6 
REMARK       I    between atoms: C_6  and  N_7 
REMARK    3  A    between atoms: N_7  and  C_8 
REMARK    4  A    between atoms: C_11  and  C_12 
REMARK    5  A    between atoms: C_12  and  C_13 
REMARK       I    between atoms: C_13  and  N_14 
REMARK    6  A    between atoms: N_14  and  C_15 
REMARK    7  A    between atoms: C_16  and  O_17 
REMARK    8  A    between atoms: O_17  and  C_18 
ROOT
HETATM    1  C   UNL     1      -5.889   3.593 -32.440  1.00  0.00     0.174 C 
HETATM    2  S   UNL     1      -6.788   5.013 -32.159  1.00  0.00    -0.062 SA
HETATM    3  C   UNL     1      -5.839   5.815 -33.338  1.00  0.00     0.081 C 
HETATM    4  C   UNL     1      -4.881   4.952 -33.843  1.00  0.00     0.052 C 
HETATM    5  N   UNL     1      -4.982   3.642 -33.383  1.00  0.00    -0.228 NA
ENDROOT
BRANCH   4   6
HETATM    6  C   UNL     1      -3.762   5.319 -34.763  1.00  0.00     0.163 C 
BRANCH   6   7
HETATM    7  C   UNL     1      -2.685   6.066 -33.980  1.00  0.00     0.227 C 
HETATM    8  N   UNL     1      -2.275   5.411 -32.834  1.00  0.00    -0.324 N 
HETATM    9  H   UNL     1      -2.520   4.433 -32.721  1.00  0.00     0.169 HD
HETATM   10  O   UNL     1      -2.254   7.149 -34.373  1.00  0.00    -0.273 OA
BRANCH   8  11
HETATM   11  C   UNL     1      -1.521   5.951 -31.765  1.00  0.00     0.069 A 
HETATM   12  C   UNL     1      -2.215   6.402 -30.630  1.00  0.00     0.102 A 
HETATM   13  C   UNL     1      -1.543   7.053 -29.587  1.00  0.00     0.039 A 
HETATM   14  C   UNL     1      -0.160   7.210 -29.648  1.00  0.00     0.003 A 
HETATM   15  C   UNL     1       0.543   6.732 -30.752  1.00  0.00     0.002 A 
HETATM   16  C   UNL     1      -0.133   6.108 -31.807  1.00  0.00     0.032 A 
BRANCH  12  17
HETATM   17  O   UNL     1      -3.586   6.231 -30.592  1.00  0.00    -0.309 OA
BRANCH  17  18
HETATM   18  C   UNL     1      -4.353   7.332 -30.276  1.00  0.00     0.076 A 
HETATM   19  C   UNL     1      -4.301   8.401 -31.171  1.00  0.00     0.037 A 
HETATM   20  C   UNL     1      -5.056   9.551 -30.932  1.00  0.00     0.003 A 
HETATM   21  C   UNL     1      -5.873   9.627 -29.804  1.00  0.00     0.000 A 
HETATM   22  C   UNL     1      -5.946   8.549 -28.921  1.00  0.00     0.003 A 
HETATM   23  C   UNL     1      -5.196   7.396 -29.162  1.00  0.00     0.037 A 
ENDBRANCH  17  18
ENDBRANCH  12  17
ENDBRANCH   8  11
ENDBRANCH   6   7
ENDBRANCH   4   6
BRANCH   1  24
HETATM   24  N   UNL     1      -6.199   2.565 -31.601  1.00  0.00    -0.287 N 
HETATM   25  C   UNL     1      -6.061   1.235 -31.861  1.00  0.00     0.326 C 
HETATM   26  N   UNL     1      -5.977   0.864 -33.173  1.00  0.00    -0.306 N 
HETATM   27  O   UNL     1      -6.100   0.460 -30.906  1.00  0.00    -0.247 OA
HETATM   28  H   UNL     1      -6.234   1.567 -33.860  1.00  0.00     0.171 HD
HETATM   29  H   UNL     1      -6.393   2.797 -30.639  1.00  0.00     0.172 HD
BRANCH  26  30
HETATM   30  C   UNL     1      -5.846  -0.450 -33.668  1.00  0.00     0.069 A 
HETATM   31  C   UNL     1      -4.572  -1.042 -33.653  1.00  0.00     0.095 A 
HETATM   32  C   UNL     1      -4.395  -2.357 -34.096  1.00  0.00     0.039 A 
HETATM   33  C   UNL     1      -5.486  -3.079 -34.580  1.00  0.00     0.003 A 
HETATM   34  C   UNL     1      -6.750  -2.493 -34.613  1.00  0.00     0.002 A 
HETATM   35  C   UNL     1      -6.930  -1.182 -34.160  1.00  0.00     0.032 A 
BRANCH  31  36
HETATM   36  O   UNL     1      -3.519  -0.287 -33.192  1.00  0.00    -0.354 OA
HETATM   37  C   UNL     1      -2.912  -0.861 -32.033  1.00  0.00     0.210 C 
ENDBRANCH  31  36
ENDBRANCH  26  30
ENDBRANCH   1  24
TORSDOF 8
ENDMDL
MODEL 10
REMARK VINA RESULT:      -8.8      2.255      8.717
REMARK  8 active torsions:
REMARK  status: ('A' for Active; 'I' for Inactive)
REMARK    1  A    between atoms: O_2  and  C_3 
REMARK    2  A    between atoms: C_4  and  N_5 
REMARK       I    between atoms: N_5  and  C_6 
REMARK       I    between atoms: C_6  and  N_7 
REMARK    3  A    between atoms: N_7  and  C_8 
REMARK    4  A    between atoms: C_11  and  C_12 
REMARK    5  A    between atoms: C_12  and  C_13 
REMARK       I    between atoms: C_13  and  N_14 
REMARK    6  A    between atoms: N_14  and  C_15 
REMARK    7  A    between atoms: C_16  and  O_17 
REMARK    8  A    between atoms: O_17  and  C_18 
ROOT
HETATM    1  C   UNL     1      -5.840   4.598 -32.236  1.00  0.00     0.174 C 
HETATM    2  S   UNL     1      -7.519   4.555 -32.525  1.00  0.00    -0.062 SA
HETATM    3  C   UNL     1      -7.666   3.334 -31.333  1.00  0.00     0.081 C 
HETATM    4  C   UNL     1      -6.419   3.022 -30.817  1.00  0.00     0.052 C 
HETATM    5  N   UNL     1      -5.382   3.827 -31.282  1.00  0.00    -0.228 NA
ENDROOT
BRANCH   4   6
HETATM    6  C   UNL     1      -6.109   1.897 -29.884  1.00  0.00     0.163 C 
BRANCH   6   7
HETATM    7  C   UNL     1      -6.114   0.579 -30.655  1.00  0.00     0.227 C 
HETATM    8  N   UNL     1      -5.395   0.622 -31.835  1.00  0.00    -0.324 N 
HETATM    9  H   UNL     1      -4.754   1.394 -31.984  1.00  0.00     0.169 HD
HETATM   10  O   UNL     1      -6.719  -0.402 -30.226  1.00  0.00    -0.273 OA
BRANCH   8  11
HETATM   11  C   UNL     1      -5.436  -0.315 -32.894  1.00  0.00     0.069 A 
HETATM   12  C   UNL     1      -6.364  -0.102 -33.928  1.00  0.00     0.102 A 
HETATM   13  C   UNL     1      -6.538  -1.050 -34.945  1.00  0.00     0.039 A 
HETATM   14  C   UNL     1      -5.746  -2.196 -34.965  1.00  0.00     0.003 A 
HETATM   15  C   UNL     1      -4.797  -2.399 -33.965  1.00  0.00     0.002 A 
HETATM   16  C   UNL     1      -4.644  -1.466 -32.933  1.00  0.00     0.032 A 
BRANCH  12  17
HETATM   17  O   UNL     1      -7.134   1.044 -33.888  1.00  0.00    -0.309 OA
BRANCH  17  18
HETATM   18  C   UNL     1      -8.493   0.888 -33.715  1.00  0.00     0.076 A 
HETATM   19  C   UNL     1      -9.314   1.740 -34.456  1.00  0.00     0.037 A 
HETATM   20  C   UNL     1     -10.702   1.641 -34.347  1.00  0.00     0.003 A 
HETATM   21  C   UNL     1     -11.270   0.683 -33.509  1.00  0.00     0.000 A 
HETATM   22  C   UNL     1     -10.452  -0.186 -32.786  1.00  0.00     0.003 A 
HETATM   23  C   UNL     1      -9.063  -0.093 -32.897  1.00  0.00     0.037 A 
ENDBRANCH  17  18
ENDBRANCH  12  17
ENDBRANCH   8  11
ENDBRANCH   6   7
ENDBRANCH   4   6
BRANCH   1  24
HETATM   24  N   UNL     1      -5.153   5.417 -33.080  1.00  0.00    -0.287 N 
HETATM   25  C   UNL     1      -3.849   5.795 -32.961  1.00  0.00     0.326 C 
HETATM   26  N   UNL     1      -3.278   5.680 -31.726  1.00  0.00    -0.306 N 
HETATM   27  O   UNL     1      -3.305   6.283 -33.952  1.00  0.00    -0.247 OA
HETATM   28  H   UNL     1      -3.912   5.527 -30.947  1.00  0.00     0.171 HD
HETATM   29  H   UNL     1      -5.585   5.637 -33.964  1.00  0.00     0.172 HD
BRANCH  26  30
HETATM   30  C   UNL     1      -1.956   6.024 -31.375  1.00  0.00     0.069 A 
HETATM   31  C   UNL     1      -1.753   7.185 -30.609  1.00  0.00     0.095 A 
HETATM   32  C   UNL     1      -0.466   7.549 -30.202  1.00  0.00     0.039 A 
HETATM   33  C   UNL     1       0.628   6.771 -30.579  1.00  0.00     0.003 A 
HETATM   34  C   UNL     1       0.436   5.628 -31.353  1.00  0.00     0.002 A 
HETATM   35  C   UNL     1      -0.851   5.256 -31.751  1.00  0.00     0.032 A 
BRANCH  31  36
HETATM   36  O   UNL     1      -2.856   7.937 -30.280  1.00  0.00    -0.354 OA
HETATM   37  C   UNL     1      -2.817   9.237 -30.873  1.00  0.00     0.210 C 
ENDBRANCH  31  36
ENDBRANCH  26  30
ENDBRANCH   1  24
TORSDOF 8
ENDMDL
