MODEL 1
REMARK VINA RESULT:      -9.5      0.000      0.000
REMARK  9 active torsions:
REMARK  status: ('A' for Active; 'I' for Inactive)
REMARK    1  A    between atoms: C_2  and  C_3 
REMARK    2  A    between atoms: C_3  and  N_4 
REMARK    3  A    between atoms: N_4  and  C_7 
REMARK    4  A    between atoms: C_12  and  N_13 
REMARK       I    between atoms: N_13  and  C_14 
REMARK    5  A    between atoms: C_14  and  C_16 
REMARK    6  A    between atoms: C_20  and  C_22 
REMARK    7  A    between atoms: C_22  and  N_24 
REMARK       I    between atoms: N_24  and  C_25 
REMARK    8  A    between atoms: C_25  and  C_27 
REMARK    9  A    between atoms: C_30  and  O_31 
ROOT
HETATM    1  C   UNL     1      -1.799   5.328 -31.526  1.00  0.00     0.033 A 
HETATM    2  C   UNL     1      -1.544   5.239 -32.901  1.00  0.00     0.017 A 
HETATM    3  C   UNL     1      -2.227   4.315 -33.689  1.00  0.00     0.002 A 
HETATM    4  C   UNL     1      -3.183   3.478 -33.113  1.00  0.00     0.009 A 
HETATM    5  C   UNL     1      -3.483   3.569 -31.745  1.00  0.00    -0.035 A 
HETATM    6  C   UNL     1      -2.773   4.496 -30.957  1.00  0.00     0.026 A 
ENDROOT
BRANCH   1   7
HETATM    7  C   UNL     1      -1.034   6.341 -30.739  1.00  0.00     0.257 C 
HETATM    8  N   UNL     1      -1.334   6.420 -29.394  1.00  0.00    -0.301 N 
HETATM    9  H   UNL     1      -1.990   5.791 -28.958  1.00  0.00     0.171 HD
HETATM   10  O   UNL     1      -0.193   7.006 -31.334  1.00  0.00    -0.267 OA
BRANCH   8  11
HETATM   11  C   UNL     1      -0.694   7.315 -28.579  1.00  0.00     0.174 A 
HETATM   12  N   UNL     1      -1.023   8.549 -28.287  1.00  0.00    -0.228 NA
HETATM   13  C   UNL     1      -0.097   9.088 -27.439  1.00  0.00     0.050 A 
HETATM   14  C   UNL     1      -0.236  10.486 -26.951  1.00  0.00     0.062 C 
HETATM   15  C   UNL     1       0.920   8.239 -27.060  1.00  0.00     0.013 A 
HETATM   16  C   UNL     1       1.072  10.976 -26.308  1.00  0.00     0.039 C 
HETATM   17  C   UNL     1       1.673   9.905 -25.372  1.00  0.00     0.191 C 
HETATM   18  C   UNL     1       2.033   8.600 -26.140  1.00  0.00     0.081 C 
HETATM   19  S   UNL     1       0.737   6.729 -27.833  1.00  0.00    -0.055 SA
BRANCH  17  20
HETATM   20  N   UNL     1       2.923  10.445 -24.708  1.00  0.00    -0.071 N 
HETATM   21  H   UNL     1       2.663  11.136 -23.990  1.00  0.00     0.277 HD
HETATM   22  H   UNL     1       3.470  10.965 -25.410  1.00  0.00     0.277 HD
BRANCH  20  23
HETATM   23  C   UNL     1       3.829   9.416 -24.097  1.00  0.00     0.232 C 
BRANCH  23  24
HETATM   24  C   UNL     1       3.796   9.563 -22.582  1.00  0.00     0.023 C 
HETATM   25  C   UNL     1       3.323   8.279 -21.918  1.00  0.00     0.007 C 
ENDBRANCH  23  24
ENDBRANCH  20  23
ENDBRANCH  17  20
ENDBRANCH   8  11
ENDBRANCH   1   7
BRANCH   5  26
HETATM   26  C   UNL     1      -4.512   2.665 -31.084  1.00  0.00     0.114 C 
HETATM   27  C   UNL     1      -5.807   3.386 -30.708  1.00  0.00     0.037 C 
BRANCH  26  28
HETATM   28  N   UNL     1      -4.794   1.534 -31.949  1.00  0.00    -0.349 N 
HETATM   29  C   UNL     1      -4.376   0.257 -31.642  1.00  0.00     0.252 C 
HETATM   30  O   UNL     1      -3.805  -0.048 -30.601  1.00  0.00    -0.268 OA
HETATM   31  H   UNL     1      -5.240   1.721 -32.835  1.00  0.00     0.163 HD
BRANCH  29  32
HETATM   32  C   UNL     1      -4.691  -0.786 -32.651  1.00  0.00     0.033 A 
HETATM   33  C   UNL     1      -5.741  -0.555 -33.545  1.00  0.00     0.020 A 
HETATM   34  C   UNL     1      -6.060  -1.505 -34.524  1.00  0.00     0.039 A 
HETATM   35  C   UNL     1      -5.340  -2.700 -34.610  1.00  0.00     0.089 A 
HETATM   36  C   UNL     1      -4.302  -2.931 -33.690  1.00  0.00     0.068 A 
HETATM   37 CL   UNL     1      -3.380  -4.395 -33.722  1.00  0.00    -0.081 Cl
HETATM   38  C   UNL     1      -3.977  -1.984 -32.714  1.00  0.00     0.043 A 
BRANCH  35  39
HETATM   39  O   UNL     1      -5.578  -3.684 -35.532  1.00  0.00    -0.354 OA
HETATM   40  C   UNL     1      -6.703  -4.528 -35.330  1.00  0.00     0.210 C 
ENDBRANCH  35  39
ENDBRANCH  29  32
ENDBRANCH  26  28
ENDBRANCH   5  26
TORSDOF 9
ENDMDL
MODEL 2
REMARK VINA RESULT:      -9.3      3.764      6.130
REMARK  9 active torsions:
REMARK  status: ('A' for Active; 'I' for Inactive)
REMARK    1  A    between atoms: C_2  and  C_3 
REMARK    2  A    between atoms: C_3  and  N_4 
REMARK    3  A    between atoms: N_4  and  C_7 
REMARK    4  A    between atoms: C_12  and  N_13 
REMARK       I    between atoms: N_13  and  C_14 
REMARK    5  A    between atoms: C_14  and  C_16 
REMARK    6  A    between atoms: C_20  and  C_22 
REMARK    7  A    between atoms: C_22  and  N_24 
REMARK       I    between atoms: N_24  and  C_25 
REMARK    8  A    between atoms: C_25  and  C_27 
REMARK    9  A    between atoms: C_30  and  O_31 
ROOT
HETATM    1  C   UNL     1      -8.495   4.601 -33.847  1.00  0.00     0.033 A 
HETATM    2  C   UNL     1      -9.364   5.325 -34.672  1.00  0.00     0.017 A 
HETATM    3  C   UNL     1     -10.560   4.758 -35.110  1.00  0.00     0.002 A 
HETATM    4  C   UNL     1     -10.905   3.466 -34.717  1.00  0.00     0.009 A 
HETATM    5  C   UNL     1     -10.069   2.730 -33.863  1.00  0.00    -0.035 A 
HETATM    6  C   UNL     1      -8.855   3.309 -33.441  1.00  0.00     0.026 A 
ENDROOT
BRANCH   1   7
HETATM    7  C   UNL     1      -7.231   5.267 -33.411  1.00  0.00     0.257 C 
HETATM    8  N   UNL     1      -6.057   4.619 -33.735  1.00  0.00    -0.301 N 
HETATM    9  H   UNL     1      -6.052   3.774 -34.285  1.00  0.00     0.171 HD
HETATM   10  O   UNL     1      -7.328   6.338 -32.820  1.00  0.00    -0.267 OA
BRANCH   8  11
HETATM   11  C   UNL     1      -4.841   5.140 -33.384  1.00  0.00     0.174 A 
HETATM   12  N   UNL     1      -4.088   5.992 -34.034  1.00  0.00    -0.228 NA
HETATM   13  C   UNL     1      -2.945   6.238 -33.325  1.00  0.00     0.050 A 
HETATM   14  C   UNL     1      -1.914   7.174 -33.846  1.00  0.00     0.062 C 
HETATM   15  C   UNL     1      -2.855   5.592 -32.111  1.00  0.00     0.013 A 
HETATM   16  C   UNL     1      -0.595   7.026 -33.069  1.00  0.00     0.039 C 
HETATM   17  C   UNL     1      -0.845   6.946 -31.547  1.00  0.00     0.191 C 
HETATM   18  C   UNL     1      -1.712   5.711 -31.166  1.00  0.00     0.081 C 
HETATM   19  S   UNL     1      -4.226   4.604 -31.873  1.00  0.00    -0.055 SA
BRANCH  17  20
HETATM   20  N   UNL     1       0.475   6.866 -30.812  1.00  0.00    -0.071 N 
HETATM   21  H   UNL     1       1.022   7.722 -30.985  1.00  0.00     0.277 HD
HETATM   22  H   UNL     1       1.030   6.096 -31.214  1.00  0.00     0.277 HD
BRANCH  20  23
HETATM   23  C   UNL     1       0.381   6.633 -29.331  1.00  0.00     0.232 C 
BRANCH  23  24
HETATM   24  C   UNL     1       0.775   7.910 -28.602  1.00  0.00     0.023 C 
HETATM   25  C   UNL     1       1.222   7.611 -27.179  1.00  0.00     0.007 C 
ENDBRANCH  23  24
ENDBRANCH  20  23
ENDBRANCH  17  20
ENDBRANCH   8  11
ENDBRANCH   1   7
BRANCH   5  26
HETATM   26  C   UNL     1     -10.409   1.315 -33.424  1.00  0.00     0.114 C 
HETATM   27  C   UNL     1     -11.718   0.789 -34.015  1.00  0.00     0.037 C 
BRANCH  26  28
HETATM   28  N   UNL     1      -9.310   0.425 -33.753  1.00  0.00    -0.349 N 
HETATM   29  C   UNL     1      -8.370   0.048 -32.820  1.00  0.00     0.252 C 
HETATM   30  O   UNL     1      -8.413   0.361 -31.635  1.00  0.00    -0.268 OA
HETATM   31  H   UNL     1      -9.203   0.150 -34.720  1.00  0.00     0.163 HD
BRANCH  29  32
HETATM   32  C   UNL     1      -7.274  -0.821 -33.321  1.00  0.00     0.033 A 
HETATM   33  C   UNL     1      -5.953  -0.453 -33.050  1.00  0.00     0.020 A 
HETATM   34  C   UNL     1      -4.890  -1.253 -33.490  1.00  0.00     0.039 A 
HETATM   35  C   UNL     1      -5.140  -2.423 -34.216  1.00  0.00     0.089 A 
HETATM   36  C   UNL     1      -6.472  -2.768 -34.503  1.00  0.00     0.068 A 
HETATM   37 CL   UNL     1      -6.857  -4.189 -35.413  1.00  0.00    -0.081 Cl
HETATM   38  C   UNL     1      -7.535  -1.975 -34.062  1.00  0.00     0.043 A 
BRANCH  35  39
HETATM   39  O   UNL     1      -4.168  -3.266 -34.684  1.00  0.00    -0.354 OA
HETATM   40  C   UNL     1      -3.635  -4.231 -33.787  1.00  0.00     0.210 C 
ENDBRANCH  35  39
ENDBRANCH  29  32
ENDBRANCH  26  28
ENDBRANCH   5  26
TORSDOF 9
ENDMDL
MODEL 3
REMARK VINA RESULT:      -9.2      1.792      1.931
REMARK  9 active torsions:
REMARK  status: ('A' for Active; 'I' for Inactive)
REMARK    1  A    between atoms: C_2  and  C_3 
REMARK    2  A    between atoms: C_3  and  N_4 
REMARK    3  A    between atoms: N_4  and  C_7 
REMARK    4  A    between atoms: C_12  and  N_13 
REMARK       I    between atoms: N_13  and  C_14 
REMARK    5  A    between atoms: C_14  and  C_16 
REMARK    6  A    between atoms: C_20  and  C_22 
REMARK    7  A    between atoms: C_22  and  N_24 
REMARK       I    between atoms: N_24  and  C_25 
REMARK    8  A    between atoms: C_25  and  C_27 
REMARK    9  A    between atoms: C_30  and  O_31 
ROOT
HETATM    1  C   UNL     1      -3.075   6.448 -32.976  1.00  0.00     0.033 A 
HETATM    2  C   UNL     1      -2.535   6.275 -34.256  1.00  0.00     0.017 A 
HETATM    3  C   UNL     1      -3.182   5.473 -35.194  1.00  0.00     0.002 A 
HETATM    4  C   UNL     1      -4.383   4.845 -34.867  1.00  0.00     0.009 A 
HETATM    5  C   UNL     1      -4.965   5.028 -33.602  1.00  0.00    -0.035 A 
HETATM    6  C   UNL     1      -4.292   5.829 -32.658  1.00  0.00     0.026 A 
ENDROOT
BRANCH   1   7
HETATM    7  C   UNL     1      -2.334   7.323 -32.019  1.00  0.00     0.257 C 
HETATM    8  N   UNL     1      -2.154   6.819 -30.746  1.00  0.00    -0.301 N 
HETATM    9  H   UNL     1      -2.456   5.889 -30.496  1.00  0.00     0.171 HD
HETATM   10  O   UNL     1      -1.928   8.403 -32.433  1.00  0.00    -0.267 OA
BRANCH   8  11
HETATM   11  C   UNL     1      -1.489   7.536 -29.789  1.00  0.00     0.174 A 
HETATM   12  N   UNL     1      -1.912   8.550 -29.075  1.00  0.00    -0.228 NA
HETATM   13  C   UNL     1      -0.917   8.977 -28.240  1.00  0.00     0.050 A 
HETATM   14  C   UNL     1      -1.138  10.122 -27.318  1.00  0.00     0.062 C 
HETATM   15  C   UNL     1       0.254   8.253 -28.301  1.00  0.00     0.013 A 
HETATM   16  C   UNL     1       0.195  10.632 -26.745  1.00  0.00     0.039 C 
HETATM   17  C   UNL     1       1.098   9.462 -26.296  1.00  0.00     0.191 C 
HETATM   18  C   UNL     1       1.467   8.525 -27.483  1.00  0.00     0.081 C 
HETATM   19  S   UNL     1       0.121   7.027 -29.481  1.00  0.00    -0.055 SA
BRANCH  17  20
HETATM   20  N   UNL     1       2.372  10.000 -25.680  1.00  0.00    -0.071 N 
HETATM   21  H   UNL     1       2.541  10.960 -26.016  1.00  0.00     0.277 HD
HETATM   22  H   UNL     1       3.166   9.441 -26.025  1.00  0.00     0.277 HD
BRANCH  20  23
HETATM   23  C   UNL     1       2.424   9.988 -24.180  1.00  0.00     0.232 C 
BRANCH  23  24
HETATM   24  C   UNL     1       3.275   8.812 -23.722  1.00  0.00     0.023 C 
HETATM   25  C   UNL     1       3.072   8.535 -22.240  1.00  0.00     0.007 C 
ENDBRANCH  23  24
ENDBRANCH  20  23
ENDBRANCH  17  20
ENDBRANCH   8  11
ENDBRANCH   1   7
BRANCH   5  26
HETATM   26  C   UNL     1      -6.267   4.351 -33.208  1.00  0.00     0.114 C 
HETATM   27  C   UNL     1      -7.511   5.055 -33.753  1.00  0.00     0.037 C 
BRANCH  26  28
HETATM   28  N   UNL     1      -6.243   2.963 -33.634  1.00  0.00    -0.349 N 
HETATM   29  C   UNL     1      -5.831   1.949 -32.797  1.00  0.00     0.252 C 
HETATM   30  O   UNL     1      -5.524   2.110 -31.621  1.00  0.00    -0.268 OA
HETATM   31  H   UNL     1      -6.461   2.765 -34.600  1.00  0.00     0.163 HD
BRANCH  29  32
HETATM   32  C   UNL     1      -5.807   0.589 -33.393  1.00  0.00     0.033 A 
HETATM   33  C   UNL     1      -6.739   0.279 -34.388  1.00  0.00     0.020 A 
HETATM   34  C   UNL     1      -6.740  -0.986 -34.989  1.00  0.00     0.039 A 
HETATM   35  C   UNL     1      -5.816  -1.958 -34.591  1.00  0.00     0.089 A 
HETATM   36  C   UNL     1      -4.901  -1.643 -33.572  1.00  0.00     0.068 A 
HETATM   37 CL   UNL     1      -3.742  -2.800 -33.012  1.00  0.00    -0.081 Cl
HETATM   38  C   UNL     1      -4.894  -0.379 -32.972  1.00  0.00     0.043 A 
BRANCH  35  39
HETATM   39  O   UNL     1      -5.741  -3.219 -35.121  1.00  0.00    -0.354 OA
HETATM   40  C   UNL     1      -6.775  -4.139 -34.800  1.00  0.00     0.210 C 
ENDBRANCH  35  39
ENDBRANCH  29  32
ENDBRANCH  26  28
ENDBRANCH   5  26
TORSDOF 9
ENDMDL
MODEL 4
REMARK VINA RESULT:      -8.8      3.154      5.313
REMARK  9 active torsions:
REMARK  status: ('A' for Active; 'I' for Inactive)
REMARK    1  A    between atoms: C_2  and  C_3 
REMARK    2  A    between atoms: C_3  and  N_4 
REMARK    3  A    between atoms: N_4  and  C_7 
REMARK    4  A    between atoms: C_12  and  N_13 
REMARK       I    between atoms: N_13  and  C_14 
REMARK    5  A    between atoms: C_14  and  C_16 
REMARK    6  A    between atoms: C_20  and  C_22 
REMARK    7  A    between atoms: C_22  and  N_24 
REMARK       I    between atoms: N_24  and  C_25 
REMARK    8  A    between atoms: C_25  and  C_27 
REMARK    9  A    between atoms: C_30  and  O_31 
ROOT
HETATM    1  C   UNL     1      -7.674   4.349 -33.212  1.00  0.00     0.033 A 
HETATM    2  C   UNL     1      -8.552   5.040 -34.057  1.00  0.00     0.017 A 
HETATM    3  C   UNL     1      -9.754   4.459 -34.456  1.00  0.00     0.002 A 
HETATM    4  C   UNL     1     -10.098   3.185 -34.004  1.00  0.00     0.009 A 
HETATM    5  C   UNL     1      -9.253   2.484 -33.129  1.00  0.00    -0.035 A 
HETATM    6  C   UNL     1      -8.034   3.077 -32.746  1.00  0.00     0.026 A 
ENDROOT
BRANCH   1   7
HETATM    7  C   UNL     1      -6.404   5.030 -32.820  1.00  0.00     0.257 C 
HETATM    8  N   UNL     1      -5.493   4.264 -32.121  1.00  0.00    -0.301 N 
HETATM    9  H   UNL     1      -5.653   3.285 -31.937  1.00  0.00     0.171 HD
HETATM   10  O   UNL     1      -6.257   6.199 -33.159  1.00  0.00    -0.267 OA
BRANCH   8  11
HETATM   11  C   UNL     1      -4.296   4.787 -31.711  1.00  0.00     0.174 A 
HETATM   12  N   UNL     1      -3.100   4.604 -32.212  1.00  0.00    -0.228 NA
HETATM   13  C   UNL     1      -2.180   5.310 -31.488  1.00  0.00     0.050 A 
HETATM   14  C   UNL     1      -0.738   5.273 -31.849  1.00  0.00     0.062 C 
HETATM   15  C   UNL     1      -2.695   6.061 -30.454  1.00  0.00     0.013 A 
HETATM   16  C   UNL     1       0.127   5.844 -30.714  1.00  0.00     0.039 C 
HETATM   17  C   UNL     1      -0.478   7.148 -30.148  1.00  0.00     0.191 C 
HETATM   18  C   UNL     1      -1.891   6.914 -29.538  1.00  0.00     0.081 C 
HETATM   19  S   UNL     1      -4.384   5.835 -30.355  1.00  0.00    -0.055 SA
BRANCH  17  20
HETATM   20  N   UNL     1       0.431   7.715 -29.078  1.00  0.00    -0.071 N 
HETATM   21  H   UNL     1      -0.008   8.545 -28.654  1.00  0.00     0.277 HD
HETATM   22  H   UNL     1       1.294   8.057 -29.527  1.00  0.00     0.277 HD
BRANCH  20  23
HETATM   23  C   UNL     1       0.831   6.760 -27.991  1.00  0.00     0.232 C 
BRANCH  23  24
HETATM   24  C   UNL     1       1.396   7.550 -26.819  1.00  0.00     0.023 C 
HETATM   25  C   UNL     1       1.752   8.968 -27.237  1.00  0.00     0.007 C 
ENDBRANCH  23  24
ENDBRANCH  20  23
ENDBRANCH  17  20
ENDBRANCH   8  11
ENDBRANCH   1   7
BRANCH   5  26
HETATM   26  C   UNL     1      -9.592   1.090 -32.625  1.00  0.00     0.114 C 
HETATM   27  C   UNL     1     -10.813   0.473 -33.308  1.00  0.00     0.037 C 
BRANCH  26  28
HETATM   28  N   UNL     1      -8.436   0.224 -32.774  1.00  0.00    -0.349 N 
HETATM   29  C   UNL     1      -7.956  -0.149 -34.010  1.00  0.00     0.252 C 
HETATM   30  O   UNL     1      -8.404   0.264 -35.075  1.00  0.00    -0.268 OA
HETATM   31  H   UNL     1      -8.035  -0.171 -31.935  1.00  0.00     0.163 HD
BRANCH  29  32
HETATM   32  C   UNL     1      -6.803  -1.084 -34.000  1.00  0.00     0.033 A 
HETATM   33  C   UNL     1      -6.895  -2.267 -34.739  1.00  0.00     0.020 A 
HETATM   34  C   UNL     1      -5.823  -3.168 -34.771  1.00  0.00     0.039 A 
HETATM   35  C   UNL     1      -4.653  -2.900 -34.054  1.00  0.00     0.089 A 
HETATM   36  C   UNL     1      -4.582  -1.719 -33.295  1.00  0.00     0.068 A 
HETATM   37 CL   UNL     1      -3.175  -1.330 -32.365  1.00  0.00    -0.081 Cl
HETATM   38  C   UNL     1      -5.648  -0.815 -33.263  1.00  0.00     0.043 A 
BRANCH  35  39
HETATM   39  O   UNL     1      -3.556  -3.719 -34.026  1.00  0.00    -0.354 OA
HETATM   40  C   UNL     1      -3.694  -4.997 -33.421  1.00  0.00     0.210 C 
ENDBRANCH  35  39
ENDBRANCH  29  32
ENDBRANCH  26  28
ENDBRANCH   5  26
TORSDOF 9
ENDMDL
MODEL 5
REMARK VINA RESULT:      -8.6      4.004      7.014
REMARK  9 active torsions:
REMARK  status: ('A' for Active; 'I' for Inactive)
REMARK    1  A    between atoms: C_2  and  C_3 
REMARK    2  A    between atoms: C_3  and  N_4 
REMARK    3  A    between atoms: N_4  and  C_7 
REMARK    4  A    between atoms: C_12  and  N_13 
REMARK       I    between atoms: N_13  and  C_14 
REMARK    5  A    between atoms: C_14  and  C_16 
REMARK    6  A    between atoms: C_20  and  C_22 
REMARK    7  A    between atoms: C_22  and  N_24 
REMARK       I    between atoms: N_24  and  C_25 
REMARK    8  A    between atoms: C_25  and  C_27 
REMARK    9  A    between atoms: C_30  and  O_31 
ROOT
HETATM    1  C   UNL     1      -3.657  -0.700 -32.359  1.00  0.00     0.033 A 
HETATM    2  C   UNL     1      -2.934  -1.831 -31.962  1.00  0.00     0.017 A 
HETATM    3  C   UNL     1      -3.285  -3.095 -32.430  1.00  0.00     0.002 A 
HETATM    4  C   UNL     1      -4.356  -3.241 -33.311  1.00  0.00     0.009 A 
HETATM    5  C   UNL     1      -5.078  -2.121 -33.752  1.00  0.00    -0.035 A 
HETATM    6  C   UNL     1      -4.722  -0.850 -33.258  1.00  0.00     0.026 A 
ENDROOT
BRANCH   1   7
HETATM    7  C   UNL     1      -3.228   0.626 -31.822  1.00  0.00     0.257 C 
HETATM    8  N   UNL     1      -3.704   1.737 -32.489  1.00  0.00    -0.301 N 
HETATM    9  H   UNL     1      -4.350   1.657 -33.259  1.00  0.00     0.171 HD
HETATM   10  O   UNL     1      -2.507   0.632 -30.829  1.00  0.00    -0.267 OA
BRANCH   8  11
HETATM   11  C   UNL     1      -3.372   3.002 -32.084  1.00  0.00     0.174 A 
HETATM   12  N   UNL     1      -2.307   3.709 -32.371  1.00  0.00    -0.228 NA
HETATM   13  C   UNL     1      -2.371   4.922 -31.745  1.00  0.00     0.050 A 
HETATM   14  C   UNL     1      -1.281   5.919 -31.906  1.00  0.00     0.062 C 
HETATM   15  C   UNL     1      -3.515   5.143 -31.008  1.00  0.00     0.013 A 
HETATM   16  C   UNL     1      -1.400   7.037 -30.857  1.00  0.00     0.039 C 
HETATM   17  C   UNL     1      -2.858   7.526 -30.720  1.00  0.00     0.191 C 
HETATM   18  C   UNL     1      -3.810   6.388 -30.247  1.00  0.00     0.081 C 
HETATM   19  S   UNL     1      -4.519   3.765 -31.060  1.00  0.00    -0.055 SA
BRANCH  17  20
HETATM   20  N   UNL     1      -2.927   8.668 -29.728  1.00  0.00    -0.071 N 
HETATM   21  H   UNL     1      -3.583   9.385 -30.069  1.00  0.00     0.277 HD
HETATM   22  H   UNL     1      -2.006   9.128 -29.691  1.00  0.00     0.277 HD
BRANCH  20  23
HETATM   23  C   UNL     1      -3.302   8.287 -28.324  1.00  0.00     0.232 C 
BRANCH  23  24
HETATM   24  C   UNL     1      -2.047   8.268 -27.463  1.00  0.00     0.023 C 
HETATM   25  C   UNL     1      -2.031   7.054 -26.547  1.00  0.00     0.007 C 
ENDBRANCH  23  24
ENDBRANCH  20  23
ENDBRANCH  17  20
ENDBRANCH   8  11
ENDBRANCH   1   7
BRANCH   5  26
HETATM   26  C   UNL     1      -6.257  -2.244 -34.704  1.00  0.00     0.114 C 
HETATM   27  C   UNL     1      -6.781  -3.675 -34.845  1.00  0.00     0.037 C 
BRANCH  26  28
HETATM   28  N   UNL     1      -7.322  -1.354 -34.278  1.00  0.00    -0.349 N 
HETATM   29  C   UNL     1      -7.504  -0.111 -34.842  1.00  0.00     0.252 C 
HETATM   30  O   UNL     1      -6.848   0.321 -35.784  1.00  0.00    -0.268 OA
HETATM   31  H   UNL     1      -7.884  -1.639 -33.488  1.00  0.00     0.163 HD
BRANCH  29  32
HETATM   32  C   UNL     1      -8.600   0.707 -34.262  1.00  0.00     0.033 A 
HETATM   33  C   UNL     1      -9.500   0.093 -33.385  1.00  0.00     0.020 A 
HETATM   34  C   UNL     1     -10.537   0.833 -32.802  1.00  0.00     0.039 A 
HETATM   35  C   UNL     1     -10.692   2.190 -33.102  1.00  0.00     0.089 A 
HETATM   36  C   UNL     1      -9.796   2.789 -34.004  1.00  0.00     0.068 A 
HETATM   37 CL   UNL     1      -9.938   4.459 -34.439  1.00  0.00    -0.081 Cl
HETATM   38  C   UNL     1      -8.757   2.056 -34.585  1.00  0.00     0.043 A 
BRANCH  35  39
HETATM   39  O   UNL     1     -11.672   2.991 -32.581  1.00  0.00    -0.354 OA
HETATM   40  C   UNL     1     -13.012   2.762 -32.998  1.00  0.00     0.210 C 
ENDBRANCH  35  39
ENDBRANCH  29  32
ENDBRANCH  26  28
ENDBRANCH   5  26
TORSDOF 9
ENDMDL
MODEL 6
REMARK VINA RESULT:      -8.1      4.149      7.064
REMARK  9 active torsions:
REMARK  status: ('A' for Active; 'I' for Inactive)
REMARK    1  A    between atoms: C_2  and  C_3 
REMARK    2  A    between atoms: C_3  and  N_4 
REMARK    3  A    between atoms: N_4  and  C_7 
REMARK    4  A    between atoms: C_12  and  N_13 
REMARK       I    between atoms: N_13  and  C_14 
REMARK    5  A    between atoms: C_14  and  C_16 
REMARK    6  A    between atoms: C_20  and  C_22 
REMARK    7  A    between atoms: C_22  and  N_24 
REMARK       I    between atoms: N_24  and  C_25 
REMARK    8  A    between atoms: C_25  and  C_27 
REMARK    9  A    between atoms: C_30  and  O_31 
ROOT
HETATM    1  C   UNL     1      -3.826  -0.056 -32.325  1.00  0.00     0.033 A 
HETATM    2  C   UNL     1      -3.006  -1.128 -31.951  1.00  0.00     0.017 A 
HETATM    3  C   UNL     1      -3.267  -2.414 -32.418  1.00  0.00     0.002 A 
HETATM    4  C   UNL     1      -4.343  -2.641 -33.276  1.00  0.00     0.009 A 
HETATM    5  C   UNL     1      -5.160  -1.579 -33.695  1.00  0.00    -0.035 A 
HETATM    6  C   UNL     1      -4.894  -0.286 -33.202  1.00  0.00     0.026 A 
ENDROOT
BRANCH   1   7
HETATM    7  C   UNL     1      -3.489   1.298 -31.792  1.00  0.00     0.257 C 
HETATM    8  N   UNL     1      -4.219   2.353 -32.301  1.00  0.00    -0.301 N 
HETATM    9  H   UNL     1      -4.974   2.209 -32.955  1.00  0.00     0.171 HD
HETATM   10  O   UNL     1      -2.614   1.371 -30.936  1.00  0.00    -0.267 OA
BRANCH   8  11
HETATM   11  C   UNL     1      -3.993   3.637 -31.883  1.00  0.00     0.174 A 
HETATM   12  N   UNL     1      -4.505   4.274 -30.860  1.00  0.00    -0.228 NA
HETATM   13  C   UNL     1      -4.013   5.549 -30.813  1.00  0.00     0.050 A 
HETATM   14  C   UNL     1      -4.437   6.488 -29.741  1.00  0.00     0.062 C 
HETATM   15  C   UNL     1      -3.094   5.861 -31.791  1.00  0.00     0.013 A 
HETATM   16  C   UNL     1      -4.036   7.932 -30.086  1.00  0.00     0.039 C 
HETATM   17  C   UNL     1      -2.590   8.001 -30.624  1.00  0.00     0.191 C 
HETATM   18  C   UNL     1      -2.419   7.180 -31.936  1.00  0.00     0.081 C 
HETATM   19  S   UNL     1      -2.877   4.529 -32.834  1.00  0.00    -0.055 SA
BRANCH  17  20
HETATM   20  N   UNL     1      -2.208   9.441 -30.892  1.00  0.00    -0.071 N 
HETATM   21  H   UNL     1      -2.098   9.587 -31.906  1.00  0.00     0.277 HD
HETATM   22  H   UNL     1      -1.279   9.616 -30.483  1.00  0.00     0.277 HD
BRANCH  20  23
HETATM   23  C   UNL     1      -3.149  10.475 -30.344  1.00  0.00     0.232 C 
BRANCH  23  24
HETATM   24  C   UNL     1      -2.363  11.457 -29.487  1.00  0.00     0.023 C 
HETATM   25  C   UNL     1      -1.751  10.761 -28.281  1.00  0.00     0.007 C 
ENDBRANCH  23  24
ENDBRANCH  20  23
ENDBRANCH  17  20
ENDBRANCH   8  11
ENDBRANCH   1   7
BRANCH   5  26
HETATM   26  C   UNL     1      -6.347  -1.792 -34.621  1.00  0.00     0.114 C 
HETATM   27  C   UNL     1      -6.820  -3.245 -34.684  1.00  0.00     0.037 C 
BRANCH  26  28
HETATM   28  N   UNL     1      -7.438  -0.920 -34.223  1.00  0.00    -0.349 N 
HETATM   29  C   UNL     1      -7.675   0.285 -34.846  1.00  0.00     0.252 C 
HETATM   30  O   UNL     1      -7.050   0.691 -35.820  1.00  0.00    -0.268 OA
HETATM   31  H   UNL     1      -7.977  -1.185 -33.410  1.00  0.00     0.163 HD
BRANCH  29  32
HETATM   32  C   UNL     1      -8.792   1.091 -34.290  1.00  0.00     0.033 A 
HETATM   33  C   UNL     1      -8.522   2.389 -33.846  1.00  0.00     0.020 A 
HETATM   34  C   UNL     1      -9.550   3.190 -33.330  1.00  0.00     0.039 A 
HETATM   35  C   UNL     1     -10.855   2.694 -33.242  1.00  0.00     0.089 A 
HETATM   36  C   UNL     1     -11.108   1.379 -33.669  1.00  0.00     0.068 A 
HETATM   37 CL   UNL     1     -12.693   0.690 -33.571  1.00  0.00    -0.081 Cl
HETATM   38  C   UNL     1     -10.086   0.578 -34.188  1.00  0.00     0.043 A 
BRANCH  35  39
HETATM   39  O   UNL     1     -11.921   3.402 -32.755  1.00  0.00    -0.354 OA
HETATM   40  C   UNL     1     -11.705   4.754 -32.376  1.00  0.00     0.210 C 
ENDBRANCH  35  39
ENDBRANCH  29  32
ENDBRANCH  26  28
ENDBRANCH   5  26
TORSDOF 9
ENDMDL
MODEL 7
REMARK VINA RESULT:      -8.1      3.622      4.060
REMARK  9 active torsions:
REMARK  status: ('A' for Active; 'I' for Inactive)
REMARK    1  A    between atoms: C_2  and  C_3 
REMARK    2  A    between atoms: C_3  and  N_4 
REMARK    3  A    between atoms: N_4  and  C_7 
REMARK    4  A    between atoms: C_12  and  N_13 
REMARK       I    between atoms: N_13  and  C_14 
REMARK    5  A    between atoms: C_14  and  C_16 
REMARK    6  A    between atoms: C_20  and  C_22 
REMARK    7  A    between atoms: C_22  and  N_24 
REMARK       I    between atoms: N_24  and  C_25 
REMARK    8  A    between atoms: C_25  and  C_27 
REMARK    9  A    between atoms: C_30  and  O_31 
ROOT
HETATM    1  C   UNL     1      -3.004   5.682 -31.978  1.00  0.00     0.033 A 
HETATM    2  C   UNL     1      -3.153   5.970 -33.341  1.00  0.00     0.017 A 
HETATM    3  C   UNL     1      -4.000   5.202 -34.137  1.00  0.00     0.002 A 
HETATM    4  C   UNL     1      -4.716   4.145 -33.578  1.00  0.00     0.009 A 
HETATM    5  C   UNL     1      -4.613   3.855 -32.208  1.00  0.00    -0.035 A 
HETATM    6  C   UNL     1      -3.741   4.630 -31.418  1.00  0.00     0.026 A 
ENDROOT
BRANCH   1   7
HETATM    7  C   UNL     1      -2.083   6.546 -31.180  1.00  0.00     0.257 C 
HETATM    8  N   UNL     1      -2.073   6.330 -29.817  1.00  0.00    -0.301 N 
HETATM    9  H   UNL     1      -2.615   5.592 -29.393  1.00  0.00     0.171 HD
HETATM   10  O   UNL     1      -1.397   7.361 -31.788  1.00  0.00    -0.267 OA
BRANCH   8  11
HETATM   11  C   UNL     1      -1.268   7.065 -28.990  1.00  0.00     0.174 A 
HETATM   12  N   UNL     1      -1.407   8.304 -28.589  1.00  0.00    -0.228 NA
HETATM   13  C   UNL     1      -0.365   8.650 -27.774  1.00  0.00     0.050 A 
HETATM   14  C   UNL     1      -0.282  10.010 -27.182  1.00  0.00     0.062 C 
HETATM   15  C   UNL     1       0.548   7.647 -27.531  1.00  0.00     0.013 A 
HETATM   16  C   UNL     1       1.118  10.273 -26.603  1.00  0.00     0.039 C 
HETATM   17  C   UNL     1       1.626   9.062 -25.790  1.00  0.00     0.191 C 
HETATM   18  C   UNL     1       1.756   7.785 -26.672  1.00  0.00     0.081 C 
HETATM   19  S   UNL     1       0.114   6.240 -28.392  1.00  0.00    -0.055 SA
BRANCH  17  20
HETATM   20  N   UNL     1       2.976   9.379 -25.183  1.00  0.00    -0.071 N 
HETATM   21  H   UNL     1       3.172  10.386 -25.278  1.00  0.00     0.277 HD
HETATM   22  H   UNL     1       3.705   8.901 -25.734  1.00  0.00     0.277 HD
BRANCH  20  23
HETATM   23  C   UNL     1       3.154   8.975 -23.747  1.00  0.00     0.232 C 
BRANCH  23  24
HETATM   24  C   UNL     1       2.004   9.542 -22.927  1.00  0.00     0.023 C 
HETATM   25  C   UNL     1       2.188  11.033 -22.685  1.00  0.00     0.007 C 
ENDBRANCH  23  24
ENDBRANCH  20  23
ENDBRANCH  17  20
ENDBRANCH   8  11
ENDBRANCH   1   7
BRANCH   5  26
HETATM   26  C   UNL     1      -5.372   2.705 -31.567  1.00  0.00     0.114 C 
HETATM   27  C   UNL     1      -5.465   2.807 -30.044  1.00  0.00     0.037 C 
BRANCH  26  28
HETATM   28  N   UNL     1      -6.698   2.610 -32.151  1.00  0.00    -0.349 N 
HETATM   29  C   UNL     1      -7.359   1.408 -32.271  1.00  0.00     0.252 C 
HETATM   30  O   UNL     1      -6.933   0.342 -31.841  1.00  0.00    -0.268 OA
HETATM   31  H   UNL     1      -7.096   3.449 -32.549  1.00  0.00     0.163 HD
BRANCH  29  32
HETATM   32  C   UNL     1      -8.684   1.464 -32.941  1.00  0.00     0.033 A 
HETATM   33  C   UNL     1      -9.570   0.398 -32.759  1.00  0.00     0.020 A 
HETATM   34  C   UNL     1     -10.836   0.418 -33.358  1.00  0.00     0.039 A 
HETATM   35  C   UNL     1     -11.223   1.501 -34.156  1.00  0.00     0.089 A 
HETATM   36  C   UNL     1     -10.313   2.555 -34.351  1.00  0.00     0.068 A 
HETATM   37 CL   UNL     1     -10.713   3.917 -35.341  1.00  0.00    -0.081 Cl
HETATM   38  C   UNL     1      -9.050   2.540 -33.751  1.00  0.00     0.043 A 
BRANCH  35  39
HETATM   39  O   UNL     1     -12.437   1.609 -34.779  1.00  0.00    -0.354 OA
HETATM   40  C   UNL     1     -13.525   2.136 -34.032  1.00  0.00     0.210 C 
ENDBRANCH  35  39
ENDBRANCH  29  32
ENDBRANCH  26  28
ENDBRANCH   5  26
TORSDOF 9
ENDMDL
MODEL 8
REMARK VINA RESULT:      -8.0      5.904      8.292
REMARK  9 active torsions:
REMARK  status: ('A' for Active; 'I' for Inactive)
REMARK    1  A    between atoms: C_2  and  C_3 
REMARK    2  A    between atoms: C_3  and  N_4 
REMARK    3  A    between atoms: N_4  and  C_7 
REMARK    4  A    between atoms: C_12  and  N_13 
REMARK       I    between atoms: N_13  and  C_14 
REMARK    5  A    between atoms: C_14  and  C_16 
REMARK    6  A    between atoms: C_20  and  C_22 
REMARK    7  A    between atoms: C_22  and  N_24 
REMARK       I    between atoms: N_24  and  C_25 
REMARK    8  A    between atoms: C_25  and  C_27 
REMARK    9  A    between atoms: C_30  and  O_31 
ROOT
HETATM    1  C   UNL     1      -6.351   1.739 -33.693  1.00  0.00     0.033 A 
HETATM    2  C   UNL     1      -5.768   0.482 -33.897  1.00  0.00     0.017 A 
HETATM    3  C   UNL     1      -6.554  -0.615 -34.242  1.00  0.00     0.002 A 
HETATM    4  C   UNL     1      -7.931  -0.465 -34.401  1.00  0.00     0.009 A 
HETATM    5  C   UNL     1      -8.538   0.790 -34.236  1.00  0.00    -0.035 A 
HETATM    6  C   UNL     1      -7.733   1.887 -33.871  1.00  0.00     0.026 A 
ENDROOT
BRANCH   1   7
HETATM    7  C   UNL     1      -5.452   2.874 -33.327  1.00  0.00     0.257 C 
HETATM    8  N   UNL     1      -4.587   2.651 -32.275  1.00  0.00    -0.301 N 
HETATM    9  H   UNL     1      -4.526   1.754 -31.818  1.00  0.00     0.171 HD
HETATM   10  O   UNL     1      -5.534   3.901 -33.993  1.00  0.00    -0.267 OA
BRANCH   8  11
HETATM   11  C   UNL     1      -3.719   3.624 -31.855  1.00  0.00     0.174 A 
HETATM   12  N   UNL     1      -2.442   3.758 -32.113  1.00  0.00    -0.228 NA
HETATM   13  C   UNL     1      -1.956   4.869 -31.482  1.00  0.00     0.050 A 
HETATM   14  C   UNL     1      -0.524   5.251 -31.611  1.00  0.00     0.062 C 
HETATM   15  C   UNL     1      -2.886   5.598 -30.773  1.00  0.00     0.013 A 
HETATM   16  C   UNL     1      -0.141   6.306 -30.560  1.00  0.00     0.039 C 
HETATM   17  C   UNL     1      -1.212   7.413 -30.457  1.00  0.00     0.191 C 
HETATM   18  C   UNL     1      -2.592   6.845 -30.015  1.00  0.00     0.081 C 
HETATM   19  S   UNL     1      -4.411   4.838 -30.858  1.00  0.00    -0.055 SA
BRANCH  17  20
HETATM   20  N   UNL     1      -0.772   8.465 -29.462  1.00  0.00    -0.071 N 
HETATM   21  H   UNL     1      -1.256   9.353 -29.659  1.00  0.00     0.277 HD
HETATM   22  H   UNL     1       0.230   8.657 -29.607  1.00  0.00     0.277 HD
BRANCH  20  23
HETATM   23  C   UNL     1      -0.962   8.111 -28.015  1.00  0.00     0.232 C 
BRANCH  23  24
HETATM   24  C   UNL     1       0.148   8.755 -27.196  1.00  0.00     0.023 C 
HETATM   25  C   UNL     1       1.506   8.521 -27.839  1.00  0.00     0.007 C 
ENDBRANCH  23  24
ENDBRANCH  20  23
ENDBRANCH  17  20
ENDBRANCH   8  11
ENDBRANCH   1   7
BRANCH   5  26
HETATM   26  C   UNL     1     -10.038   0.987 -34.391  1.00  0.00     0.114 C 
HETATM   27  C   UNL     1     -10.852   0.421 -33.226  1.00  0.00     0.037 C 
BRANCH  26  28
HETATM   28  N   UNL     1     -10.327   2.398 -34.573  1.00  0.00    -0.349 N 
HETATM   29  C   UNL     1     -11.443   2.833 -35.254  1.00  0.00     0.252 C 
HETATM   30  O   UNL     1     -12.314   2.090 -35.694  1.00  0.00    -0.268 OA
HETATM   31  H   UNL     1      -9.636   3.063 -34.256  1.00  0.00     0.163 HD
BRANCH  29  32
HETATM   32  C   UNL     1     -11.573   4.304 -35.407  1.00  0.00     0.033 A 
HETATM   33  C   UNL     1     -10.421   5.091 -35.312  1.00  0.00     0.020 A 
HETATM   34  C   UNL     1     -10.496   6.480 -35.468  1.00  0.00     0.039 A 
HETATM   35  C   UNL     1     -11.728   7.099 -35.708  1.00  0.00     0.089 A 
HETATM   36  C   UNL     1     -12.883   6.300 -35.776  1.00  0.00     0.068 A 
HETATM   37 CL   UNL     1     -14.444   6.996 -36.048  1.00  0.00    -0.081 Cl
HETATM   38  C   UNL     1     -12.811   4.912 -35.625  1.00  0.00     0.043 A 
BRANCH  35  39
HETATM   39  O   UNL     1     -11.899   8.447 -35.874  1.00  0.00    -0.354 OA
HETATM   40  C   UNL     1     -11.411   9.037 -37.072  1.00  0.00     0.210 C 
ENDBRANCH  35  39
ENDBRANCH  29  32
ENDBRANCH  26  28
ENDBRANCH   5  26
TORSDOF 9
ENDMDL
MODEL 9
REMARK VINA RESULT:      -7.7      4.132      6.378
REMARK  9 active torsions:
REMARK  status: ('A' for Active; 'I' for Inactive)
REMARK    1  A    between atoms: C_2  and  C_3 
REMARK    2  A    between atoms: C_3  and  N_4 
REMARK    3  A    between atoms: N_4  and  C_7 
REMARK    4  A    between atoms: C_12  and  N_13 
REMARK       I    between atoms: N_13  and  C_14 
REMARK    5  A    between atoms: C_14  and  C_16 
REMARK    6  A    between atoms: C_20  and  C_22 
REMARK    7  A    between atoms: C_22  and  N_24 
REMARK       I    between atoms: N_24  and  C_25 
REMARK    8  A    between atoms: C_25  and  C_27 
REMARK    9  A    between atoms: C_30  and  O_31 
ROOT
HETATM    1  C   UNL     1      -9.631   5.329 -31.961  1.00  0.00     0.033 A 
HETATM    2  C   UNL     1     -10.803   6.075 -31.783  1.00  0.00     0.017 A 
HETATM    3  C   UNL     1     -12.038   5.550 -32.157  1.00  0.00     0.002 A 
HETATM    4  C   UNL     1     -12.117   4.269 -32.701  1.00  0.00     0.009 A 
HETATM    5  C   UNL     1     -10.963   3.486 -32.859  1.00  0.00    -0.035 A 
HETATM    6  C   UNL     1      -9.718   4.035 -32.492  1.00  0.00     0.026 A 
ENDROOT
BRANCH   1   7
HETATM    7  C   UNL     1      -8.339   5.948 -31.537  1.00  0.00     0.257 C 
HETATM    8  N   UNL     1      -7.207   5.505 -32.191  1.00  0.00    -0.301 N 
HETATM    9  H   UNL     1      -7.258   4.843 -32.950  1.00  0.00     0.171 HD
HETATM   10  O   UNL     1      -8.381   6.808 -30.663  1.00  0.00    -0.267 OA
BRANCH   8  11
HETATM   11  C   UNL     1      -5.971   6.004 -31.881  1.00  0.00     0.174 A 
HETATM   12  N   UNL     1      -5.579   7.252 -31.804  1.00  0.00    -0.228 NA
HETATM   13  C   UNL     1      -4.254   7.303 -31.473  1.00  0.00     0.050 A 
HETATM   14  C   UNL     1      -3.558   8.609 -31.323  1.00  0.00     0.062 C 
HETATM   15  C   UNL     1      -3.652   6.082 -31.262  1.00  0.00     0.013 A 
HETATM   16  C   UNL     1      -2.033   8.418 -31.295  1.00  0.00     0.039 C 
HETATM   17  C   UNL     1      -1.631   7.237 -30.384  1.00  0.00     0.191 C 
HETATM   18  C   UNL     1      -2.225   5.889 -30.886  1.00  0.00     0.081 C 
HETATM   19  S   UNL     1      -4.772   4.824 -31.537  1.00  0.00    -0.055 SA
BRANCH  17  20
HETATM   20  N   UNL     1      -0.122   7.119 -30.329  1.00  0.00    -0.071 N 
HETATM   21  H   UNL     1       0.307   7.941 -30.779  1.00  0.00     0.277 HD
HETATM   22  H   UNL     1       0.165   6.309 -30.897  1.00  0.00     0.277 HD
BRANCH  20  23
HETATM   23  C   UNL     1       0.466   6.945 -28.959  1.00  0.00     0.232 C 
BRANCH  23  24
HETATM   24  C   UNL     1       0.342   8.257 -28.195  1.00  0.00     0.023 C 
HETATM   25  C   UNL     1       1.693   8.707 -27.660  1.00  0.00     0.007 C 
ENDBRANCH  23  24
ENDBRANCH  20  23
ENDBRANCH  17  20
ENDBRANCH   8  11
ENDBRANCH   1   7
BRANCH   5  26
HETATM   26  C   UNL     1     -11.011   2.090 -33.458  1.00  0.00     0.114 C 
HETATM   27  C   UNL     1     -11.550   2.057 -34.890  1.00  0.00     0.037 C 
BRANCH  26  28
HETATM   28  N   UNL     1      -9.691   1.488 -33.399  1.00  0.00    -0.349 N 
HETATM   29  C   UNL     1      -9.491   0.208 -32.932  1.00  0.00     0.252 C 
HETATM   30  O   UNL     1     -10.395  -0.552 -32.600  1.00  0.00    -0.268 OA
HETATM   31  H   UNL     1      -8.900   2.070 -33.636  1.00  0.00     0.163 HD
BRANCH  29  32
HETATM   32  C   UNL     1      -8.079  -0.248 -32.879  1.00  0.00     0.033 A 
HETATM   33  C   UNL     1      -7.273   0.196 -31.826  1.00  0.00     0.020 A 
HETATM   34  C   UNL     1      -5.940  -0.224 -31.729  1.00  0.00     0.039 A 
HETATM   35  C   UNL     1      -5.396  -1.080 -32.692  1.00  0.00     0.089 A 
HETATM   36  C   UNL     1      -6.210  -1.498 -33.760  1.00  0.00     0.068 A 
HETATM   37 CL   UNL     1      -5.601  -2.541 -35.000  1.00  0.00    -0.081 Cl
HETATM   38  C   UNL     1      -7.542  -1.086 -33.858  1.00  0.00     0.043 A 
BRANCH  35  39
HETATM   39  O   UNL     1      -4.108  -1.543 -32.679  1.00  0.00    -0.354 OA
HETATM   40  C   UNL     1      -3.147  -0.816 -31.924  1.00  0.00     0.210 C 
ENDBRANCH  35  39
ENDBRANCH  29  32
ENDBRANCH  26  28
ENDBRANCH   5  26
TORSDOF 9
ENDMDL
MODEL 10
REMARK VINA RESULT:      -7.4      6.586      9.572
REMARK  9 active torsions:
REMARK  status: ('A' for Active; 'I' for Inactive)
REMARK    1  A    between atoms: C_2  and  C_3 
REMARK    2  A    between atoms: C_3  and  N_4 
REMARK    3  A    between atoms: N_4  and  C_7 
REMARK    4  A    between atoms: C_12  and  N_13 
REMARK       I    between atoms: N_13  and  C_14 
REMARK    5  A    between atoms: C_14  and  C_16 
REMARK    6  A    between atoms: C_20  and  C_22 
REMARK    7  A    between atoms: C_22  and  N_24 
REMARK       I    between atoms: N_24  and  C_25 
REMARK    8  A    between atoms: C_25  and  C_27 
REMARK    9  A    between atoms: C_30  and  O_31 
ROOT
HETATM    1  C   UNL     1      -8.611   1.943 -32.700  1.00  0.00     0.033 A 
HETATM    2  C   UNL     1      -8.503   0.667 -32.133  1.00  0.00     0.017 A 
HETATM    3  C   UNL     1      -9.530  -0.263 -32.284  1.00  0.00     0.002 A 
HETATM    4  C   UNL     1     -10.671   0.069 -33.014  1.00  0.00     0.009 A 
HETATM    5  C   UNL     1     -10.791   1.329 -33.621  1.00  0.00    -0.035 A 
HETATM    6  C   UNL     1      -9.752   2.265 -33.447  1.00  0.00     0.026 A 
ENDROOT
BRANCH   1   7
HETATM    7  C   UNL     1      -7.474   2.892 -32.503  1.00  0.00     0.257 C 
HETATM    8  N   UNL     1      -6.288   2.559 -33.127  1.00  0.00    -0.301 N 
HETATM    9  H   UNL     1      -6.212   1.752 -33.727  1.00  0.00     0.171 HD
HETATM   10  O   UNL     1      -7.679   3.893 -31.826  1.00  0.00    -0.267 OA
BRANCH   8  11
HETATM   11  C   UNL     1      -5.181   3.357 -33.013  1.00  0.00     0.174 A 
HETATM   12  N   UNL     1      -4.803   4.358 -33.768  1.00  0.00    -0.228 NA
HETATM   13  C   UNL     1      -3.626   4.873 -33.302  1.00  0.00     0.050 A 
HETATM   14  C   UNL     1      -2.977   6.024 -33.985  1.00  0.00     0.062 C 
HETATM   15  C   UNL     1      -3.133   4.276 -32.162  1.00  0.00     0.013 A 
HETATM   16  C   UNL     1      -1.526   6.199 -33.506  1.00  0.00     0.039 C 
HETATM   17  C   UNL     1      -1.422   6.074 -31.970  1.00  0.00     0.191 C 
HETATM   18  C   UNL     1      -1.875   4.671 -31.471  1.00  0.00     0.081 C 
HETATM   19  S   UNL     1      -4.153   2.993 -31.688  1.00  0.00    -0.055 SA
BRANCH  17  20
HETATM   20  N   UNL     1       0.006   6.315 -31.529  1.00  0.00    -0.071 N 
HETATM   21  H   UNL     1       0.332   7.223 -31.889  1.00  0.00     0.277 HD
HETATM   22  H   UNL     1       0.610   5.607 -31.971  1.00  0.00     0.277 HD
BRANCH  20  23
HETATM   23  C   UNL     1       0.246   6.258 -30.048  1.00  0.00     0.232 C 
BRANCH  23  24
HETATM   24  C   UNL     1       0.017   7.641 -29.454  1.00  0.00     0.023 C 
HETATM   25  C   UNL     1       0.976   7.907 -28.303  1.00  0.00     0.007 C 
ENDBRANCH  23  24
ENDBRANCH  20  23
ENDBRANCH  17  20
ENDBRANCH   8  11
ENDBRANCH   1   7
BRANCH   5  26
HETATM   26  C   UNL     1     -12.025   1.728 -34.414  1.00  0.00     0.114 C 
HETATM   27  C   UNL     1     -13.318   1.103 -33.888  1.00  0.00     0.037 C 
BRANCH  26  28
HETATM   28  N   UNL     1     -12.137   3.175 -34.445  1.00  0.00    -0.349 N 
HETATM   29  C   UNL     1     -12.357   3.867 -35.616  1.00  0.00     0.252 C 
HETATM   30  O   UNL     1     -12.547   3.334 -36.704  1.00  0.00    -0.268 OA
HETATM   31  H   UNL     1     -11.966   3.677 -33.585  1.00  0.00     0.163 HD
BRANCH  29  32
HETATM   32  C   UNL     1     -12.392   5.346 -35.496  1.00  0.00     0.033 A 
HETATM   33  C   UNL     1     -13.369   6.051 -36.205  1.00  0.00     0.020 A 
HETATM   34  C   UNL     1     -13.448   7.446 -36.106  1.00  0.00     0.039 A 
HETATM   35  C   UNL     1     -12.541   8.151 -35.307  1.00  0.00     0.089 A 
HETATM   36  C   UNL     1     -11.547   7.432 -34.619  1.00  0.00     0.068 A 
HETATM   37 CL   UNL     1     -10.378   8.237 -33.629  1.00  0.00    -0.081 Cl
HETATM   38  C   UNL     1     -11.468   6.040 -34.712  1.00  0.00     0.043 A 
BRANCH  35  39
HETATM   39  O   UNL     1     -12.542   9.511 -35.148  1.00  0.00    -0.354 OA
HETATM   40  C   UNL     1     -12.016  10.305 -36.203  1.00  0.00     0.210 C 
ENDBRANCH  35  39
ENDBRANCH  29  32
ENDBRANCH  26  28
ENDBRANCH   5  26
TORSDOF 9
ENDMDL
