MODEL 1
REMARK VINA RESULT:      -8.5      0.000      0.000
REMARK  5 active torsions:
REMARK  status: ('A' for Active; 'I' for Inactive)
REMARK    1  A    between atoms: C_6  and  C_7 
REMARK    2  A    between atoms: C_7  and  N_8 
REMARK       I    between atoms: N_8  and  C_9 
REMARK       I    between atoms: C_9  and  N_10 
REMARK    3  A    between atoms: N_10  and  C_11 
REMARK    4  A    between atoms: C_14  and  C_15 
REMARK       I    between atoms: C_15  and  N_16 
REMARK    5  A    between atoms: N_16  and  C_17 
ROOT
HETATM    1  C   UNL     1      -4.727   4.024 -32.098  1.00  0.00     0.036 A 
HETATM    2  C   UNL     1      -4.553   3.140 -31.031  1.00  0.00     0.030 A 
HETATM    3  C   UNL     1      -4.898   1.789 -31.164  1.00  0.00     0.019 A 
HETATM    4  C   UNL     1      -5.453   1.313 -32.356  1.00  0.00     0.032 A 
HETATM    5  C   UNL     1      -5.668   2.201 -33.415  1.00  0.00     0.019 A 
HETATM    6  C   UNL     1      -5.319   3.550 -33.276  1.00  0.00     0.030 A 
ENDROOT
BRANCH   1   7
HETATM    7  N   UNL     1      -4.370   5.385 -32.077  1.00  0.00    -0.309 N 
HETATM    8  C   UNL     1      -3.174   6.027 -31.974  1.00  0.00     0.321 C 
HETATM    9  N   UNL     1      -2.045   5.295 -32.109  1.00  0.00    -0.337 N 
HETATM   10  O   UNL     1      -3.157   7.246 -31.809  1.00  0.00    -0.247 OA
HETATM   11  H   UNL     1      -2.106   4.450 -32.658  1.00  0.00     0.164 HD
HETATM   12  H   UNL     1      -5.124   6.054 -32.163  1.00  0.00     0.170 HD
BRANCH   9  13
HETATM   13  C   UNL     1      -0.747   5.927 -32.120  1.00  0.00     0.186 C 
BRANCH  13  14
HETATM   14  C   UNL     1      -0.068   5.687 -30.818  1.00  0.00     0.083 A 
HETATM   15  C   UNL     1      -0.070   6.480 -29.688  1.00  0.00     0.076 A 
HETATM   16  C   UNL     1      -0.672   7.777 -29.335  1.00  0.00     0.079 C 
HETATM   17  O   UNL     1       0.683   5.855 -28.733  1.00  0.00    -0.307 OA
HETATM   18  C   UNL     1       1.108   4.716 -29.341  1.00  0.00     0.258 A 
HETATM   19  N   UNL     1       0.711   4.564 -30.584  1.00  0.00    -0.237 NA
ENDBRANCH  13  14
ENDBRANCH   9  13
ENDBRANCH   1   7
BRANCH   4  20
HETATM   20  C   UNL     1      -5.739  -0.146 -32.483  1.00  0.00     0.256 C 
HETATM   21  N   UNL     1      -5.578  -0.667 -33.754  1.00  0.00    -0.323 N 
HETATM   22  H   UNL     1      -5.456  -0.007 -34.512  1.00  0.00     0.169 HD
HETATM   23  O   UNL     1      -6.105  -0.751 -31.483  1.00  0.00    -0.267 OA
BRANCH  21  24
HETATM   24  C   UNL     1      -5.626  -2.026 -34.130  1.00  0.00     0.035 A 
HETATM   25  C   UNL     1      -6.778  -2.664 -34.593  1.00  0.00     0.029 A 
HETATM   26  C   UNL     1      -6.756  -4.025 -34.914  1.00  0.00     0.002 A 
HETATM   27  C   UNL     1      -5.581  -4.760 -34.774  1.00  0.00     0.000 A 
HETATM   28  C   UNL     1      -4.426  -4.134 -34.313  1.00  0.00     0.002 A 
HETATM   29  C   UNL     1      -4.450  -2.774 -33.990  1.00  0.00     0.029 A 
ENDBRANCH  21  24
ENDBRANCH   4  20
TORSDOF 5
ENDMDL
MODEL 2
REMARK VINA RESULT:      -8.3      0.347      1.378
REMARK  5 active torsions:
REMARK  status: ('A' for Active; 'I' for Inactive)
REMARK    1  A    between atoms: C_6  and  C_7 
REMARK    2  A    between atoms: C_7  and  N_8 
REMARK       I    between atoms: N_8  and  C_9 
REMARK       I    between atoms: C_9  and  N_10 
REMARK    3  A    between atoms: N_10  and  C_11 
REMARK    4  A    between atoms: C_14  and  C_15 
REMARK       I    between atoms: C_15  and  N_16 
REMARK    5  A    between atoms: N_16  and  C_17 
ROOT
HETATM    1  C   UNL     1      -4.881   4.051 -31.876  1.00  0.00     0.036 A 
HETATM    2  C   UNL     1      -5.326   3.538 -33.096  1.00  0.00     0.030 A 
HETATM    3  C   UNL     1      -5.573   2.167 -33.243  1.00  0.00     0.019 A 
HETATM    4  C   UNL     1      -5.345   1.288 -32.180  1.00  0.00     0.032 A 
HETATM    5  C   UNL     1      -4.861   1.789 -30.967  1.00  0.00     0.019 A 
HETATM    6  C   UNL     1      -4.618   3.160 -30.827  1.00  0.00     0.030 A 
ENDROOT
BRANCH   1   7
HETATM    7  N   UNL     1      -4.650   5.414 -31.618  1.00  0.00    -0.309 N 
HETATM    8  C   UNL     1      -3.514   6.153 -31.488  1.00  0.00     0.321 C 
HETATM    9  N   UNL     1      -2.341   5.587 -31.853  1.00  0.00    -0.337 N 
HETATM   10  O   UNL     1      -3.593   7.315 -31.091  1.00  0.00    -0.247 OA
HETATM   11  H   UNL     1      -2.379   4.858 -32.551  1.00  0.00     0.164 HD
HETATM   12  H   UNL     1      -5.467   6.001 -31.510  1.00  0.00     0.170 HD
BRANCH   9  13
HETATM   13  C   UNL     1      -1.115   6.349 -31.845  1.00  0.00     0.186 C 
BRANCH  13  14
HETATM   14  C   UNL     1      -0.276   5.925 -30.691  1.00  0.00     0.083 A 
HETATM   15  C   UNL     1      -0.049   6.590 -29.503  1.00  0.00     0.076 A 
HETATM   16  C   UNL     1      -0.484   7.880 -28.940  1.00  0.00     0.079 C 
HETATM   17  O   UNL     1       0.780   5.818 -28.739  1.00  0.00    -0.307 OA
HETATM   18  C   UNL     1       1.017   4.724 -29.512  1.00  0.00     0.258 A 
HETATM   19  N   UNL     1       0.433   4.734 -30.688  1.00  0.00    -0.237 NA
ENDBRANCH  13  14
ENDBRANCH   9  13
ENDBRANCH   1   7
BRANCH   4  20
HETATM   20  C   UNL     1      -5.689  -0.154 -32.353  1.00  0.00     0.256 C 
HETATM   21  N   UNL     1      -5.401  -0.679 -33.600  1.00  0.00    -0.323 N 
HETATM   22  H   UNL     1      -5.154  -0.025 -34.331  1.00  0.00     0.169 HD
HETATM   23  O   UNL     1      -6.204  -0.741 -31.410  1.00  0.00    -0.267 OA
BRANCH  21  24
HETATM   24  C   UNL     1      -5.474  -2.033 -33.991  1.00  0.00     0.035 A 
HETATM   25  C   UNL     1      -4.387  -2.909 -33.966  1.00  0.00     0.029 A 
HETATM   26  C   UNL     1      -4.530  -4.230 -34.403  1.00  0.00     0.002 A 
HETATM   27  C   UNL     1      -5.761  -4.687 -34.867  1.00  0.00     0.000 A 
HETATM   28  C   UNL     1      -6.852  -3.821 -34.896  1.00  0.00     0.002 A 
HETATM   29  C   UNL     1      -6.707  -2.501 -34.462  1.00  0.00     0.029 A 
ENDBRANCH  21  24
ENDBRANCH   4  20
TORSDOF 5
ENDMDL
MODEL 3
REMARK VINA RESULT:      -8.0      2.046      2.533
REMARK  5 active torsions:
REMARK  status: ('A' for Active; 'I' for Inactive)
REMARK    1  A    between atoms: C_6  and  C_7 
REMARK    2  A    between atoms: C_7  and  N_8 
REMARK       I    between atoms: N_8  and  C_9 
REMARK       I    between atoms: C_9  and  N_10 
REMARK    3  A    between atoms: N_10  and  C_11 
REMARK    4  A    between atoms: C_14  and  C_15 
REMARK       I    between atoms: C_15  and  N_16 
REMARK    5  A    between atoms: N_16  and  C_17 
ROOT
HETATM    1  C   UNL     1      -6.106   3.531 -31.192  1.00  0.00     0.036 A 
HETATM    2  C   UNL     1      -5.900   2.227 -30.737  1.00  0.00     0.030 A 
HETATM    3  C   UNL     1      -5.943   1.148 -31.629  1.00  0.00     0.019 A 
HETATM    4  C   UNL     1      -6.226   1.358 -32.983  1.00  0.00     0.032 A 
HETATM    5  C   UNL     1      -6.472   2.657 -33.437  1.00  0.00     0.019 A 
HETATM    6  C   UNL     1      -6.426   3.731 -32.541  1.00  0.00     0.030 A 
ENDROOT
BRANCH   1   7
HETATM    7  N   UNL     1      -6.038   4.680 -30.383  1.00  0.00    -0.309 N 
HETATM    8  C   UNL     1      -5.014   5.503 -30.027  1.00  0.00     0.321 C 
HETATM    9  N   UNL     1      -3.839   5.380 -30.687  1.00  0.00    -0.337 N 
HETATM   10  O   UNL     1      -5.200   6.355 -29.159  1.00  0.00    -0.247 OA
HETATM   11  H   UNL     1      -3.875   5.015 -31.627  1.00  0.00     0.164 HD
HETATM   12  H   UNL     1      -6.907   4.998 -29.972  1.00  0.00     0.170 HD
BRANCH   9  13
HETATM   13  C   UNL     1      -2.749   6.292 -30.437  1.00  0.00     0.186 C 
BRANCH  13  14
HETATM   14  C   UNL     1      -2.108   6.663 -31.727  1.00  0.00     0.083 A 
HETATM   15  C   UNL     1      -0.767   6.839 -32.003  1.00  0.00     0.076 A 
HETATM   16  C   UNL     1       0.472   6.757 -31.209  1.00  0.00     0.079 C 
HETATM   17  O   UNL     1      -0.647   7.167 -33.324  1.00  0.00    -0.307 OA
HETATM   18  C   UNL     1      -1.929   7.180 -33.779  1.00  0.00     0.258 A 
HETATM   19  N   UNL     1      -2.844   6.905 -32.877  1.00  0.00    -0.237 NA
ENDBRANCH  13  14
ENDBRANCH   9  13
ENDBRANCH   1   7
BRANCH   4  20
HETATM   20  C   UNL     1      -6.190   0.193 -33.914  1.00  0.00     0.256 C 
HETATM   21  N   UNL     1      -5.700  -0.979 -33.367  1.00  0.00    -0.323 N 
HETATM   22  H   UNL     1      -5.251  -0.915 -32.463  1.00  0.00     0.169 HD
HETATM   23  O   UNL     1      -6.570   0.363 -35.066  1.00  0.00    -0.267 OA
BRANCH  21  24
HETATM   24  C   UNL     1      -5.698  -2.259 -33.960  1.00  0.00     0.035 A 
HETATM   25  C   UNL     1      -6.828  -2.859 -34.520  1.00  0.00     0.029 A 
HETATM   26  C   UNL     1      -6.754  -4.148 -35.059  1.00  0.00     0.002 A 
HETATM   27  C   UNL     1      -5.550  -4.847 -35.044  1.00  0.00     0.000 A 
HETATM   28  C   UNL     1      -4.417  -4.259 -34.489  1.00  0.00     0.002 A 
HETATM   29  C   UNL     1      -4.492  -2.972 -33.948  1.00  0.00     0.029 A 
ENDBRANCH  21  24
ENDBRANCH   4  20
TORSDOF 5
ENDMDL
MODEL 4
REMARK VINA RESULT:      -8.0      1.518      2.046
REMARK  5 active torsions:
REMARK  status: ('A' for Active; 'I' for Inactive)
REMARK    1  A    between atoms: C_6  and  C_7 
REMARK    2  A    between atoms: C_7  and  N_8 
REMARK       I    between atoms: N_8  and  C_9 
REMARK       I    between atoms: C_9  and  N_10 
REMARK    3  A    between atoms: N_10  and  C_11 
REMARK    4  A    between atoms: C_14  and  C_15 
REMARK       I    between atoms: C_15  and  N_16 
REMARK    5  A    between atoms: N_16  and  C_17 
ROOT
HETATM    1  C   UNL     1      -5.598   4.512 -30.677  1.00  0.00     0.036 A 
HETATM    2  C   UNL     1      -5.614   4.161 -32.029  1.00  0.00     0.030 A 
HETATM    3  C   UNL     1      -5.819   2.831 -32.415  1.00  0.00     0.019 A 
HETATM    4  C   UNL     1      -5.978   1.829 -31.452  1.00  0.00     0.032 A 
HETATM    5  C   UNL     1      -5.923   2.167 -30.096  1.00  0.00     0.019 A 
HETATM    6  C   UNL     1      -5.719   3.499 -29.717  1.00  0.00     0.030 A 
ENDROOT
BRANCH   1   7
HETATM    7  N   UNL     1      -5.444   5.824 -30.193  1.00  0.00    -0.309 N 
HETATM    8  C   UNL     1      -4.358   6.550 -29.812  1.00  0.00     0.321 C 
HETATM    9  N   UNL     1      -3.131   6.061 -30.106  1.00  0.00    -0.337 N 
HETATM   10  O   UNL     1      -4.522   7.637 -29.260  1.00  0.00    -0.247 OA
HETATM   11  H   UNL     1      -3.059   5.445 -30.903  1.00  0.00     0.164 HD
HETATM   12  H   UNL     1      -6.288   6.377 -30.104  1.00  0.00     0.170 HD
BRANCH   9  13
HETATM   13  C   UNL     1      -1.941   6.829 -29.830  1.00  0.00     0.186 C 
BRANCH  13  14
HETATM   14  C   UNL     1      -0.739   5.984 -30.070  1.00  0.00     0.083 A 
HETATM   15  C   UNL     1      -0.318   5.402 -31.248  1.00  0.00     0.076 A 
HETATM   16  C   UNL     1      -0.838   5.362 -32.626  1.00  0.00     0.079 C 
HETATM   17  O   UNL     1       0.841   4.724 -30.993  1.00  0.00    -0.307 OA
HETATM   18  C   UNL     1       1.057   4.927 -29.666  1.00  0.00     0.258 A 
HETATM   19  N   UNL     1       0.147   5.653 -29.057  1.00  0.00    -0.237 NA
ENDBRANCH  13  14
ENDBRANCH   9  13
ENDBRANCH   1   7
BRANCH   4  20
HETATM   20  C   UNL     1      -6.268   0.437 -31.904  1.00  0.00     0.256 C 
HETATM   21  N   UNL     1      -5.801   0.122 -33.167  1.00  0.00    -0.323 N 
HETATM   22  H   UNL     1      -5.468   0.886 -33.741  1.00  0.00     0.169 HD
HETATM   23  O   UNL     1      -6.897  -0.295 -31.150  1.00  0.00    -0.267 OA
BRANCH  21  24
HETATM   24  C   UNL     1      -5.793  -1.149 -33.780  1.00  0.00     0.035 A 
HETATM   25  C   UNL     1      -6.945  -1.817 -34.199  1.00  0.00     0.029 A 
HETATM   26  C   UNL     1      -6.860  -3.092 -34.768  1.00  0.00     0.002 A 
HETATM   27  C   UNL     1      -5.622  -3.710 -34.922  1.00  0.00     0.000 A 
HETATM   28  C   UNL     1      -4.466  -3.053 -34.508  1.00  0.00     0.002 A 
HETATM   29  C   UNL     1      -4.553  -1.780 -33.938  1.00  0.00     0.029 A 
ENDBRANCH  21  24
ENDBRANCH   4  20
TORSDOF 5
ENDMDL
MODEL 5
REMARK VINA RESULT:      -8.0      2.176      9.432
REMARK  5 active torsions:
REMARK  status: ('A' for Active; 'I' for Inactive)
REMARK    1  A    between atoms: C_6  and  C_7 
REMARK    2  A    between atoms: C_7  and  N_8 
REMARK       I    between atoms: N_8  and  C_9 
REMARK       I    between atoms: C_9  and  N_10 
REMARK    3  A    between atoms: N_10  and  C_11 
REMARK    4  A    between atoms: C_14  and  C_15 
REMARK       I    between atoms: C_15  and  N_16 
REMARK    5  A    between atoms: N_16  and  C_17 
ROOT
HETATM    1  C   UNL     1      -4.272   4.222 -32.772  1.00  0.00     0.036 A 
HETATM    2  C   UNL     1      -2.968   3.984 -33.210  1.00  0.00     0.030 A 
HETATM    3  C   UNL     1      -1.874   4.478 -32.489  1.00  0.00     0.019 A 
HETATM    4  C   UNL     1      -2.073   5.247 -31.338  1.00  0.00     0.032 A 
HETATM    5  C   UNL     1      -3.377   5.524 -30.916  1.00  0.00     0.019 A 
HETATM    6  C   UNL     1      -4.466   5.025 -31.641  1.00  0.00     0.030 A 
ENDROOT
BRANCH   1   7
HETATM    7  N   UNL     1      -5.430   3.730 -33.401  1.00  0.00    -0.309 N 
HETATM    8  C   UNL     1      -6.022   2.505 -33.425  1.00  0.00     0.321 C 
HETATM    9  N   UNL     1      -5.588   1.571 -32.548  1.00  0.00    -0.337 N 
HETATM   10  O   UNL     1      -6.953   2.300 -34.203  1.00  0.00    -0.247 OA
HETATM   11  H   UNL     1      -5.175   1.903 -31.688  1.00  0.00     0.164 HD
HETATM   12  H   UNL     1      -5.966   4.392 -33.949  1.00  0.00     0.170 HD
BRANCH   9  13
HETATM   13  C   UNL     1      -6.243   0.289 -32.444  1.00  0.00     0.186 C 
BRANCH  13  14
HETATM   14  C   UNL     1      -5.242  -0.796 -32.632  1.00  0.00     0.083 A 
HETATM   15  C   UNL     1      -5.204  -1.772 -33.608  1.00  0.00     0.076 A 
HETATM   16  C   UNL     1      -6.063  -2.126 -34.751  1.00  0.00     0.079 C 
HETATM   17  O   UNL     1      -4.097  -2.544 -33.389  1.00  0.00    -0.307 OA
HETATM   18  C   UNL     1      -3.525  -1.996 -32.283  1.00  0.00     0.258 A 
HETATM   19  N   UNL     1      -4.164  -0.966 -31.776  1.00  0.00    -0.237 NA
ENDBRANCH  13  14
ENDBRANCH   9  13
ENDBRANCH   1   7
BRANCH   4  20
HETATM   20  C   UNL     1      -0.883   5.695 -30.558  1.00  0.00     0.256 C 
HETATM   21  N   UNL     1      -1.163   6.509 -29.475  1.00  0.00    -0.323 N 
HETATM   22  H   UNL     1      -2.104   6.873 -29.403  1.00  0.00     0.169 HD
HETATM   23  O   UNL     1       0.224   5.332 -30.936  1.00  0.00    -0.267 OA
BRANCH  21  24
HETATM   24  C   UNL     1      -0.261   6.947 -28.483  1.00  0.00     0.035 A 
HETATM   25  C   UNL     1      -0.226   6.436 -27.184  1.00  0.00     0.029 A 
HETATM   26  C   UNL     1       0.676   6.946 -26.245  1.00  0.00     0.002 A 
HETATM   27  C   UNL     1       1.551   7.971 -26.596  1.00  0.00     0.000 A 
HETATM   28  C   UNL     1       1.525   8.488 -27.888  1.00  0.00     0.002 A 
HETATM   29  C   UNL     1       0.622   7.979 -28.826  1.00  0.00     0.029 A 
ENDBRANCH  21  24
ENDBRANCH   4  20
TORSDOF 5
ENDMDL
MODEL 6
REMARK VINA RESULT:      -7.9      1.532      1.807
REMARK  5 active torsions:
REMARK  status: ('A' for Active; 'I' for Inactive)
REMARK    1  A    between atoms: C_6  and  C_7 
REMARK    2  A    between atoms: C_7  and  N_8 
REMARK       I    between atoms: N_8  and  C_9 
REMARK       I    between atoms: C_9  and  N_10 
REMARK    3  A    between atoms: N_10  and  C_11 
REMARK    4  A    between atoms: C_14  and  C_15 
REMARK       I    between atoms: C_15  and  N_16 
REMARK    5  A    between atoms: N_16  and  C_17 
ROOT
HETATM    1  C   UNL     1      -3.950   4.605 -32.252  1.00  0.00     0.036 A 
HETATM    2  C   UNL     1      -2.994   3.605 -32.059  1.00  0.00     0.030 A 
HETATM    3  C   UNL     1      -3.365   2.255 -32.076  1.00  0.00     0.019 A 
HETATM    4  C   UNL     1      -4.704   1.890 -32.254  1.00  0.00     0.032 A 
HETATM    5  C   UNL     1      -5.671   2.887 -32.408  1.00  0.00     0.019 A 
HETATM    6  C   UNL     1      -5.293   4.235 -32.391  1.00  0.00     0.030 A 
ENDROOT
BRANCH   1   7
HETATM    7  N   UNL     1      -3.668   5.983 -32.296  1.00  0.00    -0.309 N 
HETATM    8  C   UNL     1      -3.402   6.906 -31.332  1.00  0.00     0.321 C 
HETATM    9  N   UNL     1      -3.150   6.463 -30.079  1.00  0.00    -0.337 N 
HETATM   10  O   UNL     1      -3.355   8.097 -31.635  1.00  0.00    -0.247 OA
HETATM   11  H   UNL     1      -2.774   5.530 -29.987  1.00  0.00     0.164 HD
HETATM   12  H   UNL     1      -3.637   6.410 -33.213  1.00  0.00     0.170 HD
BRANCH   9  13
HETATM   13  C   UNL     1      -2.754   7.377 -29.035  1.00  0.00     0.186 C 
BRANCH  13  14
HETATM   14  C   UNL     1      -1.450   6.941 -28.464  1.00  0.00     0.083 A 
HETATM   15  C   UNL     1      -0.241   6.775 -29.109  1.00  0.00     0.076 A 
HETATM   16  C   UNL     1       0.220   6.928 -30.500  1.00  0.00     0.079 C 
HETATM   17  O   UNL     1       0.680   6.371 -28.182  1.00  0.00    -0.307 OA
HETATM   18  C   UNL     1      -0.027   6.307 -27.022  1.00  0.00     0.258 A 
HETATM   19  N   UNL     1      -1.299   6.617 -27.124  1.00  0.00    -0.237 NA
ENDBRANCH  13  14
ENDBRANCH   9  13
ENDBRANCH   1   7
BRANCH   4  20
HETATM   20  C   UNL     1      -5.048   0.440 -32.339  1.00  0.00     0.256 C 
HETATM   21  N   UNL     1      -5.303  -0.028 -33.615  1.00  0.00    -0.323 N 
HETATM   22  H   UNL     1      -5.410   0.662 -34.347  1.00  0.00     0.169 HD
HETATM   23  O   UNL     1      -5.096  -0.203 -31.298  1.00  0.00    -0.267 OA
BRANCH  21  24
HETATM   24  C   UNL     1      -5.497  -1.369 -34.007  1.00  0.00     0.035 A 
HETATM   25  C   UNL     1      -6.741  -1.910 -34.341  1.00  0.00     0.029 A 
HETATM   26  C   UNL     1      -6.858  -3.260 -34.687  1.00  0.00     0.002 A 
HETATM   27  C   UNL     1      -5.734  -4.081 -34.702  1.00  0.00     0.000 A 
HETATM   28  C   UNL     1      -4.488  -3.552 -34.371  1.00  0.00     0.002 A 
HETATM   29  C   UNL     1      -4.372  -2.204 -34.023  1.00  0.00     0.029 A 
ENDBRANCH  21  24
ENDBRANCH   4  20
TORSDOF 5
ENDMDL
MODEL 7
REMARK VINA RESULT:      -7.8      5.208      8.996
REMARK  5 active torsions:
REMARK  status: ('A' for Active; 'I' for Inactive)
REMARK    1  A    between atoms: C_6  and  C_7 
REMARK    2  A    between atoms: C_7  and  N_8 
REMARK       I    between atoms: N_8  and  C_9 
REMARK       I    between atoms: C_9  and  N_10 
REMARK    3  A    between atoms: N_10  and  C_11 
REMARK    4  A    between atoms: C_14  and  C_15 
REMARK       I    between atoms: C_15  and  N_16 
REMARK    5  A    between atoms: N_16  and  C_17 
ROOT
HETATM    1  C   UNL     1      -6.829   1.292 -32.913  1.00  0.00     0.036 A 
HETATM    2  C   UNL     1      -7.180   2.294 -33.820  1.00  0.00     0.030 A 
HETATM    3  C   UNL     1      -8.522   2.509 -34.158  1.00  0.00     0.019 A 
HETATM    4  C   UNL     1      -9.528   1.701 -33.617  1.00  0.00     0.032 A 
HETATM    5  C   UNL     1      -9.179   0.670 -32.739  1.00  0.00     0.019 A 
HETATM    6  C   UNL     1      -7.836   0.462 -32.404  1.00  0.00     0.030 A 
ENDROOT
BRANCH   1   7
HETATM    7  N   UNL     1      -5.517   1.031 -32.477  1.00  0.00    -0.309 N 
HETATM    8  C   UNL     1      -4.659  -0.003 -32.691  1.00  0.00     0.321 C 
HETATM    9  N   UNL     1      -4.973  -0.904 -33.651  1.00  0.00    -0.337 N 
HETATM   10  O   UNL     1      -3.614  -0.062 -32.046  1.00  0.00    -0.247 OA
HETATM   11  H   UNL     1      -5.560  -0.584 -34.408  1.00  0.00     0.164 HD
HETATM   12  H   UNL     1      -5.084   1.735 -31.893  1.00  0.00     0.170 HD
BRANCH   9  13
HETATM   13  C   UNL     1      -4.057  -1.961 -34.005  1.00  0.00     0.186 C 
BRANCH  13  14
HETATM   14  C   UNL     1      -4.827  -3.176 -34.388  1.00  0.00     0.083 A 
HETATM   15  C   UNL     1      -4.490  -4.502 -34.204  1.00  0.00     0.076 A 
HETATM   16  C   UNL     1      -3.333  -5.204 -33.623  1.00  0.00     0.079 C 
HETATM   17  O   UNL     1      -5.504  -5.269 -34.706  1.00  0.00    -0.307 OA
HETATM   18  C   UNL     1      -6.402  -4.362 -35.176  1.00  0.00     0.258 A 
HETATM   19  N   UNL     1      -6.053  -3.104 -35.032  1.00  0.00    -0.237 NA
ENDBRANCH  13  14
ENDBRANCH   9  13
ENDBRANCH   1   7
BRANCH   4  20
HETATM   20  C   UNL     1     -10.950   2.008 -33.944  1.00  0.00     0.256 C 
HETATM   21  N   UNL     1     -11.883   1.198 -33.323  1.00  0.00    -0.323 N 
HETATM   22  H   UNL     1     -11.537   0.373 -32.850  1.00  0.00     0.169 HD
HETATM   23  O   UNL     1     -11.177   2.917 -34.733  1.00  0.00    -0.267 OA
BRANCH  21  24
HETATM   24  C   UNL     1     -13.285   1.357 -33.325  1.00  0.00     0.035 A 
HETATM   25  C   UNL     1     -14.145   0.659 -34.175  1.00  0.00     0.029 A 
HETATM   26  C   UNL     1     -15.523   0.897 -34.142  1.00  0.00     0.002 A 
HETATM   27  C   UNL     1     -16.053   1.834 -33.259  1.00  0.00     0.000 A 
HETATM   28  C   UNL     1     -15.204   2.536 -32.406  1.00  0.00     0.002 A 
HETATM   29  C   UNL     1     -13.827   2.299 -32.442  1.00  0.00     0.029 A 
ENDBRANCH  21  24
ENDBRANCH   4  20
TORSDOF 5
ENDMDL
MODEL 8
REMARK VINA RESULT:      -7.8     16.939     18.118
REMARK  5 active torsions:
REMARK  status: ('A' for Active; 'I' for Inactive)
REMARK    1  A    between atoms: C_6  and  C_7 
REMARK    2  A    between atoms: C_7  and  N_8 
REMARK       I    between atoms: N_8  and  C_9 
REMARK       I    between atoms: C_9  and  N_10 
REMARK    3  A    between atoms: N_10  and  C_11 
REMARK    4  A    between atoms: C_14  and  C_15 
REMARK       I    between atoms: C_15  and  N_16 
REMARK    5  A    between atoms: N_16  and  C_17 
ROOT
HETATM    1  C   UNL     1      -6.161 -15.043 -32.123  1.00  0.00     0.036 A 
HETATM    2  C   UNL     1      -6.917 -15.952 -32.865  1.00  0.00     0.030 A 
HETATM    3  C   UNL     1      -7.128 -15.750 -34.235  1.00  0.00     0.019 A 
HETATM    4  C   UNL     1      -6.610 -14.617 -34.872  1.00  0.00     0.032 A 
HETATM    5  C   UNL     1      -5.886 -13.683 -34.126  1.00  0.00     0.019 A 
HETATM    6  C   UNL     1      -5.678 -13.891 -32.758  1.00  0.00     0.030 A 
ENDROOT
BRANCH   1   7
HETATM    7  N   UNL     1      -5.857 -15.183 -30.756  1.00  0.00    -0.309 N 
HETATM    8  C   UNL     1      -4.941 -15.930 -30.082  1.00  0.00     0.321 C 
HETATM    9  N   UNL     1      -3.966 -16.537 -30.796  1.00  0.00    -0.337 N 
HETATM   10  O   UNL     1      -5.000 -15.993 -28.855  1.00  0.00    -0.247 OA
HETATM   11  H   UNL     1      -3.707 -16.114 -31.676  1.00  0.00     0.164 HD
HETATM   12  H   UNL     1      -6.402 -14.624 -30.111  1.00  0.00     0.170 HD
BRANCH   9  13
HETATM   13  C   UNL     1      -2.900 -17.253 -30.137  1.00  0.00     0.186 C 
BRANCH  13  14
HETATM   14  C   UNL     1      -1.954 -16.280 -29.525  1.00  0.00     0.083 A 
HETATM   15  C   UNL     1      -1.234 -16.402 -28.353  1.00  0.00     0.076 A 
HETATM   16  C   UNL     1      -1.121 -17.436 -27.310  1.00  0.00     0.079 C 
HETATM   17  O   UNL     1      -0.492 -15.265 -28.195  1.00  0.00    -0.307 OA
HETATM   18  C   UNL     1      -0.809 -14.509 -29.280  1.00  0.00     0.258 A 
HETATM   19  N   UNL     1      -1.684 -15.048 -30.099  1.00  0.00    -0.237 NA
ENDBRANCH  13  14
ENDBRANCH   9  13
ENDBRANCH   1   7
BRANCH   4  20
HETATM   20  C   UNL     1      -6.794 -14.475 -36.346  1.00  0.00     0.256 C 
HETATM   21  N   UNL     1      -6.771 -13.175 -36.818  1.00  0.00    -0.323 N 
HETATM   22  H   UNL     1      -6.809 -12.434 -36.130  1.00  0.00     0.169 HD
HETATM   23  O   UNL     1      -6.966 -15.493 -37.006  1.00  0.00    -0.267 OA
BRANCH  21  24
HETATM   24  C   UNL     1      -6.762 -12.759 -38.165  1.00  0.00     0.035 A 
HETATM   25  C   UNL     1      -7.904 -12.692 -38.966  1.00  0.00     0.029 A 
HETATM   26  C   UNL     1      -7.811 -12.302 -40.305  1.00  0.00     0.002 A 
HETATM   27  C   UNL     1      -6.575 -11.974 -40.856  1.00  0.00     0.000 A 
HETATM   28  C   UNL     1      -5.429 -12.036 -40.067  1.00  0.00     0.002 A 
HETATM   29  C   UNL     1      -5.523 -12.429 -38.729  1.00  0.00     0.029 A 
ENDBRANCH  21  24
ENDBRANCH   4  20
TORSDOF 5
ENDMDL
MODEL 9
REMARK VINA RESULT:      -7.7      1.810      9.439
REMARK  5 active torsions:
REMARK  status: ('A' for Active; 'I' for Inactive)
REMARK    1  A    between atoms: C_6  and  C_7 
REMARK    2  A    between atoms: C_7  and  N_8 
REMARK       I    between atoms: N_8  and  C_9 
REMARK       I    between atoms: C_9  and  N_10 
REMARK    3  A    between atoms: N_10  and  C_11 
REMARK    4  A    between atoms: C_14  and  C_15 
REMARK       I    between atoms: C_15  and  N_16 
REMARK    5  A    between atoms: N_16  and  C_17 
ROOT
HETATM    1  C   UNL     1      -5.704   2.162 -32.370  1.00  0.00     0.036 A 
HETATM    2  C   UNL     1      -4.732   1.827 -31.425  1.00  0.00     0.030 A 
HETATM    3  C   UNL     1      -3.631   2.665 -31.211  1.00  0.00     0.019 A 
HETATM    4  C   UNL     1      -3.471   3.833 -31.964  1.00  0.00     0.032 A 
HETATM    5  C   UNL     1      -4.419   4.153 -32.940  1.00  0.00     0.019 A 
HETATM    6  C   UNL     1      -5.519   3.312 -33.148  1.00  0.00     0.030 A 
ENDROOT
BRANCH   1   7
HETATM    7  N   UNL     1      -6.866   1.410 -32.624  1.00  0.00    -0.309 N 
HETATM    8  C   UNL     1      -7.141   0.393 -33.485  1.00  0.00     0.321 C 
HETATM    9  N   UNL     1      -6.104  -0.203 -34.119  1.00  0.00    -0.337 N 
HETATM   10  O   UNL     1      -8.304   0.019 -33.624  1.00  0.00    -0.247 OA
HETATM   11  H   UNL     1      -5.205  -0.173 -33.661  1.00  0.00     0.164 HD
HETATM   12  H   UNL     1      -7.681   1.633 -32.068  1.00  0.00     0.170 HD
BRANCH   9  13
HETATM   13  C   UNL     1      -6.313  -1.357 -34.960  1.00  0.00     0.186 C 
BRANCH  13  14
HETATM   14  C   UNL     1      -5.435  -2.468 -34.502  1.00  0.00     0.083 A 
HETATM   15  C   UNL     1      -5.552  -3.819 -34.761  1.00  0.00     0.076 A 
HETATM   16  C   UNL     1      -6.509  -4.650 -35.511  1.00  0.00     0.079 C 
HETATM   17  O   UNL     1      -4.514  -4.459 -34.142  1.00  0.00    -0.307 OA
HETATM   18  C   UNL     1      -3.825  -3.456 -33.532  1.00  0.00     0.258 A 
HETATM   19  N   UNL     1      -4.329  -2.254 -33.694  1.00  0.00    -0.237 NA
ENDBRANCH  13  14
ENDBRANCH   9  13
ENDBRANCH   1   7
BRANCH   4  20
HETATM   20  C   UNL     1      -2.323   4.736 -31.656  1.00  0.00     0.256 C 
HETATM   21  N   UNL     1      -2.459   5.483 -30.500  1.00  0.00    -0.323 N 
HETATM   22  H   UNL     1      -3.371   5.494 -30.062  1.00  0.00     0.169 HD
HETATM   23  O   UNL     1      -1.382   4.760 -32.440  1.00  0.00    -0.267 OA
BRANCH  21  24
HETATM   24  C   UNL     1      -1.478   6.291 -29.889  1.00  0.00     0.035 A 
HETATM   25  C   UNL     1      -1.661   7.642 -29.587  1.00  0.00     0.029 A 
HETATM   26  C   UNL     1      -0.627   8.387 -29.011  1.00  0.00     0.002 A 
HETATM   27  C   UNL     1       0.599   7.788 -28.732  1.00  0.00     0.000 A 
HETATM   28  C   UNL     1       0.792   6.442 -29.029  1.00  0.00     0.002 A 
HETATM   29  C   UNL     1      -0.240   5.698 -29.606  1.00  0.00     0.029 A 
ENDBRANCH  21  24
ENDBRANCH   4  20
TORSDOF 5
ENDMDL
MODEL 10
REMARK VINA RESULT:      -7.4      4.595      9.786
REMARK  5 active torsions:
REMARK  status: ('A' for Active; 'I' for Inactive)
REMARK    1  A    between atoms: C_6  and  C_7 
REMARK    2  A    between atoms: C_7  and  N_8 
REMARK       I    between atoms: N_8  and  C_9 
REMARK       I    between atoms: C_9  and  N_10 
REMARK    3  A    between atoms: N_10  and  C_11 
REMARK    4  A    between atoms: C_14  and  C_15 
REMARK       I    between atoms: C_15  and  N_16 
REMARK    5  A    between atoms: N_16  and  C_17 
ROOT
HETATM    1  C   UNL     1      -7.641   0.632 -32.301  1.00  0.00     0.036 A 
HETATM    2  C   UNL     1      -7.449   1.701 -31.423  1.00  0.00     0.030 A 
HETATM    3  C   UNL     1      -6.228   2.384 -31.392  1.00  0.00     0.019 A 
HETATM    4  C   UNL     1      -5.170   1.985 -32.216  1.00  0.00     0.032 A 
HETATM    5  C   UNL     1      -5.343   0.890 -33.069  1.00  0.00     0.019 A 
HETATM    6  C   UNL     1      -6.567   0.212 -33.096  1.00  0.00     0.030 A 
ENDROOT
BRANCH   1   7
HETATM    7  N   UNL     1      -8.844  -0.085 -32.437  1.00  0.00    -0.309 N 
HETATM    8  C   UNL     1     -10.038   0.211 -33.019  1.00  0.00     0.321 C 
HETATM    9  N   UNL     1     -10.108   1.307 -33.810  1.00  0.00    -0.337 N 
HETATM   10  O   UNL     1     -10.995  -0.543 -32.848  1.00  0.00    -0.247 OA
HETATM   11  H   UNL     1      -9.253   1.608 -34.255  1.00  0.00     0.164 HD
HETATM   12  H   UNL     1      -8.863  -1.018 -32.046  1.00  0.00     0.170 HD
BRANCH   9  13
HETATM   13  C   UNL     1     -11.311   1.617 -34.543  1.00  0.00     0.186 C 
BRANCH  13  14
HETATM   14  C   UNL     1     -12.310   2.224 -33.622  1.00  0.00     0.083 A 
HETATM   15  C   UNL     1     -13.613   1.831 -33.388  1.00  0.00     0.076 A 
HETATM   16  C   UNL     1     -14.482   0.763 -33.911  1.00  0.00     0.079 C 
HETATM   17  O   UNL     1     -14.148   2.678 -32.457  1.00  0.00    -0.307 OA
HETATM   18  C   UNL     1     -13.137   3.546 -32.181  1.00  0.00     0.258 A 
HETATM   19  N   UNL     1     -12.026   3.340 -32.851  1.00  0.00    -0.237 NA
ENDBRANCH  13  14
ENDBRANCH   9  13
ENDBRANCH   1   7
BRANCH   4  20
HETATM   20  C   UNL     1      -3.910   2.783 -32.206  1.00  0.00     0.256 C 
HETATM   21  N   UNL     1      -3.904   3.880 -33.049  1.00  0.00    -0.323 N 
HETATM   22  H   UNL     1      -4.659   3.953 -33.718  1.00  0.00     0.169 HD
HETATM   23  O   UNL     1      -2.994   2.405 -31.486  1.00  0.00    -0.267 OA
BRANCH  21  24
HETATM   24  C   UNL     1      -2.920   4.888 -33.127  1.00  0.00     0.035 A 
HETATM   25  C   UNL     1      -2.693   5.832 -32.124  1.00  0.00     0.029 A 
HETATM   26  C   UNL     1      -1.721   6.824 -32.290  1.00  0.00     0.002 A 
HETATM   27  C   UNL     1      -0.967   6.880 -33.459  1.00  0.00     0.000 A 
HETATM   28  C   UNL     1      -1.184   5.943 -34.466  1.00  0.00     0.002 A 
HETATM   29  C   UNL     1      -2.158   4.954 -34.301  1.00  0.00     0.029 A 
ENDBRANCH  21  24
ENDBRANCH   4  20
TORSDOF 5
ENDMDL
