MODEL 1
REMARK VINA RESULT:      -8.5      0.000      0.000
REMARK  5 active torsions:
REMARK  status: ('A' for Active; 'I' for Inactive)
REMARK    1  A    between atoms: C_4  and  C_5 
REMARK    2  A    between atoms: C_5  and  N_6 
REMARK       I    between atoms: N_6  and  C_7 
REMARK    3  A    between atoms: C_7  and  C_8 
REMARK    4  A    between atoms: C_11  and  N_12 
REMARK       I    between atoms: N_12  and  C_13 
REMARK       I    between atoms: C_13  and  N_14 
REMARK    5  A    between atoms: N_14  and  C_15 
ROOT
HETATM    1  C   UNL     1      -5.264   2.024 -32.720  1.00  0.00     0.032 A 
HETATM    2  C   UNL     1      -5.484   3.392 -32.910  1.00  0.00     0.019 A 
HETATM    3  C   UNL     1      -4.567   4.328 -32.411  1.00  0.00     0.030 A 
HETATM    4  C   UNL     1      -3.431   3.910 -31.714  1.00  0.00     0.036 A 
HETATM    5  C   UNL     1      -3.192   2.538 -31.569  1.00  0.00     0.030 A 
HETATM    6  C   UNL     1      -4.099   1.602 -32.071  1.00  0.00     0.019 A 
ENDROOT
BRANCH   4   7
HETATM    7  N   UNL     1      -2.492   4.789 -31.135  1.00  0.00    -0.309 N 
HETATM    8  C   UNL     1      -1.394   5.350 -31.729  1.00  0.00     0.325 C 
HETATM    9  N   UNL     1      -0.619   6.160 -30.940  1.00  0.00    -0.306 N 
HETATM   10  O   UNL     1      -1.087   5.244 -32.914  1.00  0.00    -0.247 OA
HETATM   11  H   UNL     1       0.044   6.704 -31.478  1.00  0.00     0.171 HD
HETATM   12  H   UNL     1      -2.784   5.234 -30.278  1.00  0.00     0.170 HD
BRANCH   9  13
HETATM   13  C   UNL     1      -0.549   6.277 -29.567  1.00  0.00     0.072 A 
HETATM   14  C   UNL     1      -1.280   7.034 -28.626  1.00  0.00     0.169 A 
HETATM   15  N   UNL     1      -0.855   6.846 -27.373  1.00  0.00    -0.185 NA
HETATM   16  N   UNL     1       0.117   5.929 -27.505  1.00  0.00    -0.287 N 
HETATM   17  H   UNL     1       0.595   5.610 -26.668  1.00  0.00     0.188 HD
HETATM   18  C   UNL     1       0.325   5.545 -28.797  1.00  0.00     0.140 A 
ENDBRANCH   9  13
ENDBRANCH   4   7
BRANCH   1  19
HETATM   19  C   UNL     1      -6.230   0.984 -33.168  1.00  0.00     0.251 C 
HETATM   20  N   UNL     1      -5.723  -0.030 -33.947  1.00  0.00    -0.353 N 
HETATM   21  H   UNL     1      -4.743  -0.060 -34.190  1.00  0.00     0.163 HD
HETATM   22  O   UNL     1      -7.419   1.090 -32.890  1.00  0.00    -0.268 OA
BRANCH  20  23
HETATM   23  C   UNL     1      -6.603  -1.011 -34.542  1.00  0.00     0.161 C 
BRANCH  23  24
HETATM   24  C   UNL     1      -5.998  -2.393 -34.546  1.00  0.00    -0.041 A 
HETATM   25  C   UNL     1      -4.689  -2.592 -34.084  1.00  0.00     0.009 A 
HETATM   26  C   UNL     1      -4.135  -3.874 -34.048  1.00  0.00     0.001 A 
HETATM   27  C   UNL     1      -4.883  -4.971 -34.471  1.00  0.00     0.000 A 
HETATM   28  C   UNL     1      -6.189  -4.790 -34.921  1.00  0.00     0.001 A 
HETATM   29  C   UNL     1      -6.747  -3.510 -34.948  1.00  0.00     0.009 A 
ENDBRANCH  23  24
ENDBRANCH  20  23
ENDBRANCH   1  19
TORSDOF 5
ENDMDL
MODEL 2
REMARK VINA RESULT:      -7.9      5.704      8.668
REMARK  5 active torsions:
REMARK  status: ('A' for Active; 'I' for Inactive)
REMARK    1  A    between atoms: C_4  and  C_5 
REMARK    2  A    between atoms: C_5  and  N_6 
REMARK       I    between atoms: N_6  and  C_7 
REMARK    3  A    between atoms: C_7  and  C_8 
REMARK    4  A    between atoms: C_11  and  N_12 
REMARK       I    between atoms: N_12  and  C_13 
REMARK       I    between atoms: C_13  and  N_14 
REMARK    5  A    between atoms: N_14  and  C_15 
ROOT
HETATM    1  C   UNL     1      -7.490   0.521 -32.660  1.00  0.00     0.032 A 
HETATM    2  C   UNL     1      -8.154   0.528 -33.891  1.00  0.00     0.019 A 
HETATM    3  C   UNL     1      -9.406   1.146 -34.012  1.00  0.00     0.030 A 
HETATM    4  C   UNL     1     -10.010   1.754 -32.908  1.00  0.00     0.036 A 
HETATM    5  C   UNL     1      -9.319   1.785 -31.691  1.00  0.00     0.030 A 
HETATM    6  C   UNL     1      -8.068   1.177 -31.567  1.00  0.00     0.019 A 
ENDROOT
BRANCH   4   7
HETATM    7  N   UNL     1     -11.289   2.347 -32.936  1.00  0.00    -0.309 N 
HETATM    8  C   UNL     1     -11.607   3.660 -32.717  1.00  0.00     0.325 C 
HETATM    9  N   UNL     1     -12.937   3.985 -32.778  1.00  0.00    -0.306 N 
HETATM   10  O   UNL     1     -10.803   4.573 -32.541  1.00  0.00    -0.247 OA
HETATM   11  H   UNL     1     -13.089   4.986 -32.819  1.00  0.00     0.171 HD
HETATM   12  H   UNL     1     -12.009   1.806 -33.390  1.00  0.00     0.170 HD
BRANCH   9  13
HETATM   13  C   UNL     1     -14.061   3.188 -32.706  1.00  0.00     0.072 A 
HETATM   14  C   UNL     1     -15.212   3.216 -31.887  1.00  0.00     0.169 A 
HETATM   15  N   UNL     1     -16.060   2.221 -32.160  1.00  0.00    -0.185 NA
HETATM   16  N   UNL     1     -15.478   1.583 -33.188  1.00  0.00    -0.287 N 
HETATM   17  H   UNL     1     -15.952   0.778 -33.587  1.00  0.00     0.188 HD
HETATM   18  C   UNL     1     -14.288   2.135 -33.562  1.00  0.00     0.140 A 
ENDBRANCH   9  13
ENDBRANCH   4   7
BRANCH   1  19
HETATM   19  C   UNL     1      -6.190  -0.173 -32.450  1.00  0.00     0.251 C 
HETATM   20  N   UNL     1      -5.418  -0.382 -33.570  1.00  0.00    -0.353 N 
HETATM   21  H   UNL     1      -5.725  -0.069 -34.479  1.00  0.00     0.163 HD
HETATM   22  O   UNL     1      -5.883  -0.579 -31.335  1.00  0.00    -0.268 OA
BRANCH  20  23
HETATM   23  C   UNL     1      -4.205  -1.165 -33.492  1.00  0.00     0.161 C 
BRANCH  23  24
HETATM   24  C   UNL     1      -4.430  -2.607 -33.870  1.00  0.00    -0.041 A 
HETATM   25  C   UNL     1      -3.618  -3.615 -33.327  1.00  0.00     0.009 A 
HETATM   26  C   UNL     1      -3.845  -4.956 -33.641  1.00  0.00     0.001 A 
HETATM   27  C   UNL     1      -4.885  -5.307 -34.499  1.00  0.00     0.000 A 
HETATM   28  C   UNL     1      -5.707  -4.319 -35.036  1.00  0.00     0.001 A 
HETATM   29  C   UNL     1      -5.487  -2.978 -34.715  1.00  0.00     0.009 A 
ENDBRANCH  23  24
ENDBRANCH  20  23
ENDBRANCH   1  19
TORSDOF 5
ENDMDL
MODEL 3
REMARK VINA RESULT:      -7.9      5.713      8.575
REMARK  5 active torsions:
REMARK  status: ('A' for Active; 'I' for Inactive)
REMARK    1  A    between atoms: C_4  and  C_5 
REMARK    2  A    between atoms: C_5  and  N_6 
REMARK       I    between atoms: N_6  and  C_7 
REMARK    3  A    between atoms: C_7  and  C_8 
REMARK    4  A    between atoms: C_11  and  N_12 
REMARK       I    between atoms: N_12  and  C_13 
REMARK       I    between atoms: C_13  and  N_14 
REMARK    5  A    between atoms: N_14  and  C_15 
ROOT
HETATM    1  C   UNL     1      -7.758   0.530 -32.426  1.00  0.00     0.032 A 
HETATM    2  C   UNL     1      -7.963   1.832 -31.956  1.00  0.00     0.019 A 
HETATM    3  C   UNL     1      -9.221   2.436 -32.085  1.00  0.00     0.030 A 
HETATM    4  C   UNL     1     -10.280   1.753 -32.688  1.00  0.00     0.036 A 
HETATM    5  C   UNL     1     -10.082   0.434 -33.112  1.00  0.00     0.030 A 
HETATM    6  C   UNL     1      -8.832  -0.175 -32.980  1.00  0.00     0.019 A 
ENDROOT
BRANCH   4   7
HETATM    7  N   UNL     1     -11.558   2.311 -32.903  1.00  0.00    -0.309 N 
HETATM    8  C   UNL     1     -12.232   2.426 -34.089  1.00  0.00     0.325 C 
HETATM    9  N   UNL     1     -13.460   3.032 -34.038  1.00  0.00    -0.306 N 
HETATM   10  O   UNL     1     -11.861   1.976 -35.171  1.00  0.00    -0.247 OA
HETATM   11  H   UNL     1     -13.992   2.900 -34.890  1.00  0.00     0.171 HD
HETATM   12  H   UNL     1     -12.128   2.420 -32.079  1.00  0.00     0.170 HD
BRANCH   9  13
HETATM   13  C   UNL     1     -14.025   3.838 -33.070  1.00  0.00     0.072 A 
HETATM   14  C   UNL     1     -14.850   3.571 -31.955  1.00  0.00     0.169 A 
HETATM   15  N   UNL     1     -15.180   4.678 -31.285  1.00  0.00    -0.185 NA
HETATM   16  N   UNL     1     -14.527   5.651 -31.940  1.00  0.00    -0.287 N 
HETATM   17  H   UNL     1     -14.616   6.604 -31.602  1.00  0.00     0.188 HD
HETATM   18  C   UNL     1     -13.808   5.195 -33.007  1.00  0.00     0.140 A 
ENDBRANCH   9  13
ENDBRANCH   4   7
BRANCH   1  19
HETATM   19  C   UNL     1      -6.431  -0.143 -32.378  1.00  0.00     0.251 C 
HETATM   20  N   UNL     1      -5.800  -0.341 -33.585  1.00  0.00    -0.353 N 
HETATM   21  H   UNL     1      -6.221  -0.035 -34.450  1.00  0.00     0.163 HD
HETATM   22  O   UNL     1      -5.982  -0.541 -31.310  1.00  0.00    -0.268 OA
BRANCH  20  23
HETATM   23  C   UNL     1      -4.573  -1.104 -33.657  1.00  0.00     0.161 C 
BRANCH  23  24
HETATM   24  C   UNL     1      -4.819  -2.549 -34.010  1.00  0.00    -0.041 A 
HETATM   25  C   UNL     1      -5.930  -2.908 -34.787  1.00  0.00     0.009 A 
HETATM   26  C   UNL     1      -6.143  -4.239 -35.151  1.00  0.00     0.001 A 
HETATM   27  C   UNL     1      -5.249  -5.227 -34.744  1.00  0.00     0.000 A 
HETATM   28  C   UNL     1      -4.135  -4.884 -33.982  1.00  0.00     0.001 A 
HETATM   29  C   UNL     1      -3.915  -3.552 -33.626  1.00  0.00     0.009 A 
ENDBRANCH  23  24
ENDBRANCH  20  23
ENDBRANCH   1  19
TORSDOF 5
ENDMDL
MODEL 4
REMARK VINA RESULT:      -7.7      5.939     12.366
REMARK  5 active torsions:
REMARK  status: ('A' for Active; 'I' for Inactive)
REMARK    1  A    between atoms: C_4  and  C_5 
REMARK    2  A    between atoms: C_5  and  N_6 
REMARK       I    between atoms: N_6  and  C_7 
REMARK    3  A    between atoms: C_7  and  C_8 
REMARK    4  A    between atoms: C_11  and  N_12 
REMARK       I    between atoms: N_12  and  C_13 
REMARK       I    between atoms: C_13  and  N_14 
REMARK    5  A    between atoms: N_14  and  C_15 
ROOT
HETATM    1  C   UNL     1       0.294   8.859 -27.007  1.00  0.00     0.032 A 
HETATM    2  C   UNL     1       1.248   8.386 -27.913  1.00  0.00     0.019 A 
HETATM    3  C   UNL     1       0.848   7.630 -29.024  1.00  0.00     0.030 A 
HETATM    4  C   UNL     1      -0.501   7.334 -29.237  1.00  0.00     0.036 A 
HETATM    5  C   UNL     1      -1.454   7.852 -28.353  1.00  0.00     0.030 A 
HETATM    6  C   UNL     1      -1.062   8.611 -27.248  1.00  0.00     0.019 A 
ENDROOT
BRANCH   4   7
HETATM    7  N   UNL     1      -0.976   6.536 -30.298  1.00  0.00    -0.309 N 
HETATM    8  C   UNL     1      -0.553   5.286 -30.659  1.00  0.00     0.325 C 
HETATM    9  N   UNL     1      -1.163   4.726 -31.751  1.00  0.00    -0.306 N 
HETATM   10  O   UNL     1       0.271   4.604 -30.053  1.00  0.00    -0.247 OA
HETATM   11  H   UNL     1      -0.963   3.737 -31.841  1.00  0.00     0.171 HD
HETATM   12  H   UNL     1      -1.868   6.809 -30.680  1.00  0.00     0.170 HD
BRANCH   9  13
HETATM   13  C   UNL     1      -1.909   5.303 -32.759  1.00  0.00     0.072 A 
HETATM   14  C   UNL     1      -3.284   5.593 -32.894  1.00  0.00     0.169 A 
HETATM   15  N   UNL     1      -3.576   6.155 -34.071  1.00  0.00    -0.185 NA
HETATM   16  N   UNL     1      -2.382   6.271 -34.671  1.00  0.00    -0.287 N 
HETATM   17  H   UNL     1      -2.345   6.690 -35.595  1.00  0.00     0.188 HD
HETATM   18  C   UNL     1      -1.350   5.790 -33.918  1.00  0.00     0.140 A 
ENDBRANCH   9  13
ENDBRANCH   4   7
BRANCH   1  19
HETATM   19  C   UNL     1       0.658   9.610 -25.774  1.00  0.00     0.251 C 
HETATM   20  N   UNL     1       1.947  10.086 -25.704  1.00  0.00    -0.353 N 
HETATM   21  H   UNL     1       2.600   9.934 -26.459  1.00  0.00     0.163 HD
HETATM   22  O   UNL     1      -0.154   9.727 -24.863  1.00  0.00    -0.268 OA
BRANCH  20  23
HETATM   23  C   UNL     1       2.437  10.709 -24.494  1.00  0.00     0.161 C 
BRANCH  23  24
HETATM   24  C   UNL     1       3.222   9.751 -23.635  1.00  0.00    -0.041 A 
HETATM   25  C   UNL     1       2.596   9.076 -22.576  1.00  0.00     0.009 A 
HETATM   26  C   UNL     1       3.306   8.158 -21.800  1.00  0.00     0.001 A 
HETATM   27  C   UNL     1       4.648   7.901 -22.074  1.00  0.00     0.000 A 
HETATM   28  C   UNL     1       5.279   8.554 -23.130  1.00  0.00     0.001 A 
HETATM   29  C   UNL     1       4.568   9.466 -23.913  1.00  0.00     0.009 A 
ENDBRANCH  23  24
ENDBRANCH  20  23
ENDBRANCH   1  19
TORSDOF 5
ENDMDL
MODEL 5
REMARK VINA RESULT:      -7.5      5.617      9.037
REMARK  5 active torsions:
REMARK  status: ('A' for Active; 'I' for Inactive)
REMARK    1  A    between atoms: C_4  and  C_5 
REMARK    2  A    between atoms: C_5  and  N_6 
REMARK       I    between atoms: N_6  and  C_7 
REMARK    3  A    between atoms: C_7  and  C_8 
REMARK    4  A    between atoms: C_11  and  N_12 
REMARK       I    between atoms: N_12  and  C_13 
REMARK       I    between atoms: C_13  and  N_14 
REMARK    5  A    between atoms: N_14  and  C_15 
ROOT
HETATM    1  C   UNL     1      -8.804   1.897 -33.514  1.00  0.00     0.032 A 
HETATM    2  C   UNL     1      -7.478   2.245 -33.238  1.00  0.00     0.019 A 
HETATM    3  C   UNL     1      -6.480   1.261 -33.232  1.00  0.00     0.030 A 
HETATM    4  C   UNL     1      -6.794  -0.075 -33.492  1.00  0.00     0.036 A 
HETATM    5  C   UNL     1      -8.115  -0.409 -33.815  1.00  0.00     0.030 A 
HETATM    6  C   UNL     1      -9.112   0.569 -33.830  1.00  0.00     0.019 A 
ENDROOT
BRANCH   4   7
HETATM    7  N   UNL     1      -5.858  -1.129 -33.451  1.00  0.00    -0.309 N 
HETATM    8  C   UNL     1      -4.498  -1.036 -33.326  1.00  0.00     0.325 C 
HETATM    9  N   UNL     1      -3.801  -2.216 -33.335  1.00  0.00    -0.306 N 
HETATM   10  O   UNL     1      -3.864   0.001 -33.141  1.00  0.00    -0.247 OA
HETATM   11  H   UNL     1      -2.842  -2.100 -33.032  1.00  0.00     0.171 HD
HETATM   12  H   UNL     1      -6.240  -2.042 -33.256  1.00  0.00     0.170 HD
BRANCH   9  13
HETATM   13  C   UNL     1      -4.171  -3.475 -33.761  1.00  0.00     0.072 A 
HETATM   14  C   UNL     1      -5.165  -3.938 -34.652  1.00  0.00     0.169 A 
HETATM   15  N   UNL     1      -5.177  -5.269 -34.760  1.00  0.00    -0.185 NA
HETATM   16  N   UNL     1      -4.159  -5.659 -33.977  1.00  0.00    -0.287 N 
HETATM   17  H   UNL     1      -3.958  -6.652 -33.905  1.00  0.00     0.188 HD
HETATM   18  C   UNL     1      -3.515  -4.620 -33.371  1.00  0.00     0.140 A 
ENDBRANCH   9  13
ENDBRANCH   4   7
BRANCH   1  19
HETATM   19  C   UNL     1      -9.919   2.882 -33.473  1.00  0.00     0.251 C 
HETATM   20  N   UNL     1     -10.834   2.730 -32.456  1.00  0.00    -0.353 N 
HETATM   21  H   UNL     1     -10.739   1.991 -31.776  1.00  0.00     0.163 HD
HETATM   22  O   UNL     1     -10.021   3.732 -34.349  1.00  0.00    -0.268 OA
BRANCH  20  23
HETATM   23  C   UNL     1     -12.024   3.551 -32.408  1.00  0.00     0.161 C 
BRANCH  23  24
HETATM   24  C   UNL     1     -13.263   2.784 -32.799  1.00  0.00    -0.041 A 
HETATM   25  C   UNL     1     -13.248   1.940 -33.919  1.00  0.00     0.009 A 
HETATM   26  C   UNL     1     -14.378   1.197 -34.265  1.00  0.00     0.001 A 
HETATM   27  C   UNL     1     -15.536   1.287 -33.495  1.00  0.00     0.000 A 
HETATM   28  C   UNL     1     -15.562   2.112 -32.373  1.00  0.00     0.001 A 
HETATM   29  C   UNL     1     -14.429   2.848 -32.020  1.00  0.00     0.009 A 
ENDBRANCH  23  24
ENDBRANCH  20  23
ENDBRANCH   1  19
TORSDOF 5
ENDMDL
MODEL 6
REMARK VINA RESULT:      -7.4     16.283     19.873
REMARK  5 active torsions:
REMARK  status: ('A' for Active; 'I' for Inactive)
REMARK    1  A    between atoms: C_4  and  C_5 
REMARK    2  A    between atoms: C_5  and  N_6 
REMARK       I    between atoms: N_6  and  C_7 
REMARK    3  A    between atoms: C_7  and  C_8 
REMARK    4  A    between atoms: C_11  and  N_12 
REMARK       I    between atoms: N_12  and  C_13 
REMARK       I    between atoms: C_13  and  N_14 
REMARK    5  A    between atoms: N_14  and  C_15 
ROOT
HETATM    1  C   UNL     1      -5.621 -12.703 -38.807  1.00  0.00     0.032 A 
HETATM    2  C   UNL     1      -5.970 -12.201 -40.065  1.00  0.00     0.019 A 
HETATM    3  C   UNL     1      -7.185 -12.571 -40.657  1.00  0.00     0.030 A 
HETATM    4  C   UNL     1      -8.057 -13.449 -40.007  1.00  0.00     0.036 A 
HETATM    5  C   UNL     1      -7.723 -13.909 -38.728  1.00  0.00     0.030 A 
HETATM    6  C   UNL     1      -6.516 -13.538 -38.131  1.00  0.00     0.019 A 
ENDROOT
BRANCH   4   7
HETATM    7  N   UNL     1      -9.269 -13.910 -40.560  1.00  0.00    -0.309 N 
HETATM    8  C   UNL     1     -10.495 -13.303 -40.513  1.00  0.00     0.325 C 
HETATM    9  N   UNL     1     -11.531 -13.972 -41.111  1.00  0.00    -0.306 N 
HETATM   10  O   UNL     1     -10.727 -12.191 -40.045  1.00  0.00    -0.247 OA
HETATM   11  H   UNL     1     -12.351 -13.388 -41.229  1.00  0.00     0.171 HD
HETATM   12  H   UNL     1      -9.181 -14.635 -41.255  1.00  0.00     0.170 HD
BRANCH   9  13
HETATM   13  C   UNL     1     -11.651 -15.295 -41.485  1.00  0.00     0.072 A 
HETATM   14  C   UNL     1     -11.042 -16.484 -41.028  1.00  0.00     0.169 A 
HETATM   15  N   UNL     1     -11.454 -17.562 -41.700  1.00  0.00    -0.185 NA
HETATM   16  N   UNL     1     -12.366 -17.072 -42.555  1.00  0.00    -0.287 N 
HETATM   17  H   UNL     1     -12.839 -17.719 -43.179  1.00  0.00     0.188 HD
HETATM   18  C   UNL     1     -12.532 -15.722 -42.452  1.00  0.00     0.140 A 
ENDBRANCH   9  13
ENDBRANCH   4   7
BRANCH   1  19
HETATM   19  C   UNL     1      -4.318 -12.401 -38.154  1.00  0.00     0.251 C 
HETATM   20  N   UNL     1      -3.242 -12.209 -38.989  1.00  0.00    -0.353 N 
HETATM   21  H   UNL     1      -3.345 -12.265 -39.992  1.00  0.00     0.163 HD
HETATM   22  O   UNL     1      -4.231 -12.391 -36.931  1.00  0.00    -0.268 OA
BRANCH  20  23
HETATM   23  C   UNL     1      -1.910 -12.044 -38.449  1.00  0.00     0.161 C 
BRANCH  23  24
HETATM   24  C   UNL     1      -1.056 -13.271 -38.649  1.00  0.00    -0.041 A 
HETATM   25  C   UNL     1      -0.709 -14.076 -37.554  1.00  0.00     0.009 A 
HETATM   26  C   UNL     1       0.048 -15.235 -37.736  1.00  0.00     0.001 A 
HETATM   27  C   UNL     1       0.466 -15.604 -39.013  1.00  0.00     0.000 A 
HETATM   28  C   UNL     1       0.119 -14.821 -40.111  1.00  0.00     0.001 A 
HETATM   29  C   UNL     1      -0.647 -13.667 -39.932  1.00  0.00     0.009 A 
ENDBRANCH  23  24
ENDBRANCH  20  23
ENDBRANCH   1  19
TORSDOF 5
ENDMDL
MODEL 7
REMARK VINA RESULT:      -7.4      2.230      2.793
REMARK  5 active torsions:
REMARK  status: ('A' for Active; 'I' for Inactive)
REMARK    1  A    between atoms: C_4  and  C_5 
REMARK    2  A    between atoms: C_5  and  N_6 
REMARK       I    between atoms: N_6  and  C_7 
REMARK    3  A    between atoms: C_7  and  C_8 
REMARK    4  A    between atoms: C_11  and  N_12 
REMARK       I    between atoms: N_12  and  C_13 
REMARK       I    between atoms: C_13  and  N_14 
REMARK    5  A    between atoms: N_14  and  C_15 
ROOT
HETATM    1  C   UNL     1      -5.994   1.479 -32.293  1.00  0.00     0.032 A 
HETATM    2  C   UNL     1      -4.756   1.430 -31.644  1.00  0.00     0.019 A 
HETATM    3  C   UNL     1      -4.214   2.591 -31.076  1.00  0.00     0.030 A 
HETATM    4  C   UNL     1      -4.895   3.808 -31.154  1.00  0.00     0.036 A 
HETATM    5  C   UNL     1      -6.155   3.840 -31.762  1.00  0.00     0.030 A 
HETATM    6  C   UNL     1      -6.703   2.685 -32.325  1.00  0.00     0.019 A 
ENDROOT
BRANCH   4   7
HETATM    7  N   UNL     1      -4.392   5.028 -30.656  1.00  0.00    -0.309 N 
HETATM    8  C   UNL     1      -4.822   5.725 -29.559  1.00  0.00     0.325 C 
HETATM    9  N   UNL     1      -4.179   6.906 -29.294  1.00  0.00    -0.306 N 
HETATM   10  O   UNL     1      -5.680   5.350 -28.763  1.00  0.00    -0.247 OA
HETATM   11  H   UNL     1      -4.392   7.263 -28.371  1.00  0.00     0.171 HD
HETATM   12  H   UNL     1      -3.480   5.293 -30.996  1.00  0.00     0.170 HD
BRANCH   9  13
HETATM   13  C   UNL     1      -3.383   7.696 -30.099  1.00  0.00     0.072 A 
HETATM   14  C   UNL     1      -3.655   8.806 -30.929  1.00  0.00     0.169 A 
HETATM   15  N   UNL     1      -2.562   9.262 -31.548  1.00  0.00    -0.185 NA
HETATM   16  N   UNL     1      -1.581   8.477 -31.077  1.00  0.00    -0.287 N 
HETATM   17  H   UNL     1      -0.633   8.643 -31.401  1.00  0.00     0.188 HD
HETATM   18  C   UNL     1      -2.020   7.535 -30.193  1.00  0.00     0.140 A 
ENDBRANCH   9  13
ENDBRANCH   4   7
BRANCH   1  19
HETATM   19  C   UNL     1      -6.593   0.299 -32.973  1.00  0.00     0.251 C 
HETATM   20  N   UNL     1      -6.024  -0.075 -34.169  1.00  0.00    -0.353 N 
HETATM   21  H   UNL     1      -5.237   0.429 -34.551  1.00  0.00     0.163 HD
HETATM   22  O   UNL     1      -7.580  -0.250 -32.496  1.00  0.00    -0.268 OA
BRANCH  20  23
HETATM   23  C   UNL     1      -6.617  -1.122 -34.971  1.00  0.00     0.161 C 
BRANCH  23  24
HETATM   24  C   UNL     1      -5.942  -2.454 -34.760  1.00  0.00    -0.041 A 
HETATM   25  C   UNL     1      -4.645  -2.513 -34.228  1.00  0.00     0.009 A 
HETATM   26  C   UNL     1      -4.029  -3.744 -33.993  1.00  0.00     0.001 A 
HETATM   27  C   UNL     1      -4.699  -4.929 -34.286  1.00  0.00     0.000 A 
HETATM   28  C   UNL     1      -5.992  -4.887 -34.804  1.00  0.00     0.001 A 
HETATM   29  C   UNL     1      -6.614  -3.657 -35.030  1.00  0.00     0.009 A 
ENDBRANCH  23  24
ENDBRANCH  20  23
ENDBRANCH   1  19
TORSDOF 5
ENDMDL
MODEL 8
REMARK VINA RESULT:      -7.3      3.133      4.530
REMARK  5 active torsions:
REMARK  status: ('A' for Active; 'I' for Inactive)
REMARK    1  A    between atoms: C_4  and  C_5 
REMARK    2  A    between atoms: C_5  and  N_6 
REMARK       I    between atoms: N_6  and  C_7 
REMARK    3  A    between atoms: C_7  and  C_8 
REMARK    4  A    between atoms: C_11  and  N_12 
REMARK       I    between atoms: N_12  and  C_13 
REMARK       I    between atoms: C_13  and  N_14 
REMARK    5  A    between atoms: N_14  and  C_15 
ROOT
HETATM    1  C   UNL     1      -6.179   1.947 -31.796  1.00  0.00     0.032 A 
HETATM    2  C   UNL     1      -6.325   3.336 -31.716  1.00  0.00     0.019 A 
HETATM    3  C   UNL     1      -5.199   4.153 -31.550  1.00  0.00     0.030 A 
HETATM    4  C   UNL     1      -3.921   3.595 -31.454  1.00  0.00     0.036 A 
HETATM    5  C   UNL     1      -3.777   2.209 -31.584  1.00  0.00     0.030 A 
HETATM    6  C   UNL     1      -4.896   1.390 -31.756  1.00  0.00     0.019 A 
ENDROOT
BRANCH   4   7
HETATM    7  N   UNL     1      -2.747   4.344 -31.232  1.00  0.00    -0.309 N 
HETATM    8  C   UNL     1      -1.816   4.733 -32.157  1.00  0.00     0.325 C 
HETATM    9  N   UNL     1      -0.742   5.441 -31.682  1.00  0.00    -0.306 N 
HETATM   10  O   UNL     1      -1.895   4.562 -33.371  1.00  0.00    -0.247 OA
HETATM   11  H   UNL     1      -0.207   5.875 -32.424  1.00  0.00     0.171 HD
HETATM   12  H   UNL     1      -2.709   4.842 -30.356  1.00  0.00     0.170 HD
BRANCH   9  13
HETATM   13  C   UNL     1      -0.248   5.573 -30.400  1.00  0.00     0.072 A 
HETATM   14  C   UNL     1      -0.520   6.479 -29.352  1.00  0.00     0.169 A 
HETATM   15  N   UNL     1       0.217   6.240 -28.263  1.00  0.00    -0.185 NA
HETATM   16  N   UNL     1       0.926   5.149 -28.595  1.00  0.00    -0.287 N 
HETATM   17  H   UNL     1       1.566   4.762 -27.908  1.00  0.00     0.188 HD
HETATM   18  C   UNL     1       0.669   4.703 -29.859  1.00  0.00     0.140 A 
ENDBRANCH   9  13
ENDBRANCH   4   7
BRANCH   1  19
HETATM   19  C   UNL     1      -7.339   1.021 -31.907  1.00  0.00     0.251 C 
HETATM   20  N   UNL     1      -8.378   1.432 -32.711  1.00  0.00    -0.353 N 
HETATM   21  H   UNL     1      -8.340   2.314 -33.201  1.00  0.00     0.163 HD
HETATM   22  O   UNL     1      -7.362  -0.016 -31.255  1.00  0.00    -0.268 OA
BRANCH  20  23
HETATM   23  C   UNL     1      -9.604   0.668 -32.777  1.00  0.00     0.161 C 
BRANCH  23  24
HETATM   24  C   UNL     1     -10.639   1.324 -33.656  1.00  0.00    -0.041 A 
HETATM   25  C   UNL     1     -11.914   0.755 -33.792  1.00  0.00     0.009 A 
HETATM   26  C   UNL     1     -12.890   1.377 -34.572  1.00  0.00     0.001 A 
HETATM   27  C   UNL     1     -12.605   2.574 -35.226  1.00  0.00     0.000 A 
HETATM   28  C   UNL     1     -11.347   3.157 -35.091  1.00  0.00     0.001 A 
HETATM   29  C   UNL     1     -10.373   2.541 -34.302  1.00  0.00     0.009 A 
ENDBRANCH  23  24
ENDBRANCH  20  23
ENDBRANCH   1  19
TORSDOF 5
ENDMDL
MODEL 9
REMARK VINA RESULT:      -7.2      4.037      9.930
REMARK  5 active torsions:
REMARK  status: ('A' for Active; 'I' for Inactive)
REMARK    1  A    between atoms: C_4  and  C_5 
REMARK    2  A    between atoms: C_5  and  N_6 
REMARK       I    between atoms: N_6  and  C_7 
REMARK    3  A    between atoms: C_7  and  C_8 
REMARK    4  A    between atoms: C_11  and  N_12 
REMARK       I    between atoms: N_12  and  C_13 
REMARK       I    between atoms: C_13  and  N_14 
REMARK    5  A    between atoms: N_14  and  C_15 
ROOT
HETATM    1  C   UNL     1      -5.193   2.654 -32.242  1.00  0.00     0.032 A 
HETATM    2  C   UNL     1      -6.057   2.550 -31.148  1.00  0.00     0.019 A 
HETATM    3  C   UNL     1      -7.419   2.289 -31.350  1.00  0.00     0.030 A 
HETATM    4  C   UNL     1      -7.932   2.137 -32.642  1.00  0.00     0.036 A 
HETATM    5  C   UNL     1      -7.052   2.193 -33.729  1.00  0.00     0.030 A 
HETATM    6  C   UNL     1      -5.693   2.447 -33.533  1.00  0.00     0.019 A 
ENDROOT
BRANCH   4   7
HETATM    7  N   UNL     1      -9.296   1.927 -32.930  1.00  0.00    -0.309 N 
HETATM    8  C   UNL     1     -10.022   0.780 -32.751  1.00  0.00     0.325 C 
HETATM    9  N   UNL     1     -11.338   0.824 -33.134  1.00  0.00    -0.306 N 
HETATM   10  O   UNL     1      -9.615  -0.251 -32.220  1.00  0.00    -0.247 OA
HETATM   11  H   UNL     1     -11.867   0.033 -32.789  1.00  0.00     0.171 HD
HETATM   12  H   UNL     1      -9.846   2.762 -33.056  1.00  0.00     0.170 HD
BRANCH   9  13
HETATM   13  C   UNL     1     -12.005   1.705 -33.960  1.00  0.00     0.072 A 
HETATM   14  C   UNL     1     -12.154   1.787 -35.362  1.00  0.00     0.169 A 
HETATM   15  N   UNL     1     -12.890   2.836 -35.739  1.00  0.00    -0.185 NA
HETATM   16  N   UNL     1     -13.256   3.399 -34.577  1.00  0.00    -0.287 N 
HETATM   17  H   UNL     1     -13.845   4.226 -34.606  1.00  0.00     0.188 HD
HETATM   18  C   UNL     1     -12.765   2.748 -33.483  1.00  0.00     0.140 A 
ENDBRANCH   9  13
ENDBRANCH   4   7
BRANCH   1  19
HETATM   19  C   UNL     1      -3.750   2.994 -32.099  1.00  0.00     0.251 C 
HETATM   20  N   UNL     1      -3.314   4.113 -32.769  1.00  0.00    -0.353 N 
HETATM   21  H   UNL     1      -3.950   4.671 -33.320  1.00  0.00     0.163 HD
HETATM   22  O   UNL     1      -3.007   2.258 -31.460  1.00  0.00    -0.268 OA
BRANCH  20  23
HETATM   23  C   UNL     1      -1.908   4.450 -32.802  1.00  0.00     0.161 C 
BRANCH  23  24
HETATM   24  C   UNL     1      -1.556   5.532 -31.812  1.00  0.00    -0.041 A 
HETATM   25  C   UNL     1      -2.559   6.138 -31.041  1.00  0.00     0.009 A 
HETATM   26  C   UNL     1      -2.237   7.111 -30.093  1.00  0.00     0.001 A 
HETATM   27  C   UNL     1      -0.910   7.490 -29.904  1.00  0.00     0.000 A 
HETATM   28  C   UNL     1       0.099   6.889 -30.653  1.00  0.00     0.001 A 
HETATM   29  C   UNL     1      -0.221   5.907 -31.594  1.00  0.00     0.009 A 
ENDBRANCH  23  24
ENDBRANCH  20  23
ENDBRANCH   1  19
TORSDOF 5
ENDMDL
MODEL 10
REMARK VINA RESULT:      -7.1      5.528     12.524
REMARK  5 active torsions:
REMARK  status: ('A' for Active; 'I' for Inactive)
REMARK    1  A    between atoms: C_4  and  C_5 
REMARK    2  A    between atoms: C_5  and  N_6 
REMARK       I    between atoms: N_6  and  C_7 
REMARK    3  A    between atoms: C_7  and  C_8 
REMARK    4  A    between atoms: C_11  and  N_12 
REMARK       I    between atoms: N_12  and  C_13 
REMARK       I    between atoms: C_13  and  N_14 
REMARK    5  A    between atoms: N_14  and  C_15 
ROOT
HETATM    1  C   UNL     1       0.516   9.515 -27.165  1.00  0.00     0.032 A 
HETATM    2  C   UNL     1       1.309   8.594 -27.857  1.00  0.00     0.019 A 
HETATM    3  C   UNL     1       0.762   7.842 -28.905  1.00  0.00     0.030 A 
HETATM    4  C   UNL     1      -0.579   7.995 -29.268  1.00  0.00     0.036 A 
HETATM    5  C   UNL     1      -1.354   8.953 -28.604  1.00  0.00     0.030 A 
HETATM    6  C   UNL     1      -0.812   9.710 -27.563  1.00  0.00     0.019 A 
ENDROOT
BRANCH   4   7
HETATM    7  N   UNL     1      -1.216   7.238 -30.273  1.00  0.00    -0.309 N 
HETATM    8  C   UNL     1      -1.828   7.700 -31.407  1.00  0.00     0.325 C 
HETATM    9  N   UNL     1      -2.398   6.757 -32.221  1.00  0.00    -0.306 N 
HETATM   10  O   UNL     1      -1.848   8.869 -31.785  1.00  0.00    -0.247 OA
HETATM   11  H   UNL     1      -2.644   7.129 -33.130  1.00  0.00     0.171 HD
HETATM   12  H   UNL     1      -0.996   6.254 -30.280  1.00  0.00     0.170 HD
BRANCH   9  13
HETATM   13  C   UNL     1      -2.755   5.448 -31.968  1.00  0.00     0.072 A 
HETATM   14  C   UNL     1      -2.206   4.207 -32.358  1.00  0.00     0.169 A 
HETATM   15  N   UNL     1      -2.899   3.167 -31.884  1.00  0.00    -0.185 NA
HETATM   16  N   UNL     1      -3.864   3.741 -31.148  1.00  0.00    -0.287 N 
HETATM   17  H   UNL     1      -4.525   3.139 -30.666  1.00  0.00     0.188 HD
HETATM   18  C   UNL     1      -3.809   5.104 -31.153  1.00  0.00     0.140 A 
ENDBRANCH   9  13
ENDBRANCH   4   7
BRANCH   1  19
HETATM   19  C   UNL     1       1.018  10.296 -26.002  1.00  0.00     0.251 C 
HETATM   20  N   UNL     1       2.249   9.934 -25.505  1.00  0.00    -0.353 N 
HETATM   21  H   UNL     1       2.778   9.182 -25.922  1.00  0.00     0.163 HD
HETATM   22  O   UNL     1       0.319  11.168 -25.499  1.00  0.00    -0.268 OA
BRANCH  20  23
HETATM   23  C   UNL     1       2.763  10.541 -24.297  1.00  0.00     0.161 C 
BRANCH  23  24
HETATM   24  C   UNL     1       3.543   9.563 -23.454  1.00  0.00    -0.041 A 
HETATM   25  C   UNL     1       4.919   9.391 -23.663  1.00  0.00     0.009 A 
HETATM   26  C   UNL     1       5.655   8.517 -22.860  1.00  0.00     0.001 A 
HETATM   27  C   UNL     1       5.027   7.807 -21.840  1.00  0.00     0.000 A 
HETATM   28  C   UNL     1       3.663   7.977 -21.613  1.00  0.00     0.001 A 
HETATM   29  C   UNL     1       2.927   8.858 -22.408  1.00  0.00     0.009 A 
ENDBRANCH  23  24
ENDBRANCH  20  23
ENDBRANCH   1  19
TORSDOF 5
ENDMDL
