MODEL 1
REMARK VINA RESULT:      -7.6      0.000      0.000
REMARK  3 active torsions:
REMARK  status: ('A' for Active; 'I' for Inactive)
REMARK    1  A    between atoms: N_6  and  C_7 
REMARK    2  A    between atoms: C_10  and  S_11 
REMARK    3  A    between atoms: S_11  and  N_12 
ROOT
HETATM    1  C   UNL     1     -10.866   1.769 -34.121  1.00  0.00     0.030 A 
HETATM    2  C   UNL     1      -9.778   2.647 -34.273  1.00  0.00     0.031 A 
HETATM    3  C   UNL     1      -8.521   2.378 -33.710  1.00  0.00     0.027 A 
HETATM    4  C   UNL     1      -8.336   1.229 -32.948  1.00  0.00     0.079 A 
HETATM    5  C   UNL     1      -9.394   0.346 -32.755  1.00  0.00     0.027 A 
HETATM    6  C   UNL     1     -10.643   0.632 -33.320  1.00  0.00     0.031 A 
ENDROOT
BRANCH   4   7
HETATM    7  S   UNL     1      -6.719   0.825 -32.322  1.00  0.00     0.260 S 
HETATM    8  O   UNL     1      -6.038   2.081 -32.092  1.00  0.00    -0.200 OA
HETATM    9  O   UNL     1      -6.916  -0.122 -31.245  1.00  0.00    -0.200 OA
BRANCH   7  10
HETATM   10  N   UNL     1      -5.988   0.035 -33.612  1.00  0.00    -0.307 N 
HETATM   11  C   UNL     1      -4.598  -0.445 -33.514  1.00  0.00     0.135 C 
HETATM   12  C   UNL     1      -4.545  -1.966 -33.434  1.00  0.00     0.021 C 
HETATM   13  C   UNL     1      -5.317  -2.610 -34.580  1.00  0.00     0.003 C 
HETATM   14  C   UNL     1      -6.752  -2.096 -34.612  1.00  0.00     0.021 C 
HETATM   15  C   UNL     1      -6.800  -0.574 -34.681  1.00  0.00     0.135 C 
ENDBRANCH   7  10
ENDBRANCH   4   7
BRANCH   1  16
HETATM   16  N   UNL     1     -12.124   2.000 -34.690  1.00  0.00    -0.378 N 
HETATM   17  C   UNL     1     -12.707   3.353 -34.523  1.00  0.00     0.150 C 
HETATM   18  C   UNL     1     -13.549   3.423 -33.231  1.00  0.00     0.254 C 
HETATM   19  N   UNL     1     -14.631   2.339 -33.242  1.00  0.00    -0.072 N 
HETATM   20  C   UNL     1     -15.493   2.397 -32.017  1.00  0.00     0.269 C 
HETATM   21  H   UNL     1     -15.233   2.526 -34.054  1.00  0.00     0.279 HD
HETATM   22  C   UNL     1     -14.018   0.951 -33.448  1.00  0.00     0.254 C 
HETATM   23  C   UNL     1     -13.142   0.929 -34.721  1.00  0.00     0.150 C 
ENDBRANCH   1  16
TORSDOF 3
ENDMDL
MODEL 2
REMARK VINA RESULT:      -7.3      5.085      7.885
REMARK  3 active torsions:
REMARK  status: ('A' for Active; 'I' for Inactive)
REMARK    1  A    between atoms: N_6  and  C_7 
REMARK    2  A    between atoms: C_10  and  S_11 
REMARK    3  A    between atoms: S_11  and  N_12 
ROOT
HETATM    1  C   UNL     1      -3.751   4.081 -32.737  1.00  0.00     0.030 A 
HETATM    2  C   UNL     1      -3.316   3.041 -31.898  1.00  0.00     0.031 A 
HETATM    3  C   UNL     1      -4.037   1.846 -31.758  1.00  0.00     0.027 A 
HETATM    4  C   UNL     1      -5.240   1.680 -32.438  1.00  0.00     0.079 A 
HETATM    5  C   UNL     1      -5.717   2.696 -33.261  1.00  0.00     0.027 A 
HETATM    6  C   UNL     1      -4.987   3.884 -33.385  1.00  0.00     0.031 A 
ENDROOT
BRANCH   4   7
HETATM    7  S   UNL     1      -6.106   0.127 -32.354  1.00  0.00     0.260 S 
HETATM    8  O   UNL     1      -5.590  -0.571 -31.196  1.00  0.00    -0.200 OA
HETATM    9  O   UNL     1      -7.516   0.432 -32.472  1.00  0.00    -0.200 OA
BRANCH   7  10
HETATM   10  N   UNL     1      -5.605  -0.675 -33.743  1.00  0.00    -0.307 N 
HETATM   11  C   UNL     1      -4.274  -1.301 -33.814  1.00  0.00     0.135 C 
HETATM   12  C   UNL     1      -4.379  -2.822 -33.794  1.00  0.00     0.021 C 
HETATM   13  C   UNL     1      -5.333  -3.327 -34.870  1.00  0.00     0.003 C 
HETATM   14  C   UNL     1      -6.699  -2.665 -34.727  1.00  0.00     0.021 C 
HETATM   15  C   UNL     1      -6.587  -1.145 -34.737  1.00  0.00     0.135 C 
ENDBRANCH   7  10
ENDBRANCH   4   7
BRANCH   1  16
HETATM   16  N   UNL     1      -3.042   5.275 -32.913  1.00  0.00    -0.378 N 
HETATM   17  C   UNL     1      -1.593   5.166 -33.208  1.00  0.00     0.150 C 
HETATM   18  C   UNL     1      -0.774   5.159 -31.898  1.00  0.00     0.254 C 
HETATM   19  N   UNL     1      -1.091   6.407 -31.067  1.00  0.00    -0.072 N 
HETATM   20  C   UNL     1      -0.289   6.453 -29.802  1.00  0.00     0.269 C 
HETATM   21  H   UNL     1      -0.822   7.220 -31.635  1.00  0.00     0.279 HD
HETATM   22  C   UNL     1      -2.594   6.523 -30.799  1.00  0.00     0.254 C 
HETATM   23  C   UNL     1      -3.386   6.477 -32.126  1.00  0.00     0.150 C 
ENDBRANCH   1  16
TORSDOF 3
ENDMDL
MODEL 3
REMARK VINA RESULT:      -7.2      6.518      8.755
REMARK  3 active torsions:
REMARK  status: ('A' for Active; 'I' for Inactive)
REMARK    1  A    between atoms: N_6  and  C_7 
REMARK    2  A    between atoms: C_10  and  S_11 
REMARK    3  A    between atoms: S_11  and  N_12 
ROOT
HETATM    1  C   UNL     1      -3.898   3.492 -31.623  1.00  0.00     0.030 A 
HETATM    2  C   UNL     1      -2.904   3.685 -32.598  1.00  0.00     0.031 A 
HETATM    3  C   UNL     1      -2.320   4.941 -32.827  1.00  0.00     0.027 A 
HETATM    4  C   UNL     1      -2.748   6.046 -32.098  1.00  0.00     0.079 A 
HETATM    5  C   UNL     1      -3.746   5.900 -31.139  1.00  0.00     0.027 A 
HETATM    6  C   UNL     1      -4.322   4.641 -30.927  1.00  0.00     0.031 A 
ENDROOT
BRANCH   4   7
HETATM    7  S   UNL     1      -1.938   7.618 -32.303  1.00  0.00     0.260 S 
HETATM    8  O   UNL     1      -1.355   7.613 -33.628  1.00  0.00    -0.200 OA
HETATM    9  O   UNL     1      -2.896   8.631 -31.916  1.00  0.00    -0.200 OA
BRANCH   7  10
HETATM   10  N   UNL     1      -0.704   7.573 -31.163  1.00  0.00    -0.307 N 
HETATM   11  C   UNL     1      -0.958   7.954 -29.763  1.00  0.00     0.135 C 
HETATM   12  C   UNL     1      -0.926   6.736 -28.847  1.00  0.00     0.021 C 
HETATM   13  C   UNL     1       0.362   5.940 -29.024  1.00  0.00     0.003 C 
HETATM   14  C   UNL     1       0.553   5.551 -30.485  1.00  0.00     0.021 C 
HETATM   15  C   UNL     1       0.510   6.771 -31.399  1.00  0.00     0.135 C 
ENDBRANCH   7  10
ENDBRANCH   4   7
BRANCH   1  16
HETATM   16  N   UNL     1      -4.482   2.248 -31.358  1.00  0.00    -0.378 N 
HETATM   17  C   UNL     1      -4.584   1.292 -32.486  1.00  0.00     0.150 C 
HETATM   18  C   UNL     1      -5.919   1.483 -33.239  1.00  0.00     0.254 C 
HETATM   19  N   UNL     1      -7.099   1.345 -32.271  1.00  0.00    -0.072 N 
HETATM   20  C   UNL     1      -8.416   1.492 -32.972  1.00  0.00     0.269 C 
HETATM   21  H   UNL     1      -7.057   0.394 -31.883  1.00  0.00     0.279 HD
HETATM   22  C   UNL     1      -6.963   2.316 -31.094  1.00  0.00     0.254 C 
HETATM   23  C   UNL     1      -5.597   2.131 -30.396  1.00  0.00     0.150 C 
ENDBRANCH   1  16
TORSDOF 3
ENDMDL
MODEL 4
REMARK VINA RESULT:      -7.1      4.597      7.769
REMARK  3 active torsions:
REMARK  status: ('A' for Active; 'I' for Inactive)
REMARK    1  A    between atoms: N_6  and  C_7 
REMARK    2  A    between atoms: C_10  and  S_11 
REMARK    3  A    between atoms: S_11  and  N_12 
ROOT
HETATM    1  C   UNL     1      -4.065   3.739 -32.718  1.00  0.00     0.030 A 
HETATM    2  C   UNL     1      -4.573   3.116 -31.566  1.00  0.00     0.031 A 
HETATM    3  C   UNL     1      -5.911   2.700 -31.473  1.00  0.00     0.027 A 
HETATM    4  C   UNL     1      -6.783   2.934 -32.532  1.00  0.00     0.079 A 
HETATM    5  C   UNL     1      -6.323   3.569 -33.681  1.00  0.00     0.027 A 
HETATM    6  C   UNL     1      -4.987   3.981 -33.756  1.00  0.00     0.031 A 
ENDROOT
BRANCH   4   7
HETATM    7  S   UNL     1      -8.450   2.313 -32.467  1.00  0.00     0.260 S 
HETATM    8  O   UNL     1      -8.778   2.153 -31.066  1.00  0.00    -0.200 OA
HETATM    9  O   UNL     1      -9.244   3.170 -33.323  1.00  0.00    -0.200 OA
BRANCH   7  10
HETATM   10  N   UNL     1      -8.329   0.796 -33.178  1.00  0.00    -0.307 N 
HETATM   11  C   UNL     1      -8.596   0.613 -34.616  1.00  0.00     0.135 C 
HETATM   12  C   UNL     1      -7.310   0.324 -35.382  1.00  0.00     0.021 C 
HETATM   13  C   UNL     1      -6.545  -0.841 -34.765  1.00  0.00     0.003 C 
HETATM   14  C   UNL     1      -6.275  -0.581 -33.288  1.00  0.00     0.021 C 
HETATM   15  C   UNL     1      -7.563  -0.282 -32.528  1.00  0.00     0.135 C 
ENDBRANCH   7  10
ENDBRANCH   4   7
BRANCH   1  16
HETATM   16  N   UNL     1      -2.731   4.144 -32.848  1.00  0.00    -0.378 N 
HETATM   17  C   UNL     1      -1.996   4.467 -31.602  1.00  0.00     0.150 C 
HETATM   18  C   UNL     1      -2.159   5.962 -31.250  1.00  0.00     0.254 C 
HETATM   19  N   UNL     1      -1.700   6.837 -32.421  1.00  0.00    -0.072 N 
HETATM   20  C   UNL     1      -1.812   8.298 -32.104  1.00  0.00     0.269 C 
HETATM   21  H   UNL     1      -0.706   6.628 -32.578  1.00  0.00     0.279 HD
HETATM   22  C   UNL     1      -2.445   6.469 -33.708  1.00  0.00     0.254 C 
HETATM   23  C   UNL     1      -2.302   4.959 -34.003  1.00  0.00     0.150 C 
ENDBRANCH   1  16
TORSDOF 3
ENDMDL
MODEL 5
REMARK VINA RESULT:      -7.1      8.826     11.732
REMARK  3 active torsions:
REMARK  status: ('A' for Active; 'I' for Inactive)
REMARK    1  A    between atoms: N_6  and  C_7 
REMARK    2  A    between atoms: C_10  and  S_11 
REMARK    3  A    between atoms: S_11  and  N_12 
ROOT
HETATM    1  C   UNL     1       0.111   6.792 -29.663  1.00  0.00     0.030 A 
HETATM    2  C   UNL     1      -0.778   7.727 -30.218  1.00  0.00     0.031 A 
HETATM    3  C   UNL     1      -1.350   7.548 -31.487  1.00  0.00     0.027 A 
HETATM    4  C   UNL     1      -1.013   6.432 -32.246  1.00  0.00     0.079 A 
HETATM    5  C   UNL     1      -0.119   5.494 -31.741  1.00  0.00     0.027 A 
HETATM    6  C   UNL     1       0.447   5.691 -30.475  1.00  0.00     0.031 A 
ENDROOT
BRANCH   4   7
HETATM    7  S   UNL     1      -1.816   6.141 -33.809  1.00  0.00     0.260 S 
HETATM    8  O   UNL     1      -2.207   7.437 -34.321  1.00  0.00    -0.200 OA
HETATM    9  O   UNL     1      -0.940   5.274 -34.569  1.00  0.00    -0.200 OA
BRANCH   7  10
HETATM   10  N   UNL     1      -3.196   5.281 -33.383  1.00  0.00    -0.307 N 
HETATM   11  C   UNL     1      -3.118   3.849 -33.045  1.00  0.00     0.135 C 
HETATM   12  C   UNL     1      -3.342   3.623 -31.555  1.00  0.00     0.021 C 
HETATM   13  C   UNL     1      -4.635   4.277 -31.081  1.00  0.00     0.003 C 
HETATM   14  C   UNL     1      -4.643   5.760 -31.434  1.00  0.00     0.021 C 
HETATM   15  C   UNL     1      -4.408   5.982 -32.924  1.00  0.00     0.135 C 
ENDBRANCH   7  10
ENDBRANCH   4   7
BRANCH   1  16
HETATM   16  N   UNL     1       0.679   6.933 -28.391  1.00  0.00    -0.378 N 
HETATM   17  C   UNL     1       0.064   6.164 -27.284  1.00  0.00     0.150 C 
HETATM   18  C   UNL     1      -1.052   6.988 -26.607  1.00  0.00     0.254 C 
HETATM   19  N   UNL     1      -0.500   8.334 -26.123  1.00  0.00    -0.072 N 
HETATM   20  C   UNL     1      -1.548   9.151 -25.430  1.00  0.00     0.269 C 
HETATM   21  H   UNL     1       0.236   8.125 -25.437  1.00  0.00     0.279 HD
HETATM   22  C   UNL     1       0.162   9.102 -27.271  1.00  0.00     0.254 C 
HETATM   23  C   UNL     1       1.238   8.230 -27.957  1.00  0.00     0.150 C 
ENDBRANCH   1  16
TORSDOF 3
ENDMDL
MODEL 6
REMARK VINA RESULT:      -7.1      5.312      8.114
REMARK  3 active torsions:
REMARK  status: ('A' for Active; 'I' for Inactive)
REMARK    1  A    between atoms: N_6  and  C_7 
REMARK    2  A    between atoms: C_10  and  S_11 
REMARK    3  A    between atoms: S_11  and  N_12 
ROOT
HETATM    1  C   UNL     1      -5.287   1.880 -32.669  1.00  0.00     0.030 A 
HETATM    2  C   UNL     1      -3.971   1.883 -32.178  1.00  0.00     0.031 A 
HETATM    3  C   UNL     1      -3.116   2.984 -32.346  1.00  0.00     0.027 A 
HETATM    4  C   UNL     1      -3.559   4.102 -33.045  1.00  0.00     0.079 A 
HETATM    5  C   UNL     1      -4.848   4.129 -33.566  1.00  0.00     0.027 A 
HETATM    6  C   UNL     1      -5.686   3.021 -33.394  1.00  0.00     0.031 A 
ENDROOT
BRANCH   4   7
HETATM    7  S   UNL     1      -2.522   5.545 -33.167  1.00  0.00     0.260 S 
HETATM    8  O   UNL     1      -1.506   5.242 -34.153  1.00  0.00    -0.200 OA
HETATM    9  O   UNL     1      -3.407   6.678 -33.336  1.00  0.00    -0.200 OA
BRANCH   7  10
HETATM   10  N   UNL     1      -1.802   5.638 -31.652  1.00  0.00    -0.307 N 
HETATM   11  C   UNL     1      -0.380   5.302 -31.470  1.00  0.00     0.135 C 
HETATM   12  C   UNL     1       0.449   6.550 -31.190  1.00  0.00     0.021 C 
HETATM   13  C   UNL     1      -0.126   7.350 -30.027  1.00  0.00     0.003 C 
HETATM   14  C   UNL     1      -1.589   7.691 -30.286  1.00  0.00     0.021 C 
HETATM   15  C   UNL     1      -2.412   6.441 -30.576  1.00  0.00     0.135 C 
ENDBRANCH   7  10
ENDBRANCH   4   7
BRANCH   1  16
HETATM   16  N   UNL     1      -6.169   0.806 -32.498  1.00  0.00    -0.378 N 
HETATM   17  C   UNL     1      -5.639  -0.407 -31.830  1.00  0.00     0.150 C 
HETATM   18  C   UNL     1      -5.043  -1.380 -32.870  1.00  0.00     0.254 C 
HETATM   19  N   UNL     1      -6.091  -1.730 -33.932  1.00  0.00    -0.072 N 
HETATM   20  C   UNL     1      -5.560  -2.701 -34.943  1.00  0.00     0.269 C 
HETATM   21  H   UNL     1      -6.871  -2.187 -33.442  1.00  0.00     0.279 HD
HETATM   22  C   UNL     1      -6.653  -0.466 -34.589  1.00  0.00     0.254 C 
HETATM   23  C   UNL     1      -7.195   0.507 -33.518  1.00  0.00     0.150 C 
ENDBRANCH   1  16
TORSDOF 3
ENDMDL
MODEL 7
REMARK VINA RESULT:      -7.1      5.557      8.828
REMARK  3 active torsions:
REMARK  status: ('A' for Active; 'I' for Inactive)
REMARK    1  A    between atoms: N_6  and  C_7 
REMARK    2  A    between atoms: C_10  and  S_11 
REMARK    3  A    between atoms: S_11  and  N_12 
ROOT
HETATM    1  C   UNL     1      -2.912   4.945 -31.592  1.00  0.00     0.030 A 
HETATM    2  C   UNL     1      -4.177   5.062 -30.991  1.00  0.00     0.031 A 
HETATM    3  C   UNL     1      -5.124   4.027 -31.042  1.00  0.00     0.027 A 
HETATM    4  C   UNL     1      -4.830   2.855 -31.733  1.00  0.00     0.079 A 
HETATM    5  C   UNL     1      -3.597   2.710 -32.361  1.00  0.00     0.027 A 
HETATM    6  C   UNL     1      -2.666   3.755 -32.304  1.00  0.00     0.031 A 
ENDROOT
BRANCH   4   7
HETATM    7  S   UNL     1      -5.980   1.496 -31.711  1.00  0.00     0.260 S 
HETATM    8  O   UNL     1      -5.458   0.528 -30.770  1.00  0.00    -0.200 OA
HETATM    9  O   UNL     1      -7.297   2.070 -31.534  1.00  0.00    -0.200 OA
BRANCH   7  10
HETATM   10  N   UNL     1      -5.867   0.864 -33.264  1.00  0.00    -0.307 N 
HETATM   11  C   UNL     1      -5.337  -0.491 -33.490  1.00  0.00     0.135 C 
HETATM   12  C   UNL     1      -6.443  -1.451 -33.914  1.00  0.00     0.021 C 
HETATM   13  C   UNL     1      -7.223  -0.910 -35.106  1.00  0.00     0.003 C 
HETATM   14  C   UNL     1      -7.768   0.480 -34.801  1.00  0.00     0.021 C 
HETATM   15  C   UNL     1      -6.661   1.434 -34.368  1.00  0.00     0.135 C 
ENDBRANCH   7  10
ENDBRANCH   4   7
BRANCH   1  16
HETATM   16  N   UNL     1      -1.940   5.952 -31.538  1.00  0.00    -0.378 N 
HETATM   17  C   UNL     1      -0.522   5.531 -31.629  1.00  0.00     0.150 C 
HETATM   18  C   UNL     1       0.049   5.245 -30.224  1.00  0.00     0.254 C 
HETATM   19  N   UNL     1      -0.121   6.471 -29.321  1.00  0.00    -0.072 N 
HETATM   20  C   UNL     1       0.453   6.244 -27.955  1.00  0.00     0.269 C 
HETATM   21  H   UNL     1       0.408   7.237 -29.757  1.00  0.00     0.279 HD
HETATM   22  C   UNL     1      -1.586   6.914 -29.264  1.00  0.00     0.254 C 
HETATM   23  C   UNL     1      -2.139   7.143 -30.688  1.00  0.00     0.150 C 
ENDBRANCH   1  16
TORSDOF 3
ENDMDL
MODEL 8
REMARK VINA RESULT:      -7.0      4.363      7.468
REMARK  3 active torsions:
REMARK  status: ('A' for Active; 'I' for Inactive)
REMARK    1  A    between atoms: N_6  and  C_7 
REMARK    2  A    between atoms: C_10  and  S_11 
REMARK    3  A    between atoms: S_11  and  N_12 
ROOT
HETATM    1  C   UNL     1      -5.180   4.859 -33.149  1.00  0.00     0.030 A 
HETATM    2  C   UNL     1      -5.573   4.004 -34.192  1.00  0.00     0.031 A 
HETATM    3  C   UNL     1      -6.538   3.001 -34.010  1.00  0.00     0.027 A 
HETATM    4  C   UNL     1      -7.111   2.813 -32.756  1.00  0.00     0.079 A 
HETATM    5  C   UNL     1      -6.732   3.625 -31.691  1.00  0.00     0.027 A 
HETATM    6  C   UNL     1      -5.764   4.617 -31.890  1.00  0.00     0.031 A 
ENDROOT
BRANCH   4   7
HETATM    7  S   UNL     1      -8.414   1.619 -32.540  1.00  0.00     0.260 S 
HETATM    8  O   UNL     1      -8.921   1.798 -31.197  1.00  0.00    -0.200 OA
HETATM    9  O   UNL     1      -9.287   1.747 -33.688  1.00  0.00    -0.200 OA
BRANCH   7  10
HETATM   10  N   UNL     1      -7.611   0.146 -32.630  1.00  0.00    -0.307 N 
HETATM   11  C   UNL     1      -7.748  -0.717 -33.817  1.00  0.00     0.135 C 
HETATM   12  C   UNL     1      -6.461  -0.738 -34.633  1.00  0.00     0.021 C 
HETATM   13  C   UNL     1      -5.260  -1.102 -33.768  1.00  0.00     0.003 C 
HETATM   14  C   UNL     1      -5.155  -0.159 -32.576  1.00  0.00     0.021 C 
HETATM   15  C   UNL     1      -6.448  -0.132 -31.768  1.00  0.00     0.135 C 
ENDBRANCH   7  10
ENDBRANCH   4   7
BRANCH   1  16
HETATM   16  N   UNL     1      -4.237   5.882 -33.307  1.00  0.00    -0.378 N 
HETATM   17  C   UNL     1      -3.119   5.634 -34.249  1.00  0.00     0.150 C 
HETATM   18  C   UNL     1      -1.928   4.982 -33.514  1.00  0.00     0.254 C 
HETATM   19  N   UNL     1      -1.490   5.855 -32.333  1.00  0.00    -0.072 N 
HETATM   20  C   UNL     1      -0.311   5.272 -31.614  1.00  0.00     0.269 C 
HETATM   21  H   UNL     1      -1.199   6.761 -32.723  1.00  0.00     0.279 HD
HETATM   22  C   UNL     1      -2.663   6.130 -31.387  1.00  0.00     0.254 C 
HETATM   23  C   UNL     1      -3.854   6.735 -32.164  1.00  0.00     0.150 C 
ENDBRANCH   1  16
TORSDOF 3
ENDMDL
MODEL 9
REMARK VINA RESULT:      -6.9      5.183      8.439
REMARK  3 active torsions:
REMARK  status: ('A' for Active; 'I' for Inactive)
REMARK    1  A    between atoms: N_6  and  C_7 
REMARK    2  A    between atoms: C_10  and  S_11 
REMARK    3  A    between atoms: S_11  and  N_12 
ROOT
HETATM    1  C   UNL     1      -3.431   4.409 -31.922  1.00  0.00     0.030 A 
HETATM    2  C   UNL     1      -3.008   3.231 -32.562  1.00  0.00     0.031 A 
HETATM    3  C   UNL     1      -3.590   1.984 -32.288  1.00  0.00     0.027 A 
HETATM    4  C   UNL     1      -4.596   1.886 -31.332  1.00  0.00     0.079 A 
HETATM    5  C   UNL     1      -5.028   3.025 -30.660  1.00  0.00     0.027 A 
HETATM    6  C   UNL     1      -4.432   4.261 -30.942  1.00  0.00     0.031 A 
ENDROOT
BRANCH   4   7
HETATM    7  S   UNL     1      -5.416   0.330 -31.056  1.00  0.00     0.260 S 
HETATM    8  O   UNL     1      -4.444  -0.705 -31.338  1.00  0.00    -0.200 OA
HETATM    9  O   UNL     1      -6.050   0.420 -29.757  1.00  0.00    -0.200 OA
BRANCH   7  10
HETATM   10  N   UNL     1      -6.606   0.300 -32.241  1.00  0.00    -0.307 N 
HETATM   11  C   UNL     1      -7.196   1.551 -32.749  1.00  0.00     0.135 C 
HETATM   12  C   UNL     1      -6.739   1.837 -34.175  1.00  0.00     0.021 C 
HETATM   13  C   UNL     1      -6.994   0.644 -35.089  1.00  0.00     0.003 C 
HETATM   14  C   UNL     1      -6.337  -0.611 -34.527  1.00  0.00     0.021 C 
HETATM   15  C   UNL     1      -6.788  -0.886 -33.097  1.00  0.00     0.135 C 
ENDBRANCH   7  10
ENDBRANCH   4   7
BRANCH   1  16
HETATM   16  N   UNL     1      -2.884   5.669 -32.191  1.00  0.00    -0.378 N 
HETATM   17  C   UNL     1      -1.517   5.708 -32.763  1.00  0.00     0.150 C 
HETATM   18  C   UNL     1      -0.462   5.762 -31.637  1.00  0.00     0.254 C 
HETATM   19  N   UNL     1      -0.725   6.960 -30.718  1.00  0.00    -0.072 N 
HETATM   20  C   UNL     1       0.300   7.066 -29.631  1.00  0.00     0.269 C 
HETATM   21  H   UNL     1      -0.650   7.804 -31.300  1.00  0.00     0.279 HD
HETATM   22  C   UNL     1      -2.152   6.924 -30.163  1.00  0.00     0.254 C 
HETATM   23  C   UNL     1      -3.179   6.819 -31.312  1.00  0.00     0.150 C 
ENDBRANCH   1  16
TORSDOF 3
ENDMDL
MODEL 10
REMARK VINA RESULT:      -6.8      6.160      8.730
REMARK  3 active torsions:
REMARK  status: ('A' for Active; 'I' for Inactive)
REMARK    1  A    between atoms: N_6  and  C_7 
REMARK    2  A    between atoms: C_10  and  S_11 
REMARK    3  A    between atoms: S_11  and  N_12 
ROOT
HETATM    1  C   UNL     1      -4.094   2.107 -31.259  1.00  0.00     0.030 A 
HETATM    2  C   UNL     1      -4.722   3.178 -30.601  1.00  0.00     0.031 A 
HETATM    3  C   UNL     1      -4.547   4.509 -31.010  1.00  0.00     0.027 A 
HETATM    4  C   UNL     1      -3.704   4.798 -32.078  1.00  0.00     0.079 A 
HETATM    5  C   UNL     1      -3.046   3.768 -32.742  1.00  0.00     0.027 A 
HETATM    6  C   UNL     1      -3.227   2.446 -32.318  1.00  0.00     0.031 A 
ENDROOT
BRANCH   4   7
HETATM    7  S   UNL     1      -3.561   6.470 -32.674  1.00  0.00     0.260 S 
HETATM    8  O   UNL     1      -3.359   6.384 -34.104  1.00  0.00    -0.200 OA
HETATM    9  O   UNL     1      -4.683   7.203 -32.124  1.00  0.00    -0.200 OA
BRANCH   7  10
HETATM   10  N   UNL     1      -2.147   7.022 -31.954  1.00  0.00    -0.307 N 
HETATM   11  C   UNL     1      -2.154   7.531 -30.571  1.00  0.00     0.135 C 
HETATM   12  C   UNL     1      -1.454   6.564 -29.624  1.00  0.00     0.021 C 
HETATM   13  C   UNL     1      -0.057   6.211 -30.122  1.00  0.00     0.003 C 
HETATM   14  C   UNL     1      -0.119   5.663 -31.543  1.00  0.00     0.021 C 
HETATM   15  C   UNL     1      -0.829   6.630 -32.484  1.00  0.00     0.135 C 
ENDBRANCH   7  10
ENDBRANCH   4   7
BRANCH   1  16
HETATM   16  N   UNL     1      -4.267   0.768 -30.887  1.00  0.00    -0.378 N 
HETATM   17  C   UNL     1      -3.161  -0.170 -31.195  1.00  0.00     0.150 C 
HETATM   18  C   UNL     1      -3.352  -0.790 -32.596  1.00  0.00     0.254 C 
HETATM   19  N   UNL     1      -4.719  -1.476 -32.692  1.00  0.00    -0.072 N 
HETATM   20  C   UNL     1      -4.928  -2.120 -34.029  1.00  0.00     0.269 C 
HETATM   21  H   UNL     1      -4.730  -2.220 -31.983  1.00  0.00     0.279 HD
HETATM   22  C   UNL     1      -5.848  -0.503 -32.339  1.00  0.00     0.254 C 
HETATM   23  C   UNL     1      -5.600   0.136 -30.954  1.00  0.00     0.150 C 
ENDBRANCH   1  16
TORSDOF 3
ENDMDL
