MODEL 1
REMARK VINA RESULT:      -8.0      0.000      0.000
REMARK  6 active torsions:
REMARK  status: ('A' for Active; 'I' for Inactive)
REMARK    1  A    between atoms: C_2  and  C_3 
REMARK    2  A    between atoms: C_3  and  N_4 
REMARK    3  A    between atoms: C_3  and  C_17 
REMARK    4  A    between atoms: N_4  and  C_5 
REMARK    5  A    between atoms: C_5  and  C_6 
REMARK       I    between atoms: C_6  and  N_7 
REMARK    6  A    between atoms: N_7  and  C_8 
ROOT
HETATM    1  N   UNL     1      -3.966   1.519 -32.597  1.00  0.00     0.101 N 
HETATM    2  H   UNL     1      -4.335   2.206 -33.256  1.00  0.00     0.317 HD
ENDROOT
BRANCH   1   3
HETATM    3  C   UNL     1      -5.080   0.688 -32.098  1.00  0.00     0.256 C 
BRANCH   3   4
HETATM    4  C   UNL     1      -4.798   0.261 -30.639  1.00  0.00     0.036 C 
HETATM    5  C   UNL     1      -5.964   0.543 -29.698  1.00  0.00     0.007 C 
ENDBRANCH   3   4
BRANCH   3   6
HETATM    6  C   UNL     1      -5.327  -0.540 -32.963  1.00  0.00     0.013 A 
HETATM    7  C   UNL     1      -6.639  -0.899 -33.305  1.00  0.00     0.127 A 
HETATM    8  F   UNL     1      -7.670  -0.169 -32.854  1.00  0.00    -0.205 F 
HETATM    9  C   UNL     1      -6.910  -1.996 -34.115  1.00  0.00     0.085 A 
HETATM   10  C   UNL     1      -5.852  -2.752 -34.594  1.00  0.00     0.119 A 
HETATM   11  F   UNL     1      -6.098  -3.808 -35.380  1.00  0.00    -0.206 F 
HETATM   12  C   UNL     1      -4.538  -2.432 -34.272  1.00  0.00     0.043 A 
HETATM   13  C   UNL     1      -4.272  -1.331 -33.456  1.00  0.00     0.015 A 
ENDBRANCH   3   6
ENDBRANCH   1   3
BRANCH   1  14
HETATM   14  C   UNL     1      -3.288   2.244 -31.498  1.00  0.00     0.372 C 
BRANCH  14  15
HETATM   15  C   UNL     1      -3.276   3.752 -31.782  1.00  0.00     0.250 C 
HETATM   16  N   UNL     1      -2.239   4.121 -32.614  1.00  0.00    -0.322 N 
HETATM   17  H   UNL     1      -1.600   3.372 -32.861  1.00  0.00     0.169 HD
HETATM   18  O   UNL     1      -4.091   4.495 -31.248  1.00  0.00    -0.271 OA
BRANCH  16  19
HETATM   19  C   UNL     1      -1.971   5.380 -33.116  1.00  0.00     0.085 A 
HETATM   20  C   UNL     1      -1.104   6.437 -32.709  1.00  0.00     0.079 A 
HETATM   21  C   UNL     1      -0.198   6.544 -31.538  1.00  0.00     0.075 C 
HETATM   22  N   UNL     1      -1.203   7.494 -33.530  1.00  0.00    -0.177 NA
HETATM   23  N   UNL     1      -2.111   7.123 -34.437  1.00  0.00    -0.280 N 
HETATM   24  H   UNL     1      -2.340   7.781 -35.174  1.00  0.00     0.189 HD
HETATM   25  C   UNL     1      -2.619   5.872 -34.233  1.00  0.00     0.052 A 
HETATM   26  C   UNL     1      -3.636   5.290 -35.137  1.00  0.00     0.072 C 
ENDBRANCH  16  19
ENDBRANCH  14  15
ENDBRANCH   1  14
TORSDOF 6
ENDMDL
MODEL 2
REMARK VINA RESULT:      -7.8      5.307      7.370
REMARK  6 active torsions:
REMARK  status: ('A' for Active; 'I' for Inactive)
REMARK    1  A    between atoms: C_2  and  C_3 
REMARK    2  A    between atoms: C_3  and  N_4 
REMARK    3  A    between atoms: C_3  and  C_17 
REMARK    4  A    between atoms: N_4  and  C_5 
REMARK    5  A    between atoms: C_5  and  C_6 
REMARK       I    between atoms: C_6  and  N_7 
REMARK    6  A    between atoms: N_7  and  C_8 
ROOT
HETATM    1  N   UNL     1      -8.379  -0.504 -33.338  1.00  0.00     0.101 N 
HETATM    2  H   UNL     1      -8.593  -1.468 -33.079  1.00  0.00     0.317 HD
ENDROOT
BRANCH   1   3
HETATM    3  C   UNL     1      -6.965  -0.425 -33.758  1.00  0.00     0.256 C 
BRANCH   3   4
HETATM    4  C   UNL     1      -6.833   0.529 -34.967  1.00  0.00     0.036 C 
HETATM    5  C   UNL     1      -6.563   1.974 -34.564  1.00  0.00     0.007 C 
ENDBRANCH   3   4
BRANCH   3   6
HETATM    6  C   UNL     1      -6.379  -1.787 -34.099  1.00  0.00     0.013 A 
HETATM    7  C   UNL     1      -4.992  -1.987 -34.027  1.00  0.00     0.127 A 
HETATM    8  F   UNL     1      -4.189  -0.974 -33.674  1.00  0.00    -0.205 F 
HETATM    9  C   UNL     1      -4.416  -3.222 -34.304  1.00  0.00     0.085 A 
HETATM   10  C   UNL     1      -5.238  -4.280 -34.661  1.00  0.00     0.119 A 
HETATM   11  F   UNL     1      -4.697  -5.476 -34.925  1.00  0.00    -0.206 F 
HETATM   12  C   UNL     1      -6.616  -4.119 -34.751  1.00  0.00     0.043 A 
HETATM   13  C   UNL     1      -7.188  -2.876 -34.474  1.00  0.00     0.015 A 
ENDBRANCH   3   6
ENDBRANCH   1   3
BRANCH   1  14
HETATM   14  C   UNL     1      -8.654   0.365 -32.171  1.00  0.00     0.372 C 
BRANCH  14  15
HETATM   15  C   UNL     1      -9.703   1.426 -32.532  1.00  0.00     0.250 C 
HETATM   16  N   UNL     1     -10.430   1.084 -33.653  1.00  0.00    -0.322 N 
HETATM   17  H   UNL     1     -10.130   0.231 -34.116  1.00  0.00     0.169 HD
HETATM   18  O   UNL     1      -9.790   2.463 -31.887  1.00  0.00    -0.271 OA
BRANCH  16  19
HETATM   19  C   UNL     1     -11.485   1.777 -34.215  1.00  0.00     0.085 A 
HETATM   20  C   UNL     1     -11.596   3.042 -34.864  1.00  0.00     0.079 A 
HETATM   21  C   UNL     1     -10.574   4.087 -35.121  1.00  0.00     0.075 C 
HETATM   22  N   UNL     1     -12.861   3.290 -35.237  1.00  0.00    -0.177 NA
HETATM   23  N   UNL     1     -13.542   2.213 -34.835  1.00  0.00    -0.280 N 
HETATM   24  H   UNL     1     -14.537   2.183 -35.025  1.00  0.00     0.189 HD
HETATM   25  C   UNL     1     -12.774   1.278 -34.202  1.00  0.00     0.052 A 
HETATM   26  C   UNL     1     -13.353   0.016 -33.687  1.00  0.00     0.072 C 
ENDBRANCH  16  19
ENDBRANCH  14  15
ENDBRANCH   1  14
TORSDOF 6
ENDMDL
MODEL 3
REMARK VINA RESULT:      -7.8      5.246      7.529
REMARK  6 active torsions:
REMARK  status: ('A' for Active; 'I' for Inactive)
REMARK    1  A    between atoms: C_2  and  C_3 
REMARK    2  A    between atoms: C_3  and  N_4 
REMARK    3  A    between atoms: C_3  and  C_17 
REMARK    4  A    between atoms: N_4  and  C_5 
REMARK    5  A    between atoms: C_5  and  C_6 
REMARK       I    between atoms: C_6  and  N_7 
REMARK    6  A    between atoms: N_7  and  C_8 
ROOT
HETATM    1  N   UNL     1      -8.242  -0.406 -33.129  1.00  0.00     0.101 N 
HETATM    2  H   UNL     1      -8.372  -1.313 -32.679  1.00  0.00     0.317 HD
ENDROOT
BRANCH   1   3
HETATM    3  C   UNL     1      -6.881  -0.346 -33.699  1.00  0.00     0.256 C 
BRANCH   3   4
HETATM    4  C   UNL     1      -6.876   0.576 -34.940  1.00  0.00     0.036 C 
HETATM    5  C   UNL     1      -6.516   2.020 -34.611  1.00  0.00     0.007 C 
ENDBRANCH   3   4
BRANCH   3   6
HETATM    6  C   UNL     1      -6.340  -1.721 -34.067  1.00  0.00     0.013 A 
HETATM    7  C   UNL     1      -4.957  -1.957 -34.034  1.00  0.00     0.127 A 
HETATM    8  F   UNL     1      -4.118  -0.967 -33.695  1.00  0.00    -0.205 F 
HETATM    9  C   UNL     1      -4.421  -3.204 -34.336  1.00  0.00     0.085 A 
HETATM   10  C   UNL     1      -5.279  -4.238 -34.678  1.00  0.00     0.119 A 
HETATM   11  F   UNL     1      -4.777  -5.445 -34.966  1.00  0.00    -0.206 F 
HETATM   12  C   UNL     1      -6.655  -4.040 -34.729  1.00  0.00     0.043 A 
HETATM   13  C   UNL     1      -7.187  -2.785 -34.427  1.00  0.00     0.015 A 
ENDBRANCH   3   6
ENDBRANCH   1   3
BRANCH   1  14
HETATM   14  C   UNL     1      -8.459   0.653 -32.117  1.00  0.00     0.372 C 
BRANCH  14  15
HETATM   15  C   UNL     1      -9.714   1.468 -32.458  1.00  0.00     0.250 C 
HETATM   16  N   UNL     1     -10.361   0.989 -33.579  1.00  0.00    -0.322 N 
HETATM   17  H   UNL     1      -9.889   0.225 -34.053  1.00  0.00     0.169 HD
HETATM   18  O   UNL     1     -10.015   2.456 -31.801  1.00  0.00    -0.271 OA
BRANCH  16  19
HETATM   19  C   UNL     1     -11.544   1.445 -34.125  1.00  0.00     0.085 A 
HETATM   20  C   UNL     1     -12.870   0.921 -34.177  1.00  0.00     0.079 A 
HETATM   21  C   UNL     1     -13.420  -0.362 -33.670  1.00  0.00     0.075 C 
HETATM   22  N   UNL     1     -13.696   1.744 -34.842  1.00  0.00    -0.177 NA
HETATM   23  N   UNL     1     -12.918   2.766 -35.210  1.00  0.00    -0.280 N 
HETATM   24  H   UNL     1     -13.346   3.524 -35.729  1.00  0.00     0.189 HD
HETATM   25  C   UNL     1     -11.615   2.637 -34.821  1.00  0.00     0.052 A 
HETATM   26  C   UNL     1     -10.604   3.672 -35.137  1.00  0.00     0.072 C 
ENDBRANCH  16  19
ENDBRANCH  14  15
ENDBRANCH   1  14
TORSDOF 6
ENDMDL
MODEL 4
REMARK VINA RESULT:      -7.8      2.594      4.409
REMARK  6 active torsions:
REMARK  status: ('A' for Active; 'I' for Inactive)
REMARK    1  A    between atoms: C_2  and  C_3 
REMARK    2  A    between atoms: C_3  and  N_4 
REMARK    3  A    between atoms: C_3  and  C_17 
REMARK    4  A    between atoms: N_4  and  C_5 
REMARK    5  A    between atoms: C_5  and  C_6 
REMARK       I    between atoms: C_6  and  N_7 
REMARK    6  A    between atoms: N_7  and  C_8 
ROOT
HETATM    1  N   UNL     1      -4.019  -1.057 -33.700  1.00  0.00     0.101 N 
HETATM    2  H   UNL     1      -4.233  -0.061 -33.776  1.00  0.00     0.317 HD
ENDROOT
BRANCH   1   3
HETATM    3  C   UNL     1      -5.278  -1.825 -33.790  1.00  0.00     0.256 C 
BRANCH   3   4
HETATM    4  C   UNL     1      -5.223  -2.772 -35.011  1.00  0.00     0.036 C 
HETATM    5  C   UNL     1      -6.113  -3.999 -34.855  1.00  0.00     0.007 C 
ENDBRANCH   3   4
BRANCH   3   6
HETATM    6  C   UNL     1      -6.505  -0.928 -33.878  1.00  0.00     0.013 A 
HETATM    7  C   UNL     1      -7.112  -0.461 -32.703  1.00  0.00     0.127 A 
HETATM    8  F   UNL     1      -6.619  -0.820 -31.509  1.00  0.00    -0.205 F 
HETATM    9  C   UNL     1      -8.218   0.381 -32.736  1.00  0.00     0.085 A 
HETATM   10  C   UNL     1      -8.731   0.766 -33.965  1.00  0.00     0.119 A 
HETATM   11  F   UNL     1      -9.792   1.581 -34.011  1.00  0.00    -0.206 F 
HETATM   12  C   UNL     1      -8.160   0.318 -35.152  1.00  0.00     0.043 A 
HETATM   13  C   UNL     1      -7.051  -0.529 -35.112  1.00  0.00     0.015 A 
ENDBRANCH   3   6
ENDBRANCH   1   3
BRANCH   1  14
HETATM   14  C   UNL     1      -3.327  -1.288 -32.411  1.00  0.00     0.372 C 
BRANCH  14  15
HETATM   15  C   UNL     1      -3.130   0.039 -31.666  1.00  0.00     0.250 C 
HETATM   16  N   UNL     1      -3.994   1.020 -32.105  1.00  0.00    -0.322 N 
HETATM   17  H   UNL     1      -4.580   0.756 -32.892  1.00  0.00     0.169 HD
HETATM   18  O   UNL     1      -2.245   0.159 -30.827  1.00  0.00    -0.271 OA
BRANCH  16  19
HETATM   19  C   UNL     1      -4.127   2.304 -31.615  1.00  0.00     0.085 A 
HETATM   20  C   UNL     1      -3.520   3.552 -31.946  1.00  0.00     0.079 A 
HETATM   21  C   UNL     1      -2.472   3.879 -32.946  1.00  0.00     0.075 C 
HETATM   22  N   UNL     1      -3.977   4.542 -31.163  1.00  0.00    -0.177 NA
HETATM   23  N   UNL     1      -4.851   3.942 -30.350  1.00  0.00    -0.280 N 
HETATM   24  H   UNL     1      -5.332   4.516 -29.666  1.00  0.00     0.189 HD
HETATM   25  C   UNL     1      -4.973   2.599 -30.562  1.00  0.00     0.052 A 
HETATM   26  C   UNL     1      -5.896   1.766 -29.758  1.00  0.00     0.072 C 
ENDBRANCH  16  19
ENDBRANCH  14  15
ENDBRANCH   1  14
TORSDOF 6
ENDMDL
MODEL 5
REMARK VINA RESULT:      -7.8      0.403      1.724
REMARK  6 active torsions:
REMARK  status: ('A' for Active; 'I' for Inactive)
REMARK    1  A    between atoms: C_2  and  C_3 
REMARK    2  A    between atoms: C_3  and  N_4 
REMARK    3  A    between atoms: C_3  and  C_17 
REMARK    4  A    between atoms: N_4  and  C_5 
REMARK    5  A    between atoms: C_5  and  C_6 
REMARK       I    between atoms: C_6  and  N_7 
REMARK    6  A    between atoms: N_7  and  C_8 
ROOT
HETATM    1  N   UNL     1      -3.895   1.211 -32.575  1.00  0.00     0.101 N 
HETATM    2  H   UNL     1      -4.111   1.881 -33.314  1.00  0.00     0.317 HD
ENDROOT
BRANCH   1   3
HETATM    3  C   UNL     1      -5.121   0.460 -32.236  1.00  0.00     0.256 C 
BRANCH   3   4
HETATM    4  C   UNL     1      -5.079   0.038 -30.750  1.00  0.00     0.036 C 
HETATM    5  C   UNL     1      -6.420   0.199 -30.044  1.00  0.00     0.007 C 
ENDBRANCH   3   4
BRANCH   3   6
HETATM    6  C   UNL     1      -5.321  -0.762 -33.122  1.00  0.00     0.013 A 
HETATM    7  C   UNL     1      -6.610  -1.099 -33.563  1.00  0.00     0.127 A 
HETATM    8  F   UNL     1      -7.660  -0.352 -33.190  1.00  0.00    -0.205 F 
HETATM    9  C   UNL     1      -6.836  -2.190 -34.395  1.00  0.00     0.085 A 
HETATM   10  C   UNL     1      -5.758  -2.963 -34.795  1.00  0.00     0.119 A 
HETATM   11  F   UNL     1      -5.961  -4.013 -35.600  1.00  0.00    -0.206 F 
HETATM   12  C   UNL     1      -4.466  -2.665 -34.372  1.00  0.00     0.043 A 
HETATM   13  C   UNL     1      -4.246  -1.569 -33.535  1.00  0.00     0.015 A 
ENDBRANCH   3   6
ENDBRANCH   1   3
BRANCH   1  14
HETATM   14  C   UNL     1      -3.369   1.956 -31.408  1.00  0.00     0.372 C 
BRANCH  14  15
HETATM   15  C   UNL     1      -3.329   3.460 -31.710  1.00  0.00     0.250 C 
HETATM   16  N   UNL     1      -2.286   3.800 -32.547  1.00  0.00    -0.322 N 
HETATM   17  H   UNL     1      -1.662   3.036 -32.786  1.00  0.00     0.169 HD
HETATM   18  O   UNL     1      -4.130   4.224 -31.185  1.00  0.00    -0.271 OA
BRANCH  16  19
HETATM   19  C   UNL     1      -1.996   5.047 -33.065  1.00  0.00     0.085 A 
HETATM   20  C   UNL     1      -2.502   5.796 -34.168  1.00  0.00     0.079 A 
HETATM   21  C   UNL     1      -3.524   5.444 -35.186  1.00  0.00     0.075 C 
HETATM   22  N   UNL     1      -1.884   6.982 -34.279  1.00  0.00    -0.177 NA
HETATM   23  N   UNL     1      -1.002   6.990 -33.274  1.00  0.00    -0.280 N 
HETATM   24  H   UNL     1      -0.420   7.812 -33.162  1.00  0.00     0.189 HD
HETATM   25  C   UNL     1      -1.012   5.851 -32.521  1.00  0.00     0.052 A 
HETATM   26  C   UNL     1      -0.106   5.678 -31.363  1.00  0.00     0.072 C 
ENDBRANCH  16  19
ENDBRANCH  14  15
ENDBRANCH   1  14
TORSDOF 6
ENDMDL
MODEL 6
REMARK VINA RESULT:      -7.5      4.146      6.530
REMARK  6 active torsions:
REMARK  status: ('A' for Active; 'I' for Inactive)
REMARK    1  A    between atoms: C_2  and  C_3 
REMARK    2  A    between atoms: C_3  and  N_4 
REMARK    3  A    between atoms: C_3  and  C_17 
REMARK    4  A    between atoms: N_4  and  C_5 
REMARK    5  A    between atoms: C_5  and  C_6 
REMARK       I    between atoms: C_6  and  N_7 
REMARK    6  A    between atoms: N_7  and  C_8 
ROOT
HETATM    1  N   UNL     1      -5.540   1.450 -33.369  1.00  0.00     0.101 N 
HETATM    2  H   UNL     1      -4.649   1.189 -33.792  1.00  0.00     0.317 HD
ENDROOT
BRANCH   1   3
HETATM    3  C   UNL     1      -6.089   0.283 -32.648  1.00  0.00     0.256 C 
BRANCH   3   4
HETATM    4  C   UNL     1      -5.373   0.126 -31.288  1.00  0.00     0.036 C 
HETATM    5  C   UNL     1      -6.315   0.257 -30.097  1.00  0.00     0.007 C 
ENDBRANCH   3   4
BRANCH   3   6
HETATM    6  C   UNL     1      -5.975  -1.006 -33.451  1.00  0.00     0.013 A 
HETATM    7  C   UNL     1      -4.709  -1.522 -33.764  1.00  0.00     0.127 A 
HETATM    8  F   UNL     1      -3.606  -0.870 -33.369  1.00  0.00    -0.205 F 
HETATM    9  C   UNL     1      -4.558  -2.710 -34.471  1.00  0.00     0.085 A 
HETATM   10  C   UNL     1      -5.691  -3.397 -34.876  1.00  0.00     0.119 A 
HETATM   11  F   UNL     1      -5.560  -4.545 -35.553  1.00  0.00    -0.206 F 
HETATM   12  C   UNL     1      -6.963  -2.914 -34.591  1.00  0.00     0.043 A 
HETATM   13  C   UNL     1      -7.109  -1.719 -33.882  1.00  0.00     0.015 A 
ENDBRANCH   3   6
ENDBRANCH   1   3
BRANCH   1  14
HETATM   14  C   UNL     1      -6.451   1.908 -34.444  1.00  0.00     0.372 C 
BRANCH  14  15
HETATM   15  C   UNL     1      -7.818   2.285 -33.859  1.00  0.00     0.250 C 
HETATM   16  N   UNL     1      -8.861   1.677 -34.528  1.00  0.00    -0.322 N 
HETATM   17  H   UNL     1      -8.588   1.131 -35.341  1.00  0.00     0.169 HD
HETATM   18  O   UNL     1      -7.905   3.089 -32.939  1.00  0.00    -0.271 OA
BRANCH  16  19
HETATM   19  C   UNL     1     -10.207   1.749 -34.230  1.00  0.00     0.085 A 
HETATM   20  C   UNL     1     -11.246   2.660 -34.585  1.00  0.00     0.079 A 
HETATM   21  C   UNL     1     -11.202   3.904 -35.395  1.00  0.00     0.075 C 
HETATM   22  N   UNL     1     -12.416   2.308 -34.030  1.00  0.00    -0.177 NA
HETATM   23  N   UNL     1     -12.132   1.202 -33.336  1.00  0.00    -0.280 N 
HETATM   24  H   UNL     1     -12.889   0.752 -32.832  1.00  0.00     0.189 HD
HETATM   25  C   UNL     1     -10.822   0.826 -33.405  1.00  0.00     0.052 A 
HETATM   26  C   UNL     1     -10.320  -0.376 -32.701  1.00  0.00     0.072 C 
ENDBRANCH  16  19
ENDBRANCH  14  15
ENDBRANCH   1  14
TORSDOF 6
ENDMDL
MODEL 7
REMARK VINA RESULT:      -7.3      1.663      2.304
REMARK  6 active torsions:
REMARK  status: ('A' for Active; 'I' for Inactive)
REMARK    1  A    between atoms: C_2  and  C_3 
REMARK    2  A    between atoms: C_3  and  N_4 
REMARK    3  A    between atoms: C_3  and  C_17 
REMARK    4  A    between atoms: N_4  and  C_5 
REMARK    5  A    between atoms: C_5  and  C_6 
REMARK       I    between atoms: C_6  and  N_7 
REMARK    6  A    between atoms: N_7  and  C_8 
ROOT
HETATM    1  N   UNL     1      -3.669   1.564 -32.521  1.00  0.00     0.101 N 
HETATM    2  H   UNL     1      -4.351   2.105 -33.054  1.00  0.00     0.317 HD
ENDROOT
BRANCH   1   3
HETATM    3  C   UNL     1      -4.258   0.254 -32.178  1.00  0.00     0.256 C 
BRANCH   3   4
HETATM    4  C   UNL     1      -3.460  -0.874 -32.870  1.00  0.00     0.036 C 
HETATM    5  C   UNL     1      -3.185  -2.061 -31.955  1.00  0.00     0.007 C 
ENDBRANCH   3   4
BRANCH   3   6
HETATM    6  C   UNL     1      -5.730   0.159 -32.553  1.00  0.00     0.013 A 
HETATM    7  C   UNL     1      -6.714   0.439 -31.592  1.00  0.00     0.127 A 
HETATM    8  F   UNL     1      -6.352   0.772 -30.344  1.00  0.00    -0.205 F 
HETATM    9  C   UNL     1      -8.069   0.391 -31.897  1.00  0.00     0.085 A 
HETATM   10  C   UNL     1      -8.455   0.057 -33.186  1.00  0.00     0.119 A 
HETATM   11  F   UNL     1      -9.757   0.012 -33.495  1.00  0.00    -0.206 F 
HETATM   12  C   UNL     1      -7.510  -0.234 -34.164  1.00  0.00     0.043 A 
HETATM   13  C   UNL     1      -6.150  -0.186 -33.851  1.00  0.00     0.015 A 
ENDBRANCH   3   6
ENDBRANCH   1   3
BRANCH   1  14
HETATM   14  C   UNL     1      -3.306   2.336 -31.310  1.00  0.00     0.372 C 
BRANCH  14  15
HETATM   15  C   UNL     1      -3.261   3.836 -31.627  1.00  0.00     0.250 C 
HETATM   16  N   UNL     1      -2.278   4.150 -32.544  1.00  0.00    -0.322 N 
HETATM   17  H   UNL     1      -1.687   3.372 -32.821  1.00  0.00     0.169 HD
HETATM   18  O   UNL     1      -4.005   4.620 -31.051  1.00  0.00    -0.271 OA
BRANCH  16  19
HETATM   19  C   UNL     1      -2.004   5.387 -33.092  1.00  0.00     0.085 A 
HETATM   20  C   UNL     1      -1.113   6.444 -32.740  1.00  0.00     0.079 A 
HETATM   21  C   UNL     1      -0.178   6.575 -31.594  1.00  0.00     0.075 C 
HETATM   22  N   UNL     1      -1.216   7.475 -33.594  1.00  0.00    -0.177 NA
HETATM   23  N   UNL     1      -2.150   7.089 -34.467  1.00  0.00    -0.280 N 
HETATM   24  H   UNL     1      -2.387   7.726 -35.220  1.00  0.00     0.189 HD
HETATM   25  C   UNL     1      -2.670   5.853 -34.210  1.00  0.00     0.052 A 
HETATM   26  C   UNL     1      -3.717   5.256 -35.071  1.00  0.00     0.072 C 
ENDBRANCH  16  19
ENDBRANCH  14  15
ENDBRANCH   1  14
TORSDOF 6
ENDMDL
MODEL 8
REMARK VINA RESULT:      -7.3      3.099      4.210
REMARK  6 active torsions:
REMARK  status: ('A' for Active; 'I' for Inactive)
REMARK    1  A    between atoms: C_2  and  C_3 
REMARK    2  A    between atoms: C_3  and  N_4 
REMARK    3  A    between atoms: C_3  and  C_17 
REMARK    4  A    between atoms: N_4  and  C_5 
REMARK    5  A    between atoms: C_5  and  C_6 
REMARK       I    between atoms: C_6  and  N_7 
REMARK    6  A    between atoms: N_7  and  C_8 
ROOT
HETATM    1  N   UNL     1      -7.098  -0.131 -32.700  1.00  0.00     0.101 N 
HETATM    2  H   UNL     1      -7.557  -1.008 -32.450  1.00  0.00     0.317 HD
ENDROOT
BRANCH   1   3
HETATM    3  C   UNL     1      -6.392  -0.308 -33.985  1.00  0.00     0.256 C 
BRANCH   3   4
HETATM    4  C   UNL     1      -7.279   0.203 -35.142  1.00  0.00     0.036 C 
HETATM    5  C   UNL     1      -8.658   0.662 -34.681  1.00  0.00     0.007 C 
ENDBRANCH   3   4
BRANCH   3   6
HETATM    6  C   UNL     1      -5.989  -1.755 -34.235  1.00  0.00     0.013 A 
HETATM    7  C   UNL     1      -4.657  -2.151 -34.040  1.00  0.00     0.127 A 
HETATM    8  F   UNL     1      -3.743  -1.250 -33.649  1.00  0.00    -0.205 F 
HETATM    9  C   UNL     1      -4.250  -3.466 -34.230  1.00  0.00     0.085 A 
HETATM   10  C   UNL     1      -5.188  -4.408 -34.625  1.00  0.00     0.119 A 
HETATM   11  F   UNL     1      -4.810  -5.680 -34.806  1.00  0.00    -0.206 F 
HETATM   12  C   UNL     1      -6.515  -4.052 -34.835  1.00  0.00     0.043 A 
HETATM   13  C   UNL     1      -6.918  -2.729 -34.645  1.00  0.00     0.015 A 
ENDBRANCH   3   6
ENDBRANCH   1   3
BRANCH   1  14
HETATM   14  C   UNL     1      -6.166   0.235 -31.608  1.00  0.00     0.372 C 
BRANCH  14  15
HETATM   15  C   UNL     1      -5.607   1.646 -31.835  1.00  0.00     0.250 C 
HETATM   16  N   UNL     1      -6.600   2.603 -31.875  1.00  0.00    -0.322 N 
HETATM   17  H   UNL     1      -7.547   2.241 -31.821  1.00  0.00     0.169 HD
HETATM   18  O   UNL     1      -4.408   1.823 -32.011  1.00  0.00    -0.271 OA
BRANCH  16  19
HETATM   19  C   UNL     1      -6.446   3.970 -32.002  1.00  0.00     0.085 A 
HETATM   20  C   UNL     1      -5.927   4.810 -33.032  1.00  0.00     0.079 A 
HETATM   21  C   UNL     1      -5.322   4.466 -34.343  1.00  0.00     0.075 C 
HETATM   22  N   UNL     1      -5.981   6.104 -32.680  1.00  0.00    -0.177 NA
HETATM   23  N   UNL     1      -6.517   6.092 -31.457  1.00  0.00    -0.280 N 
HETATM   24  H   UNL     1      -6.659   6.983 -30.993  1.00  0.00     0.189 HD
HETATM   25  C   UNL     1      -6.803   4.841 -30.991  1.00  0.00     0.052 A 
HETATM   26  C   UNL     1      -7.404   4.629 -29.654  1.00  0.00     0.072 C 
ENDBRANCH  16  19
ENDBRANCH  14  15
ENDBRANCH   1  14
TORSDOF 6
ENDMDL
MODEL 9
REMARK VINA RESULT:      -7.1      4.943      5.930
REMARK  6 active torsions:
REMARK  status: ('A' for Active; 'I' for Inactive)
REMARK    1  A    between atoms: C_2  and  C_3 
REMARK    2  A    between atoms: C_3  and  N_4 
REMARK    3  A    between atoms: C_3  and  C_17 
REMARK    4  A    between atoms: N_4  and  C_5 
REMARK    5  A    between atoms: C_5  and  C_6 
REMARK       I    between atoms: C_6  and  N_7 
REMARK    6  A    between atoms: N_7  and  C_8 
ROOT
HETATM    1  N   UNL     1      -7.235  -0.230 -32.679  1.00  0.00     0.101 N 
HETATM    2  H   UNL     1      -7.337  -1.149 -32.247  1.00  0.00     0.317 HD
ENDROOT
BRANCH   1   3
HETATM    3  C   UNL     1      -6.299  -0.339 -33.818  1.00  0.00     0.256 C 
BRANCH   3   4
HETATM    4  C   UNL     1      -6.918   0.331 -35.066  1.00  0.00     0.036 C 
HETATM    5  C   UNL     1      -8.431   0.492 -34.971  1.00  0.00     0.007 C 
ENDBRANCH   3   4
BRANCH   3   6
HETATM    6  C   UNL     1      -5.923  -1.780 -34.130  1.00  0.00     0.013 A 
HETATM    7  C   UNL     1      -4.598  -2.208 -33.957  1.00  0.00     0.127 A 
HETATM    8  F   UNL     1      -3.667  -1.341 -33.534  1.00  0.00    -0.205 F 
HETATM    9  C   UNL     1      -4.215  -3.521 -34.204  1.00  0.00     0.085 A 
HETATM   10  C   UNL     1      -5.172  -4.429 -34.633  1.00  0.00     0.119 A 
HETATM   11  F   UNL     1      -4.818  -5.698 -34.870  1.00  0.00    -0.206 F 
HETATM   12  C   UNL     1      -6.494  -4.041 -34.823  1.00  0.00     0.043 A 
HETATM   13  C   UNL     1      -6.871  -2.720 -34.575  1.00  0.00     0.015 A 
ENDBRANCH   3   6
ENDBRANCH   1   3
BRANCH   1  14
HETATM   14  C   UNL     1      -6.741   0.716 -31.653  1.00  0.00     0.372 C 
BRANCH  14  15
HETATM   15  C   UNL     1      -7.396   2.091 -31.836  1.00  0.00     0.250 C 
HETATM   16  N   UNL     1      -8.753   2.063 -31.590  1.00  0.00    -0.322 N 
HETATM   17  H   UNL     1      -9.134   1.142 -31.395  1.00  0.00     0.169 HD
HETATM   18  O   UNL     1      -6.738   3.051 -32.218  1.00  0.00    -0.271 OA
BRANCH  16  19
HETATM   19  C   UNL     1      -9.633   3.127 -31.604  1.00  0.00     0.085 A 
HETATM   20  C   UNL     1      -9.676   4.377 -30.917  1.00  0.00     0.079 A 
HETATM   21  C   UNL     1      -8.766   4.944 -29.890  1.00  0.00     0.075 C 
HETATM   22  N   UNL     1     -10.759   5.089 -31.265  1.00  0.00    -0.177 NA
HETATM   23  N   UNL     1     -11.394   4.314 -32.148  1.00  0.00    -0.280 N 
HETATM   24  H   UNL     1     -12.254   4.666 -32.555  1.00  0.00     0.189 HD
HETATM   25  C   UNL     1     -10.776   3.119 -32.381  1.00  0.00     0.052 A 
HETATM   26  C   UNL     1     -11.332   2.129 -33.332  1.00  0.00     0.072 C 
ENDBRANCH  16  19
ENDBRANCH  14  15
ENDBRANCH   1  14
TORSDOF 6
ENDMDL
MODEL 10
REMARK VINA RESULT:      -7.0      4.450      6.890
REMARK  6 active torsions:
REMARK  status: ('A' for Active; 'I' for Inactive)
REMARK    1  A    between atoms: C_2  and  C_3 
REMARK    2  A    between atoms: C_3  and  N_4 
REMARK    3  A    between atoms: C_3  and  C_17 
REMARK    4  A    between atoms: N_4  and  C_5 
REMARK    5  A    between atoms: C_5  and  C_6 
REMARK       I    between atoms: C_6  and  N_7 
REMARK    6  A    between atoms: N_7  and  C_8 
ROOT
HETATM    1  N   UNL     1      -6.940   3.539 -32.696  1.00  0.00     0.101 N 
HETATM    2  H   UNL     1      -7.602   3.203 -33.397  1.00  0.00     0.317 HD
ENDROOT
BRANCH   1   3
HETATM    3  C   UNL     1      -5.953   2.476 -32.421  1.00  0.00     0.256 C 
BRANCH   3   4
HETATM    4  C   UNL     1      -4.529   2.996 -32.721  1.00  0.00     0.036 C 
HETATM    5  C   UNL     1      -3.506   2.581 -31.670  1.00  0.00     0.007 C 
ENDBRANCH   3   4
BRANCH   3   6
HETATM    6  C   UNL     1      -6.224   1.206 -33.215  1.00  0.00     0.013 A 
HETATM    7  C   UNL     1      -5.973  -0.046 -32.634  1.00  0.00     0.127 A 
HETATM    8  F   UNL     1      -5.481  -0.119 -31.389  1.00  0.00    -0.205 F 
HETATM    9  C   UNL     1      -6.232  -1.232 -33.313  1.00  0.00     0.085 A 
HETATM   10  C   UNL     1      -6.751  -1.170 -34.597  1.00  0.00     0.119 A 
HETATM   11  F   UNL     1      -7.009  -2.304 -35.260  1.00  0.00    -0.206 F 
HETATM   12  C   UNL     1      -7.006   0.052 -35.209  1.00  0.00     0.043 A 
HETATM   13  C   UNL     1      -6.742   1.240 -34.523  1.00  0.00     0.015 A 
ENDBRANCH   3   6
ENDBRANCH   1   3
BRANCH   1  14
HETATM   14  C   UNL     1      -7.697   3.912 -31.479  1.00  0.00     0.372 C 
BRANCH  14  15
HETATM   15  C   UNL     1      -9.067   3.222 -31.471  1.00  0.00     0.250 C 
HETATM   16  N   UNL     1      -9.525   2.951 -32.744  1.00  0.00    -0.322 N 
HETATM   17  H   UNL     1      -8.938   3.301 -33.495  1.00  0.00     0.169 HD
HETATM   18  O   UNL     1      -9.658   3.017 -30.418  1.00  0.00    -0.271 OA
BRANCH  16  19
HETATM   19  C   UNL     1     -10.684   2.288 -33.097  1.00  0.00     0.085 A 
HETATM   20  C   UNL     1     -11.977   2.722 -33.516  1.00  0.00     0.079 A 
HETATM   21  C   UNL     1     -12.529   4.091 -33.676  1.00  0.00     0.075 C 
HETATM   22  N   UNL     1     -12.793   1.681 -33.742  1.00  0.00    -0.177 NA
HETATM   23  N   UNL     1     -12.043   0.609 -33.471  1.00  0.00    -0.280 N 
HETATM   24  H   UNL     1     -12.466  -0.306 -33.585  1.00  0.00     0.189 HD
HETATM   25  C   UNL     1     -10.775   0.909 -33.066  1.00  0.00     0.052 A 
HETATM   26  C   UNL     1      -9.797  -0.149 -32.724  1.00  0.00     0.072 C 
ENDBRANCH  16  19
ENDBRANCH  14  15
ENDBRANCH   1  14
TORSDOF 6
ENDMDL
