MODEL 1
REMARK VINA RESULT:      -9.4      0.000      0.000
REMARK  5 active torsions:
REMARK  status: ('A' for Active; 'I' for Inactive)
REMARK    1  A    between atoms: C_2  and  C_3 
REMARK    2  A    between atoms: C_8  and  C_9 
REMARK       I    between atoms: C_9  and  N_10 
REMARK    3  A    between atoms: N_10  and  C_11 
REMARK    4  A    between atoms: C_11  and  C_12 
REMARK    5  A    between atoms: C_19  and  C_20 
ROOT
HETATM    1  C   UNL     1      -7.437   0.005 -34.115  1.00  0.00     0.118 C 
HETATM    2  N   UNL     1      -6.738   1.206 -34.571  1.00  0.00    -0.366 N 
HETATM    3  C   UNL     1      -6.844   2.390 -33.936  1.00  0.00     0.123 A 
HETATM    4  N   UNL     1      -7.793   2.596 -32.977  1.00  0.00    -0.240 N 
HETATM    5  N   UNL     1      -7.673   3.766 -32.329  1.00  0.00    -0.165 NA
HETATM    6  C   UNL     1      -6.660   4.383 -32.981  1.00  0.00     0.148 A 
HETATM    7  C   UNL     1      -6.136   3.558 -34.018  1.00  0.00     0.088 A 
HETATM    8  C   UNL     1      -8.741   1.578 -32.573  1.00  0.00     0.221 C 
HETATM    9  C   UNL     1      -8.075   0.201 -32.721  1.00  0.00     0.066 C 
HETATM   10  H   UNL     1      -6.050   1.066 -35.311  1.00  0.00     0.161 HD
ENDROOT
BRANCH   6  11
HETATM   11  C   UNL     1      -6.160   5.709 -32.587  1.00  0.00     0.272 C 
HETATM   12  N   UNL     1      -4.832   5.708 -32.228  1.00  0.00    -0.353 N 
HETATM   13  H   UNL     1      -4.333   4.839 -32.411  1.00  0.00     0.162 HD
HETATM   14  O   UNL     1      -6.857   6.718 -32.617  1.00  0.00    -0.266 OA
BRANCH  12  15
HETATM   15  C   UNL     1      -4.068   6.932 -32.119  1.00  0.00     0.155 C 
BRANCH  15  16
HETATM   16  C   UNL     1      -2.731   6.822 -32.846  1.00  0.00     0.139 C 
HETATM   17  O   UNL     1      -1.791   6.059 -32.058  1.00  0.00    -0.384 OA
HETATM   18  C   UNL     1      -1.022   5.235 -32.948  1.00  0.00     0.168 C 
HETATM   19  C   UNL     1      -1.416   5.613 -34.360  1.00  0.00     0.029 C 
HETATM   20  C   UNL     1      -2.832   6.099 -34.176  1.00  0.00     0.035 C 
ENDBRANCH  15  16
ENDBRANCH  12  15
ENDBRANCH   6  11
BRANCH   8  21
HETATM   21  C   UNL     1     -10.014   1.703 -33.377  1.00  0.00     0.409 C 
HETATM   22  F   UNL     1      -9.818   2.300 -34.571  1.00  0.00    -0.169 F 
HETATM   23  F   UNL     1     -10.629   0.522 -33.601  1.00  0.00    -0.169 F 
HETATM   24  F   UNL     1     -10.905   2.475 -32.699  1.00  0.00    -0.169 F 
ENDBRANCH   8  21
BRANCH   1  25
HETATM   25  C   UNL     1      -6.447  -1.151 -34.103  1.00  0.00    -0.034 A 
HETATM   26  C   UNL     1      -5.193  -1.021 -33.479  1.00  0.00     0.011 A 
HETATM   27  C   UNL     1      -4.279  -2.077 -33.479  1.00  0.00     0.026 A 
HETATM   28  C   UNL     1      -4.601  -3.281 -34.105  1.00  0.00     0.055 A 
HETATM   29  C   UNL     1      -5.843  -3.427 -34.732  1.00  0.00     0.056 A 
HETATM   30 CL   UNL     1      -3.423  -4.544 -34.073  1.00  0.00    -0.083 Cl
HETATM   31  C   UNL     1      -6.760  -2.366 -34.729  1.00  0.00     0.034 A 
HETATM   32 CL   UNL     1      -6.309  -4.884 -35.534  1.00  0.00    -0.083 Cl
ENDBRANCH   1  25
TORSDOF 5
ENDMDL
MODEL 2
REMARK VINA RESULT:      -9.3      4.203      7.192
REMARK  5 active torsions:
REMARK  status: ('A' for Active; 'I' for Inactive)
REMARK    1  A    between atoms: C_2  and  C_3 
REMARK    2  A    between atoms: C_8  and  C_9 
REMARK       I    between atoms: C_9  and  N_10 
REMARK    3  A    between atoms: N_10  and  C_11 
REMARK    4  A    between atoms: C_11  and  C_12 
REMARK    5  A    between atoms: C_19  and  C_20 
ROOT
HETATM    1  C   UNL     1      -6.807   0.358 -33.231  1.00  0.00     0.118 C 
HETATM    2  N   UNL     1      -8.128   0.000 -32.719  1.00  0.00    -0.366 N 
HETATM    3  C   UNL     1      -9.262   0.558 -33.187  1.00  0.00     0.123 A 
HETATM    4  N   UNL     1      -9.228   1.658 -33.994  1.00  0.00    -0.240 N 
HETATM    5  N   UNL     1     -10.422   2.002 -34.504  1.00  0.00    -0.165 NA
HETATM    6  C   UNL     1     -11.277   1.140 -33.907  1.00  0.00     0.148 A 
HETATM    7  C   UNL     1     -10.585   0.238 -33.049  1.00  0.00     0.088 A 
HETATM    8  C   UNL     1      -7.994   2.299 -34.403  1.00  0.00     0.221 C 
HETATM    9  C   UNL     1      -6.896   1.229 -34.504  1.00  0.00     0.066 C 
HETATM   10  H   UNL     1      -8.159  -0.802 -32.089  1.00  0.00     0.161 HD
ENDROOT
BRANCH   6  11
HETATM   11  C   UNL     1     -12.720   1.135 -34.194  1.00  0.00     0.272 C 
HETATM   12  N   UNL     1     -13.499   0.921 -33.081  1.00  0.00    -0.353 N 
HETATM   13  H   UNL     1     -13.000   0.933 -32.193  1.00  0.00     0.162 HD
HETATM   14  O   UNL     1     -13.175   1.343 -35.315  1.00  0.00    -0.266 OA
BRANCH  12  15
HETATM   15  C   UNL     1     -14.920   1.193 -33.077  1.00  0.00     0.155 C 
BRANCH  15  16
HETATM   16  C   UNL     1     -15.271   2.318 -32.108  1.00  0.00     0.139 C 
HETATM   17  O   UNL     1     -14.370   3.433 -32.283  1.00  0.00    -0.384 OA
HETATM   18  C   UNL     1     -15.123   4.647 -32.143  1.00  0.00     0.168 C 
HETATM   19  C   UNL     1     -16.526   4.257 -31.726  1.00  0.00     0.029 C 
HETATM   20  C   UNL     1     -16.664   2.880 -32.323  1.00  0.00     0.035 C 
ENDBRANCH  15  16
ENDBRANCH  12  15
ENDBRANCH   6  11
BRANCH   8  21
HETATM   21  C   UNL     1      -7.642   3.412 -33.444  1.00  0.00     0.409 C 
HETATM   22  F   UNL     1      -8.227   3.262 -32.237  1.00  0.00    -0.169 F 
HETATM   23  F   UNL     1      -6.315   3.555 -33.247  1.00  0.00    -0.169 F 
HETATM   24  F   UNL     1      -8.084   4.598 -33.943  1.00  0.00    -0.169 F 
ENDBRANCH   8  21
BRANCH   1  25
HETATM   25  C   UNL     1      -6.033  -0.924 -33.502  1.00  0.00    -0.034 A 
HETATM   26  C   UNL     1      -4.717  -1.086 -33.033  1.00  0.00     0.011 A 
HETATM   27  C   UNL     1      -4.002  -2.257 -33.292  1.00  0.00     0.026 A 
HETATM   28  C   UNL     1      -4.589  -3.287 -34.028  1.00  0.00     0.055 A 
HETATM   29  C   UNL     1      -5.896  -3.141 -34.505  1.00  0.00     0.056 A 
HETATM   30 CL   UNL     1      -3.647  -4.705 -34.319  1.00  0.00    -0.083 Cl
HETATM   31  C   UNL     1      -6.614  -1.966 -34.240  1.00  0.00     0.034 A 
HETATM   32 CL   UNL     1      -6.685  -4.369 -35.429  1.00  0.00    -0.083 Cl
ENDBRANCH   1  25
TORSDOF 5
ENDMDL
MODEL 3
REMARK VINA RESULT:      -9.2      6.053      9.763
REMARK  5 active torsions:
REMARK  status: ('A' for Active; 'I' for Inactive)
REMARK    1  A    between atoms: C_2  and  C_3 
REMARK    2  A    between atoms: C_8  and  C_9 
REMARK       I    between atoms: C_9  and  N_10 
REMARK    3  A    between atoms: N_10  and  C_11 
REMARK    4  A    between atoms: C_11  and  C_12 
REMARK    5  A    between atoms: C_19  and  C_20 
ROOT
HETATM    1  C   UNL     1      -1.352   6.797 -30.841  1.00  0.00     0.118 C 
HETATM    2  N   UNL     1      -2.640   6.143 -30.624  1.00  0.00    -0.366 N 
HETATM    3  C   UNL     1      -2.982   4.993 -31.239  1.00  0.00     0.123 A 
HETATM    4  N   UNL     1      -2.246   4.503 -32.279  1.00  0.00    -0.240 N 
HETATM    5  N   UNL     1      -2.617   3.277 -32.684  1.00  0.00    -0.165 NA
HETATM    6  C   UNL     1      -3.713   3.019 -31.934  1.00  0.00     0.148 A 
HETATM    7  C   UNL     1      -3.989   4.090 -31.036  1.00  0.00     0.088 A 
HETATM    8  C   UNL     1      -1.063   5.165 -32.791  1.00  0.00     0.221 C 
HETATM    9  C   UNL     1      -0.373   5.901 -31.632  1.00  0.00     0.066 C 
HETATM   10  H   UNL     1      -3.211   6.524 -29.869  1.00  0.00     0.161 HD
ENDROOT
BRANCH   6  11
HETATM   11  C   UNL     1      -4.451   1.749 -32.026  1.00  0.00     0.272 C 
HETATM   12  N   UNL     1      -3.712   0.726 -32.573  1.00  0.00    -0.353 N 
HETATM   13  H   UNL     1      -2.724   0.930 -32.712  1.00  0.00     0.162 HD
HETATM   14  O   UNL     1      -5.600   1.617 -31.616  1.00  0.00    -0.266 OA
BRANCH  12  15
HETATM   15  C   UNL     1      -4.122  -0.658 -32.462  1.00  0.00     0.155 C 
BRANCH  15  16
HETATM   16  C   UNL     1      -4.822  -1.136 -33.731  1.00  0.00     0.139 C 
HETATM   17  O   UNL     1      -4.293  -2.414 -34.147  1.00  0.00    -0.384 OA
HETATM   18  C   UNL     1      -5.380  -3.213 -34.638  1.00  0.00     0.168 C 
HETATM   19  C   UNL     1      -6.612  -2.332 -34.651  1.00  0.00     0.029 C 
HETATM   20  C   UNL     1      -6.313  -1.350 -33.547  1.00  0.00     0.035 C 
ENDBRANCH  15  16
ENDBRANCH  12  15
ENDBRANCH   6  11
BRANCH   8  21
HETATM   21  C   UNL     1      -1.433   6.084 -33.932  1.00  0.00     0.409 C 
HETATM   22  F   UNL     1      -2.763   6.294 -34.020  1.00  0.00    -0.169 F 
HETATM   23  F   UNL     1      -0.827   7.289 -33.873  1.00  0.00    -0.169 F 
HETATM   24  F   UNL     1      -1.052   5.522 -35.110  1.00  0.00    -0.169 F 
ENDBRANCH   8  21
BRANCH   1  25
HETATM   25  C   UNL     1      -0.770   7.174 -29.485  1.00  0.00    -0.034 A 
HETATM   26  C   UNL     1       0.562   7.610 -29.368  1.00  0.00     0.011 A 
HETATM   27  C   UNL     1       1.100   7.944 -28.123  1.00  0.00     0.026 A 
HETATM   28  C   UNL     1       0.317   7.844 -26.973  1.00  0.00     0.055 A 
HETATM   29  C   UNL     1      -1.009   7.409 -27.072  1.00  0.00     0.056 A 
HETATM   30 CL   UNL     1       1.046   8.265 -25.465  1.00  0.00    -0.083 Cl
HETATM   31  C   UNL     1      -1.549   7.078 -28.323  1.00  0.00     0.034 A 
HETATM   32 CL   UNL     1      -2.037   7.254 -25.691  1.00  0.00    -0.083 Cl
ENDBRANCH   1  25
TORSDOF 5
ENDMDL
MODEL 4
REMARK VINA RESULT:      -8.9      1.460      1.701
REMARK  5 active torsions:
REMARK  status: ('A' for Active; 'I' for Inactive)
REMARK    1  A    between atoms: C_2  and  C_3 
REMARK    2  A    between atoms: C_8  and  C_9 
REMARK       I    between atoms: C_9  and  N_10 
REMARK    3  A    between atoms: N_10  and  C_11 
REMARK    4  A    between atoms: C_11  and  C_12 
REMARK    5  A    between atoms: C_19  and  C_20 
ROOT
HETATM    1  C   UNL     1      -7.064   0.127 -33.572  1.00  0.00     0.118 C 
HETATM    2  N   UNL     1      -6.290   1.308 -33.951  1.00  0.00    -0.366 N 
HETATM    3  C   UNL     1      -6.259   2.425 -33.198  1.00  0.00     0.123 A 
HETATM    4  N   UNL     1      -7.134   2.608 -32.167  1.00  0.00    -0.240 N 
HETATM    5  N   UNL     1      -6.880   3.692 -31.416  1.00  0.00    -0.165 NA
HETATM    6  C   UNL     1      -5.853   4.288 -32.067  1.00  0.00     0.148 A 
HETATM    7  C   UNL     1      -5.458   3.535 -33.209  1.00  0.00     0.088 A 
HETATM    8  C   UNL     1      -8.144   1.633 -31.806  1.00  0.00     0.221 C 
HETATM    9  C   UNL     1      -7.607   0.229 -32.129  1.00  0.00     0.066 C 
HETATM   10  H   UNL     1      -5.657   1.190 -34.742  1.00  0.00     0.161 HD
ENDROOT
BRANCH   6  11
HETATM   11  C   UNL     1      -5.220   5.522 -31.576  1.00  0.00     0.272 C 
HETATM   12  N   UNL     1      -3.846   5.457 -31.543  1.00  0.00    -0.353 N 
HETATM   13  H   UNL     1      -3.440   4.634 -31.985  1.00  0.00     0.162 HD
HETATM   14  O   UNL     1      -5.862   6.522 -31.267  1.00  0.00    -0.266 OA
BRANCH  12  15
HETATM   15  C   UNL     1      -3.027   6.642 -31.405  1.00  0.00     0.155 C 
BRANCH  15  16
HETATM   16  C   UNL     1      -1.701   6.327 -30.718  1.00  0.00     0.139 C 
HETATM   17  O   UNL     1      -0.660   6.129 -31.700  1.00  0.00    -0.384 OA
HETATM   18  C   UNL     1       0.551   6.714 -31.196  1.00  0.00     0.168 C 
HETATM   19  C   UNL     1       0.270   7.172 -29.780  1.00  0.00     0.029 C 
HETATM   20  C   UNL     1      -1.211   7.449 -29.822  1.00  0.00     0.035 C 
ENDBRANCH  15  16
ENDBRANCH  12  15
ENDBRANCH   6  11
BRANCH   8  21
HETATM   21  C   UNL     1      -9.442   1.942 -32.514  1.00  0.00     0.409 C 
HETATM   22  F   UNL     1      -9.256   2.601 -33.677  1.00  0.00    -0.169 F 
HETATM   23  F   UNL     1     -10.189   0.848 -32.773  1.00  0.00    -0.169 F 
HETATM   24  F   UNL     1     -10.206   2.748 -31.730  1.00  0.00    -0.169 F 
ENDBRANCH   8  21
BRANCH   1  25
HETATM   25  C   UNL     1      -6.178  -1.100 -33.734  1.00  0.00    -0.034 A 
HETATM   26  C   UNL     1      -4.893  -1.143 -33.163  1.00  0.00     0.011 A 
HETATM   27  C   UNL     1      -4.075  -2.264 -33.322  1.00  0.00     0.026 A 
HETATM   28  C   UNL     1      -4.525  -3.360 -34.058  1.00  0.00     0.055 A 
HETATM   29  C   UNL     1      -5.799  -3.333 -34.635  1.00  0.00     0.056 A 
HETATM   30 CL   UNL     1      -3.460  -4.710 -34.221  1.00  0.00    -0.083 Cl
HETATM   31  C   UNL     1      -6.620  -2.208 -34.472  1.00  0.00     0.034 A 
HETATM   32 CL   UNL     1      -6.421  -4.649 -35.566  1.00  0.00    -0.083 Cl
ENDBRANCH   1  25
TORSDOF 5
ENDMDL
MODEL 5
REMARK VINA RESULT:      -8.8      1.684      2.341
REMARK  5 active torsions:
REMARK  status: ('A' for Active; 'I' for Inactive)
REMARK    1  A    between atoms: C_2  and  C_3 
REMARK    2  A    between atoms: C_8  and  C_9 
REMARK       I    between atoms: C_9  and  N_10 
REMARK    3  A    between atoms: N_10  and  C_11 
REMARK    4  A    between atoms: C_11  and  C_12 
REMARK    5  A    between atoms: C_19  and  C_20 
ROOT
HETATM    1  C   UNL     1      -6.756  -0.009 -33.043  1.00  0.00     0.118 C 
HETATM    2  N   UNL     1      -6.241   1.152 -33.767  1.00  0.00    -0.366 N 
HETATM    3  C   UNL     1      -6.067   2.352 -33.180  1.00  0.00     0.123 A 
HETATM    4  N   UNL     1      -6.586   2.617 -31.945  1.00  0.00    -0.240 N 
HETATM    5  N   UNL     1      -6.199   3.795 -31.428  1.00  0.00    -0.165 NA
HETATM    6  C   UNL     1      -5.482   4.356 -32.431  1.00  0.00     0.148 A 
HETATM    7  C   UNL     1      -5.406   3.489 -33.558  1.00  0.00     0.088 A 
HETATM    8  C   UNL     1      -7.346   1.648 -31.183  1.00  0.00     0.221 C 
HETATM    9  C   UNL     1      -6.825   0.242 -31.520  1.00  0.00     0.066 C 
HETATM   10  H   UNL     1      -5.882   0.968 -34.704  1.00  0.00     0.161 HD
ENDROOT
BRANCH   6  11
HETATM   11  C   UNL     1      -4.831   5.668 -32.296  1.00  0.00     0.272 C 
HETATM   12  N   UNL     1      -4.301   5.891 -31.047  1.00  0.00    -0.353 N 
HETATM   13  H   UNL     1      -4.300   5.084 -30.426  1.00  0.00     0.162 HD
HETATM   14  O   UNL     1      -4.740   6.464 -33.227  1.00  0.00    -0.266 OA
BRANCH  12  15
HETATM   15  C   UNL     1      -3.355   6.957 -30.795  1.00  0.00     0.155 C 
BRANCH  15  16
HETATM   16  C   UNL     1      -1.972   6.407 -30.459  1.00  0.00     0.139 C 
HETATM   17  O   UNL     1      -1.681   5.247 -31.269  1.00  0.00    -0.384 OA
HETATM   18  C   UNL     1      -0.295   5.294 -31.642  1.00  0.00     0.168 C 
HETATM   19  C   UNL     1       0.324   6.468 -30.912  1.00  0.00     0.029 C 
HETATM   20  C   UNL     1      -0.853   7.393 -30.741  1.00  0.00     0.035 C 
ENDBRANCH  15  16
ENDBRANCH  12  15
ENDBRANCH   6  11
BRANCH   8  21
HETATM   21  C   UNL     1      -8.823   1.808 -31.462  1.00  0.00     0.409 C 
HETATM   22  F   UNL     1      -9.450   2.552 -30.527  1.00  0.00    -0.169 F 
HETATM   23  F   UNL     1      -9.088   2.350 -32.669  1.00  0.00    -0.169 F 
HETATM   24  F   UNL     1      -9.421   0.587 -31.451  1.00  0.00    -0.169 F 
ENDBRANCH   8  21
BRANCH   1  25
HETATM   25  C   UNL     1      -5.868  -1.204 -33.358  1.00  0.00    -0.034 A 
HETATM   26  C   UNL     1      -6.118  -2.013 -34.481  1.00  0.00     0.011 A 
HETATM   27  C   UNL     1      -5.311  -3.118 -34.763  1.00  0.00     0.026 A 
HETATM   28  C   UNL     1      -4.242  -3.435 -33.926  1.00  0.00     0.055 A 
HETATM   29  C   UNL     1      -3.980  -2.642 -32.804  1.00  0.00     0.056 A 
HETATM   30 CL   UNL     1      -3.288  -4.818 -34.330  1.00  0.00    -0.083 Cl
HETATM   31  C   UNL     1      -4.789  -1.532 -32.524  1.00  0.00     0.034 A 
HETATM   32 CL   UNL     1      -2.678  -2.977 -31.718  1.00  0.00    -0.083 Cl
ENDBRANCH   1  25
TORSDOF 5
ENDMDL
MODEL 6
REMARK VINA RESULT:      -8.4      5.753      9.523
REMARK  5 active torsions:
REMARK  status: ('A' for Active; 'I' for Inactive)
REMARK    1  A    between atoms: C_2  and  C_3 
REMARK    2  A    between atoms: C_8  and  C_9 
REMARK       I    between atoms: C_9  and  N_10 
REMARK    3  A    between atoms: N_10  and  C_11 
REMARK    4  A    between atoms: C_11  and  C_12 
REMARK    5  A    between atoms: C_19  and  C_20 
ROOT
HETATM    1  C   UNL     1      -2.350   6.784 -31.260  1.00  0.00     0.118 C 
HETATM    2  N   UNL     1      -3.486   5.928 -30.922  1.00  0.00    -0.366 N 
HETATM    3  C   UNL     1      -3.547   4.631 -31.281  1.00  0.00     0.123 A 
HETATM    4  N   UNL     1      -2.669   4.105 -32.183  1.00  0.00    -0.240 N 
HETATM    5  N   UNL     1      -2.755   2.771 -32.321  1.00  0.00    -0.165 NA
HETATM    6  C   UNL     1      -3.815   2.446 -31.545  1.00  0.00     0.148 A 
HETATM    7  C   UNL     1      -4.356   3.595 -30.901  1.00  0.00     0.088 A 
HETATM    8  C   UNL     1      -1.621   4.884 -32.812  1.00  0.00     0.221 C 
HETATM    9  C   UNL     1      -1.164   5.973 -31.830  1.00  0.00     0.066 C 
HETATM   10  H   UNL     1      -4.165   6.326 -30.273  1.00  0.00     0.161 HD
ENDROOT
BRANCH   6  11
HETATM   11  C   UNL     1      -4.268   1.057 -31.372  1.00  0.00     0.272 C 
HETATM   12  N   UNL     1      -5.576   0.856 -31.748  1.00  0.00    -0.353 N 
HETATM   13  H   UNL     1      -6.017   1.643 -32.222  1.00  0.00     0.162 HD
HETATM   14  O   UNL     1      -3.531   0.162 -30.968  1.00  0.00    -0.266 OA
BRANCH  12  15
HETATM   15  C   UNL     1      -6.117  -0.469 -31.962  1.00  0.00     0.155 C 
BRANCH  15  16
HETATM   16  C   UNL     1      -7.071  -0.497 -33.152  1.00  0.00     0.139 C 
HETATM   17  O   UNL     1      -7.934   0.662 -33.133  1.00  0.00    -0.384 OA
HETATM   18  C   UNL     1      -8.112   1.113 -34.484  1.00  0.00     0.168 C 
HETATM   19  C   UNL     1      -7.437   0.099 -35.386  1.00  0.00     0.029 C 
HETATM   20  C   UNL     1      -6.358  -0.455 -34.491  1.00  0.00     0.035 C 
ENDBRANCH  15  16
ENDBRANCH  12  15
ENDBRANCH   6  11
BRANCH   8  21
HETATM   21  C   UNL     1      -2.108   5.446 -34.127  1.00  0.00     0.409 C 
HETATM   22  F   UNL     1      -1.656   6.698 -34.356  1.00  0.00    -0.169 F 
HETATM   23  F   UNL     1      -1.779   4.687 -35.194  1.00  0.00    -0.169 F 
HETATM   24  F   UNL     1      -3.465   5.521 -34.114  1.00  0.00    -0.169 F 
ENDBRANCH   8  21
BRANCH   1  25
HETATM   25  C   UNL     1      -1.936   7.548 -30.010  1.00  0.00    -0.034 A 
HETATM   26  C   UNL     1      -2.894   8.200 -29.213  1.00  0.00     0.011 A 
HETATM   27  C   UNL     1      -2.513   8.913 -28.073  1.00  0.00     0.026 A 
HETATM   28  C   UNL     1      -1.168   8.988 -27.712  1.00  0.00     0.055 A 
HETATM   29  C   UNL     1      -0.202   8.347 -28.495  1.00  0.00     0.056 A 
HETATM   30 CL   UNL     1      -0.765   9.891 -26.296  1.00  0.00    -0.083 Cl
HETATM   31  C   UNL     1      -0.586   7.630 -29.637  1.00  0.00     0.034 A 
HETATM   32 CL   UNL     1       1.482   8.402 -28.115  1.00  0.00    -0.083 Cl
ENDBRANCH   1  25
TORSDOF 5
ENDMDL
MODEL 7
REMARK VINA RESULT:      -8.4      1.906      3.294
REMARK  5 active torsions:
REMARK  status: ('A' for Active; 'I' for Inactive)
REMARK    1  A    between atoms: C_2  and  C_3 
REMARK    2  A    between atoms: C_8  and  C_9 
REMARK       I    between atoms: C_9  and  N_10 
REMARK    3  A    between atoms: N_10  and  C_11 
REMARK    4  A    between atoms: C_11  and  C_12 
REMARK    5  A    between atoms: C_19  and  C_20 
ROOT
HETATM    1  C   UNL     1      -7.438  -0.006 -34.066  1.00  0.00     0.118 C 
HETATM    2  N   UNL     1      -6.768   1.188 -34.578  1.00  0.00    -0.366 N 
HETATM    3  C   UNL     1      -6.864   2.388 -33.973  1.00  0.00     0.123 A 
HETATM    4  N   UNL     1      -7.782   2.611 -32.988  1.00  0.00    -0.240 N 
HETATM    5  N   UNL     1      -7.653   3.800 -32.376  1.00  0.00    -0.165 NA
HETATM    6  C   UNL     1      -6.669   4.408 -33.079  1.00  0.00     0.148 A 
HETATM    7  C   UNL     1      -6.171   3.560 -34.110  1.00  0.00     0.088 A 
HETATM    8  C   UNL     1      -8.706   1.596 -32.523  1.00  0.00     0.221 C 
HETATM    9  C   UNL     1      -8.030   0.222 -32.657  1.00  0.00     0.066 C 
HETATM   10  H   UNL     1      -6.104   1.034 -35.337  1.00  0.00     0.161 HD
ENDROOT
BRANCH   6  11
HETATM   11  C   UNL     1      -6.168   5.749 -32.738  1.00  0.00     0.272 C 
HETATM   12  N   UNL     1      -7.105   6.540 -32.115  1.00  0.00    -0.353 N 
HETATM   13  H   UNL     1      -7.965   6.065 -31.845  1.00  0.00     0.162 HD
HETATM   14  O   UNL     1      -5.013   6.103 -32.957  1.00  0.00    -0.266 OA
BRANCH  12  15
HETATM   15  C   UNL     1      -6.739   7.754 -31.418  1.00  0.00     0.155 C 
BRANCH  15  16
HETATM   16  C   UNL     1      -6.924   7.609 -29.910  1.00  0.00     0.139 C 
HETATM   17  O   UNL     1      -7.712   8.703 -29.391  1.00  0.00    -0.384 OA
HETATM   18  C   UNL     1      -8.587   8.187 -28.377  1.00  0.00     0.168 C 
HETATM   19  C   UNL     1      -8.221   6.731 -28.169  1.00  0.00     0.029 C 
HETATM   20  C   UNL     1      -7.670   6.346 -29.519  1.00  0.00     0.035 C 
ENDBRANCH  15  16
ENDBRANCH  12  15
ENDBRANCH   6  11
BRANCH   8  21
HETATM   21  C   UNL     1     -10.006   1.687 -33.286  1.00  0.00     0.409 C 
HETATM   22  F   UNL     1     -10.907   2.492 -32.684  1.00  0.00    -0.169 F 
HETATM   23  F   UNL     1      -9.858   2.112 -34.559  1.00  0.00    -0.169 F 
HETATM   24  F   UNL     1     -10.577   0.455 -33.360  1.00  0.00    -0.169 F 
ENDBRANCH   8  21
BRANCH   1  25
HETATM   25  C   UNL     1      -6.436  -1.153 -34.056  1.00  0.00    -0.034 A 
HETATM   26  C   UNL     1      -5.192  -1.018 -33.414  1.00  0.00     0.011 A 
HETATM   27  C   UNL     1      -4.268  -2.065 -33.416  1.00  0.00     0.026 A 
HETATM   28  C   UNL     1      -4.569  -3.263 -34.062  1.00  0.00     0.055 A 
HETATM   29  C   UNL     1      -5.801  -3.413 -34.707  1.00  0.00     0.056 A 
HETATM   30 CL   UNL     1      -3.378  -4.514 -34.031  1.00  0.00    -0.083 Cl
HETATM   31  C   UNL     1      -6.729  -2.363 -34.702  1.00  0.00     0.034 A 
HETATM   32 CL   UNL     1      -6.241  -4.865 -35.534  1.00  0.00    -0.083 Cl
ENDBRANCH   1  25
TORSDOF 5
ENDMDL
MODEL 8
REMARK VINA RESULT:      -8.3      3.655      6.014
REMARK  5 active torsions:
REMARK  status: ('A' for Active; 'I' for Inactive)
REMARK    1  A    between atoms: C_2  and  C_3 
REMARK    2  A    between atoms: C_8  and  C_9 
REMARK       I    between atoms: C_9  and  N_10 
REMARK    3  A    between atoms: N_10  and  C_11 
REMARK    4  A    between atoms: C_11  and  C_12 
REMARK    5  A    between atoms: C_19  and  C_20 
ROOT
HETATM    1  C   UNL     1      -5.469   0.092 -32.263  1.00  0.00     0.118 C 
HETATM    2  N   UNL     1      -6.754   0.312 -31.604  1.00  0.00    -0.366 N 
HETATM    3  C   UNL     1      -7.349   1.521 -31.560  1.00  0.00     0.123 A 
HETATM    4  N   UNL     1      -6.675   2.653 -31.917  1.00  0.00    -0.240 N 
HETATM    5  N   UNL     1      -7.442   3.754 -31.972  1.00  0.00    -0.165 NA
HETATM    6  C   UNL     1      -8.643   3.321 -31.523  1.00  0.00     0.148 A 
HETATM    7  C   UNL     1      -8.611   1.928 -31.226  1.00  0.00     0.088 A 
HETATM    8  C   UNL     1      -5.296   2.644 -32.364  1.00  0.00     0.221 C 
HETATM    9  C   UNL     1      -5.026   1.318 -33.093  1.00  0.00     0.066 C 
HETATM   10  H   UNL     1      -7.250  -0.528 -31.304  1.00  0.00     0.161 HD
ENDROOT
BRANCH   6  11
HETATM   11  C   UNL     1      -9.817   4.203 -31.436  1.00  0.00     0.272 C 
HETATM   12  N   UNL     1     -10.518   4.299 -32.615  1.00  0.00    -0.353 N 
HETATM   13  H   UNL     1     -10.228   3.653 -33.347  1.00  0.00     0.162 HD
HETATM   14  O   UNL     1     -10.152   4.763 -30.396  1.00  0.00    -0.266 OA
BRANCH  12  15
HETATM   15  C   UNL     1     -11.858   4.843 -32.667  1.00  0.00     0.155 C 
BRANCH  15  16
HETATM   16  C   UNL     1     -12.739   4.065 -33.640  1.00  0.00     0.139 C 
HETATM   17  O   UNL     1     -12.333   4.322 -35.002  1.00  0.00    -0.384 OA
HETATM   18  C   UNL     1     -12.437   3.095 -35.742  1.00  0.00     0.168 C 
HETATM   19  C   UNL     1     -13.068   2.071 -34.822  1.00  0.00     0.029 C 
HETATM   20  C   UNL     1     -12.644   2.561 -33.461  1.00  0.00     0.035 C 
ENDBRANCH  15  16
ENDBRANCH  12  15
ENDBRANCH   6  11
BRANCH   8  21
HETATM   21  C   UNL     1      -4.368   2.870 -31.193  1.00  0.00     0.409 C 
HETATM   22  F   UNL     1      -3.987   4.159 -31.073  1.00  0.00    -0.169 F 
HETATM   23  F   UNL     1      -4.886   2.479 -30.010  1.00  0.00    -0.169 F 
HETATM   24  F   UNL     1      -3.231   2.146 -31.370  1.00  0.00    -0.169 F 
ENDBRANCH   8  21
BRANCH   1  25
HETATM   25  C   UNL     1      -5.585  -1.146 -33.141  1.00  0.00    -0.034 A 
HETATM   26  C   UNL     1      -6.724  -1.362 -33.938  1.00  0.00     0.011 A 
HETATM   27  C   UNL     1      -6.836  -2.504 -34.734  1.00  0.00     0.026 A 
HETATM   28  C   UNL     1      -5.813  -3.452 -34.745  1.00  0.00     0.055 A 
HETATM   29  C   UNL     1      -4.674  -3.254 -33.957  1.00  0.00     0.056 A 
HETATM   30 CL   UNL     1      -6.020  -4.844 -35.747  1.00  0.00    -0.083 Cl
HETATM   31  C   UNL     1      -4.562  -2.106 -33.161  1.00  0.00     0.034 A 
HETATM   32 CL   UNL     1      -3.371  -4.388 -33.915  1.00  0.00    -0.083 Cl
ENDBRANCH   1  25
TORSDOF 5
ENDMDL
MODEL 9
REMARK VINA RESULT:      -8.3      4.851      8.040
REMARK  5 active torsions:
REMARK  status: ('A' for Active; 'I' for Inactive)
REMARK    1  A    between atoms: C_2  and  C_3 
REMARK    2  A    between atoms: C_8  and  C_9 
REMARK       I    between atoms: C_9  and  N_10 
REMARK    3  A    between atoms: N_10  and  C_11 
REMARK    4  A    between atoms: C_11  and  C_12 
REMARK    5  A    between atoms: C_19  and  C_20 
ROOT
HETATM    1  C   UNL     1      -4.819   2.209 -32.356  1.00  0.00     0.118 C 
HETATM    2  N   UNL     1      -5.707   1.827 -33.452  1.00  0.00    -0.366 N 
HETATM    3  C   UNL     1      -6.993   1.476 -33.253  1.00  0.00     0.123 A 
HETATM    4  N   UNL     1      -7.472   1.226 -32.000  1.00  0.00    -0.240 N 
HETATM    5  N   UNL     1      -8.801   1.042 -31.946  1.00  0.00    -0.165 NA
HETATM    6  C   UNL     1      -9.173   1.072 -33.247  1.00  0.00     0.148 A 
HETATM    7  C   UNL     1      -8.056   1.312 -34.098  1.00  0.00     0.088 A 
HETATM    8  C   UNL     1      -6.653   1.318 -30.808  1.00  0.00     0.221 C 
HETATM    9  C   UNL     1      -5.587   2.403 -31.028  1.00  0.00     0.066 C 
HETATM   10  H   UNL     1      -5.344   1.980 -34.392  1.00  0.00     0.161 HD
ENDROOT
BRANCH   6  11
HETATM   11  C   UNL     1     -10.576   0.934 -33.670  1.00  0.00     0.272 C 
HETATM   12  N   UNL     1     -10.965   1.879 -34.591  1.00  0.00    -0.353 N 
HETATM   13  H   UNL     1     -10.214   2.456 -34.965  1.00  0.00     0.162 HD
HETATM   14  O   UNL     1     -11.307   0.036 -33.264  1.00  0.00    -0.266 OA
BRANCH  12  15
HETATM   15  C   UNL     1     -12.178   1.736 -35.367  1.00  0.00     0.155 C 
BRANCH  15  16
HETATM   16  C   UNL     1     -13.373   2.364 -34.656  1.00  0.00     0.139 C 
HETATM   17  O   UNL     1     -14.272   1.337 -34.180  1.00  0.00    -0.384 OA
HETATM   18  C   UNL     1     -14.774   1.739 -32.896  1.00  0.00     0.168 C 
HETATM   19  C   UNL     1     -14.265   3.141 -32.636  1.00  0.00     0.029 C 
HETATM   20  C   UNL     1     -12.983   3.167 -33.429  1.00  0.00     0.035 C 
ENDBRANCH  15  16
ENDBRANCH  12  15
ENDBRANCH   6  11
BRANCH   8  21
HETATM   21  C   UNL     1      -6.057  -0.031 -30.480  1.00  0.00     0.409 C 
HETATM   22  F   UNL     1      -6.064  -0.873 -31.535  1.00  0.00    -0.169 F 
HETATM   23  F   UNL     1      -4.792   0.036 -30.013  1.00  0.00    -0.169 F 
HETATM   24  F   UNL     1      -6.793  -0.628 -29.504  1.00  0.00    -0.169 F 
ENDBRANCH   8  21
BRANCH   1  25
HETATM   25  C   UNL     1      -4.088   3.484 -32.752  1.00  0.00    -0.034 A 
HETATM   26  C   UNL     1      -4.681   4.414 -33.626  1.00  0.00     0.011 A 
HETATM   27  C   UNL     1      -4.005   5.577 -34.000  1.00  0.00     0.026 A 
HETATM   28  C   UNL     1      -2.724   5.831 -33.511  1.00  0.00     0.055 A 
HETATM   29  C   UNL     1      -2.119   4.916 -32.642  1.00  0.00     0.056 A 
HETATM   30 CL   UNL     1      -1.943   7.285 -34.019  1.00  0.00    -0.083 Cl
HETATM   31  C   UNL     1      -2.800   3.750 -32.265  1.00  0.00     0.034 A 
HETATM   32 CL   UNL     1      -0.533   5.159 -32.002  1.00  0.00    -0.083 Cl
ENDBRANCH   1  25
TORSDOF 5
ENDMDL
MODEL 10
REMARK VINA RESULT:      -8.2      4.046      5.602
REMARK  5 active torsions:
REMARK  status: ('A' for Active; 'I' for Inactive)
REMARK    1  A    between atoms: C_2  and  C_3 
REMARK    2  A    between atoms: C_8  and  C_9 
REMARK       I    between atoms: C_9  and  N_10 
REMARK    3  A    between atoms: N_10  and  C_11 
REMARK    4  A    between atoms: C_11  and  C_12 
REMARK    5  A    between atoms: C_19  and  C_20 
ROOT
HETATM    1  C   UNL     1      -7.330   1.309 -32.261  1.00  0.00     0.118 C 
HETATM    2  N   UNL     1      -6.739   2.496 -31.647  1.00  0.00    -0.366 N 
HETATM    3  C   UNL     1      -5.427   2.785 -31.745  1.00  0.00     0.123 A 
HETATM    4  N   UNL     1      -4.534   1.868 -32.218  1.00  0.00    -0.240 N 
HETATM    5  N   UNL     1      -3.295   2.352 -32.404  1.00  0.00    -0.165 NA
HETATM    6  C   UNL     1      -3.378   3.615 -31.925  1.00  0.00     0.148 A 
HETATM    7  C   UNL     1      -4.697   3.910 -31.475  1.00  0.00     0.088 A 
HETATM    8  C   UNL     1      -4.919   0.537 -32.643  1.00  0.00     0.221 C 
HETATM    9  C   UNL     1      -6.344   0.600 -33.217  1.00  0.00     0.066 C 
HETATM   10  H   UNL     1      -7.398   3.172 -31.262  1.00  0.00     0.161 HD
ENDROOT
BRANCH   6  11
HETATM   11  C   UNL     1      -2.238   4.545 -31.951  1.00  0.00     0.272 C 
HETATM   12  N   UNL     1      -1.738   4.833 -30.703  1.00  0.00    -0.353 N 
HETATM   13  H   UNL     1      -2.118   4.272 -29.943  1.00  0.00     0.162 HD
HETATM   14  O   UNL     1      -1.762   4.983 -32.994  1.00  0.00    -0.266 OA
BRANCH  12  15
HETATM   15  C   UNL     1      -0.444   5.455 -30.521  1.00  0.00     0.155 C 
BRANCH  15  16
HETATM   16  C   UNL     1      -0.579   6.880 -29.992  1.00  0.00     0.139 C 
HETATM   17  O   UNL     1      -1.727   6.987 -29.121  1.00  0.00    -0.384 OA
HETATM   18  C   UNL     1      -1.385   7.852 -28.028  1.00  0.00     0.168 C 
HETATM   19  C   UNL     1      -0.006   8.411 -28.315  1.00  0.00     0.029 C 
HETATM   20  C   UNL     1       0.609   7.322 -29.158  1.00  0.00     0.035 C 
ENDBRANCH  15  16
ENDBRANCH  12  15
ENDBRANCH   6  11
BRANCH   8  21
HETATM   21  C   UNL     1      -4.792  -0.435 -31.494  1.00  0.00     0.409 C 
HETATM   22  F   UNL     1      -5.856  -1.259 -31.390  1.00  0.00    -0.169 F 
HETATM   23  F   UNL     1      -3.681  -1.200 -31.554  1.00  0.00    -0.169 F 
HETATM   24  F   UNL     1      -4.719   0.253 -30.323  1.00  0.00    -0.169 F 
ENDBRANCH   8  21
BRANCH   1  25
HETATM   25  C   UNL     1      -8.595   1.728 -32.997  1.00  0.00    -0.034 A 
HETATM   26  C   UNL     1      -8.652   2.948 -33.695  1.00  0.00     0.011 A 
HETATM   27  C   UNL     1      -9.817   3.338 -34.360  1.00  0.00     0.026 A 
HETATM   28  C   UNL     1     -10.945   2.518 -34.336  1.00  0.00     0.055 A 
HETATM   29  C   UNL     1     -10.905   1.303 -33.645  1.00  0.00     0.056 A 
HETATM   30 CL   UNL     1     -12.354   3.065 -35.173  1.00  0.00    -0.083 Cl
HETATM   31  C   UNL     1      -9.735   0.911 -32.981  1.00  0.00     0.034 A 
HETATM   32 CL   UNL     1     -12.264   0.240 -33.565  1.00  0.00    -0.083 Cl
ENDBRANCH   1  25
TORSDOF 5
ENDMDL
