MODEL 1
REMARK VINA RESULT:      -8.5      0.000      0.000
REMARK  7 active torsions:
REMARK  status: ('A' for Active; 'I' for Inactive)
REMARK    1  A    between atoms: N_2  and  C_4 
REMARK    2  A    between atoms: C_4  and  C_5 
REMARK    3  A    between atoms: C_5  and  O_6 
REMARK    4  A    between atoms: O_6  and  C_7 
REMARK    5  A    between atoms: C_10  and  N_11 
REMARK       I    between atoms: N_11  and  C_12 
REMARK    6  A    between atoms: C_12  and  C_13 
REMARK    7  A    between atoms: C_14  and  C_15 
ROOT
HETATM    1  N   UNL     1      -4.540   2.023 -32.617  1.00  0.00    -0.323 N 
HETATM    2  C   UNL     1      -5.301   1.112 -31.908  1.00  0.00     0.258 C 
HETATM    3  O   UNL     1      -5.794   1.260 -30.797  1.00  0.00    -0.267 OA
HETATM    4  H   UNL     1      -4.225   1.766 -33.547  1.00  0.00     0.169 HD
ENDROOT
BRANCH   2   5
HETATM    5  C   UNL     1      -5.597  -0.153 -32.618  1.00  0.00     0.065 A 
HETATM    6  C   UNL     1      -4.706  -1.230 -32.764  1.00  0.00     0.077 A 
HETATM    7  C   UNL     1      -5.107  -2.339 -33.572  1.00  0.00     0.009 A 
HETATM    8  C   UNL     1      -6.424  -2.317 -34.100  1.00  0.00     0.067 A 
HETATM    9  C   UNL     1      -4.292  -3.455 -33.897  1.00  0.00     0.014 A 
HETATM   10  N   UNL     1      -7.279  -1.310 -33.890  1.00  0.00    -0.259 NA
HETATM   11  C   UNL     1      -6.872  -3.376 -34.876  1.00  0.00     0.032 A 
HETATM   12  C   UNL     1      -6.864  -0.255 -33.163  1.00  0.00     0.135 A 
HETATM   13  C   UNL     1      -6.061  -4.469 -35.173  1.00  0.00     0.002 A 
HETATM   14  C   UNL     1      -4.766  -4.506 -34.686  1.00  0.00     0.001 A 
BRANCH   6  15
HETATM   15  C   UNL     1      -3.371  -1.160 -32.074  1.00  0.00     0.419 C 
HETATM   16  F   UNL     1      -3.432  -0.581 -30.842  1.00  0.00    -0.166 F 
HETATM   17  F   UNL     1      -2.753  -2.350 -31.862  1.00  0.00    -0.166 F 
HETATM   18  F   UNL     1      -2.491  -0.404 -32.793  1.00  0.00    -0.166 F 
ENDBRANCH   6  15
ENDBRANCH   2   5
BRANCH   1  19
HETATM   19  C   UNL     1      -4.147   3.310 -32.186  1.00  0.00     0.035 A 
HETATM   20  C   UNL     1      -5.019   4.393 -32.072  1.00  0.00     0.032 A 
HETATM   21  C   UNL     1      -4.560   5.645 -31.644  1.00  0.00     0.039 A 
HETATM   22  C   UNL     1      -3.219   5.829 -31.316  1.00  0.00     0.069 A 
HETATM   23  C   UNL     1      -2.341   4.750 -31.432  1.00  0.00     0.039 A 
HETATM   24  C   UNL     1      -2.800   3.501 -31.863  1.00  0.00     0.032 A 
BRANCH  22  25
HETATM   25  O   UNL     1      -2.650   6.995 -30.881  1.00  0.00    -0.349 OA
BRANCH  25  26
HETATM   26  C   UNL     1      -1.306   6.914 -30.411  1.00  0.00     0.203 C 
BRANCH  26  27
HETATM   27  C   UNL     1      -1.332   7.104 -28.891  1.00  0.00     0.260 C 
BRANCH  27  28
HETATM   28  N   UNL     1      -0.646   5.968 -28.150  1.00  0.00    -0.077 N 
HETATM   29  C   UNL     1      -0.365   6.279 -26.705  1.00  0.00     0.269 C 
HETATM   30  H   UNL     1      -1.278   5.156 -28.174  1.00  0.00     0.279 HD
HETATM   31  C   UNL     1       0.611   5.539 -28.864  1.00  0.00     0.269 C 
ENDBRANCH  27  28
ENDBRANCH  26  27
ENDBRANCH  25  26
ENDBRANCH  22  25
ENDBRANCH   1  19
TORSDOF 7
ENDMDL
MODEL 2
REMARK VINA RESULT:      -8.4      1.809      2.318
REMARK  7 active torsions:
REMARK  status: ('A' for Active; 'I' for Inactive)
REMARK    1  A    between atoms: N_2  and  C_4 
REMARK    2  A    between atoms: C_4  and  C_5 
REMARK    3  A    between atoms: C_5  and  O_6 
REMARK    4  A    between atoms: O_6  and  C_7 
REMARK    5  A    between atoms: C_10  and  N_11 
REMARK       I    between atoms: N_11  and  C_12 
REMARK    6  A    between atoms: C_12  and  C_13 
REMARK    7  A    between atoms: C_14  and  C_15 
ROOT
HETATM    1  N   UNL     1      -4.048   1.727 -32.388  1.00  0.00    -0.323 N 
HETATM    2  C   UNL     1      -4.444   0.620 -31.660  1.00  0.00     0.258 C 
HETATM    3  O   UNL     1      -4.750   0.580 -30.475  1.00  0.00    -0.267 OA
HETATM    4  H   UNL     1      -3.855   1.608 -33.377  1.00  0.00     0.169 HD
ENDROOT
BRANCH   2   5
HETATM    5  C   UNL     1      -4.567  -0.635 -32.435  1.00  0.00     0.065 A 
HETATM    6  C   UNL     1      -5.648  -0.973 -33.267  1.00  0.00     0.077 A 
HETATM    7  C   UNL     1      -5.667  -2.272 -33.863  1.00  0.00     0.009 A 
HETATM    8  C   UNL     1      -4.538  -3.104 -33.647  1.00  0.00     0.067 A 
HETATM    9  C   UNL     1      -6.727  -2.802 -34.646  1.00  0.00     0.014 A 
HETATM   10  N   UNL     1      -3.488  -2.733 -32.905  1.00  0.00    -0.259 NA
HETATM   11  C   UNL     1      -4.494  -4.368 -34.216  1.00  0.00     0.032 A 
HETATM   12  C   UNL     1      -3.513  -1.521 -32.316  1.00  0.00     0.135 A 
HETATM   13  C   UNL     1      -5.540  -4.864 -34.992  1.00  0.00     0.002 A 
HETATM   14  C   UNL     1      -6.660  -4.080 -35.203  1.00  0.00     0.001 A 
BRANCH   6  15
HETATM   15  C   UNL     1      -6.738   0.042 -33.481  1.00  0.00     0.419 C 
HETATM   16  F   UNL     1      -7.866  -0.488 -34.031  1.00  0.00    -0.166 F 
HETATM   17  F   UNL     1      -7.171   0.686 -32.367  1.00  0.00    -0.166 F 
HETATM   18  F   UNL     1      -6.331   1.018 -34.344  1.00  0.00    -0.166 F 
ENDBRANCH   6  15
ENDBRANCH   2   5
BRANCH   1  19
HETATM   19  C   UNL     1      -3.887   3.043 -31.901  1.00  0.00     0.035 A 
HETATM   20  C   UNL     1      -4.918   3.801 -31.345  1.00  0.00     0.032 A 
HETATM   21  C   UNL     1      -4.688   5.104 -30.887  1.00  0.00     0.039 A 
HETATM   22  C   UNL     1      -3.417   5.667 -30.972  1.00  0.00     0.069 A 
HETATM   23  C   UNL     1      -2.382   4.916 -31.530  1.00  0.00     0.039 A 
HETATM   24  C   UNL     1      -2.614   3.615 -31.991  1.00  0.00     0.032 A 
BRANCH  22  25
HETATM   25  O   UNL     1      -3.064   6.921 -30.555  1.00  0.00    -0.349 OA
BRANCH  25  26
HETATM   26  C   UNL     1      -1.716   7.095 -30.124  1.00  0.00     0.203 C 
BRANCH  26  27
HETATM   27  C   UNL     1      -1.713   7.087 -28.592  1.00  0.00     0.260 C 
BRANCH  27  28
HETATM   28  N   UNL     1      -0.776   6.038 -28.016  1.00  0.00    -0.077 N 
HETATM   29  C   UNL     1      -0.267   6.378 -26.642  1.00  0.00     0.269 C 
HETATM   30  H   UNL     1      -1.305   5.158 -27.940  1.00  0.00     0.279 HD
HETATM   31  C   UNL     1       0.365   5.757 -28.961  1.00  0.00     0.269 C 
ENDBRANCH  27  28
ENDBRANCH  26  27
ENDBRANCH  25  26
ENDBRANCH  22  25
ENDBRANCH   1  19
TORSDOF 7
ENDMDL
MODEL 3
REMARK VINA RESULT:      -8.4      2.535      3.163
REMARK  7 active torsions:
REMARK  status: ('A' for Active; 'I' for Inactive)
REMARK    1  A    between atoms: N_2  and  C_4 
REMARK    2  A    between atoms: C_4  and  C_5 
REMARK    3  A    between atoms: C_5  and  O_6 
REMARK    4  A    between atoms: O_6  and  C_7 
REMARK    5  A    between atoms: C_10  and  N_11 
REMARK       I    between atoms: N_11  and  C_12 
REMARK    6  A    between atoms: C_12  and  C_13 
REMARK    7  A    between atoms: C_14  and  C_15 
ROOT
HETATM    1  N   UNL     1      -4.465   1.906 -32.998  1.00  0.00    -0.323 N 
HETATM    2  C   UNL     1      -5.271   0.946 -32.415  1.00  0.00     0.258 C 
HETATM    3  O   UNL     1      -6.108   1.111 -31.537  1.00  0.00    -0.267 OA
HETATM    4  H   UNL     1      -3.836   1.619 -33.741  1.00  0.00     0.169 HD
ENDROOT
BRANCH   2   5
HETATM    5  C   UNL     1      -5.135  -0.418 -32.975  1.00  0.00     0.065 A 
HETATM    6  C   UNL     1      -6.046  -1.030 -33.853  1.00  0.00     0.077 A 
HETATM    7  C   UNL     1      -5.827  -2.394 -34.218  1.00  0.00     0.009 A 
HETATM    8  C   UNL     1      -4.643  -3.013 -33.740  1.00  0.00     0.067 A 
HETATM    9  C   UNL     1      -6.700  -3.182 -35.013  1.00  0.00     0.014 A 
HETATM   10  N   UNL     1      -3.755  -2.388 -32.959  1.00  0.00    -0.259 NA
HETATM   11  C   UNL     1      -4.370  -4.330 -34.078  1.00  0.00     0.032 A 
HETATM   12  C   UNL     1      -4.006  -1.116 -32.591  1.00  0.00     0.135 A 
HETATM   13  C   UNL     1      -5.234  -5.083 -34.870  1.00  0.00     0.002 A 
HETATM   14  C   UNL     1      -6.404  -4.508 -35.335  1.00  0.00     0.001 A 
BRANCH   6  15
HETATM   15  C   UNL     1      -7.214  -0.225 -34.355  1.00  0.00     0.419 C 
HETATM   16  F   UNL     1      -6.896   1.071 -34.629  1.00  0.00    -0.166 F 
HETATM   17  F   UNL     1      -7.799  -0.681 -35.493  1.00  0.00    -0.166 F 
HETATM   18  F   UNL     1      -8.207  -0.171 -33.420  1.00  0.00    -0.166 F 
ENDBRANCH   6  15
ENDBRANCH   2   5
BRANCH   1  19
HETATM   19  C   UNL     1      -4.423   3.281 -32.676  1.00  0.00     0.035 A 
HETATM   20  C   UNL     1      -4.965   4.286 -33.478  1.00  0.00     0.032 A 
HETATM   21  C   UNL     1      -4.882   5.632 -33.099  1.00  0.00     0.039 A 
HETATM   22  C   UNL     1      -4.261   5.992 -31.906  1.00  0.00     0.069 A 
HETATM   23  C   UNL     1      -3.714   4.991 -31.101  1.00  0.00     0.039 A 
HETATM   24  C   UNL     1      -3.794   3.647 -31.482  1.00  0.00     0.032 A 
BRANCH  22  25
HETATM   25  O   UNL     1      -4.123   7.265 -31.423  1.00  0.00    -0.349 OA
BRANCH  25  26
HETATM   26  C   UNL     1      -2.806   7.667 -31.051  1.00  0.00     0.203 C 
BRANCH  26  27
HETATM   27  C   UNL     1      -2.113   8.208 -32.306  1.00  0.00     0.260 C 
BRANCH  27  28
HETATM   28  N   UNL     1      -0.934   7.351 -32.736  1.00  0.00    -0.077 N 
HETATM   29  C   UNL     1      -1.238   6.456 -33.906  1.00  0.00     0.269 C 
HETATM   30  H   UNL     1      -0.176   7.987 -33.022  1.00  0.00     0.279 HD
HETATM   31  C   UNL     1      -0.392   6.556 -31.574  1.00  0.00     0.269 C 
ENDBRANCH  27  28
ENDBRANCH  26  27
ENDBRANCH  25  26
ENDBRANCH  22  25
ENDBRANCH   1  19
TORSDOF 7
ENDMDL
MODEL 4
REMARK VINA RESULT:      -8.3      1.742      2.119
REMARK  7 active torsions:
REMARK  status: ('A' for Active; 'I' for Inactive)
REMARK    1  A    between atoms: N_2  and  C_4 
REMARK    2  A    between atoms: C_4  and  C_5 
REMARK    3  A    between atoms: C_5  and  O_6 
REMARK    4  A    between atoms: O_6  and  C_7 
REMARK    5  A    between atoms: C_10  and  N_11 
REMARK       I    between atoms: N_11  and  C_12 
REMARK    6  A    between atoms: C_12  and  C_13 
REMARK    7  A    between atoms: C_14  and  C_15 
ROOT
HETATM    1  N   UNL     1      -5.079   2.044 -33.100  1.00  0.00    -0.323 N 
HETATM    2  C   UNL     1      -5.786   1.127 -32.344  1.00  0.00     0.258 C 
HETATM    3  O   UNL     1      -6.357   1.323 -31.279  1.00  0.00    -0.267 OA
HETATM    4  H   UNL     1      -4.685   1.738 -33.983  1.00  0.00     0.169 HD
ENDROOT
BRANCH   2   5
HETATM    5  C   UNL     1      -5.909  -0.222 -32.941  1.00  0.00     0.065 A 
HETATM    6  C   UNL     1      -4.916  -1.217 -32.914  1.00  0.00     0.077 A 
HETATM    7  C   UNL     1      -5.150  -2.431 -33.631  1.00  0.00     0.009 A 
HETATM    8  C   UNL     1      -6.417  -2.587 -34.250  1.00  0.00     0.067 A 
HETATM    9  C   UNL     1      -4.215  -3.488 -33.784  1.00  0.00     0.014 A 
HETATM   10  N   UNL     1      -7.374  -1.653 -34.205  1.00  0.00    -0.259 NA
HETATM   11  C   UNL     1      -6.705  -3.753 -34.944  1.00  0.00     0.032 A 
HETATM   12  C   UNL     1      -7.114  -0.498 -33.561  1.00  0.00     0.135 A 
HETATM   13  C   UNL     1      -5.778  -4.785 -35.071  1.00  0.00     0.002 A 
HETATM   14  C   UNL     1      -4.528  -4.649 -34.493  1.00  0.00     0.001 A 
BRANCH   6  15
HETATM   15  C   UNL     1      -3.652  -0.952 -32.143  1.00  0.00     0.419 C 
HETATM   16  F   UNL     1      -3.870  -0.328 -30.952  1.00  0.00    -0.166 F 
HETATM   17  F   UNL     1      -2.914  -2.046 -31.825  1.00  0.00    -0.166 F 
HETATM   18  F   UNL     1      -2.818  -0.129 -32.843  1.00  0.00    -0.166 F 
ENDBRANCH   6  15
ENDBRANCH   2   5
BRANCH   1  19
HETATM   19  C   UNL     1      -4.846   3.400 -32.778  1.00  0.00     0.035 A 
HETATM   20  C   UNL     1      -5.342   4.473 -33.518  1.00  0.00     0.032 A 
HETATM   21  C   UNL     1      -5.065   5.795 -33.144  1.00  0.00     0.039 A 
HETATM   22  C   UNL     1      -4.292   6.061 -32.017  1.00  0.00     0.069 A 
HETATM   23  C   UNL     1      -3.790   4.991 -31.275  1.00  0.00     0.039 A 
HETATM   24  C   UNL     1      -4.064   3.672 -31.651  1.00  0.00     0.032 A 
BRANCH  22  25
HETATM   25  O   UNL     1      -3.959   7.302 -31.546  1.00  0.00    -0.349 OA
BRANCH  25  26
HETATM   26  C   UNL     1      -2.571   7.554 -31.338  1.00  0.00     0.203 C 
BRANCH  26  27
HETATM   27  C   UNL     1      -1.956   7.913 -32.695  1.00  0.00     0.260 C 
BRANCH  27  28
HETATM   28  N   UNL     1      -0.887   6.924 -33.130  1.00  0.00    -0.077 N 
HETATM   29  C   UNL     1      -1.315   6.039 -34.269  1.00  0.00     0.269 C 
HETATM   30  H   UNL     1      -0.074   7.469 -33.451  1.00  0.00     0.279 HD
HETATM   31  C   UNL     1      -0.402   6.104 -31.961  1.00  0.00     0.269 C 
ENDBRANCH  27  28
ENDBRANCH  26  27
ENDBRANCH  25  26
ENDBRANCH  22  25
ENDBRANCH   1  19
TORSDOF 7
ENDMDL
MODEL 5
REMARK VINA RESULT:      -7.9      2.445      3.117
REMARK  7 active torsions:
REMARK  status: ('A' for Active; 'I' for Inactive)
REMARK    1  A    between atoms: N_2  and  C_4 
REMARK    2  A    between atoms: C_4  and  C_5 
REMARK    3  A    between atoms: C_5  and  O_6 
REMARK    4  A    between atoms: O_6  and  C_7 
REMARK    5  A    between atoms: C_10  and  N_11 
REMARK       I    between atoms: N_11  and  C_12 
REMARK    6  A    between atoms: C_12  and  C_13 
REMARK    7  A    between atoms: C_14  and  C_15 
ROOT
HETATM    1  N   UNL     1      -3.747   1.948 -32.738  1.00  0.00    -0.323 N 
HETATM    2  C   UNL     1      -4.650   1.054 -32.192  1.00  0.00     0.258 C 
HETATM    3  O   UNL     1      -5.550   1.298 -31.397  1.00  0.00    -0.267 OA
HETATM    4  H   UNL     1      -3.074   1.598 -33.412  1.00  0.00     0.169 HD
ENDROOT
BRANCH   2   5
HETATM    5  C   UNL     1      -4.542  -0.336 -32.686  1.00  0.00     0.065 A 
HETATM    6  C   UNL     1      -5.404  -0.937 -33.619  1.00  0.00     0.077 A 
HETATM    7  C   UNL     1      -5.229  -2.324 -33.913  1.00  0.00     0.009 A 
HETATM    8  C   UNL     1      -4.128  -2.984 -33.307  1.00  0.00     0.067 A 
HETATM    9  C   UNL     1      -6.071  -3.100 -34.753  1.00  0.00     0.014 A 
HETATM   10  N   UNL     1      -3.278  -2.373 -32.474  1.00  0.00    -0.259 NA
HETATM   11  C   UNL     1      -3.899  -4.326 -33.571  1.00  0.00     0.032 A 
HETATM   12  C   UNL     1      -3.490  -1.076 -32.177  1.00  0.00     0.135 A 
HETATM   13  C   UNL     1      -4.730  -5.066 -34.409  1.00  0.00     0.002 A 
HETATM   14  C   UNL     1      -5.821  -4.451 -34.998  1.00  0.00     0.001 A 
BRANCH   6  15
HETATM   15  C   UNL     1      -6.478  -0.095 -34.254  1.00  0.00     0.419 C 
HETATM   16  F   UNL     1      -7.596   0.021 -33.485  1.00  0.00    -0.166 F 
HETATM   17  F   UNL     1      -6.129   1.185 -34.545  1.00  0.00    -0.166 F 
HETATM   18  F   UNL     1      -6.895  -0.645 -35.431  1.00  0.00    -0.166 F 
ENDBRANCH   6  15
ENDBRANCH   2   5
BRANCH   1  19
HETATM   19  C   UNL     1      -3.659   3.331 -32.465  1.00  0.00     0.035 A 
HETATM   20  C   UNL     1      -2.766   3.890 -31.551  1.00  0.00     0.032 A 
HETATM   21  C   UNL     1      -2.738   5.272 -31.325  1.00  0.00     0.039 A 
HETATM   22  C   UNL     1      -3.600   6.118 -32.019  1.00  0.00     0.069 A 
HETATM   23  C   UNL     1      -4.498   5.564 -32.933  1.00  0.00     0.039 A 
HETATM   24  C   UNL     1      -4.528   4.183 -33.155  1.00  0.00     0.032 A 
BRANCH  22  25
HETATM   25  O   UNL     1      -3.664   7.479 -31.895  1.00  0.00    -0.349 OA
BRANCH  25  26
HETATM   26  C   UNL     1      -3.662   7.999 -30.568  1.00  0.00     0.203 C 
BRANCH  26  27
HETATM   27  C   UNL     1      -5.081   7.854 -30.009  1.00  0.00     0.260 C 
BRANCH  27  28
HETATM   28  N   UNL     1      -5.115   7.097 -28.692  1.00  0.00    -0.077 N 
HETATM   29  C   UNL     1      -3.802   7.114 -27.956  1.00  0.00     0.269 C 
HETATM   30  H   UNL     1      -5.812   7.554 -28.089  1.00  0.00     0.279 HD
HETATM   31  C   UNL     1      -5.602   5.684 -28.893  1.00  0.00     0.269 C 
ENDBRANCH  27  28
ENDBRANCH  26  27
ENDBRANCH  25  26
ENDBRANCH  22  25
ENDBRANCH   1  19
TORSDOF 7
ENDMDL
MODEL 6
REMARK VINA RESULT:      -7.9      4.199      5.399
REMARK  7 active torsions:
REMARK  status: ('A' for Active; 'I' for Inactive)
REMARK    1  A    between atoms: N_2  and  C_4 
REMARK    2  A    between atoms: C_4  and  C_5 
REMARK    3  A    between atoms: C_5  and  O_6 
REMARK    4  A    between atoms: O_6  and  C_7 
REMARK    5  A    between atoms: C_10  and  N_11 
REMARK       I    between atoms: N_11  and  C_12 
REMARK    6  A    between atoms: C_12  and  C_13 
REMARK    7  A    between atoms: C_14  and  C_15 
ROOT
HETATM    1  N   UNL     1      -7.376   3.049 -32.876  1.00  0.00    -0.323 N 
HETATM    2  C   UNL     1      -7.848   2.245 -33.898  1.00  0.00     0.258 C 
HETATM    3  O   UNL     1      -7.187   1.584 -34.689  1.00  0.00    -0.267 OA
HETATM    4  H   UNL     1      -8.053   3.513 -32.279  1.00  0.00     0.169 HD
ENDROOT
BRANCH   2   5
HETATM    5  C   UNL     1      -9.321   2.134 -33.987  1.00  0.00     0.065 A 
HETATM    6  C   UNL     1     -10.083   1.046 -33.528  1.00  0.00     0.077 A 
HETATM    7  C   UNL     1     -11.489   1.044 -33.786  1.00  0.00     0.009 A 
HETATM    8  C   UNL     1     -12.038   2.194 -34.410  1.00  0.00     0.067 A 
HETATM    9  C   UNL     1     -12.379  -0.018 -33.477  1.00  0.00     0.014 A 
HETATM   10  N   UNL     1     -11.302   3.249 -34.777  1.00  0.00    -0.259 NA
HETATM   11  C   UNL     1     -13.400   2.254 -34.667  1.00  0.00     0.032 A 
HETATM   12  C   UNL     1      -9.971   3.209 -34.564  1.00  0.00     0.135 A 
HETATM   13  C   UNL     1     -14.259   1.206 -34.345  1.00  0.00     0.002 A 
HETATM   14  C   UNL     1     -13.746   0.065 -33.752  1.00  0.00     0.001 A 
BRANCH   6  15
HETATM   15  C   UNL     1      -9.382  -0.069 -32.800  1.00  0.00     0.419 C 
HETATM   16  F   UNL     1     -10.230  -1.042 -32.365  1.00  0.00    -0.166 F 
HETATM   17  F   UNL     1      -8.435  -0.733 -33.510  1.00  0.00    -0.166 F 
HETATM   18  F   UNL     1      -8.753   0.399 -31.683  1.00  0.00    -0.166 F 
ENDBRANCH   6  15
ENDBRANCH   2   5
BRANCH   1  19
HETATM   19  C   UNL     1      -6.024   3.295 -32.553  1.00  0.00     0.035 A 
HETATM   20  C   UNL     1      -5.288   4.372 -33.049  1.00  0.00     0.032 A 
HETATM   21  C   UNL     1      -3.945   4.553 -32.690  1.00  0.00     0.039 A 
HETATM   22  C   UNL     1      -3.321   3.660 -31.822  1.00  0.00     0.069 A 
HETATM   23  C   UNL     1      -4.052   2.579 -31.326  1.00  0.00     0.039 A 
HETATM   24  C   UNL     1      -5.391   2.397 -31.688  1.00  0.00     0.032 A 
BRANCH  22  25
HETATM   25  O   UNL     1      -2.025   3.731 -31.392  1.00  0.00    -0.349 OA
BRANCH  25  26
HETATM   26  C   UNL     1      -1.328   4.945 -31.661  1.00  0.00     0.203 C 
BRANCH  26  27
HETATM   27  C   UNL     1      -0.328   5.170 -30.522  1.00  0.00     0.260 C 
BRANCH  27  28
HETATM   28  N   UNL     1      -0.954   5.868 -29.326  1.00  0.00    -0.077 N 
HETATM   29  C   UNL     1      -1.910   6.966 -29.705  1.00  0.00     0.269 C 
HETATM   30  H   UNL     1      -1.487   5.162 -28.799  1.00  0.00     0.279 HD
HETATM   31  C   UNL     1       0.107   6.376 -28.382  1.00  0.00     0.269 C 
ENDBRANCH  27  28
ENDBRANCH  26  27
ENDBRANCH  25  26
ENDBRANCH  22  25
ENDBRANCH   1  19
TORSDOF 7
ENDMDL
MODEL 7
REMARK VINA RESULT:      -7.8      2.741      9.797
REMARK  7 active torsions:
REMARK  status: ('A' for Active; 'I' for Inactive)
REMARK    1  A    between atoms: N_2  and  C_4 
REMARK    2  A    between atoms: C_4  and  C_5 
REMARK    3  A    between atoms: C_5  and  O_6 
REMARK    4  A    between atoms: O_6  and  C_7 
REMARK    5  A    between atoms: C_10  and  N_11 
REMARK       I    between atoms: N_11  and  C_12 
REMARK    6  A    between atoms: C_12  and  C_13 
REMARK    7  A    between atoms: C_14  and  C_15 
ROOT
HETATM    1  N   UNL     1      -3.405   4.298 -30.859  1.00  0.00    -0.323 N 
HETATM    2  C   UNL     1      -3.037   5.485 -31.465  1.00  0.00     0.258 C 
HETATM    3  O   UNL     1      -3.241   5.822 -32.624  1.00  0.00    -0.267 OA
HETATM    4  H   UNL     1      -3.193   4.174 -29.875  1.00  0.00     0.169 HD
ENDROOT
BRANCH   2   5
HETATM    5  C   UNL     1      -2.383   6.471 -30.577  1.00  0.00     0.065 A 
HETATM    6  C   UNL     1      -1.017   6.485 -30.244  1.00  0.00     0.077 A 
HETATM    7  C   UNL     1      -0.561   7.442 -29.286  1.00  0.00     0.009 A 
HETATM    8  C   UNL     1      -1.508   8.381 -28.801  1.00  0.00     0.067 A 
HETATM    9  C   UNL     1       0.760   7.524 -28.771  1.00  0.00     0.014 A 
HETATM   10  N   UNL     1      -2.790   8.391 -29.185  1.00  0.00    -0.259 NA
HETATM   11  C   UNL     1      -1.116   9.344 -27.883  1.00  0.00     0.032 A 
HETATM   12  C   UNL     1      -3.207   7.451 -30.055  1.00  0.00     0.135 A 
HETATM   13  C   UNL     1       0.189   9.415 -27.400  1.00  0.00     0.002 A 
HETATM   14  C   UNL     1       1.128   8.500 -27.843  1.00  0.00     0.001 A 
BRANCH   6  15
HETATM   15  C   UNL     1      -0.105   5.486 -30.902  1.00  0.00     0.419 C 
HETATM   16  F   UNL     1      -0.602   4.994 -32.071  1.00  0.00    -0.166 F 
HETATM   17  F   UNL     1       1.135   5.939 -31.220  1.00  0.00    -0.166 F 
HETATM   18  F   UNL     1       0.088   4.400 -30.098  1.00  0.00    -0.166 F 
ENDBRANCH   6  15
ENDBRANCH   2   5
BRANCH   1  19
HETATM   19  C   UNL     1      -4.071   3.211 -31.469  1.00  0.00     0.035 A 
HETATM   20  C   UNL     1      -3.424   2.078 -31.963  1.00  0.00     0.032 A 
HETATM   21  C   UNL     1      -4.147   1.039 -32.562  1.00  0.00     0.039 A 
HETATM   22  C   UNL     1      -5.534   1.115 -32.668  1.00  0.00     0.069 A 
HETATM   23  C   UNL     1      -6.187   2.248 -32.178  1.00  0.00     0.039 A 
HETATM   24  C   UNL     1      -5.463   3.287 -31.584  1.00  0.00     0.032 A 
BRANCH  22  25
HETATM   25  O   UNL     1      -6.351   0.168 -33.221  1.00  0.00    -0.349 OA
BRANCH  25  26
HETATM   26  C   UNL     1      -5.834  -1.158 -33.294  1.00  0.00     0.203 C 
BRANCH  26  27
HETATM   27  C   UNL     1      -6.417  -1.817 -34.549  1.00  0.00     0.260 C 
BRANCH  27  28
HETATM   28  N   UNL     1      -5.606  -3.018 -35.006  1.00  0.00    -0.077 N 
HETATM   29  C   UNL     1      -6.378  -4.309 -34.976  1.00  0.00     0.269 C 
HETATM   30  H   UNL     1      -5.325  -2.850 -35.982  1.00  0.00     0.279 HD
HETATM   31  C   UNL     1      -4.325  -3.136 -34.220  1.00  0.00     0.269 C 
ENDBRANCH  27  28
ENDBRANCH  26  27
ENDBRANCH  25  26
ENDBRANCH  22  25
ENDBRANCH   1  19
TORSDOF 7
ENDMDL
MODEL 8
REMARK VINA RESULT:      -7.8      3.612      4.454
REMARK  7 active torsions:
REMARK  status: ('A' for Active; 'I' for Inactive)
REMARK    1  A    between atoms: N_2  and  C_4 
REMARK    2  A    between atoms: C_4  and  C_5 
REMARK    3  A    between atoms: C_5  and  O_6 
REMARK    4  A    between atoms: O_6  and  C_7 
REMARK    5  A    between atoms: C_10  and  N_11 
REMARK       I    between atoms: N_11  and  C_12 
REMARK    6  A    between atoms: C_12  and  C_13 
REMARK    7  A    between atoms: C_14  and  C_15 
ROOT
HETATM    1  N   UNL     1      -6.204   1.254 -31.395  1.00  0.00    -0.323 N 
HETATM    2  C   UNL     1      -5.387   1.152 -32.506  1.00  0.00     0.258 C 
HETATM    3  O   UNL     1      -4.809   2.060 -33.090  1.00  0.00    -0.267 OA
HETATM    4  H   UNL     1      -6.590   0.401 -31.003  1.00  0.00     0.169 HD
ENDROOT
BRANCH   2   5
HETATM    5  C   UNL     1      -5.146  -0.226 -32.989  1.00  0.00     0.065 A 
HETATM    6  C   UNL     1      -5.975  -0.933 -33.878  1.00  0.00     0.077 A 
HETATM    7  C   UNL     1      -5.660  -2.297 -34.163  1.00  0.00     0.009 A 
HETATM    8  C   UNL     1      -4.469  -2.822 -33.597  1.00  0.00     0.067 A 
HETATM    9  C   UNL     1      -6.445  -3.173 -34.958  1.00  0.00     0.014 A 
HETATM   10  N   UNL     1      -3.659  -2.109 -32.807  1.00  0.00    -0.259 NA
HETATM   11  C   UNL     1      -4.105  -4.135 -33.855  1.00  0.00     0.032 A 
HETATM   12  C   UNL     1      -4.000  -0.838 -32.516  1.00  0.00     0.135 A 
HETATM   13  C   UNL     1      -4.883  -4.975 -34.649  1.00  0.00     0.002 A 
HETATM   14  C   UNL     1      -6.058  -4.493 -35.198  1.00  0.00     0.001 A 
BRANCH   6  15
HETATM   15  C   UNL     1      -7.159  -0.223 -34.477  1.00  0.00     0.419 C 
HETATM   16  F   UNL     1      -7.792  -0.951 -35.439  1.00  0.00    -0.166 F 
HETATM   17  F   UNL     1      -8.143   0.121 -33.606  1.00  0.00    -0.166 F 
HETATM   18  F   UNL     1      -6.776   0.937 -35.085  1.00  0.00    -0.166 F 
ENDBRANCH   6  15
ENDBRANCH   2   5
BRANCH   1  19
HETATM   19  C   UNL     1      -6.563   2.441 -30.719  1.00  0.00     0.035 A 
HETATM   20  C   UNL     1      -5.660   3.247 -30.026  1.00  0.00     0.032 A 
HETATM   21  C   UNL     1      -6.088   4.410 -29.371  1.00  0.00     0.039 A 
HETATM   22  C   UNL     1      -7.428   4.786 -29.407  1.00  0.00     0.069 A 
HETATM   23  C   UNL     1      -8.337   3.981 -30.096  1.00  0.00     0.039 A 
HETATM   24  C   UNL     1      -7.910   2.818 -30.746  1.00  0.00     0.032 A 
BRANCH  22  25
HETATM   25  O   UNL     1      -7.967   5.897 -28.818  1.00  0.00    -0.349 OA
BRANCH  25  26
HETATM   26  C   UNL     1      -7.280   7.128 -29.027  1.00  0.00     0.203 C 
BRANCH  26  27
HETATM   27  C   UNL     1      -7.696   7.665 -30.401  1.00  0.00     0.260 C 
BRANCH  27  28
HETATM   28  N   UNL     1      -6.524   7.779 -31.362  1.00  0.00    -0.077 N 
HETATM   29  C   UNL     1      -6.487   6.687 -32.395  1.00  0.00     0.269 C 
HETATM   30  H   UNL     1      -6.619   8.674 -31.862  1.00  0.00     0.279 HD
HETATM   31  C   UNL     1      -5.218   7.859 -30.613  1.00  0.00     0.269 C 
ENDBRANCH  27  28
ENDBRANCH  26  27
ENDBRANCH  25  26
ENDBRANCH  22  25
ENDBRANCH   1  19
TORSDOF 7
ENDMDL
MODEL 9
REMARK VINA RESULT:      -7.8      3.011      3.621
REMARK  7 active torsions:
REMARK  status: ('A' for Active; 'I' for Inactive)
REMARK    1  A    between atoms: N_2  and  C_4 
REMARK    2  A    between atoms: C_4  and  C_5 
REMARK    3  A    between atoms: C_5  and  O_6 
REMARK    4  A    between atoms: O_6  and  C_7 
REMARK    5  A    between atoms: C_10  and  N_11 
REMARK       I    between atoms: N_11  and  C_12 
REMARK    6  A    between atoms: C_12  and  C_13 
REMARK    7  A    between atoms: C_14  and  C_15 
ROOT
HETATM    1  N   UNL     1      -6.187   1.273 -31.383  1.00  0.00    -0.323 N 
HETATM    2  C   UNL     1      -5.527   1.190 -32.594  1.00  0.00     0.258 C 
HETATM    3  O   UNL     1      -5.046   2.109 -33.244  1.00  0.00    -0.267 OA
HETATM    4  H   UNL     1      -6.505   0.413 -30.948  1.00  0.00     0.169 HD
ENDROOT
BRANCH   2   5
HETATM    5  C   UNL     1      -5.333  -0.183 -33.115  1.00  0.00     0.065 A 
HETATM    6  C   UNL     1      -6.257  -0.892 -33.901  1.00  0.00     0.077 A 
HETATM    7  C   UNL     1      -5.966  -2.250 -34.234  1.00  0.00     0.009 A 
HETATM    8  C   UNL     1      -4.709  -2.766 -33.823  1.00  0.00     0.067 A 
HETATM    9  C   UNL     1      -6.834  -3.129 -34.934  1.00  0.00     0.014 A 
HETATM   10  N   UNL     1      -3.815  -2.049 -33.133  1.00  0.00    -0.259 NA
HETATM   11  C   UNL     1      -4.366  -4.073 -34.135  1.00  0.00     0.032 A 
HETATM   12  C   UNL     1      -4.131  -0.784 -32.791  1.00  0.00     0.135 A 
HETATM   13  C   UNL     1      -5.227  -4.916 -34.834  1.00  0.00     0.002 A 
HETATM   14  C   UNL     1      -6.466  -4.443 -35.231  1.00  0.00     0.001 A 
BRANCH   6  15
HETATM   15  C   UNL     1      -7.513  -0.191 -34.344  1.00  0.00     0.419 C 
HETATM   16  F   UNL     1      -8.546  -0.336 -33.468  1.00  0.00    -0.166 F 
HETATM   17  F   UNL     1      -7.407   1.150 -34.529  1.00  0.00    -0.166 F 
HETATM   18  F   UNL     1      -7.961  -0.698 -35.530  1.00  0.00    -0.166 F 
ENDBRANCH   6  15
ENDBRANCH   2   5
BRANCH   1  19
HETATM   19  C   UNL     1      -6.470   2.451 -30.656  1.00  0.00     0.035 A 
HETATM   20  C   UNL     1      -7.753   2.967 -30.475  1.00  0.00     0.032 A 
HETATM   21  C   UNL     1      -7.960   4.145 -29.746  1.00  0.00     0.039 A 
HETATM   22  C   UNL     1      -6.882   4.822 -29.180  1.00  0.00     0.069 A 
HETATM   23  C   UNL     1      -5.595   4.313 -29.361  1.00  0.00     0.039 A 
HETATM   24  C   UNL     1      -5.389   3.138 -30.093  1.00  0.00     0.032 A 
BRANCH  22  25
HETATM   25  O   UNL     1      -6.953   5.973 -28.444  1.00  0.00    -0.349 OA
BRANCH  25  26
HETATM   26  C   UNL     1      -5.898   6.914 -28.627  1.00  0.00     0.203 C 
BRANCH  26  27
HETATM   27  C   UNL     1      -5.134   7.021 -27.303  1.00  0.00     0.260 C 
BRANCH  27  28
HETATM   28  N   UNL     1      -3.642   6.784 -27.471  1.00  0.00    -0.077 N 
HETATM   29  C   UNL     1      -2.879   6.829 -26.175  1.00  0.00     0.269 C 
HETATM   30  H   UNL     1      -3.520   5.843 -27.869  1.00  0.00     0.279 HD
HETATM   31  C   UNL     1      -3.053   7.740 -28.477  1.00  0.00     0.269 C 
ENDBRANCH  27  28
ENDBRANCH  26  27
ENDBRANCH  25  26
ENDBRANCH  22  25
ENDBRANCH   1  19
TORSDOF 7
ENDMDL
MODEL 10
REMARK VINA RESULT:      -7.7      1.745      2.316
REMARK  7 active torsions:
REMARK  status: ('A' for Active; 'I' for Inactive)
REMARK    1  A    between atoms: N_2  and  C_4 
REMARK    2  A    between atoms: C_4  and  C_5 
REMARK    3  A    between atoms: C_5  and  O_6 
REMARK    4  A    between atoms: O_6  and  C_7 
REMARK    5  A    between atoms: C_10  and  N_11 
REMARK       I    between atoms: N_11  and  C_12 
REMARK    6  A    between atoms: C_12  and  C_13 
REMARK    7  A    between atoms: C_14  and  C_15 
ROOT
HETATM    1  N   UNL     1      -4.478   2.030 -32.790  1.00  0.00    -0.323 N 
HETATM    2  C   UNL     1      -5.332   1.190 -32.100  1.00  0.00     0.258 C 
HETATM    3  O   UNL     1      -5.922   1.427 -31.053  1.00  0.00    -0.267 OA
HETATM    4  H   UNL     1      -4.086   1.702 -33.667  1.00  0.00     0.169 HD
ENDROOT
BRANCH   2   5
HETATM    5  C   UNL     1      -5.602  -0.111 -32.751  1.00  0.00     0.065 A 
HETATM    6  C   UNL     1      -4.723  -1.208 -32.772  1.00  0.00     0.077 A 
HETATM    7  C   UNL     1      -5.089  -2.358 -33.537  1.00  0.00     0.009 A 
HETATM    8  C   UNL     1      -6.367  -2.351 -34.153  1.00  0.00     0.067 A 
HETATM    9  C   UNL     1      -4.274  -3.503 -33.740  1.00  0.00     0.014 A 
HETATM   10  N   UNL     1      -7.217  -1.321 -34.063  1.00  0.00    -0.259 NA
HETATM   11  C   UNL     1      -6.781  -3.448 -34.893  1.00  0.00     0.032 A 
HETATM   12  C   UNL     1      -6.832  -0.229 -33.373  1.00  0.00     0.135 A 
HETATM   13  C   UNL     1      -5.971  -4.568 -35.069  1.00  0.00     0.002 A 
HETATM   14  C   UNL     1      -4.713  -4.593 -34.494  1.00  0.00     0.001 A 
BRANCH   6  15
HETATM   15  C   UNL     1      -3.435  -1.113 -32.000  1.00  0.00     0.419 C 
HETATM   16  F   UNL     1      -3.565  -0.446 -30.819  1.00  0.00    -0.166 F 
HETATM   17  F   UNL     1      -2.862  -2.297 -31.662  1.00  0.00    -0.166 F 
HETATM   18  F   UNL     1      -2.491  -0.429 -32.709  1.00  0.00    -0.166 F 
ENDBRANCH   6  15
ENDBRANCH   2   5
BRANCH   1  19
HETATM   19  C   UNL     1      -4.085   3.332 -32.409  1.00  0.00     0.035 A 
HETATM   20  C   UNL     1      -2.909   3.619 -31.714  1.00  0.00     0.032 A 
HETATM   21  C   UNL     1      -2.585   4.936 -31.362  1.00  0.00     0.039 A 
HETATM   22  C   UNL     1      -3.430   5.987 -31.709  1.00  0.00     0.069 A 
HETATM   23  C   UNL     1      -4.609   5.705 -32.401  1.00  0.00     0.039 A 
HETATM   24  C   UNL     1      -4.934   4.390 -32.748  1.00  0.00     0.032 A 
BRANCH  22  25
HETATM   25  O   UNL     1      -3.222   7.310 -31.431  1.00  0.00    -0.349 OA
BRANCH  25  26
HETATM   26  C   UNL     1      -4.385   8.108 -31.215  1.00  0.00     0.203 C 
BRANCH  26  27
HETATM   27  C   UNL     1      -4.410   8.502 -29.735  1.00  0.00     0.260 C 
BRANCH  27  28
HETATM   28  N   UNL     1      -5.450   7.726 -28.943  1.00  0.00    -0.077 N 
HETATM   29  C   UNL     1      -4.915   6.464 -28.325  1.00  0.00     0.269 C 
HETATM   30  H   UNL     1      -5.772   8.333 -28.176  1.00  0.00     0.279 HD
HETATM   31  C   UNL     1      -6.668   7.441 -29.785  1.00  0.00     0.269 C 
ENDBRANCH  27  28
ENDBRANCH  26  27
ENDBRANCH  25  26
ENDBRANCH  22  25
ENDBRANCH   1  19
TORSDOF 7
ENDMDL
