MODEL 1
REMARK VINA RESULT:     -10.9      0.000      0.000
REMARK  8 active torsions:
REMARK  status: ('A' for Active; 'I' for Inactive)
REMARK    1  A    between atoms: C_4  and  C_5 
REMARK    2  A    between atoms: C_5  and  N_6 
REMARK    3  A    between atoms: C_5  and  C_36 
REMARK    4  A    between atoms: N_10  and  C_11 
REMARK    5  A    between atoms: C_13  and  C_14 
REMARK       I    between atoms: C_14  and  N_15 
REMARK    6  A    between atoms: N_15  and  C_16 
REMARK    7  A    between atoms: C_19  and  O_20 
REMARK    8  A    between atoms: O_20  and  C_21 
ROOT
HETATM    1  C   UNL     1      -9.666   2.826 -32.897  1.00  0.00     0.181 C 
HETATM    2  N   UNL     1      -9.516   3.305 -31.641  1.00  0.00    -0.351 N 
HETATM    3  C   UNL     1      -8.804   4.563 -31.471  1.00  0.00     0.185 C 
HETATM    4  C   UNL     1      -9.263   5.530 -32.539  1.00  0.00     0.140 C 
HETATM    5  C   UNL     1      -9.240   4.851 -33.886  1.00  0.00     0.248 C 
HETATM    6  O   UNL     1      -8.985   5.509 -34.892  1.00  0.00    -0.271 OA
HETATM    7  N   UNL     1      -9.570   3.520 -33.978  1.00  0.00    -0.185 NA
HETATM    8  H   UNL     1      -9.300   2.599 -30.944  1.00  0.00     0.163 HD
ENDROOT
BRANCH   1   9
HETATM    9  N   UNL     1      -9.894   1.467 -32.909  1.00  0.00    -0.250 NA
HETATM   10  C   UNL     1      -9.191   0.710 -31.842  1.00  0.00     0.126 C 
HETATM   11  C   UNL     1      -7.692   0.546 -32.180  1.00  0.00     0.251 C 
HETATM   12  N   UNL     1      -7.549  -0.187 -33.517  1.00  0.00    -0.057 N 
HETATM   13  H   UNL     1      -8.033  -1.083 -33.411  1.00  0.00     0.281 HD
HETATM   14  C   UNL     1      -8.299   0.543 -34.626  1.00  0.00     0.251 C 
HETATM   15  C   UNL     1      -9.771   0.785 -34.222  1.00  0.00     0.126 C 
BRANCH  12  16
HETATM   16  C   UNL     1      -6.102  -0.578 -33.828  1.00  0.00     0.254 C 
BRANCH  16  17
HETATM   17  C   UNL     1      -5.860  -2.042 -34.188  1.00  0.00    -0.023 A 
HETATM   18  C   UNL     1      -6.961  -2.846 -34.550  1.00  0.00     0.009 A 
HETATM   19  C   UNL     1      -6.802  -4.201 -34.848  1.00  0.00     0.001 A 
HETATM   20  C   UNL     1      -5.542  -4.784 -34.796  1.00  0.00     0.000 A 
HETATM   21  C   UNL     1      -4.438  -4.010 -34.455  1.00  0.00     0.001 A 
HETATM   22  C   UNL     1      -4.595  -2.653 -34.161  1.00  0.00     0.009 A 
ENDBRANCH  16  17
BRANCH  16  23
HETATM   23  C   UNL     1      -5.120   0.096 -32.869  1.00  0.00    -0.023 A 
HETATM   24  C   UNL     1      -4.681   1.405 -33.165  1.00  0.00     0.009 A 
HETATM   25  C   UNL     1      -3.821   2.093 -32.307  1.00  0.00     0.001 A 
HETATM   26  C   UNL     1      -3.381   1.487 -31.135  1.00  0.00     0.000 A 
HETATM   27  C   UNL     1      -3.797   0.197 -30.825  1.00  0.00     0.001 A 
HETATM   28  C   UNL     1      -4.660  -0.494 -31.682  1.00  0.00     0.009 A 
ENDBRANCH  16  23
ENDBRANCH  12  16
ENDBRANCH   1   9
BRANCH   3  29
HETATM   29  C   UNL     1      -7.271   4.335 -31.492  1.00  0.00     0.245 C 
HETATM   30  N   UNL     1      -6.581   5.347 -32.143  1.00  0.00    -0.325 N 
HETATM   31  H   UNL     1      -7.121   6.052 -32.632  1.00  0.00     0.169 HD
HETATM   32  O   UNL     1      -6.769   3.358 -30.936  1.00  0.00    -0.271 OA
BRANCH  30  33
HETATM   33  C   UNL     1      -5.182   5.542 -32.184  1.00  0.00     0.035 A 
HETATM   34  C   UNL     1      -4.417   5.480 -33.352  1.00  0.00     0.032 A 
HETATM   35  C   UNL     1      -3.028   5.634 -33.298  1.00  0.00     0.039 A 
HETATM   36  C   UNL     1      -2.396   5.873 -32.081  1.00  0.00     0.076 A 
HETATM   37  C   UNL     1      -3.143   5.924 -30.907  1.00  0.00     0.039 A 
HETATM   38  C   UNL     1      -4.532   5.766 -30.961  1.00  0.00     0.032 A 
BRANCH  36  39
HETATM   39  O   UNL     1      -1.023   5.954 -32.092  1.00  0.00    -0.311 OA
BRANCH  39  40
HETATM   40  C   UNL     1      -0.377   6.101 -30.885  1.00  0.00     0.076 A 
HETATM   41  C   UNL     1      -0.337   7.394 -30.357  1.00  0.00     0.037 A 
HETATM   42  C   UNL     1       0.255   7.622 -29.114  1.00  0.00     0.003 A 
HETATM   43  C   UNL     1       0.795   6.558 -28.394  1.00  0.00     0.000 A 
HETATM   44  C   UNL     1       0.737   5.264 -28.911  1.00  0.00     0.003 A 
HETATM   45  C   UNL     1       0.144   5.031 -30.153  1.00  0.00     0.037 A 
ENDBRANCH  39  40
ENDBRANCH  36  39
ENDBRANCH  30  33
ENDBRANCH   3  29
TORSDOF 8
ENDMDL
MODEL 2
REMARK VINA RESULT:     -10.4      2.797      7.884
REMARK  8 active torsions:
REMARK  status: ('A' for Active; 'I' for Inactive)
REMARK    1  A    between atoms: C_4  and  C_5 
REMARK    2  A    between atoms: C_5  and  N_6 
REMARK    3  A    between atoms: C_5  and  C_36 
REMARK    4  A    between atoms: N_10  and  C_11 
REMARK    5  A    between atoms: C_13  and  C_14 
REMARK       I    between atoms: C_14  and  N_15 
REMARK    6  A    between atoms: N_15  and  C_16 
REMARK    7  A    between atoms: C_19  and  O_20 
REMARK    8  A    between atoms: O_20  and  C_21 
ROOT
HETATM    1  C   UNL     1      -4.494   3.042 -30.831  1.00  0.00     0.181 C 
HETATM    2  N   UNL     1      -4.138   3.678 -31.971  1.00  0.00    -0.351 N 
HETATM    3  C   UNL     1      -4.910   4.844 -32.372  1.00  0.00     0.185 C 
HETATM    4  C   UNL     1      -5.177   5.694 -31.151  1.00  0.00     0.140 C 
HETATM    5  C   UNL     1      -5.689   4.826 -30.027  1.00  0.00     0.248 C 
HETATM    6  O   UNL     1      -6.492   5.291 -29.221  1.00  0.00    -0.271 OA
HETATM    7  N   UNL     1      -5.199   3.551 -29.882  1.00  0.00    -0.185 NA
HETATM    8  H   UNL     1      -3.877   3.059 -32.734  1.00  0.00     0.163 HD
ENDROOT
BRANCH   1   9
HETATM    9  N   UNL     1      -4.051   1.738 -30.807  1.00  0.00    -0.250 NA
HETATM   10  C   UNL     1      -3.378   1.286 -32.051  1.00  0.00     0.126 C 
HETATM   11  C   UNL     1      -4.412   1.002 -33.164  1.00  0.00     0.251 C 
HETATM   12  N   UNL     1      -5.393  -0.072 -32.685  1.00  0.00    -0.057 N 
HETATM   13  H   UNL     1      -4.831  -0.894 -32.445  1.00  0.00     0.281 HD
HETATM   14  C   UNL     1      -6.069   0.343 -31.383  1.00  0.00     0.251 C 
HETATM   15  C   UNL     1      -5.015   0.719 -30.317  1.00  0.00     0.126 C 
BRANCH  12  16
HETATM   16  C   UNL     1      -6.322  -0.566 -33.797  1.00  0.00     0.254 C 
BRANCH  16  17
HETATM   17  C   UNL     1      -7.782  -0.129 -33.702  1.00  0.00    -0.023 A 
HETATM   18  C   UNL     1      -8.250   0.878 -34.572  1.00  0.00     0.009 A 
HETATM   19  C   UNL     1      -9.565   1.344 -34.501  1.00  0.00     0.001 A 
HETATM   20  C   UNL     1     -10.442   0.815 -33.562  1.00  0.00     0.000 A 
HETATM   21  C   UNL     1     -10.010  -0.188 -32.703  1.00  0.00     0.001 A 
HETATM   22  C   UNL     1      -8.696  -0.659 -32.776  1.00  0.00     0.009 A 
ENDBRANCH  16  17
BRANCH  16  23
HETATM   23  C   UNL     1      -6.032  -2.021 -34.167  1.00  0.00    -0.023 A 
HETATM   24  C   UNL     1      -4.728  -2.520 -33.962  1.00  0.00     0.009 A 
HETATM   25  C   UNL     1      -4.409  -3.852 -34.236  1.00  0.00     0.001 A 
HETATM   26  C   UNL     1      -5.389  -4.713 -34.719  1.00  0.00     0.000 A 
HETATM   27  C   UNL     1      -6.680  -4.242 -34.932  1.00  0.00     0.001 A 
HETATM   28  C   UNL     1      -7.002  -2.909 -34.657  1.00  0.00     0.009 A 
ENDBRANCH  16  23
ENDBRANCH  12  16
ENDBRANCH   1   9
BRANCH   3  29
HETATM   29  C   UNL     1      -6.212   4.418 -33.099  1.00  0.00     0.245 C 
HETATM   30  N   UNL     1      -7.359   4.725 -32.382  1.00  0.00    -0.325 N 
HETATM   31  H   UNL     1      -7.248   5.073 -31.436  1.00  0.00     0.169 HD
HETATM   32  O   UNL     1      -6.173   3.902 -34.216  1.00  0.00    -0.271 OA
BRANCH  30  33
HETATM   33  C   UNL     1      -8.697   4.642 -32.828  1.00  0.00     0.035 A 
HETATM   34  C   UNL     1      -9.123   5.038 -34.098  1.00  0.00     0.032 A 
HETATM   35  C   UNL     1     -10.477   4.972 -34.444  1.00  0.00     0.039 A 
HETATM   36  C   UNL     1     -11.411   4.488 -33.530  1.00  0.00     0.076 A 
HETATM   37  C   UNL     1     -11.003   4.103 -32.256  1.00  0.00     0.039 A 
HETATM   38  C   UNL     1      -9.649   4.174 -31.910  1.00  0.00     0.032 A 
BRANCH  36  39
HETATM   39  O   UNL     1     -12.731   4.507 -33.912  1.00  0.00    -0.311 OA
BRANCH  39  40
HETATM   40  C   UNL     1     -13.462   3.349 -33.765  1.00  0.00     0.076 A 
HETATM   41  C   UNL     1     -13.263   2.363 -34.734  1.00  0.00     0.037 A 
HETATM   42  C   UNL     1     -13.925   1.140 -34.632  1.00  0.00     0.003 A 
HETATM   43  C   UNL     1     -14.777   0.897 -33.556  1.00  0.00     0.000 A 
HETATM   44  C   UNL     1     -14.961   1.874 -32.576  1.00  0.00     0.003 A 
HETATM   45  C   UNL     1     -14.298   3.098 -32.674  1.00  0.00     0.037 A 
ENDBRANCH  39  40
ENDBRANCH  36  39
ENDBRANCH  30  33
ENDBRANCH   3  29
TORSDOF 8
ENDMDL
MODEL 3
REMARK VINA RESULT:     -10.3      2.739      7.253
REMARK  8 active torsions:
REMARK  status: ('A' for Active; 'I' for Inactive)
REMARK    1  A    between atoms: C_4  and  C_5 
REMARK    2  A    between atoms: C_5  and  N_6 
REMARK    3  A    between atoms: C_5  and  C_36 
REMARK    4  A    between atoms: N_10  and  C_11 
REMARK    5  A    between atoms: C_13  and  C_14 
REMARK       I    between atoms: C_14  and  N_15 
REMARK    6  A    between atoms: N_15  and  C_16 
REMARK    7  A    between atoms: C_19  and  O_20 
REMARK    8  A    between atoms: O_20  and  C_21 
ROOT
HETATM    1  C   UNL     1      -7.740   5.936 -31.563  1.00  0.00     0.181 C 
HETATM    2  N   UNL     1      -7.236   5.549 -30.369  1.00  0.00    -0.351 N 
HETATM    3  C   UNL     1      -5.919   4.930 -30.353  1.00  0.00     0.185 C 
HETATM    4  C   UNL     1      -5.008   5.700 -31.281  1.00  0.00     0.140 C 
HETATM    5  C   UNL     1      -5.697   5.922 -32.605  1.00  0.00     0.248 C 
HETATM    6  O   UNL     1      -5.030   5.959 -33.637  1.00  0.00    -0.271 OA
HETATM    7  N   UNL     1      -7.053   6.147 -32.631  1.00  0.00    -0.185 NA
HETATM    8  H   UNL     1      -7.913   5.121 -29.745  1.00  0.00     0.163 HD
ENDROOT
BRANCH   1   9
HETATM    9  N   UNL     1      -9.114   6.041 -31.535  1.00  0.00    -0.250 NA
HETATM   10  C   UNL     1      -9.806   4.951 -30.800  1.00  0.00     0.126 C 
HETATM   11  C   UNL     1      -9.838   3.655 -31.640  1.00  0.00     0.251 C 
HETATM   12  N   UNL     1     -10.558   3.926 -32.966  1.00  0.00    -0.057 N 
HETATM   13  H   UNL     1     -11.492   4.268 -32.725  1.00  0.00     0.281 HD
HETATM   14  C   UNL     1      -9.898   5.072 -33.725  1.00  0.00     0.251 C 
HETATM   15  C   UNL     1      -9.784   6.327 -32.829  1.00  0.00     0.126 C 
BRANCH  12  16
HETATM   16  C   UNL     1     -10.821   2.650 -33.769  1.00  0.00     0.254 C 
BRANCH  16  17
HETATM   17  C   UNL     1     -12.241   2.091 -33.704  1.00  0.00    -0.023 A 
HETATM   18  C   UNL     1     -13.178   2.710 -32.850  1.00  0.00     0.009 A 
HETATM   19  C   UNL     1     -14.478   2.215 -32.721  1.00  0.00     0.001 A 
HETATM   20  C   UNL     1     -14.873   1.095 -33.442  1.00  0.00     0.000 A 
HETATM   21  C   UNL     1     -13.973   0.475 -34.301  1.00  0.00     0.001 A 
HETATM   22  C   UNL     1     -12.673   0.972 -34.435  1.00  0.00     0.009 A 
ENDBRANCH  16  17
BRANCH  16  23
HETATM   23  C   UNL     1      -9.658   1.665 -33.656  1.00  0.00    -0.023 A 
HETATM   24  C   UNL     1      -8.564   1.812 -34.536  1.00  0.00     0.009 A 
HETATM   25  C   UNL     1      -7.450   0.974 -34.456  1.00  0.00     0.001 A 
HETATM   26  C   UNL     1      -7.406  -0.029 -33.493  1.00  0.00     0.000 A 
HETATM   27  C   UNL     1      -8.474  -0.194 -32.617  1.00  0.00     0.001 A 
HETATM   28  C   UNL     1      -9.590   0.645 -32.695  1.00  0.00     0.009 A 
ENDBRANCH  16  23
ENDBRANCH  12  16
ENDBRANCH   1   9
BRANCH   3  29
HETATM   29  C   UNL     1      -6.013   3.427 -30.720  1.00  0.00     0.245 C 
HETATM   30  N   UNL     1      -4.865   2.946 -31.333  1.00  0.00    -0.325 N 
HETATM   31  H   UNL     1      -4.146   3.614 -31.585  1.00  0.00     0.169 HD
HETATM   32  O   UNL     1      -7.013   2.767 -30.437  1.00  0.00    -0.271 OA
BRANCH  30  33
HETATM   33  C   UNL     1      -4.550   1.600 -31.626  1.00  0.00     0.035 A 
HETATM   34  C   UNL     1      -4.952   0.514 -30.844  1.00  0.00     0.032 A 
HETATM   35  C   UNL     1      -4.553  -0.785 -31.177  1.00  0.00     0.039 A 
HETATM   36  C   UNL     1      -3.769  -1.010 -32.306  1.00  0.00     0.076 A 
HETATM   37  C   UNL     1      -3.350   0.063 -33.087  1.00  0.00     0.039 A 
HETATM   38  C   UNL     1      -3.745   1.363 -32.751  1.00  0.00     0.032 A 
BRANCH  36  39
HETATM   39  O   UNL     1      -3.363  -2.302 -32.540  1.00  0.00    -0.311 OA
BRANCH  39  40
HETATM   40  C   UNL     1      -4.116  -3.069 -33.401  1.00  0.00     0.076 A 
HETATM   41  C   UNL     1      -3.839  -4.438 -33.415  1.00  0.00     0.037 A 
HETATM   42  C   UNL     1      -4.590  -5.294 -34.221  1.00  0.00     0.003 A 
HETATM   43  C   UNL     1      -5.625  -4.784 -35.003  1.00  0.00     0.000 A 
HETATM   44  C   UNL     1      -5.916  -3.420 -34.974  1.00  0.00     0.003 A 
HETATM   45  C   UNL     1      -5.168  -2.561 -34.167  1.00  0.00     0.037 A 
ENDBRANCH  39  40
ENDBRANCH  36  39
ENDBRANCH  30  33
ENDBRANCH   3  29
TORSDOF 8
ENDMDL
MODEL 4
REMARK VINA RESULT:     -10.1      2.883      7.612
REMARK  8 active torsions:
REMARK  status: ('A' for Active; 'I' for Inactive)
REMARK    1  A    between atoms: C_4  and  C_5 
REMARK    2  A    between atoms: C_5  and  N_6 
REMARK    3  A    between atoms: C_5  and  C_36 
REMARK    4  A    between atoms: N_10  and  C_11 
REMARK    5  A    between atoms: C_13  and  C_14 
REMARK       I    between atoms: C_14  and  N_15 
REMARK    6  A    between atoms: N_15  and  C_16 
REMARK    7  A    between atoms: C_19  and  O_20 
REMARK    8  A    between atoms: O_20  and  C_21 
ROOT
HETATM    1  C   UNL     1     -11.181   5.310 -33.322  1.00  0.00     0.181 C 
HETATM    2  N   UNL     1     -11.474   4.287 -34.157  1.00  0.00    -0.351 N 
HETATM    3  C   UNL     1     -11.914   3.031 -33.568  1.00  0.00     0.185 C 
HETATM    4  C   UNL     1     -12.894   3.331 -32.457  1.00  0.00     0.140 C 
HETATM    5  C   UNL     1     -12.333   4.405 -31.558  1.00  0.00     0.248 C 
HETATM    6  O   UNL     1     -12.603   4.394 -30.359  1.00  0.00    -0.271 OA
HETATM    7  N   UNL     1     -11.582   5.419 -32.103  1.00  0.00    -0.185 NA
HETATM    8  H   UNL     1     -10.836   4.188 -34.941  1.00  0.00     0.163 HD
ENDROOT
BRANCH   1   9
HETATM    9  N   UNL     1     -10.343   6.233 -33.909  1.00  0.00    -0.250 NA
HETATM   10  C   UNL     1      -9.305   5.653 -34.799  1.00  0.00     0.126 C 
HETATM   11  C   UNL     1      -8.164   5.018 -33.973  1.00  0.00     0.251 C 
HETATM   12  N   UNL     1      -7.535   6.084 -33.070  1.00  0.00    -0.057 N 
HETATM   13  H   UNL     1      -7.211   6.834 -33.687  1.00  0.00     0.281 HD
HETATM   14  C   UNL     1      -8.585   6.732 -32.173  1.00  0.00     0.251 C 
HETATM   15  C   UNL     1      -9.766   7.269 -33.015  1.00  0.00     0.126 C 
BRANCH  12  16
HETATM   16  C   UNL     1      -6.264   5.596 -32.372  1.00  0.00     0.254 C 
BRANCH  16  17
HETATM   17  C   UNL     1      -4.971   5.693 -33.178  1.00  0.00    -0.023 A 
HETATM   18  C   UNL     1      -3.892   6.432 -32.649  1.00  0.00     0.009 A 
HETATM   19  C   UNL     1      -2.701   6.588 -33.363  1.00  0.00     0.001 A 
HETATM   20  C   UNL     1      -2.559   6.007 -34.617  1.00  0.00     0.000 A 
HETATM   21  C   UNL     1      -3.602   5.262 -35.155  1.00  0.00     0.001 A 
HETATM   22  C   UNL     1      -4.792   5.101 -34.440  1.00  0.00     0.009 A 
ENDBRANCH  16  17
BRANCH  16  23
HETATM   23  C   UNL     1      -6.517   4.316 -31.574  1.00  0.00    -0.023 A 
HETATM   24  C   UNL     1      -5.881   3.126 -31.993  1.00  0.00     0.009 A 
HETATM   25  C   UNL     1      -6.034   1.934 -31.282  1.00  0.00     0.001 A 
HETATM   26  C   UNL     1      -6.825   1.906 -30.138  1.00  0.00     0.000 A 
HETATM   27  C   UNL     1      -7.463   3.065 -29.709  1.00  0.00     0.001 A 
HETATM   28  C   UNL     1      -7.310   4.261 -30.419  1.00  0.00     0.009 A 
ENDBRANCH  16  23
ENDBRANCH  12  16
ENDBRANCH   1   9
BRANCH   3  29
HETATM   29  C   UNL     1     -10.701   2.195 -33.085  1.00  0.00     0.245 C 
HETATM   30  N   UNL     1     -10.110   1.459 -34.101  1.00  0.00    -0.325 N 
HETATM   31  H   UNL     1     -10.574   1.436 -35.002  1.00  0.00     0.169 HD
HETATM   32  O   UNL     1     -10.320   2.251 -31.915  1.00  0.00    -0.271 OA
BRANCH  30  33
HETATM   33  C   UNL     1      -8.893   0.744 -34.045  1.00  0.00     0.035 A 
HETATM   34  C   UNL     1      -8.602  -0.232 -33.088  1.00  0.00     0.032 A 
HETATM   35  C   UNL     1      -7.350  -0.857 -33.072  1.00  0.00     0.039 A 
HETATM   36  C   UNL     1      -6.390  -0.528 -34.025  1.00  0.00     0.076 A 
HETATM   37  C   UNL     1      -6.660   0.452 -34.976  1.00  0.00     0.039 A 
HETATM   38  C   UNL     1      -7.910   1.080 -34.990  1.00  0.00     0.032 A 
BRANCH  36  39
HETATM   39  O   UNL     1      -5.162  -1.136 -33.914  1.00  0.00    -0.311 OA
BRANCH  39  40
HETATM   40  C   UNL     1      -5.085  -2.487 -34.165  1.00  0.00     0.076 A 
HETATM   41  C   UNL     1      -4.006  -3.164 -33.594  1.00  0.00     0.037 A 
HETATM   42  C   UNL     1      -3.882  -4.544 -33.757  1.00  0.00     0.003 A 
HETATM   43  C   UNL     1      -4.842  -5.249 -34.480  1.00  0.00     0.000 A 
HETATM   44  C   UNL     1      -5.932  -4.577 -35.033  1.00  0.00     0.003 A 
HETATM   45  C   UNL     1      -6.061  -3.197 -34.870  1.00  0.00     0.037 A 
ENDBRANCH  39  40
ENDBRANCH  36  39
ENDBRANCH  30  33
ENDBRANCH   3  29
TORSDOF 8
ENDMDL
MODEL 5
REMARK VINA RESULT:      -9.8      1.629      3.653
REMARK  8 active torsions:
REMARK  status: ('A' for Active; 'I' for Inactive)
REMARK    1  A    between atoms: C_4  and  C_5 
REMARK    2  A    between atoms: C_5  and  N_6 
REMARK    3  A    between atoms: C_5  and  C_36 
REMARK    4  A    between atoms: N_10  and  C_11 
REMARK    5  A    between atoms: C_13  and  C_14 
REMARK       I    between atoms: C_14  and  N_15 
REMARK    6  A    between atoms: N_15  and  C_16 
REMARK    7  A    between atoms: C_19  and  O_20 
REMARK    8  A    between atoms: O_20  and  C_21 
ROOT
HETATM    1  C   UNL     1     -10.699   3.032 -32.803  1.00  0.00     0.181 C 
HETATM    2  N   UNL     1     -10.588   2.669 -31.505  1.00  0.00    -0.351 N 
HETATM    3  C   UNL     1     -10.388   3.718 -30.516  1.00  0.00     0.185 C 
HETATM    4  C   UNL     1     -11.304   4.875 -30.844  1.00  0.00     0.140 C 
HETATM    5  C   UNL     1     -11.191   5.217 -32.309  1.00  0.00     0.248 C 
HETATM    6  O   UNL     1     -11.328   6.383 -32.672  1.00  0.00    -0.271 OA
HETATM    7  N   UNL     1     -11.003   4.209 -33.225  1.00  0.00    -0.185 NA
HETATM    8  H   UNL     1     -10.038   1.829 -31.348  1.00  0.00     0.163 HD
ENDROOT
BRANCH   1   9
HETATM    9  N   UNL     1     -10.396   1.995 -33.658  1.00  0.00    -0.250 NA
HETATM   10  C   UNL     1     -10.385   0.651 -33.026  1.00  0.00     0.126 C 
HETATM   11  C   UNL     1      -9.101   0.447 -32.190  1.00  0.00     0.251 C 
HETATM   12  N   UNL     1      -7.875   0.605 -33.094  1.00  0.00    -0.057 N 
HETATM   13  H   UNL     1      -7.976  -0.084 -33.845  1.00  0.00     0.281 HD
HETATM   14  C   UNL     1      -7.881   1.960 -33.794  1.00  0.00     0.251 C 
HETATM   15  C   UNL     1      -9.216   2.184 -34.539  1.00  0.00     0.126 C 
BRANCH  12  16
HETATM   16  C   UNL     1      -6.569   0.213 -32.398  1.00  0.00     0.254 C 
BRANCH  16  17
HETATM   17  C   UNL     1      -5.677   1.364 -31.938  1.00  0.00    -0.023 A 
HETATM   18  C   UNL     1      -4.634   1.797 -32.783  1.00  0.00     0.009 A 
HETATM   19  C   UNL     1      -3.763   2.818 -32.395  1.00  0.00     0.001 A 
HETATM   20  C   UNL     1      -3.914   3.430 -31.156  1.00  0.00     0.000 A 
HETATM   21  C   UNL     1      -4.943   3.031 -30.311  1.00  0.00     0.001 A 
HETATM   22  C   UNL     1      -5.818   2.014 -30.700  1.00  0.00     0.009 A 
ENDBRANCH  16  17
BRANCH  16  23
HETATM   23  C   UNL     1      -5.903  -0.980 -33.084  1.00  0.00    -0.023 A 
HETATM   24  C   UNL     1      -6.577  -1.601 -34.158  1.00  0.00     0.009 A 
HETATM   25  C   UNL     1      -6.003  -2.666 -34.855  1.00  0.00     0.001 A 
HETATM   26  C   UNL     1      -4.743  -3.132 -34.495  1.00  0.00     0.000 A 
HETATM   27  C   UNL     1      -4.062  -2.537 -33.438  1.00  0.00     0.001 A 
HETATM   28  C   UNL     1      -4.635  -1.469 -32.738  1.00  0.00     0.009 A 
ENDBRANCH  16  23
ENDBRANCH  12  16
ENDBRANCH   1   9
BRANCH   3  29
HETATM   29  C   UNL     1      -8.897   4.137 -30.453  1.00  0.00     0.245 C 
HETATM   30  N   UNL     1      -8.502   4.903 -31.540  1.00  0.00    -0.325 N 
HETATM   31  H   UNL     1      -9.157   5.014 -32.305  1.00  0.00     0.169 HD
HETATM   32  O   UNL     1      -8.193   3.828 -29.491  1.00  0.00    -0.271 OA
BRANCH  30  33
HETATM   33  C   UNL     1      -7.279   5.593 -31.704  1.00  0.00     0.035 A 
HETATM   34  C   UNL     1      -6.485   5.513 -32.851  1.00  0.00     0.032 A 
HETATM   35  C   UNL     1      -5.261   6.188 -32.912  1.00  0.00     0.039 A 
HETATM   36  C   UNL     1      -4.834   6.965 -31.838  1.00  0.00     0.076 A 
HETATM   37  C   UNL     1      -5.608   7.042 -30.684  1.00  0.00     0.039 A 
HETATM   38  C   UNL     1      -6.830   6.363 -30.621  1.00  0.00     0.032 A 
BRANCH  36  39
HETATM   39  O   UNL     1      -3.595   7.551 -31.941  1.00  0.00    -0.311 OA
BRANCH  39  40
HETATM   40  C   UNL     1      -2.488   6.767 -31.702  1.00  0.00     0.076 A 
HETATM   41  C   UNL     1      -1.875   6.202 -32.822  1.00  0.00     0.037 A 
HETATM   42  C   UNL     1      -0.719   5.435 -32.673  1.00  0.00     0.003 A 
HETATM   43  C   UNL     1      -0.168   5.244 -31.407  1.00  0.00     0.000 A 
HETATM   44  C   UNL     1      -0.769   5.825 -30.289  1.00  0.00     0.003 A 
HETATM   45  C   UNL     1      -1.924   6.594 -30.435  1.00  0.00     0.037 A 
ENDBRANCH  39  40
ENDBRANCH  36  39
ENDBRANCH  30  33
ENDBRANCH   3  29
TORSDOF 8
ENDMDL
MODEL 6
REMARK VINA RESULT:      -9.6      3.214      8.905
REMARK  8 active torsions:
REMARK  status: ('A' for Active; 'I' for Inactive)
REMARK    1  A    between atoms: C_4  and  C_5 
REMARK    2  A    between atoms: C_5  and  N_6 
REMARK    3  A    between atoms: C_5  and  C_36 
REMARK    4  A    between atoms: N_10  and  C_11 
REMARK    5  A    between atoms: C_13  and  C_14 
REMARK       I    between atoms: C_14  and  N_15 
REMARK    6  A    between atoms: N_15  and  C_16 
REMARK    7  A    between atoms: C_19  and  O_20 
REMARK    8  A    between atoms: O_20  and  C_21 
ROOT
HETATM    1  C   UNL     1      -2.458   7.329 -30.637  1.00  0.00     0.181 C 
HETATM    2  N   UNL     1      -1.735   6.258 -30.234  1.00  0.00    -0.351 N 
HETATM    3  C   UNL     1      -1.074   5.459 -31.255  1.00  0.00     0.185 C 
HETATM    4  C   UNL     1      -0.445   6.388 -32.268  1.00  0.00     0.140 C 
HETATM    5  C   UNL     1      -1.446   7.434 -32.691  1.00  0.00     0.248 C 
HETATM    6  O   UNL     1      -1.412   7.877 -33.837  1.00  0.00    -0.271 OA
HETATM    7  N   UNL     1      -2.338   7.927 -31.770  1.00  0.00    -0.185 NA
HETATM    8  H   UNL     1      -2.161   5.720 -29.485  1.00  0.00     0.163 HD
ENDROOT
BRANCH   1   9
HETATM    9  N   UNL     1      -3.399   7.698 -29.701  1.00  0.00    -0.250 NA
HETATM   10  C   UNL     1      -4.305   6.606 -29.264  1.00  0.00     0.126 C 
HETATM   11  C   UNL     1      -5.372   6.312 -30.343  1.00  0.00     0.251 C 
HETATM   12  N   UNL     1      -6.184   7.582 -30.615  1.00  0.00    -0.057 N 
HETATM   13  H   UNL     1      -6.591   7.865 -29.719  1.00  0.00     0.281 HD
HETATM   14  C   UNL     1      -5.276   8.737 -31.022  1.00  0.00     0.251 C 
HETATM   15  C   UNL     1      -4.156   8.946 -29.978  1.00  0.00     0.126 C 
BRANCH  12  16
HETATM   16  C   UNL     1      -7.396   7.330 -31.514  1.00  0.00     0.254 C 
BRANCH  16  17
HETATM   17  C   UNL     1      -8.765   7.611 -30.898  1.00  0.00    -0.023 A 
HETATM   18  C   UNL     1      -8.950   7.384 -29.519  1.00  0.00     0.009 A 
HETATM   19  C   UNL     1     -10.192   7.585 -28.911  1.00  0.00     0.001 A 
HETATM   20  C   UNL     1     -11.276   8.019 -29.666  1.00  0.00     0.000 A 
HETATM   21  C   UNL     1     -11.116   8.263 -31.025  1.00  0.00     0.001 A 
HETATM   22  C   UNL     1      -9.873   8.067 -31.633  1.00  0.00     0.009 A 
ENDBRANCH  16  17
BRANCH  16  23
HETATM   23  C   UNL     1      -7.230   6.052 -32.337  1.00  0.00    -0.023 A 
HETATM   24  C   UNL     1      -6.092   5.928 -33.164  1.00  0.00     0.009 A 
HETATM   25  C   UNL     1      -5.858   4.768 -33.906  1.00  0.00     0.001 A 
HETATM   26  C   UNL     1      -6.755   3.707 -33.835  1.00  0.00     0.000 A 
HETATM   27  C   UNL     1      -7.884   3.809 -33.029  1.00  0.00     0.001 A 
HETATM   28  C   UNL     1      -8.120   4.969 -32.284  1.00  0.00     0.009 A 
ENDBRANCH  16  23
ENDBRANCH  12  16
ENDBRANCH   1   9
BRANCH   3  29
HETATM   29  C   UNL     1      -2.067   4.457 -31.899  1.00  0.00     0.245 C 
HETATM   30  N   UNL     1      -2.644   3.597 -30.976  1.00  0.00    -0.325 N 
HETATM   31  H   UNL     1      -2.293   3.615 -30.026  1.00  0.00     0.169 HD
HETATM   32  O   UNL     1      -2.311   4.495 -33.105  1.00  0.00    -0.271 OA
BRANCH  30  33
HETATM   33  C   UNL     1      -3.712   2.698 -31.194  1.00  0.00     0.035 A 
HETATM   34  C   UNL     1      -4.934   2.757 -30.519  1.00  0.00     0.032 A 
HETATM   35  C   UNL     1      -5.922   1.796 -30.756  1.00  0.00     0.039 A 
HETATM   36  C   UNL     1      -5.704   0.781 -31.685  1.00  0.00     0.076 A 
HETATM   37  C   UNL     1      -4.486   0.701 -32.355  1.00  0.00     0.039 A 
HETATM   38  C   UNL     1      -3.497   1.660 -32.114  1.00  0.00     0.032 A 
BRANCH  36  39
HETATM   39  O   UNL     1      -6.692  -0.165 -31.825  1.00  0.00    -0.311 OA
BRANCH  39  40
HETATM   40  C   UNL     1      -7.750   0.125 -32.657  1.00  0.00     0.076 A 
HETATM   41  C   UNL     1      -8.965   0.419 -32.036  1.00  0.00     0.037 A 
HETATM   42  C   UNL     1     -10.075   0.773 -32.804  1.00  0.00     0.003 A 
HETATM   43  C   UNL     1      -9.966   0.845 -34.192  1.00  0.00     0.000 A 
HETATM   44  C   UNL     1      -8.747   0.570 -34.812  1.00  0.00     0.003 A 
HETATM   45  C   UNL     1      -7.635   0.219 -34.047  1.00  0.00     0.037 A 
ENDBRANCH  39  40
ENDBRANCH  36  39
ENDBRANCH  30  33
ENDBRANCH   3  29
TORSDOF 8
ENDMDL
MODEL 7
REMARK VINA RESULT:      -9.6      2.229      8.448
REMARK  8 active torsions:
REMARK  status: ('A' for Active; 'I' for Inactive)
REMARK    1  A    between atoms: C_4  and  C_5 
REMARK    2  A    between atoms: C_5  and  N_6 
REMARK    3  A    between atoms: C_5  and  C_36 
REMARK    4  A    between atoms: N_10  and  C_11 
REMARK    5  A    between atoms: C_13  and  C_14 
REMARK       I    between atoms: C_14  and  N_15 
REMARK    6  A    between atoms: N_15  and  C_16 
REMARK    7  A    between atoms: C_19  and  O_20 
REMARK    8  A    between atoms: O_20  and  C_21 
ROOT
HETATM    1  C   UNL     1      -7.459   6.386 -30.803  1.00  0.00     0.181 C 
HETATM    2  N   UNL     1      -7.384   6.382 -32.154  1.00  0.00    -0.351 N 
HETATM    3  C   UNL     1      -7.644   5.130 -32.849  1.00  0.00     0.185 C 
HETATM    4  C   UNL     1      -8.840   4.460 -32.212  1.00  0.00     0.140 C 
HETATM    5  C   UNL     1      -8.680   4.446 -30.712  1.00  0.00     0.248 C 
HETATM    6  O   UNL     1      -9.143   3.512 -30.062  1.00  0.00    -0.271 OA
HETATM    7  N   UNL     1      -8.077   5.512 -30.087  1.00  0.00    -0.185 NA
HETATM    8  H   UNL     1      -6.614   6.926 -32.534  1.00  0.00     0.163 HD
ENDROOT
BRANCH   1   9
HETATM    9  N   UNL     1      -6.746   7.426 -30.248  1.00  0.00    -0.250 NA
HETATM   10  C   UNL     1      -5.850   8.140 -31.193  1.00  0.00     0.126 C 
HETATM   11  C   UNL     1      -4.578   7.310 -31.480  1.00  0.00     0.251 C 
HETATM   12  N   UNL     1      -3.838   7.043 -30.165  1.00  0.00    -0.057 N 
HETATM   13  H   UNL     1      -3.633   7.958 -29.755  1.00  0.00     0.281 HD
HETATM   14  C   UNL     1      -4.747   6.350 -29.155  1.00  0.00     0.251 C 
HETATM   15  C   UNL     1      -6.057   7.146 -28.962  1.00  0.00     0.126 C 
BRANCH  12  16
HETATM   16  C   UNL     1      -2.461   6.409 -30.377  1.00  0.00     0.254 C 
BRANCH  16  17
HETATM   17  C   UNL     1      -1.330   6.941 -29.499  1.00  0.00    -0.023 A 
HETATM   18  C   UNL     1      -0.292   6.064 -29.123  1.00  0.00     0.009 A 
HETATM   19  C   UNL     1       0.746   6.486 -28.287  1.00  0.00     0.001 A 
HETATM   20  C   UNL     1       0.771   7.792 -27.812  1.00  0.00     0.000 A 
HETATM   21  C   UNL     1      -0.233   8.679 -28.180  1.00  0.00     0.001 A 
HETATM   22  C   UNL     1      -1.269   8.260 -29.019  1.00  0.00     0.009 A 
ENDBRANCH  16  17
BRANCH  16  23
HETATM   23  C   UNL     1      -2.170   6.183 -31.861  1.00  0.00    -0.023 A 
HETATM   24  C   UNL     1      -2.162   4.858 -32.350  1.00  0.00     0.009 A 
HETATM   25  C   UNL     1      -1.947   4.586 -33.703  1.00  0.00     0.001 A 
HETATM   26  C   UNL     1      -1.738   5.632 -34.595  1.00  0.00     0.000 A 
HETATM   27  C   UNL     1      -1.739   6.945 -34.135  1.00  0.00     0.001 A 
HETATM   28  C   UNL     1      -1.954   7.220 -32.781  1.00  0.00     0.009 A 
ENDBRANCH  16  23
ENDBRANCH  12  16
ENDBRANCH   1   9
BRANCH   3  29
HETATM   29  C   UNL     1      -6.383   4.227 -32.846  1.00  0.00     0.245 C 
HETATM   30  N   UNL     1      -6.525   3.100 -32.051  1.00  0.00    -0.325 N 
HETATM   31  H   UNL     1      -7.354   3.029 -31.472  1.00  0.00     0.169 HD
HETATM   32  O   UNL     1      -5.400   4.511 -33.532  1.00  0.00    -0.271 OA
BRANCH  30  33
HETATM   33  C   UNL     1      -5.651   1.992 -31.969  1.00  0.00     0.035 A 
HETATM   34  C   UNL     1      -4.301   2.034 -32.325  1.00  0.00     0.032 A 
HETATM   35  C   UNL     1      -3.516   0.878 -32.264  1.00  0.00     0.039 A 
HETATM   36  C   UNL     1      -4.069  -0.323 -31.825  1.00  0.00     0.076 A 
HETATM   37  C   UNL     1      -5.417  -0.383 -31.480  1.00  0.00     0.039 A 
HETATM   38  C   UNL     1      -6.202   0.773 -31.546  1.00  0.00     0.032 A 
BRANCH  36  39
HETATM   39  O   UNL     1      -3.259  -1.433 -31.847  1.00  0.00    -0.311 OA
BRANCH  39  40
HETATM   40  C   UNL     1      -3.602  -2.465 -32.690  1.00  0.00     0.076 A 
HETATM   41  C   UNL     1      -3.210  -3.746 -32.295  1.00  0.00     0.037 A 
HETATM   42  C   UNL     1      -3.562  -4.854 -33.066  1.00  0.00     0.003 A 
HETATM   43  C   UNL     1      -4.316  -4.684 -34.225  1.00  0.00     0.000 A 
HETATM   44  C   UNL     1      -4.727  -3.408 -34.611  1.00  0.00     0.003 A 
HETATM   45  C   UNL     1      -4.378  -2.297 -33.840  1.00  0.00     0.037 A 
ENDBRANCH  39  40
ENDBRANCH  36  39
ENDBRANCH  30  33
ENDBRANCH   3  29
TORSDOF 8
ENDMDL
MODEL 8
REMARK VINA RESULT:      -9.5      3.223      8.746
REMARK  8 active torsions:
REMARK  status: ('A' for Active; 'I' for Inactive)
REMARK    1  A    between atoms: C_4  and  C_5 
REMARK    2  A    between atoms: C_5  and  N_6 
REMARK    3  A    between atoms: C_5  and  C_36 
REMARK    4  A    between atoms: N_10  and  C_11 
REMARK    5  A    between atoms: C_13  and  C_14 
REMARK       I    between atoms: C_14  and  N_15 
REMARK    6  A    between atoms: N_15  and  C_16 
REMARK    7  A    between atoms: C_19  and  O_20 
REMARK    8  A    between atoms: O_20  and  C_21 
ROOT
HETATM    1  C   UNL     1      -2.492   7.476 -30.385  1.00  0.00     0.181 C 
HETATM    2  N   UNL     1      -1.788   6.361 -30.082  1.00  0.00    -0.351 N 
HETATM    3  C   UNL     1      -1.197   5.608 -31.178  1.00  0.00     0.185 C 
HETATM    4  C   UNL     1      -0.583   6.579 -32.160  1.00  0.00     0.140 C 
HETATM    5  C   UNL     1      -1.567   7.679 -32.473  1.00  0.00     0.248 C 
HETATM    6  O   UNL     1      -1.568   8.191 -33.590  1.00  0.00    -0.271 OA
HETATM    7  N   UNL     1      -2.402   8.140 -31.484  1.00  0.00    -0.185 NA
HETATM    8  H   UNL     1      -2.198   5.791 -29.348  1.00  0.00     0.163 HD
ENDROOT
BRANCH   1   9
HETATM    9  N   UNL     1      -3.379   7.814 -29.387  1.00  0.00    -0.250 NA
HETATM   10  C   UNL     1      -4.124   6.670 -28.802  1.00  0.00     0.126 C 
HETATM   11  C   UNL     1      -5.246   6.199 -29.754  1.00  0.00     0.251 C 
HETATM   12  N   UNL     1      -6.208   7.361 -30.022  1.00  0.00    -0.057 N 
HETATM   13  H   UNL     1      -6.560   7.663 -29.109  1.00  0.00     0.281 HD
HETATM   14  C   UNL     1      -5.465   8.569 -30.582  1.00  0.00     0.251 C 
HETATM   15  C   UNL     1      -4.284   8.959 -29.664  1.00  0.00     0.126 C 
BRANCH  12  16
HETATM   16  C   UNL     1      -7.462   6.929 -30.785  1.00  0.00     0.254 C 
BRANCH  16  17
HETATM   17  C   UNL     1      -7.256   5.908 -31.902  1.00  0.00    -0.023 A 
HETATM   18  C   UNL     1      -8.174   4.846 -32.031  1.00  0.00     0.009 A 
HETATM   19  C   UNL     1      -8.010   3.861 -33.010  1.00  0.00     0.001 A 
HETATM   20  C   UNL     1      -6.930   3.918 -33.882  1.00  0.00     0.000 A 
HETATM   21  C   UNL     1      -6.019   4.963 -33.784  1.00  0.00     0.001 A 
HETATM   22  C   UNL     1      -6.183   5.951 -32.809  1.00  0.00     0.009 A 
ENDBRANCH  16  17
BRANCH  16  23
HETATM   23  C   UNL     1      -8.389   8.114 -31.059  1.00  0.00    -0.023 A 
HETATM   24  C   UNL     1      -8.961   8.789 -29.959  1.00  0.00     0.009 A 
HETATM   25  C   UNL     1      -9.779   9.906 -30.139  1.00  0.00     0.001 A 
HETATM   26  C   UNL     1     -10.042  10.372 -31.423  1.00  0.00     0.000 A 
HETATM   27  C   UNL     1      -9.491   9.721 -32.522  1.00  0.00     0.001 A 
HETATM   28  C   UNL     1      -8.670   8.603 -32.344  1.00  0.00     0.009 A 
ENDBRANCH  16  23
ENDBRANCH  12  16
ENDBRANCH   1   9
BRANCH   3  29
HETATM   29  C   UNL     1      -2.249   4.679 -31.836  1.00  0.00     0.245 C 
HETATM   30  N   UNL     1      -2.675   3.661 -30.996  1.00  0.00    -0.325 N 
HETATM   31  H   UNL     1      -2.196   3.545 -30.110  1.00  0.00     0.169 HD
HETATM   32  O   UNL     1      -2.659   4.894 -32.977  1.00  0.00    -0.271 OA
BRANCH  30  33
HETATM   33  C   UNL     1      -3.744   2.762 -31.211  1.00  0.00     0.035 A 
HETATM   34  C   UNL     1      -4.976   2.841 -30.555  1.00  0.00     0.032 A 
HETATM   35  C   UNL     1      -5.964   1.879 -30.788  1.00  0.00     0.039 A 
HETATM   36  C   UNL     1      -5.738   0.845 -31.693  1.00  0.00     0.076 A 
HETATM   37  C   UNL     1      -4.511   0.746 -32.343  1.00  0.00     0.039 A 
HETATM   38  C   UNL     1      -3.520   1.705 -32.107  1.00  0.00     0.032 A 
BRANCH  36  39
HETATM   39  O   UNL     1      -6.728  -0.100 -31.828  1.00  0.00    -0.311 OA
BRANCH  39  40
HETATM   40  C   UNL     1      -7.843   0.236 -32.561  1.00  0.00     0.076 A 
HETATM   41  C   UNL     1      -7.674   0.319 -33.945  1.00  0.00     0.037 A 
HETATM   42  C   UNL     1      -8.766   0.604 -34.766  1.00  0.00     0.003 A 
HETATM   43  C   UNL     1     -10.028   0.794 -34.206  1.00  0.00     0.000 A 
HETATM   44  C   UNL     1     -10.202   0.691 -32.826  1.00  0.00     0.003 A 
HETATM   45  C   UNL     1      -9.113   0.403 -32.001  1.00  0.00     0.037 A 
ENDBRANCH  39  40
ENDBRANCH  36  39
ENDBRANCH  30  33
ENDBRANCH   3  29
TORSDOF 8
ENDMDL
MODEL 9
REMARK VINA RESULT:      -9.5      2.732      8.962
REMARK  8 active torsions:
REMARK  status: ('A' for Active; 'I' for Inactive)
REMARK    1  A    between atoms: C_4  and  C_5 
REMARK    2  A    between atoms: C_5  and  N_6 
REMARK    3  A    between atoms: C_5  and  C_36 
REMARK    4  A    between atoms: N_10  and  C_11 
REMARK    5  A    between atoms: C_13  and  C_14 
REMARK       I    between atoms: C_14  and  N_15 
REMARK    6  A    between atoms: N_15  and  C_16 
REMARK    7  A    between atoms: C_19  and  O_20 
REMARK    8  A    between atoms: O_20  and  C_21 
ROOT
HETATM    1  C   UNL     1      -6.735   8.672 -29.474  1.00  0.00     0.181 C 
HETATM    2  N   UNL     1      -7.023   8.129 -30.679  1.00  0.00    -0.351 N 
HETATM    3  C   UNL     1      -7.801   6.899 -30.703  1.00  0.00     0.185 C 
HETATM    4  C   UNL     1      -8.925   7.014 -29.699  1.00  0.00     0.140 C 
HETATM    5  C   UNL     1      -8.384   7.513 -28.382  1.00  0.00     0.248 C 
HETATM    6  O   UNL     1      -8.903   7.138 -27.333  1.00  0.00    -0.271 OA
HETATM    7  N   UNL     1      -7.362   8.432 -28.376  1.00  0.00    -0.185 NA
HETATM    8  H   UNL     1      -6.261   8.161 -31.349  1.00  0.00     0.163 HD
ENDROOT
BRANCH   1   9
HETATM    9  N   UNL     1      -5.636   9.502 -29.532  1.00  0.00    -0.250 NA
HETATM   10  C   UNL     1      -4.821   9.371 -30.767  1.00  0.00     0.126 C 
HETATM   11  C   UNL     1      -3.956   8.091 -30.721  1.00  0.00     0.251 C 
HETATM   12  N   UNL     1      -3.038   8.140 -29.496  1.00  0.00    -0.057 N 
HETATM   13  H   UNL     1      -2.481   8.995 -29.584  1.00  0.00     0.281 HD
HETATM   14  C   UNL     1      -3.843   8.320 -28.214  1.00  0.00     0.251 C 
HETATM   15  C   UNL     1      -4.776   9.548 -28.322  1.00  0.00     0.126 C 
BRANCH  12  16
HETATM   16  C   UNL     1      -2.001   7.015 -29.487  1.00  0.00     0.254 C 
BRANCH  16  17
HETATM   17  C   UNL     1      -0.782   7.227 -28.591  1.00  0.00    -0.023 A 
HETATM   18  C   UNL     1      -0.702   6.521 -27.372  1.00  0.00     0.009 A 
HETATM   19  C   UNL     1       0.370   6.708 -26.496  1.00  0.00     0.001 A 
HETATM   20  C   UNL     1       1.387   7.599 -26.817  1.00  0.00     0.000 A 
HETATM   21  C   UNL     1       1.338   8.296 -28.019  1.00  0.00     0.001 A 
HETATM   22  C   UNL     1       0.269   8.107 -28.899  1.00  0.00     0.009 A 
ENDBRANCH  16  17
BRANCH  16  23
HETATM   23  C   UNL     1      -1.769   6.452 -30.890  1.00  0.00    -0.023 A 
HETATM   24  C   UNL     1      -1.114   7.264 -31.841  1.00  0.00     0.009 A 
HETATM   25  C   UNL     1      -0.832   6.794 -33.125  1.00  0.00     0.001 A 
HETATM   26  C   UNL     1      -1.198   5.502 -33.485  1.00  0.00     0.000 A 
HETATM   27  C   UNL     1      -1.847   4.684 -32.565  1.00  0.00     0.001 A 
HETATM   28  C   UNL     1      -2.130   5.153 -31.278  1.00  0.00     0.009 A 
ENDBRANCH  16  23
ENDBRANCH  12  16
ENDBRANCH   1   9
BRANCH   3  29
HETATM   29  C   UNL     1      -6.893   5.669 -30.445  1.00  0.00     0.245 C 
HETATM   30  N   UNL     1      -7.298   4.540 -31.142  1.00  0.00    -0.325 N 
HETATM   31  H   UNL     1      -8.180   4.581 -31.641  1.00  0.00     0.169 HD
HETATM   32  O   UNL     1      -5.904   5.754 -29.717  1.00  0.00    -0.271 OA
BRANCH  30  33
HETATM   33  C   UNL     1      -6.600   3.318 -31.276  1.00  0.00     0.035 A 
HETATM   34  C   UNL     1      -5.560   3.107 -32.184  1.00  0.00     0.032 A 
HETATM   35  C   UNL     1      -4.955   1.850 -32.289  1.00  0.00     0.039 A 
HETATM   36  C   UNL     1      -5.371   0.802 -31.472  1.00  0.00     0.076 A 
HETATM   37  C   UNL     1      -6.415   0.994 -30.572  1.00  0.00     0.039 A 
HETATM   38  C   UNL     1      -7.023   2.250 -30.470  1.00  0.00     0.032 A 
BRANCH  36  39
HETATM   39  O   UNL     1      -4.776  -0.422 -31.669  1.00  0.00    -0.311 OA
BRANCH  39  40
HETATM   40  C   UNL     1      -5.154  -1.151 -32.774  1.00  0.00     0.076 A 
HETATM   41  C   UNL     1      -4.178  -1.978 -33.335  1.00  0.00     0.037 A 
HETATM   42  C   UNL     1      -4.492  -2.789 -34.425  1.00  0.00     0.003 A 
HETATM   43  C   UNL     1      -5.785  -2.784 -34.947  1.00  0.00     0.000 A 
HETATM   44  C   UNL     1      -6.766  -1.975 -34.375  1.00  0.00     0.003 A 
HETATM   45  C   UNL     1      -6.456  -1.164 -33.282  1.00  0.00     0.037 A 
ENDBRANCH  39  40
ENDBRANCH  36  39
ENDBRANCH  30  33
ENDBRANCH   3  29
TORSDOF 8
ENDMDL
MODEL 10
REMARK VINA RESULT:      -9.5      3.559      9.229
REMARK  8 active torsions:
REMARK  status: ('A' for Active; 'I' for Inactive)
REMARK    1  A    between atoms: C_4  and  C_5 
REMARK    2  A    between atoms: C_5  and  N_6 
REMARK    3  A    between atoms: C_5  and  C_36 
REMARK    4  A    between atoms: N_10  and  C_11 
REMARK    5  A    between atoms: C_13  and  C_14 
REMARK       I    between atoms: C_14  and  N_15 
REMARK    6  A    between atoms: N_15  and  C_16 
REMARK    7  A    between atoms: C_19  and  O_20 
REMARK    8  A    between atoms: O_20  and  C_21 
ROOT
HETATM    1  C   UNL     1      -6.012  10.142 -28.627  1.00  0.00     0.181 C 
HETATM    2  N   UNL     1      -6.998   9.538 -29.329  1.00  0.00    -0.351 N 
HETATM    3  C   UNL     1      -7.871   8.613 -28.622  1.00  0.00     0.185 C 
HETATM    4  C   UNL     1      -8.232   9.213 -27.283  1.00  0.00     0.140 C 
HETATM    5  C   UNL     1      -6.986   9.715 -26.596  1.00  0.00     0.248 C 
HETATM    6  O   UNL     1      -6.914   9.677 -25.369  1.00  0.00    -0.271 OA
HETATM    7  N   UNL     1      -5.978  10.270 -27.347  1.00  0.00    -0.185 NA
HETATM    8  H   UNL     1      -6.727   9.236 -30.261  1.00  0.00     0.163 HD
ENDROOT
BRANCH   1   9
HETATM    9  N   UNL     1      -4.991  10.580 -29.442  1.00  0.00    -0.250 NA
HETATM   10  C   UNL     1      -4.831   9.816 -30.705  1.00  0.00     0.126 C 
HETATM   11  C   UNL     1      -4.149   8.455 -30.442  1.00  0.00     0.251 C 
HETATM   12  N   UNL     1      -2.778   8.688 -29.800  1.00  0.00    -0.057 N 
HETATM   13  H   UNL     1      -2.250   9.280 -30.448  1.00  0.00     0.281 HD
HETATM   14  C   UNL     1      -2.903   9.511 -28.522  1.00  0.00     0.251 C 
HETATM   15  C   UNL     1      -3.679  10.821 -28.789  1.00  0.00     0.126 C 
BRANCH  12  16
HETATM   16  C   UNL     1      -1.945   7.409 -29.697  1.00  0.00     0.254 C 
BRANCH  16  17
HETATM   17  C   UNL     1      -0.819   7.416 -28.666  1.00  0.00    -0.023 A 
HETATM   18  C   UNL     1      -0.998   6.710 -27.458  1.00  0.00     0.009 A 
HETATM   19  C   UNL     1      -0.017   6.717 -26.462  1.00  0.00     0.001 A 
HETATM   20  C   UNL     1       1.163   7.425 -26.651  1.00  0.00     0.000 A 
HETATM   21  C   UNL     1       1.370   8.117 -27.838  1.00  0.00     0.001 A 
HETATM   22  C   UNL     1       0.392   8.108 -28.837  1.00  0.00     0.009 A 
ENDBRANCH  16  17
BRANCH  16  23
HETATM   23  C   UNL     1      -1.648   6.819 -31.077  1.00  0.00    -0.023 A 
HETATM   24  C   UNL     1      -1.736   5.420 -31.244  1.00  0.00     0.009 A 
HETATM   25  C   UNL     1      -1.522   4.823 -32.487  1.00  0.00     0.001 A 
HETATM   26  C   UNL     1      -1.217   5.612 -33.591  1.00  0.00     0.000 A 
HETATM   27  C   UNL     1      -1.122   6.993 -33.450  1.00  0.00     0.001 A 
HETATM   28  C   UNL     1      -1.337   7.593 -32.205  1.00  0.00     0.009 A 
ENDBRANCH  16  23
ENDBRANCH  12  16
ENDBRANCH   1   9
BRANCH   3  29
HETATM   29  C   UNL     1      -7.206   7.218 -28.492  1.00  0.00     0.245 C 
HETATM   30  N   UNL     1      -7.418   6.411 -29.600  1.00  0.00    -0.325 N 
HETATM   31  H   UNL     1      -8.060   6.740 -30.311  1.00  0.00     0.169 HD
HETATM   32  O   UNL     1      -6.535   6.927 -27.501  1.00  0.00    -0.271 OA
BRANCH  30  33
HETATM   33  C   UNL     1      -6.809   5.167 -29.884  1.00  0.00     0.035 A 
HETATM   34  C   UNL     1      -5.488   5.025 -30.315  1.00  0.00     0.032 A 
HETATM   35  C   UNL     1      -4.976   3.760 -30.625  1.00  0.00     0.039 A 
HETATM   36  C   UNL     1      -5.775   2.628 -30.485  1.00  0.00     0.076 A 
HETATM   37  C   UNL     1      -7.097   2.756 -30.069  1.00  0.00     0.039 A 
HETATM   38  C   UNL     1      -7.610   4.021 -29.763  1.00  0.00     0.032 A 
BRANCH  36  39
HETATM   39  O   UNL     1      -5.230   1.424 -30.865  1.00  0.00    -0.311 OA
BRANCH  39  40
HETATM   40  C   UNL     1      -5.639   0.880 -32.061  1.00  0.00     0.076 A 
HETATM   41  C   UNL     1      -5.671  -0.515 -32.129  1.00  0.00     0.037 A 
HETATM   42  C   UNL     1      -6.121  -1.147 -33.288  1.00  0.00     0.003 A 
HETATM   43  C   UNL     1      -6.551  -0.387 -34.375  1.00  0.00     0.000 A 
HETATM   44  C   UNL     1      -6.539   1.006 -34.300  1.00  0.00     0.003 A 
HETATM   45  C   UNL     1      -6.091   1.642 -33.141  1.00  0.00     0.037 A 
ENDBRANCH  39  40
ENDBRANCH  36  39
ENDBRANCH  30  33
ENDBRANCH   3  29
TORSDOF 8
ENDMDL
