MODEL 1
REMARK VINA RESULT:      -8.2      0.000      0.000
REMARK  6 active torsions:
REMARK  status: ('A' for Active; 'I' for Inactive)
REMARK    1  A    between atoms: C_6  and  C_7 
REMARK       I    between atoms: C_7  and  N_8 
REMARK    2  A    between atoms: N_8  and  C_9 
REMARK    3  A    between atoms: C_9  and  C_10 
REMARK    4  A    between atoms: C_10  and  O_11 
REMARK    5  A    between atoms: C_10  and  C_12 
REMARK    6  A    between atoms: C_15  and  O_16 
ROOT
HETATM    1  C   UNL     1      -3.534   2.918 -32.299  1.00  0.00     0.258 C 
HETATM    2  N   UNL     1      -4.838   2.916 -31.854  1.00  0.00    -0.350 N 
HETATM    3  O   UNL     1      -2.860   1.898 -32.385  1.00  0.00    -0.267 OA
HETATM    4  H   UNL     1      -5.313   3.817 -31.805  1.00  0.00     0.163 HD
ENDROOT
BRANCH   2   5
HETATM    5  C   UNL     1      -5.559   1.716 -31.406  1.00  0.00     0.114 C 
HETATM    6  C   UNL     1      -6.155   1.916 -30.011  1.00  0.00     0.035 C 
BRANCH   5   7
HETATM    7  C   UNL     1      -6.599   1.258 -32.467  1.00  0.00     0.173 C 
BRANCH   7   8
HETATM    8  O   UNL     1      -6.718   2.289 -33.463  1.00  0.00    -0.389 OA
HETATM    9  H   UNL     1      -5.872   2.768 -33.440  1.00  0.00     0.210 HD
ENDBRANCH   7   8
BRANCH   7  10
HETATM   10  C   UNL     1      -6.236  -0.032 -33.170  1.00  0.00    -0.028 A 
HETATM   11  C   UNL     1      -7.169  -0.654 -34.011  1.00  0.00     0.012 A 
HETATM   12  C   UNL     1      -6.851  -1.848 -34.664  1.00  0.00     0.037 A 
HETATM   13  C   UNL     1      -5.597  -2.440 -34.497  1.00  0.00     0.068 A 
HETATM   14  C   UNL     1      -4.667  -1.835 -33.652  1.00  0.00     0.037 A 
HETATM   15  C   UNL     1      -4.985  -0.641 -32.993  1.00  0.00     0.012 A 
BRANCH  13  16
HETATM   16  O   UNL     1      -5.412  -3.597 -35.202  1.00  0.00    -0.356 OA
HETATM   17  C   UNL     1      -6.519  -4.486 -35.270  1.00  0.00     0.210 C 
ENDBRANCH  13  16
ENDBRANCH   7  10
ENDBRANCH   5   7
ENDBRANCH   2   5
BRANCH   1  18
HETATM   18  C   UNL     1      -3.003   4.227 -32.636  1.00  0.00     0.105 A 
HETATM   19  C   UNL     1      -3.469   5.127 -33.633  1.00  0.00     0.071 A 
HETATM   20  C   UNL     1      -4.620   4.947 -34.554  1.00  0.00     0.073 C 
HETATM   21  N   UNL     1      -2.739   6.246 -33.691  1.00  0.00    -0.170 NA
HETATM   22  N   UNL     1      -1.787   6.089 -32.746  1.00  0.00    -0.225 N 
HETATM   23  C   UNL     1      -1.915   4.871 -32.071  1.00  0.00     0.168 A 
HETATM   24  C   UNL     1      -0.763   6.973 -32.421  1.00  0.00     0.122 A 
HETATM   25  N   UNL     1      -1.051   4.501 -31.067  1.00  0.00    -0.240 NA
HETATM   26  C   UNL     1      -0.106   5.355 -30.793  1.00  0.00     0.120 A 
HETATM   27  C   UNL     1       0.114   6.669 -31.456  1.00  0.00     0.038 A 
ENDBRANCH   1  18
TORSDOF 6
ENDMDL
MODEL 2
REMARK VINA RESULT:      -8.1      3.477      7.445
REMARK  6 active torsions:
REMARK  status: ('A' for Active; 'I' for Inactive)
REMARK    1  A    between atoms: C_6  and  C_7 
REMARK       I    between atoms: C_7  and  N_8 
REMARK    2  A    between atoms: N_8  and  C_9 
REMARK    3  A    between atoms: C_9  and  C_10 
REMARK    4  A    between atoms: C_10  and  O_11 
REMARK    5  A    between atoms: C_10  and  C_12 
REMARK    6  A    between atoms: C_15  and  O_16 
ROOT
HETATM    1  C   UNL     1      -6.923  -0.063 -34.134  1.00  0.00     0.258 C 
HETATM    2  N   UNL     1      -7.750   0.152 -33.054  1.00  0.00    -0.350 N 
HETATM    3  O   UNL     1      -7.074   0.503 -35.210  1.00  0.00    -0.267 OA
HETATM    4  H   UNL     1      -7.551  -0.376 -32.205  1.00  0.00     0.163 HD
ENDROOT
BRANCH   2   5
HETATM    5  C   UNL     1      -8.914   1.049 -33.068  1.00  0.00     0.114 C 
HETATM    6  C   UNL     1     -10.223   0.258 -33.096  1.00  0.00     0.035 C 
BRANCH   5   7
HETATM    7  C   UNL     1      -8.838   2.085 -31.911  1.00  0.00     0.173 C 
BRANCH   7   8
HETATM    8  O   UNL     1      -9.287   1.450 -30.701  1.00  0.00    -0.389 OA
HETATM    9  H   UNL     1      -9.863   0.721 -30.991  1.00  0.00     0.210 HD
ENDBRANCH   7   8
BRANCH   7  10
HETATM   10  C   UNL     1      -7.450   2.634 -31.663  1.00  0.00    -0.028 A 
HETATM   11  C   UNL     1      -6.808   3.384 -32.658  1.00  0.00     0.012 A 
HETATM   12  C   UNL     1      -5.525   3.894 -32.446  1.00  0.00     0.037 A 
HETATM   13  C   UNL     1      -4.861   3.673 -31.239  1.00  0.00     0.068 A 
HETATM   14  C   UNL     1      -5.486   2.918 -30.247  1.00  0.00     0.037 A 
HETATM   15  C   UNL     1      -6.770   2.402 -30.459  1.00  0.00     0.012 A 
BRANCH  13  16
HETATM   16  O   UNL     1      -3.618   4.238 -31.157  1.00  0.00    -0.356 OA
HETATM   17  C   UNL     1      -2.721   3.962 -32.225  1.00  0.00     0.210 C 
ENDBRANCH  13  16
ENDBRANCH   7  10
ENDBRANCH   5   7
ENDBRANCH   2   5
BRANCH   1  18
HETATM   18  C   UNL     1      -5.867  -1.037 -33.914  1.00  0.00     0.105 A 
HETATM   19  C   UNL     1      -4.598  -0.825 -33.308  1.00  0.00     0.071 A 
HETATM   20  C   UNL     1      -4.060   0.440 -32.743  1.00  0.00     0.073 C 
HETATM   21  N   UNL     1      -3.856  -1.937 -33.277  1.00  0.00    -0.170 NA
HETATM   22  N   UNL     1      -4.621  -2.881 -33.866  1.00  0.00    -0.225 N 
HETATM   23  C   UNL     1      -5.862  -2.376 -34.265  1.00  0.00     0.168 A 
HETATM   24  C   UNL     1      -4.293  -4.213 -34.096  1.00  0.00     0.122 A 
HETATM   25  N   UNL     1      -6.802  -3.164 -34.888  1.00  0.00    -0.240 NA
HETATM   26  C   UNL     1      -6.457  -4.403 -35.086  1.00  0.00     0.120 A 
HETATM   27  C   UNL     1      -5.163  -5.030 -34.703  1.00  0.00     0.038 A 
ENDBRANCH   1  18
TORSDOF 6
ENDMDL
MODEL 3
REMARK VINA RESULT:      -7.7      1.505      2.117
REMARK  6 active torsions:
REMARK  status: ('A' for Active; 'I' for Inactive)
REMARK    1  A    between atoms: C_6  and  C_7 
REMARK       I    between atoms: C_7  and  N_8 
REMARK    2  A    between atoms: N_8  and  C_9 
REMARK    3  A    between atoms: C_9  and  C_10 
REMARK    4  A    between atoms: C_10  and  O_11 
REMARK    5  A    between atoms: C_10  and  C_12 
REMARK    6  A    between atoms: C_15  and  O_16 
ROOT
HETATM    1  C   UNL     1      -3.807   2.954 -31.465  1.00  0.00     0.258 C 
HETATM    2  N   UNL     1      -5.088   2.525 -31.732  1.00  0.00    -0.350 N 
HETATM    3  O   UNL     1      -2.903   2.190 -31.145  1.00  0.00    -0.267 OA
HETATM    4  H   UNL     1      -5.774   3.237 -31.977  1.00  0.00     0.163 HD
ENDROOT
BRANCH   2   5
HETATM    5  C   UNL     1      -5.529   1.126 -31.640  1.00  0.00     0.114 C 
HETATM    6  C   UNL     1      -6.119   0.820 -30.261  1.00  0.00     0.035 C 
BRANCH   5   7
HETATM    7  C   UNL     1      -6.476   0.757 -32.817  1.00  0.00     0.173 C 
BRANCH   7   8
HETATM    8  O   UNL     1      -6.337   1.755 -33.844  1.00  0.00    -0.389 OA
HETATM    9  H   UNL     1      -5.378   1.856 -33.975  1.00  0.00     0.210 HD
ENDBRANCH   7   8
BRANCH   7  10
HETATM   10  C   UNL     1      -6.194  -0.594 -33.436  1.00  0.00    -0.028 A 
HETATM   11  C   UNL     1      -4.879  -1.076 -33.490  1.00  0.00     0.012 A 
HETATM   12  C   UNL     1      -4.601  -2.319 -34.063  1.00  0.00     0.037 A 
HETATM   13  C   UNL     1      -5.627  -3.108 -34.586  1.00  0.00     0.068 A 
HETATM   14  C   UNL     1      -6.938  -2.632 -34.548  1.00  0.00     0.037 A 
HETATM   15  C   UNL     1      -7.218  -1.384 -33.979  1.00  0.00     0.012 A 
BRANCH  13  16
HETATM   16  O   UNL     1      -5.221  -4.307 -35.104  1.00  0.00    -0.356 OA
HETATM   17  C   UNL     1      -4.588  -5.208 -34.205  1.00  0.00     0.210 C 
ENDBRANCH  13  16
ENDBRANCH   7  10
ENDBRANCH   5   7
ENDBRANCH   2   5
BRANCH   1  18
HETATM   18  C   UNL     1      -3.608   4.390 -31.562  1.00  0.00     0.105 A 
HETATM   19  C   UNL     1      -4.220   5.409 -30.783  1.00  0.00     0.071 A 
HETATM   20  C   UNL     1      -5.196   5.245 -29.675  1.00  0.00     0.073 C 
HETATM   21  N   UNL     1      -3.824   6.635 -31.145  1.00  0.00    -0.170 NA
HETATM   22  N   UNL     1      -2.960   6.433 -32.164  1.00  0.00    -0.225 N 
HETATM   23  C   UNL     1      -2.793   5.074 -32.448  1.00  0.00     0.168 A 
HETATM   24  C   UNL     1      -2.282   7.398 -32.900  1.00  0.00     0.122 A 
HETATM   25  N   UNL     1      -1.958   4.638 -33.450  1.00  0.00    -0.240 NA
HETATM   26  C   UNL     1      -1.343   5.571 -34.117  1.00  0.00     0.120 A 
HETATM   27  C   UNL     1      -1.458   7.038 -33.893  1.00  0.00     0.038 A 
ENDBRANCH   1  18
TORSDOF 6
ENDMDL
MODEL 4
REMARK VINA RESULT:      -7.6      5.661      8.572
REMARK  6 active torsions:
REMARK  status: ('A' for Active; 'I' for Inactive)
REMARK    1  A    between atoms: C_6  and  C_7 
REMARK       I    between atoms: C_7  and  N_8 
REMARK    2  A    between atoms: N_8  and  C_9 
REMARK    3  A    between atoms: C_9  and  C_10 
REMARK    4  A    between atoms: C_10  and  O_11 
REMARK    5  A    between atoms: C_10  and  C_12 
REMARK    6  A    between atoms: C_15  and  O_16 
ROOT
HETATM    1  C   UNL     1     -11.227   2.040 -33.463  1.00  0.00     0.258 C 
HETATM    2  N   UNL     1     -10.371   2.287 -32.413  1.00  0.00    -0.350 N 
HETATM    3  O   UNL     1     -10.833   1.750 -34.587  1.00  0.00    -0.267 OA
HETATM    4  H   UNL     1     -10.793   2.534 -31.519  1.00  0.00     0.163 HD
ENDROOT
BRANCH   2   5
HETATM    5  C   UNL     1      -8.905   2.262 -32.516  1.00  0.00     0.114 C 
HETATM    6  C   UNL     1      -8.300   3.615 -32.134  1.00  0.00     0.035 C 
BRANCH   5   7
HETATM    7  C   UNL     1      -8.306   1.067 -31.721  1.00  0.00     0.173 C 
BRANCH   7   8
HETATM    8  O   UNL     1      -9.388   0.320 -31.138  1.00  0.00    -0.389 OA
HETATM    9  H   UNL     1     -10.035   0.202 -31.856  1.00  0.00     0.210 HD
ENDBRANCH   7   8
BRANCH   7  10
HETATM   10  C   UNL     1      -7.482   0.117 -32.563  1.00  0.00    -0.028 A 
HETATM   11  C   UNL     1      -6.221  -0.297 -32.114  1.00  0.00     0.012 A 
HETATM   12  C   UNL     1      -5.446  -1.170 -32.882  1.00  0.00     0.037 A 
HETATM   13  C   UNL     1      -5.915  -1.651 -34.105  1.00  0.00     0.068 A 
HETATM   14  C   UNL     1      -7.163  -1.234 -34.566  1.00  0.00     0.037 A 
HETATM   15  C   UNL     1      -7.940  -0.356 -33.801  1.00  0.00     0.012 A 
BRANCH  13  16
HETATM   16  O   UNL     1      -5.064  -2.507 -34.748  1.00  0.00    -0.356 OA
HETATM   17  C   UNL     1      -4.174  -3.255 -33.929  1.00  0.00     0.210 C 
ENDBRANCH  13  16
ENDBRANCH   7  10
ENDBRANCH   5   7
ENDBRANCH   2   5
BRANCH   1  18
HETATM   18  C   UNL     1     -12.639   2.176 -33.149  1.00  0.00     0.105 A 
HETATM   19  C   UNL     1     -13.671   1.218 -33.344  1.00  0.00     0.071 A 
HETATM   20  C   UNL     1     -13.546  -0.155 -33.899  1.00  0.00     0.073 C 
HETATM   21  N   UNL     1     -14.869   1.673 -32.959  1.00  0.00    -0.170 NA
HETATM   22  N   UNL     1     -14.637   2.929 -32.519  1.00  0.00    -0.225 N 
HETATM   23  C   UNL     1     -13.286   3.275 -32.611  1.00  0.00     0.168 A 
HETATM   24  C   UNL     1     -15.568   3.838 -32.027  1.00  0.00     0.122 A 
HETATM   25  N   UNL     1     -12.823   4.510 -32.219  1.00  0.00    -0.240 NA
HETATM   26  C   UNL     1     -13.725   5.332 -31.765  1.00  0.00     0.120 A 
HETATM   27  C   UNL     1     -15.181   5.058 -31.634  1.00  0.00     0.038 A 
ENDBRANCH   1  18
TORSDOF 6
ENDMDL
MODEL 5
REMARK VINA RESULT:      -7.5      3.208      8.473
REMARK  6 active torsions:
REMARK  status: ('A' for Active; 'I' for Inactive)
REMARK    1  A    between atoms: C_6  and  C_7 
REMARK       I    between atoms: C_7  and  N_8 
REMARK    2  A    between atoms: N_8  and  C_9 
REMARK    3  A    between atoms: C_9  and  C_10 
REMARK    4  A    between atoms: C_10  and  O_11 
REMARK    5  A    between atoms: C_10  and  C_12 
REMARK    6  A    between atoms: C_15  and  O_16 
ROOT
HETATM    1  C   UNL     1      -2.798   4.375 -31.782  1.00  0.00     0.258 C 
HETATM    2  N   UNL     1      -2.640   5.260 -32.825  1.00  0.00    -0.350 N 
HETATM    3  O   UNL     1      -1.860   3.765 -31.281  1.00  0.00    -0.267 OA
HETATM    4  H   UNL     1      -3.481   5.709 -33.184  1.00  0.00     0.163 HD
ENDROOT
BRANCH   2   5
HETATM    5  C   UNL     1      -1.355   5.554 -33.475  1.00  0.00     0.114 C 
HETATM    6  C   UNL     1      -1.396   5.213 -34.966  1.00  0.00     0.035 C 
BRANCH   5   7
HETATM    7  C   UNL     1      -0.899   7.012 -33.183  1.00  0.00     0.173 C 
BRANCH   7   8
HETATM    8  O   UNL     1      -1.866   7.914 -33.750  1.00  0.00    -0.389 OA
HETATM    9  H   UNL     1      -2.327   7.398 -34.435  1.00  0.00     0.210 HD
ENDBRANCH   7   8
BRANCH   7  10
HETATM   10  C   UNL     1      -0.765   7.334 -31.710  1.00  0.00    -0.028 A 
HETATM   11  C   UNL     1       0.269   6.757 -30.961  1.00  0.00     0.012 A 
HETATM   12  C   UNL     1       0.403   7.042 -29.599  1.00  0.00     0.037 A 
HETATM   13  C   UNL     1      -0.486   7.910 -28.962  1.00  0.00     0.068 A 
HETATM   14  C   UNL     1      -1.525   8.479 -29.697  1.00  0.00     0.037 A 
HETATM   15  C   UNL     1      -1.664   8.192 -31.060  1.00  0.00     0.012 A 
BRANCH  13  16
HETATM   16  O   UNL     1      -0.234   8.112 -27.633  1.00  0.00    -0.356 OA
HETATM   17  C   UNL     1       0.632   7.179 -27.000  1.00  0.00     0.210 C 
ENDBRANCH  13  16
ENDBRANCH   7  10
ENDBRANCH   5   7
ENDBRANCH   2   5
BRANCH   1  18
HETATM   18  C   UNL     1      -4.167   4.194 -31.332  1.00  0.00     0.105 A 
HETATM   19  C   UNL     1      -4.912   5.023 -30.450  1.00  0.00     0.071 A 
HETATM   20  C   UNL     1      -4.469   6.279 -29.791  1.00  0.00     0.073 C 
HETATM   21  N   UNL     1      -6.146   4.557 -30.232  1.00  0.00    -0.170 NA
HETATM   22  N   UNL     1      -6.221   3.420 -30.958  1.00  0.00    -0.225 N 
HETATM   23  C   UNL     1      -5.035   3.163 -31.652  1.00  0.00     0.168 A 
HETATM   24  C   UNL     1      -7.300   2.549 -31.055  1.00  0.00     0.122 A 
HETATM   25  N   UNL     1      -4.887   2.057 -32.455  1.00  0.00    -0.240 NA
HETATM   26  C   UNL     1      -5.919   1.265 -32.519  1.00  0.00     0.120 A 
HETATM   27  C   UNL     1      -7.218   1.450 -31.817  1.00  0.00     0.038 A 
ENDBRANCH   1  18
TORSDOF 6
ENDMDL
MODEL 6
REMARK VINA RESULT:      -7.5      3.881      6.238
REMARK  6 active torsions:
REMARK  status: ('A' for Active; 'I' for Inactive)
REMARK    1  A    between atoms: C_6  and  C_7 
REMARK       I    between atoms: C_7  and  N_8 
REMARK    2  A    between atoms: N_8  and  C_9 
REMARK    3  A    between atoms: C_9  and  C_10 
REMARK    4  A    between atoms: C_10  and  O_11 
REMARK    5  A    between atoms: C_10  and  C_12 
REMARK    6  A    between atoms: C_15  and  O_16 
ROOT
HETATM    1  C   UNL     1      -7.809   2.370 -33.553  1.00  0.00     0.258 C 
HETATM    2  N   UNL     1      -7.476   2.199 -32.227  1.00  0.00    -0.350 N 
HETATM    3  O   UNL     1      -6.991   2.270 -34.461  1.00  0.00    -0.267 OA
HETATM    4  H   UNL     1      -8.222   2.315 -31.543  1.00  0.00     0.163 HD
ENDROOT
BRANCH   2   5
HETATM    5  C   UNL     1      -6.118   1.910 -31.744  1.00  0.00     0.114 C 
HETATM    6  C   UNL     1      -5.669   2.940 -30.705  1.00  0.00     0.035 C 
BRANCH   5   7
HETATM    7  C   UNL     1      -5.997   0.440 -31.254  1.00  0.00     0.173 C 
BRANCH   7   8
HETATM    8  O   UNL     1      -7.163   0.123 -30.472  1.00  0.00    -0.389 OA
HETATM    9  H   UNL     1      -7.873   0.683 -30.832  1.00  0.00     0.210 HD
ENDBRANCH   7   8
BRANCH   7  10
HETATM   10  C   UNL     1      -5.892  -0.577 -32.370  1.00  0.00    -0.028 A 
HETATM   11  C   UNL     1      -4.640  -1.099 -32.723  1.00  0.00     0.012 A 
HETATM   12  C   UNL     1      -4.527  -2.035 -33.755  1.00  0.00     0.037 A 
HETATM   13  C   UNL     1      -5.656  -2.472 -34.448  1.00  0.00     0.068 A 
HETATM   14  C   UNL     1      -6.905  -1.949 -34.112  1.00  0.00     0.037 A 
HETATM   15  C   UNL     1      -7.021  -1.008 -33.082  1.00  0.00     0.012 A 
BRANCH  13  16
HETATM   16  O   UNL     1      -5.407  -3.398 -35.423  1.00  0.00    -0.356 OA
HETATM   17  C   UNL     1      -6.249  -4.543 -35.444  1.00  0.00     0.210 C 
ENDBRANCH  13  16
ENDBRANCH   7  10
ENDBRANCH   5   7
ENDBRANCH   2   5
BRANCH   1  18
HETATM   18  C   UNL     1      -9.201   2.706 -33.798  1.00  0.00     0.105 A 
HETATM   19  C   UNL     1     -10.339   1.868 -33.651  1.00  0.00     0.071 A 
HETATM   20  C   UNL     1     -10.374   0.454 -33.196  1.00  0.00     0.073 C 
HETATM   21  N   UNL     1     -11.477   2.490 -33.977  1.00  0.00    -0.170 NA
HETATM   22  N   UNL     1     -11.098   3.733 -34.347  1.00  0.00    -0.225 N 
HETATM   23  C   UNL     1      -9.715   3.911 -34.247  1.00  0.00     0.168 A 
HETATM   24  C   UNL     1     -11.913   4.767 -34.794  1.00  0.00     0.122 A 
HETATM   25  N   UNL     1      -9.109   5.101 -34.575  1.00  0.00    -0.240 NA
HETATM   26  C   UNL     1      -9.905   6.044 -34.989  1.00  0.00     0.120 A 
HETATM   27  C   UNL     1     -11.383   5.950 -35.134  1.00  0.00     0.038 A 
ENDBRANCH   1  18
TORSDOF 6
ENDMDL
MODEL 7
REMARK VINA RESULT:      -7.3      3.216      6.768
REMARK  6 active torsions:
REMARK  status: ('A' for Active; 'I' for Inactive)
REMARK    1  A    between atoms: C_6  and  C_7 
REMARK       I    between atoms: C_7  and  N_8 
REMARK    2  A    between atoms: N_8  and  C_9 
REMARK    3  A    between atoms: C_9  and  C_10 
REMARK    4  A    between atoms: C_10  and  O_11 
REMARK    5  A    between atoms: C_10  and  C_12 
REMARK    6  A    between atoms: C_15  and  O_16 
ROOT
HETATM    1  C   UNL     1      -5.479   0.076 -32.249  1.00  0.00     0.258 C 
HETATM    2  N   UNL     1      -4.870   1.234 -32.680  1.00  0.00    -0.350 N 
HETATM    3  O   UNL     1      -6.050  -0.011 -31.168  1.00  0.00    -0.267 OA
HETATM    4  H   UNL     1      -4.409   1.205 -33.588  1.00  0.00     0.163 HD
ENDROOT
BRANCH   2   5
HETATM    5  C   UNL     1      -4.805   2.477 -31.898  1.00  0.00     0.114 C 
HETATM    6  C   UNL     1      -3.358   2.936 -31.705  1.00  0.00     0.035 C 
BRANCH   5   7
HETATM    7  C   UNL     1      -5.728   3.571 -32.505  1.00  0.00     0.173 C 
BRANCH   7   8
HETATM    8  O   UNL     1      -5.269   3.869 -33.835  1.00  0.00    -0.389 OA
HETATM    9  H   UNL     1      -6.037   4.254 -34.292  1.00  0.00     0.210 HD
ENDBRANCH   7   8
BRANCH   7  10
HETATM   10  C   UNL     1      -7.185   3.170 -32.592  1.00  0.00    -0.028 A 
HETATM   11  C   UNL     1      -7.808   3.072 -33.844  1.00  0.00     0.012 A 
HETATM   12  C   UNL     1      -9.153   2.708 -33.941  1.00  0.00     0.037 A 
HETATM   13  C   UNL     1      -9.900   2.429 -32.795  1.00  0.00     0.068 A 
HETATM   14  C   UNL     1      -9.293   2.536 -31.544  1.00  0.00     0.037 A 
HETATM   15  C   UNL     1      -7.946   2.905 -31.444  1.00  0.00     0.012 A 
BRANCH  13  16
HETATM   16  O   UNL     1     -11.199   2.072 -33.031  1.00  0.00    -0.356 OA
HETATM   17  C   UNL     1     -11.586   1.941 -34.393  1.00  0.00     0.210 C 
ENDBRANCH  13  16
ENDBRANCH   7  10
ENDBRANCH   5   7
ENDBRANCH   2   5
BRANCH   1  18
HETATM   18  C   UNL     1      -5.372  -1.050 -33.161  1.00  0.00     0.105 A 
HETATM   19  C   UNL     1      -6.085  -1.261 -34.372  1.00  0.00     0.071 A 
HETATM   20  C   UNL     1      -7.096  -0.372 -34.999  1.00  0.00     0.073 C 
HETATM   21  N   UNL     1      -5.756  -2.415 -34.963  1.00  0.00    -0.170 NA
HETATM   22  N   UNL     1      -4.836  -2.973 -34.145  1.00  0.00    -0.225 N 
HETATM   23  C   UNL     1      -4.566  -2.169 -33.034  1.00  0.00     0.168 A 
HETATM   24  C   UNL     1      -4.192  -4.195 -34.307  1.00  0.00     0.122 A 
HETATM   25  N   UNL     1      -3.660  -2.542 -32.069  1.00  0.00    -0.240 NA
HETATM   26  C   UNL     1      -3.079  -3.692 -32.256  1.00  0.00     0.120 A 
HETATM   27  C   UNL     1      -3.302  -4.617 -33.399  1.00  0.00     0.038 A 
ENDBRANCH   1  18
TORSDOF 6
ENDMDL
MODEL 8
REMARK VINA RESULT:      -7.3     17.026     18.314
REMARK  6 active torsions:
REMARK  status: ('A' for Active; 'I' for Inactive)
REMARK    1  A    between atoms: C_6  and  C_7 
REMARK       I    between atoms: C_7  and  N_8 
REMARK    2  A    between atoms: N_8  and  C_9 
REMARK    3  A    between atoms: C_9  and  C_10 
REMARK    4  A    between atoms: C_10  and  O_11 
REMARK    5  A    between atoms: C_10  and  C_12 
REMARK    6  A    between atoms: C_15  and  O_16 
ROOT
HETATM    1  C   UNL     1      -5.279 -14.889 -39.531  1.00  0.00     0.258 C 
HETATM    2  N   UNL     1      -5.488 -14.156 -38.384  1.00  0.00    -0.350 N 
HETATM    3  O   UNL     1      -6.055 -15.757 -39.915  1.00  0.00    -0.267 OA
HETATM    4  H   UNL     1      -4.780 -13.465 -38.139  1.00  0.00     0.163 HD
ENDROOT
BRANCH   2   5
HETATM    5  C   UNL     1      -6.632 -14.341 -37.479  1.00  0.00     0.114 C 
HETATM    6  C   UNL     1      -6.169 -14.538 -36.034  1.00  0.00     0.035 C 
BRANCH   5   7
HETATM    7  C   UNL     1      -7.672 -13.198 -37.649  1.00  0.00     0.173 C 
BRANCH   7   8
HETATM    8  O   UNL     1      -6.983 -12.016 -38.094  1.00  0.00    -0.389 OA
HETATM    9  H   UNL     1      -7.679 -11.424 -38.429  1.00  0.00     0.210 HD
ENDBRANCH   7   8
BRANCH   7  10
HETATM   10  C   UNL     1      -8.769 -13.504 -38.646  1.00  0.00    -0.028 A 
HETATM   11  C   UNL     1      -9.110 -14.835 -38.921  1.00  0.00     0.012 A 
HETATM   12  C   UNL     1     -10.117 -15.133 -39.843  1.00  0.00     0.037 A 
HETATM   13  C   UNL     1     -10.806 -14.113 -40.501  1.00  0.00     0.068 A 
HETATM   14  C   UNL     1     -10.464 -12.786 -40.244  1.00  0.00     0.037 A 
HETATM   15  C   UNL     1      -9.453 -12.484 -39.324  1.00  0.00     0.012 A 
BRANCH  13  16
HETATM   16  O   UNL     1     -11.774 -14.542 -41.366  1.00  0.00    -0.356 OA
HETATM   17  C   UNL     1     -11.489 -15.719 -42.110  1.00  0.00     0.210 C 
ENDBRANCH  13  16
ENDBRANCH   7  10
ENDBRANCH   5   7
ENDBRANCH   2   5
BRANCH   1  18
HETATM   18  C   UNL     1      -4.051 -14.578 -40.243  1.00  0.00     0.105 A 
HETATM   19  C   UNL     1      -3.899 -14.265 -41.621  1.00  0.00     0.071 A 
HETATM   20  C   UNL     1      -4.962 -14.165 -42.654  1.00  0.00     0.073 C 
HETATM   21  N   UNL     1      -2.623 -14.044 -41.956  1.00  0.00    -0.170 NA
HETATM   22  N   UNL     1      -1.929 -14.219 -40.810  1.00  0.00    -0.225 N 
HETATM   23  C   UNL     1      -2.764 -14.540 -39.736  1.00  0.00     0.168 A 
HETATM   24  C   UNL     1      -0.553 -14.119 -40.631  1.00  0.00     0.122 A 
HETATM   25  N   UNL     1      -2.270 -14.762 -38.471  1.00  0.00    -0.240 NA
HETATM   26  C   UNL     1      -0.978 -14.660 -38.345  1.00  0.00     0.120 A 
HETATM   27  C   UNL     1      -0.009 -14.329 -39.426  1.00  0.00     0.038 A 
ENDBRANCH   1  18
TORSDOF 6
ENDMDL
MODEL 9
REMARK VINA RESULT:      -7.3      4.399      7.705
REMARK  6 active torsions:
REMARK  status: ('A' for Active; 'I' for Inactive)
REMARK    1  A    between atoms: C_6  and  C_7 
REMARK       I    between atoms: C_7  and  N_8 
REMARK    2  A    between atoms: N_8  and  C_9 
REMARK    3  A    between atoms: C_9  and  C_10 
REMARK    4  A    between atoms: C_10  and  O_11 
REMARK    5  A    between atoms: C_10  and  C_12 
REMARK    6  A    between atoms: C_15  and  O_16 
ROOT
HETATM    1  C   UNL     1      -6.628   0.475 -32.164  1.00  0.00     0.258 C 
HETATM    2  N   UNL     1      -7.186   1.156 -33.223  1.00  0.00    -0.350 N 
HETATM    3  O   UNL     1      -6.920   0.708 -30.997  1.00  0.00    -0.267 OA
HETATM    4  H   UNL     1      -6.871   0.900 -34.158  1.00  0.00     0.163 HD
ENDROOT
BRANCH   2   5
HETATM    5  C   UNL     1      -8.160   2.248 -33.085  1.00  0.00     0.114 C 
HETATM    6  C   UNL     1      -7.460   3.600 -32.927  1.00  0.00     0.035 C 
BRANCH   5   7
HETATM    7  C   UNL     1      -9.203   2.220 -34.238  1.00  0.00     0.173 C 
BRANCH   7   8
HETATM    8  O   UNL     1      -9.065   0.975 -34.946  1.00  0.00    -0.389 OA
HETATM    9  H   UNL     1      -9.927   0.827 -35.376  1.00  0.00     0.210 HD
ENDBRANCH   7   8
BRANCH   7  10
HETATM   10  C   UNL     1     -10.639   2.337 -33.775  1.00  0.00    -0.028 A 
HETATM   11  C   UNL     1     -11.038   3.443 -33.011  1.00  0.00     0.012 A 
HETATM   12  C   UNL     1     -12.359   3.563 -32.572  1.00  0.00     0.037 A 
HETATM   13  C   UNL     1     -13.307   2.590 -32.891  1.00  0.00     0.068 A 
HETATM   14  C   UNL     1     -12.918   1.481 -33.641  1.00  0.00     0.037 A 
HETATM   15  C   UNL     1     -11.594   1.355 -34.078  1.00  0.00     0.012 A 
BRANCH  13  16
HETATM   16  O   UNL     1     -14.564   2.837 -32.412  1.00  0.00    -0.356 OA
HETATM   17  C   UNL     1     -15.551   1.848 -32.673  1.00  0.00     0.210 C 
ENDBRANCH  13  16
ENDBRANCH   7  10
ENDBRANCH   5   7
ENDBRANCH   2   5
BRANCH   1  18
HETATM   18  C   UNL     1      -5.643  -0.528 -32.530  1.00  0.00     0.105 A 
HETATM   19  C   UNL     1      -4.284  -0.605 -32.120  1.00  0.00     0.071 A 
HETATM   20  C   UNL     1      -3.556   0.314 -31.206  1.00  0.00     0.073 C 
HETATM   21  N   UNL     1      -3.647  -1.651 -32.656  1.00  0.00    -0.170 NA
HETATM   22  N   UNL     1      -4.574  -2.263 -33.427  1.00  0.00    -0.225 N 
HETATM   23  C   UNL     1      -5.811  -1.613 -33.373  1.00  0.00     0.168 A 
HETATM   24  C   UNL     1      -4.404  -3.397 -34.213  1.00  0.00     0.122 A 
HETATM   25  N   UNL     1      -6.900  -2.063 -34.082  1.00  0.00    -0.240 NA
HETATM   26  C   UNL     1      -6.700  -3.126 -34.807  1.00  0.00     0.120 A 
HETATM   27  C   UNL     1      -5.425  -3.882 -34.931  1.00  0.00     0.038 A 
ENDBRANCH   1  18
TORSDOF 6
ENDMDL
MODEL 10
REMARK VINA RESULT:      -7.2      1.702      2.107
REMARK  6 active torsions:
REMARK  status: ('A' for Active; 'I' for Inactive)
REMARK    1  A    between atoms: C_6  and  C_7 
REMARK       I    between atoms: C_7  and  N_8 
REMARK    2  A    between atoms: N_8  and  C_9 
REMARK    3  A    between atoms: C_9  and  C_10 
REMARK    4  A    between atoms: C_10  and  O_11 
REMARK    5  A    between atoms: C_10  and  C_12 
REMARK    6  A    between atoms: C_15  and  O_16 
ROOT
HETATM    1  C   UNL     1      -3.353   4.098 -32.142  1.00  0.00     0.258 C 
HETATM    2  N   UNL     1      -4.726   3.999 -32.153  1.00  0.00    -0.350 N 
HETATM    3  O   UNL     1      -2.621   3.149 -31.886  1.00  0.00    -0.267 OA
HETATM    4  H   UNL     1      -5.251   4.847 -32.365  1.00  0.00     0.163 HD
ENDROOT
BRANCH   2   5
HETATM    5  C   UNL     1      -5.471   2.773 -31.837  1.00  0.00     0.114 C 
HETATM    6  C   UNL     1      -6.115   2.856 -30.451  1.00  0.00     0.035 C 
BRANCH   5   7
HETATM    7  C   UNL     1      -6.478   2.419 -32.969  1.00  0.00     0.173 C 
BRANCH   7   8
HETATM    8  O   UNL     1      -6.291   3.349 -34.051  1.00  0.00    -0.389 OA
HETATM    9  H   UNL     1      -6.096   2.799 -34.831  1.00  0.00     0.210 HD
ENDBRANCH   7   8
BRANCH   7  10
HETATM   10  C   UNL     1      -6.318   1.019 -33.522  1.00  0.00    -0.028 A 
HETATM   11  C   UNL     1      -5.376   0.149 -32.957  1.00  0.00     0.012 A 
HETATM   12  C   UNL     1      -5.214  -1.145 -33.459  1.00  0.00     0.037 A 
HETATM   13  C   UNL     1      -5.991  -1.597 -34.528  1.00  0.00     0.068 A 
HETATM   14  C   UNL     1      -6.922  -0.734 -35.105  1.00  0.00     0.037 A 
HETATM   15  C   UNL     1      -7.083   0.564 -34.606  1.00  0.00     0.012 A 
BRANCH  13  16
HETATM   16  O   UNL     1      -5.741  -2.885 -34.912  1.00  0.00    -0.356 OA
HETATM   17  C   UNL     1      -4.504  -3.447 -34.492  1.00  0.00     0.210 C 
ENDBRANCH  13  16
ENDBRANCH   7  10
ENDBRANCH   5   7
ENDBRANCH   2   5
BRANCH   1  18
HETATM   18  C   UNL     1      -2.830   5.423 -32.429  1.00  0.00     0.105 A 
HETATM   19  C   UNL     1      -2.173   5.863 -33.610  1.00  0.00     0.071 A 
HETATM   20  C   UNL     1      -1.880   5.076 -34.836  1.00  0.00     0.073 C 
HETATM   21  N   UNL     1      -1.803   7.147 -33.539  1.00  0.00    -0.170 NA
HETATM   22  N   UNL     1      -2.204   7.556 -32.316  1.00  0.00    -0.225 N 
HETATM   23  C   UNL     1      -2.842   6.535 -31.605  1.00  0.00     0.168 A 
HETATM   24  C   UNL     1      -2.036   8.815 -31.749  1.00  0.00     0.122 A 
HETATM   25  N   UNL     1      -3.331   6.730 -30.335  1.00  0.00    -0.240 NA
HETATM   26  C   UNL     1      -3.154   7.921 -29.839  1.00  0.00     0.120 A 
HETATM   27  C   UNL     1      -2.485   9.067 -30.513  1.00  0.00     0.038 A 
ENDBRANCH   1  18
TORSDOF 6
ENDMDL
