MODEL 1
REMARK VINA RESULT:      -7.7      0.000      0.000
REMARK  3 active torsions:
REMARK  status: ('A' for Active; 'I' for Inactive)
REMARK    1  A    between atoms: C_2  and  N_3 
REMARK    2  A    between atoms: N_10  and  C_11 
REMARK    3  A    between atoms: C_11  and  C_12 
ROOT
HETATM    1  N   UNL     1      -6.705   2.963 -30.309  1.00  0.00    -0.063 N 
HETATM    2  H   UNL     1      -6.948   2.978 -29.310  1.00  0.00     0.280 HD
HETATM    3  C   UNL     1      -7.178   1.586 -30.795  1.00  0.00     0.277 C 
HETATM    4  C   UNL     1      -6.729   1.143 -32.223  1.00  0.00     0.132 C 
HETATM    5  O   UNL     1      -7.037   2.163 -33.194  1.00  0.00    -0.373 OA
HETATM    6  C   UNL     1      -8.367   2.071 -33.720  1.00  0.00     0.199 C 
HETATM    7  C   UNL     1      -8.619   0.755 -34.473  1.00  0.00     0.299 C 
HETATM    8  N   UNL     1      -7.833  -0.396 -33.987  1.00  0.00     0.097 N 
HETATM    9  C   UNL     1      -7.478  -0.200 -32.571  1.00  0.00     0.314 C 
HETATM   10  C   UNL     1      -5.203   0.854 -32.214  1.00  0.00     0.209 C 
HETATM   11  O   UNL     1      -4.288   1.935 -32.313  1.00  0.00    -0.386 OA
HETATM   12  C   UNL     1      -4.600   3.178 -31.713  1.00  0.00     0.195 C 
HETATM   13  C   UNL     1      -5.183   3.073 -30.307  1.00  0.00     0.261 C 
ENDROOT
BRANCH   1  14
HETATM   14  C   UNL     1      -7.467   4.176 -30.889  1.00  0.00     0.180 C 
HETATM   15  C   UNL     1      -7.004   5.480 -30.232  1.00  0.00     0.039 C 
HETATM   16  C   UNL     1      -8.968   4.015 -30.630  1.00  0.00     0.039 C 
ENDBRANCH   1  14
BRANCH   8  17
HETATM   17  C   UNL     1      -6.663  -0.652 -34.848  1.00  0.00     0.311 C 
BRANCH  17  18
HETATM   18  C   UNL     1      -6.073  -2.038 -34.673  1.00  0.00    -0.030 A 
HETATM   19  C   UNL     1      -6.863  -3.175 -34.917  1.00  0.00     0.012 A 
HETATM   20  C   UNL     1      -6.331  -4.454 -34.750  1.00  0.00     0.043 A 
HETATM   21  C   UNL     1      -5.009  -4.599 -34.348  1.00  0.00     0.116 A 
HETATM   22  F   UNL     1      -4.502  -5.828 -34.182  1.00  0.00    -0.206 F 
HETATM   23  C   UNL     1      -4.208  -3.489 -34.112  1.00  0.00     0.043 A 
HETATM   24  C   UNL     1      -4.737  -2.209 -34.277  1.00  0.00     0.012 A 
ENDBRANCH  17  18
ENDBRANCH   8  17
TORSDOF 3
ENDMDL
MODEL 2
REMARK VINA RESULT:      -7.5      1.369      1.896
REMARK  3 active torsions:
REMARK  status: ('A' for Active; 'I' for Inactive)
REMARK    1  A    between atoms: C_2  and  N_3 
REMARK    2  A    between atoms: N_10  and  C_11 
REMARK    3  A    between atoms: C_11  and  C_12 
ROOT
HETATM    1  N   UNL     1      -5.145   4.284 -30.079  1.00  0.00    -0.063 N 
HETATM    2  H   UNL     1      -4.812   4.475 -29.125  1.00  0.00     0.280 HD
HETATM    3  C   UNL     1      -5.293   2.757 -30.130  1.00  0.00     0.277 C 
HETATM    4  C   UNL     1      -5.546   2.114 -31.530  1.00  0.00     0.132 C 
HETATM    5  O   UNL     1      -6.650   2.759 -32.197  1.00  0.00    -0.373 OA
HETATM    6  C   UNL     1      -7.928   2.209 -31.853  1.00  0.00     0.199 C 
HETATM    7  C   UNL     1      -8.066   0.731 -32.252  1.00  0.00     0.299 C 
HETATM    8  N   UNL     1      -6.803  -0.032 -32.251  1.00  0.00     0.097 N 
HETATM    9  C   UNL     1      -5.847   0.582 -31.312  1.00  0.00     0.314 C 
HETATM   10  C   UNL     1      -4.257   2.232 -32.389  1.00  0.00     0.209 C 
HETATM   11  O   UNL     1      -3.972   3.454 -33.054  1.00  0.00    -0.386 OA
HETATM   12  C   UNL     1      -4.326   4.683 -32.449  1.00  0.00     0.195 C 
HETATM   13  C   UNL     1      -4.001   4.774 -30.961  1.00  0.00     0.261 C 
ENDROOT
BRANCH   1  14
HETATM   14  C   UNL     1      -6.461   5.088 -30.175  1.00  0.00     0.180 C 
HETATM   15  C   UNL     1      -6.211   6.580 -29.936  1.00  0.00     0.039 C 
HETATM   16  C   UNL     1      -7.448   4.591 -29.113  1.00  0.00     0.039 C 
ENDBRANCH   1  14
BRANCH   8  17
HETATM   17  C   UNL     1      -6.261  -0.181 -33.615  1.00  0.00     0.311 C 
BRANCH  17  18
HETATM   18  C   UNL     1      -5.958  -1.617 -33.993  1.00  0.00    -0.030 A 
HETATM   19  C   UNL     1      -4.647  -2.113 -33.879  1.00  0.00     0.012 A 
HETATM   20  C   UNL     1      -4.356  -3.431 -34.233  1.00  0.00     0.043 A 
HETATM   21  C   UNL     1      -5.374  -4.256 -34.694  1.00  0.00     0.116 A 
HETATM   22  F   UNL     1      -5.092  -5.519 -35.040  1.00  0.00    -0.206 F 
HETATM   23  C   UNL     1      -6.677  -3.790 -34.806  1.00  0.00     0.043 A 
HETATM   24  C   UNL     1      -6.971  -2.472 -34.453  1.00  0.00     0.012 A 
ENDBRANCH  17  18
ENDBRANCH   8  17
TORSDOF 3
ENDMDL
MODEL 3
REMARK VINA RESULT:      -7.3      1.863      2.790
REMARK  3 active torsions:
REMARK  status: ('A' for Active; 'I' for Inactive)
REMARK    1  A    between atoms: C_2  and  N_3 
REMARK    2  A    between atoms: N_10  and  C_11 
REMARK    3  A    between atoms: C_11  and  C_12 
ROOT
HETATM    1  N   UNL     1      -5.440   5.663 -31.471  1.00  0.00    -0.063 N 
HETATM    2  H   UNL     1      -4.705   6.326 -31.190  1.00  0.00     0.280 HD
HETATM    3  C   UNL     1      -4.686   4.355 -31.748  1.00  0.00     0.277 C 
HETATM    4  C   UNL     1      -5.485   3.207 -32.439  1.00  0.00     0.132 C 
HETATM    5  O   UNL     1      -6.718   2.949 -31.738  1.00  0.00    -0.373 OA
HETATM    6  C   UNL     1      -6.577   2.026 -30.651  1.00  0.00     0.199 C 
HETATM    7  C   UNL     1      -6.114   0.634 -31.108  1.00  0.00     0.299 C 
HETATM    8  N   UNL     1      -5.271   0.629 -32.320  1.00  0.00     0.097 N 
HETATM    9  C   UNL     1      -4.573   1.921 -32.451  1.00  0.00     0.314 C 
HETATM   10  C   UNL     1      -5.778   3.601 -33.913  1.00  0.00     0.209 C 
HETATM   11  O   UNL     1      -6.866   4.467 -34.200  1.00  0.00    -0.386 OA
HETATM   12  C   UNL     1      -7.199   5.501 -33.293  1.00  0.00     0.195 C 
HETATM   13  C   UNL     1      -6.003   6.276 -32.748  1.00  0.00     0.261 C 
ENDROOT
BRANCH   1  14
HETATM   14  C   UNL     1      -6.395   5.641 -30.256  1.00  0.00     0.180 C 
HETATM   15  C   UNL     1      -6.955   7.038 -29.973  1.00  0.00     0.039 C 
HETATM   16  C   UNL     1      -5.637   5.167 -29.012  1.00  0.00     0.039 C 
ENDBRANCH   1  14
BRANCH   8  17
HETATM   17  C   UNL     1      -6.051   0.268 -33.518  1.00  0.00     0.311 C 
BRANCH  17  18
HETATM   18  C   UNL     1      -5.855  -1.170 -33.959  1.00  0.00    -0.030 A 
HETATM   19  C   UNL     1      -6.958  -1.934 -34.377  1.00  0.00     0.012 A 
HETATM   20  C   UNL     1      -6.788  -3.261 -34.776  1.00  0.00     0.043 A 
HETATM   21  C   UNL     1      -5.517  -3.821 -34.766  1.00  0.00     0.116 A 
HETATM   22  F   UNL     1      -5.357  -5.097 -35.143  1.00  0.00    -0.206 F 
HETATM   23  C   UNL     1      -4.412  -3.081 -34.366  1.00  0.00     0.043 A 
HETATM   24  C   UNL     1      -4.579  -1.755 -33.965  1.00  0.00     0.012 A 
ENDBRANCH  17  18
ENDBRANCH   8  17
TORSDOF 3
ENDMDL
MODEL 4
REMARK VINA RESULT:      -7.1      2.862      4.668
REMARK  3 active torsions:
REMARK  status: ('A' for Active; 'I' for Inactive)
REMARK    1  A    between atoms: C_2  and  N_3 
REMARK    2  A    between atoms: N_10  and  C_11 
REMARK    3  A    between atoms: C_11  and  C_12 
ROOT
HETATM    1  N   UNL     1     -11.502   4.014 -34.168  1.00  0.00    -0.063 N 
HETATM    2  H   UNL     1     -11.611   4.706 -34.921  1.00  0.00     0.280 HD
HETATM    3  C   UNL     1     -10.028   3.594 -34.248  1.00  0.00     0.277 C 
HETATM    4  C   UNL     1      -9.593   2.362 -33.395  1.00  0.00     0.132 C 
HETATM    5  O   UNL     1     -10.009   2.518 -32.023  1.00  0.00    -0.373 OA
HETATM    6  C   UNL     1      -9.072   3.246 -31.219  1.00  0.00     0.199 C 
HETATM    7  C   UNL     1      -7.707   2.546 -31.116  1.00  0.00     0.299 C 
HETATM    8  N   UNL     1      -7.341   1.727 -32.287  1.00  0.00     0.097 N 
HETATM    9  C   UNL     1      -8.025   2.236 -33.490  1.00  0.00     0.314 C 
HETATM   10  C   UNL     1     -10.216   1.074 -34.000  1.00  0.00     0.209 C 
HETATM   11  O   UNL     1     -11.564   0.745 -33.703  1.00  0.00    -0.386 OA
HETATM   12  C   UNL     1     -12.520   1.775 -33.541  1.00  0.00     0.195 C 
HETATM   13  C   UNL     1     -12.439   2.885 -34.585  1.00  0.00     0.261 C 
ENDROOT
BRANCH   1  14
HETATM   14  C   UNL     1     -11.909   4.793 -32.896  1.00  0.00     0.180 C 
HETATM   15  C   UNL     1     -13.355   5.288 -32.995  1.00  0.00     0.039 C 
HETATM   16  C   UNL     1     -10.996   6.010 -32.722  1.00  0.00     0.039 C 
ENDBRANCH   1  14
BRANCH   8  17
HETATM   17  C   UNL     1      -7.589   0.294 -32.042  1.00  0.00     0.311 C 
BRANCH  17  18
HETATM   18  C   UNL     1      -6.679  -0.624 -32.835  1.00  0.00    -0.030 A 
HETATM   19  C   UNL     1      -5.321  -0.739 -32.490  1.00  0.00     0.012 A 
HETATM   20  C   UNL     1      -4.474  -1.574 -33.219  1.00  0.00     0.043 A 
HETATM   21  C   UNL     1      -4.983  -2.300 -34.288  1.00  0.00     0.116 A 
HETATM   22  F   UNL     1      -4.167  -3.096 -34.992  1.00  0.00    -0.206 F 
HETATM   23  C   UNL     1      -6.323  -2.209 -34.641  1.00  0.00     0.043 A 
HETATM   24  C   UNL     1      -7.173  -1.374 -33.914  1.00  0.00     0.012 A 
ENDBRANCH  17  18
ENDBRANCH   8  17
TORSDOF 3
ENDMDL
MODEL 5
REMARK VINA RESULT:      -7.0      1.980      3.423
REMARK  3 active torsions:
REMARK  status: ('A' for Active; 'I' for Inactive)
REMARK    1  A    between atoms: C_2  and  N_3 
REMARK    2  A    between atoms: N_10  and  C_11 
REMARK    3  A    between atoms: C_11  and  C_12 
ROOT
HETATM    1  N   UNL     1      -6.146   5.629 -30.931  1.00  0.00    -0.063 N 
HETATM    2  H   UNL     1      -6.292   6.547 -31.371  1.00  0.00     0.280 HD
HETATM    3  C   UNL     1      -5.941   4.671 -32.112  1.00  0.00     0.277 C 
HETATM    4  C   UNL     1      -5.942   3.142 -31.795  1.00  0.00     0.132 C 
HETATM    5  O   UNL     1      -5.022   2.842 -30.726  1.00  0.00    -0.373 OA
HETATM    6  C   UNL     1      -3.677   2.622 -31.172  1.00  0.00     0.199 C 
HETATM    7  C   UNL     1      -3.554   1.416 -32.116  1.00  0.00     0.299 C 
HETATM    8  N   UNL     1      -4.756   1.137 -32.925  1.00  0.00     0.097 N 
HETATM    9  C   UNL     1      -5.534   2.375 -33.111  1.00  0.00     0.314 C 
HETATM   10  C   UNL     1      -7.379   2.700 -31.406  1.00  0.00     0.209 C 
HETATM   11  O   UNL     1      -7.845   2.926 -30.084  1.00  0.00    -0.386 OA
HETATM   12  C   UNL     1      -7.434   4.084 -29.383  1.00  0.00     0.195 C 
HETATM   13  C   UNL     1      -7.462   5.367 -30.207  1.00  0.00     0.261 C 
ENDROOT
BRANCH   1  14
HETATM   14  C   UNL     1      -4.912   5.850 -30.027  1.00  0.00     0.180 C 
HETATM   15  C   UNL     1      -5.182   6.943 -28.988  1.00  0.00     0.039 C 
HETATM   16  C   UNL     1      -3.717   6.284 -30.881  1.00  0.00     0.039 C 
ENDBRANCH   1  14
BRANCH   8  17
HETATM   17  C   UNL     1      -5.550   0.034 -32.351  1.00  0.00     0.311 C 
BRANCH  17  18
HETATM   18  C   UNL     1      -5.652  -1.176 -33.258  1.00  0.00    -0.030 A 
HETATM   19  C   UNL     1      -4.499  -1.916 -33.576  1.00  0.00     0.012 A 
HETATM   20  C   UNL     1      -4.582  -3.026 -34.418  1.00  0.00     0.043 A 
HETATM   21  C   UNL     1      -5.815  -3.403 -34.934  1.00  0.00     0.116 A 
HETATM   22  F   UNL     1      -5.892  -4.466 -35.747  1.00  0.00    -0.206 F 
HETATM   23  C   UNL     1      -6.967  -2.692 -34.626  1.00  0.00     0.043 A 
HETATM   24  C   UNL     1      -6.888  -1.581 -33.785  1.00  0.00     0.012 A 
ENDBRANCH  17  18
ENDBRANCH   8  17
TORSDOF 3
ENDMDL
MODEL 6
REMARK VINA RESULT:      -7.0      2.273      3.710
REMARK  3 active torsions:
REMARK  status: ('A' for Active; 'I' for Inactive)
REMARK    1  A    between atoms: C_2  and  N_3 
REMARK    2  A    between atoms: N_10  and  C_11 
REMARK    3  A    between atoms: C_11  and  C_12 
ROOT
HETATM    1  N   UNL     1      -8.078   5.631 -33.814  1.00  0.00    -0.063 N 
HETATM    2  H   UNL     1      -7.801   6.335 -34.511  1.00  0.00     0.280 HD
HETATM    3  C   UNL     1      -6.938   4.604 -33.838  1.00  0.00     0.277 C 
HETATM    4  C   UNL     1      -7.170   3.266 -33.068  1.00  0.00     0.132 C 
HETATM    5  O   UNL     1      -7.601   3.523 -31.716  1.00  0.00    -0.373 OA
HETATM    6  C   UNL     1      -6.519   3.718 -30.797  1.00  0.00     0.199 C 
HETATM    7  C   UNL     1      -5.617   2.481 -30.669  1.00  0.00     0.299 C 
HETATM    8  N   UNL     1      -5.539   1.643 -31.881  1.00  0.00     0.097 N 
HETATM    9  C   UNL     1      -5.814   2.461 -33.076  1.00  0.00     0.314 C 
HETATM   10  C   UNL     1      -8.235   2.421 -33.819  1.00  0.00     0.209 C 
HETATM   11  O   UNL     1      -9.612   2.711 -33.635  1.00  0.00    -0.386 OA
HETATM   12  C   UNL     1     -10.029   4.050 -33.445  1.00  0.00     0.195 C 
HETATM   13  C   UNL     1      -9.372   5.058 -34.383  1.00  0.00     0.261 C 
ENDROOT
BRANCH   1  14
HETATM   14  C   UNL     1      -8.219   6.445 -32.508  1.00  0.00     0.180 C 
HETATM   15  C   UNL     1      -9.288   7.533 -32.652  1.00  0.00     0.039 C 
HETATM   16  C   UNL     1      -6.886   7.123 -32.176  1.00  0.00     0.039 C 
ENDBRANCH   1  14
BRANCH   8  17
HETATM   17  C   UNL     1      -6.413   0.459 -31.776  1.00  0.00     0.311 C 
BRANCH  17  18
HETATM   18  C   UNL     1      -6.113  -0.610 -32.809  1.00  0.00    -0.030 A 
HETATM   19  C   UNL     1      -7.136  -1.083 -33.649  1.00  0.00     0.012 A 
HETATM   20  C   UNL     1      -6.872  -2.073 -34.596  1.00  0.00     0.043 A 
HETATM   21  C   UNL     1      -5.586  -2.585 -34.711  1.00  0.00     0.116 A 
HETATM   22  F   UNL     1      -5.335  -3.540 -35.616  1.00  0.00    -0.206 F 
HETATM   23  C   UNL     1      -4.558  -2.125 -33.898  1.00  0.00     0.043 A 
HETATM   24  C   UNL     1      -4.819  -1.136 -32.949  1.00  0.00     0.012 A 
ENDBRANCH  17  18
ENDBRANCH   8  17
TORSDOF 3
ENDMDL
MODEL 7
REMARK VINA RESULT:      -7.0     14.567     16.305
REMARK  3 active torsions:
REMARK  status: ('A' for Active; 'I' for Inactive)
REMARK    1  A    between atoms: C_2  and  N_3 
REMARK    2  A    between atoms: N_10  and  C_11 
REMARK    3  A    between atoms: C_11  and  C_12 
ROOT
HETATM    1  N   UNL     1      -1.182 -13.684 -38.057  1.00  0.00    -0.063 N 
HETATM    2  H   UNL     1      -0.317 -13.129 -38.001  1.00  0.00     0.280 HD
HETATM    3  C   UNL     1      -2.281 -12.648 -38.331  1.00  0.00     0.277 C 
HETATM    4  C   UNL     1      -3.760 -13.135 -38.224  1.00  0.00     0.132 C 
HETATM    5  O   UNL     1      -3.965 -14.323 -39.017  1.00  0.00    -0.373 OA
HETATM    6  C   UNL     1      -4.286 -14.049 -40.386  1.00  0.00     0.199 C 
HETATM    7  C   UNL     1      -5.600 -13.266 -40.543  1.00  0.00     0.299 C 
HETATM    8  N   UNL     1      -5.927 -12.372 -39.416  1.00  0.00     0.097 N 
HETATM    9  C   UNL     1      -4.692 -11.966 -38.722  1.00  0.00     0.314 C 
HETATM   10  C   UNL     1      -4.099 -13.420 -36.735  1.00  0.00     0.209 C 
HETATM   11  O   UNL     1      -3.700 -14.651 -36.151  1.00  0.00    -0.386 OA
HETATM   12  C   UNL     1      -2.483 -15.255 -36.547  1.00  0.00     0.195 C 
HETATM   13  C   UNL     1      -1.307 -14.291 -36.664  1.00  0.00     0.261 C 
ENDROOT
BRANCH   1  14
HETATM   14  C   UNL     1      -0.901 -14.682 -39.204  1.00  0.00     0.180 C 
HETATM   15  C   UNL     1       0.388 -15.468 -38.944  1.00  0.00     0.039 C 
HETATM   16  C   UNL     1      -0.741 -13.920 -40.523  1.00  0.00     0.039 C 
ENDBRANCH   1  14
BRANCH   8  17
HETATM   17  C   UNL     1      -6.924 -12.983 -38.516  1.00  0.00     0.311 C 
BRANCH  17  18
HETATM   18  C   UNL     1      -8.290 -13.153 -39.150  1.00  0.00    -0.030 A 
HETATM   19  C   UNL     1      -8.863 -14.433 -39.256  1.00  0.00     0.012 A 
HETATM   20  C   UNL     1     -10.116 -14.600 -39.846  1.00  0.00     0.043 A 
HETATM   21  C   UNL     1     -10.802 -13.491 -40.323  1.00  0.00     0.116 A 
HETATM   22  F   UNL     1     -12.002 -13.654 -40.896  1.00  0.00    -0.206 F 
HETATM   23  C   UNL     1     -10.259 -12.216 -40.221  1.00  0.00     0.043 A 
HETATM   24  C   UNL     1      -9.006 -12.045 -39.632  1.00  0.00     0.012 A 
ENDBRANCH  17  18
ENDBRANCH   8  17
TORSDOF 3
ENDMDL
MODEL 8
REMARK VINA RESULT:      -6.9      2.186      3.166
REMARK  3 active torsions:
REMARK  status: ('A' for Active; 'I' for Inactive)
REMARK    1  A    between atoms: C_2  and  N_3 
REMARK    2  A    between atoms: N_10  and  C_11 
REMARK    3  A    between atoms: C_11  and  C_12 
ROOT
HETATM    1  N   UNL     1      -9.615   5.099 -31.582  1.00  0.00    -0.063 N 
HETATM    2  H   UNL     1      -9.641   5.600 -30.684  1.00  0.00     0.280 HD
HETATM    3  C   UNL     1      -8.875   3.792 -31.266  1.00  0.00     0.277 C 
HETATM    4  C   UNL     1      -8.444   2.909 -32.479  1.00  0.00     0.132 C 
HETATM    5  O   UNL     1      -9.562   2.666 -33.357  1.00  0.00    -0.373 OA
HETATM    6  C   UNL     1     -10.355   1.535 -32.976  1.00  0.00     0.199 C 
HETATM    7  C   UNL     1      -9.565   0.217 -33.009  1.00  0.00     0.299 C 
HETATM    8  N   UNL     1      -8.122   0.352 -32.734  1.00  0.00     0.097 N 
HETATM    9  C   UNL     1      -7.878   1.551 -31.912  1.00  0.00     0.314 C 
HETATM   10  C   UNL     1      -7.300   3.621 -33.251  1.00  0.00     0.209 C 
HETATM   11  O   UNL     1      -7.618   4.651 -34.175  1.00  0.00    -0.386 OA
HETATM   12  C   UNL     1      -8.708   5.516 -33.916  1.00  0.00     0.195 C 
HETATM   13  C   UNL     1      -8.790   6.018 -32.477  1.00  0.00     0.261 C 
ENDROOT
BRANCH   1  14
HETATM   14  C   UNL     1     -11.106   4.950 -31.961  1.00  0.00     0.180 C 
HETATM   15  C   UNL     1     -11.755   6.320 -32.182  1.00  0.00     0.039 C 
HETATM   16  C   UNL     1     -11.857   4.239 -30.831  1.00  0.00     0.039 C 
ENDBRANCH   1  14
BRANCH   8  17
HETATM   17  C   UNL     1      -7.332   0.333 -33.980  1.00  0.00     0.311 C 
BRANCH  17  18
HETATM   18  C   UNL     1      -6.384  -0.846 -34.079  1.00  0.00    -0.030 A 
HETATM   19  C   UNL     1      -5.083  -0.749 -33.553  1.00  0.00     0.012 A 
HETATM   20  C   UNL     1      -4.201  -1.825 -33.647  1.00  0.00     0.043 A 
HETATM   21  C   UNL     1      -4.617  -3.001 -34.258  1.00  0.00     0.116 A 
HETATM   22  F   UNL     1      -3.767  -4.032 -34.354  1.00  0.00    -0.206 F 
HETATM   23  C   UNL     1      -5.901  -3.122 -34.776  1.00  0.00     0.043 A 
HETATM   24  C   UNL     1      -6.786  -2.047 -34.684  1.00  0.00     0.012 A 
ENDBRANCH  17  18
ENDBRANCH   8  17
TORSDOF 3
ENDMDL
MODEL 9
REMARK VINA RESULT:      -6.8      3.941      6.642
REMARK  3 active torsions:
REMARK  status: ('A' for Active; 'I' for Inactive)
REMARK    1  A    between atoms: C_2  and  N_3 
REMARK    2  A    between atoms: N_10  and  C_11 
REMARK    3  A    between atoms: C_11  and  C_12 
ROOT
HETATM    1  N   UNL     1      -5.974  -0.568 -32.450  1.00  0.00    -0.063 N 
HETATM    2  H   UNL     1      -5.719  -1.278 -31.751  1.00  0.00     0.280 HD
HETATM    3  C   UNL     1      -7.270   0.051 -31.908  1.00  0.00     0.277 C 
HETATM    4  C   UNL     1      -8.060   0.998 -32.865  1.00  0.00     0.132 C 
HETATM    5  O   UNL     1      -7.193   2.016 -33.406  1.00  0.00    -0.373 OA
HETATM    6  C   UNL     1      -7.072   3.171 -32.567  1.00  0.00     0.199 C 
HETATM    7  C   UNL     1      -8.410   3.896 -32.357  1.00  0.00     0.299 C 
HETATM    8  N   UNL     1      -9.602   3.028 -32.412  1.00  0.00     0.097 N 
HETATM    9  C   UNL     1      -9.235   1.649 -32.040  1.00  0.00     0.314 C 
HETATM   10  C   UNL     1      -8.686   0.160 -34.014  1.00  0.00     0.209 C 
HETATM   11  O   UNL     1      -7.882  -0.213 -35.123  1.00  0.00    -0.386 OA
HETATM   12  C   UNL     1      -6.512  -0.510 -34.930  1.00  0.00     0.195 C 
HETATM   13  C   UNL     1      -6.218  -1.384 -33.715  1.00  0.00     0.261 C 
ENDROOT
BRANCH   1  14
HETATM   14  C   UNL     1      -4.746   0.371 -32.481  1.00  0.00     0.180 C 
HETATM   15  C   UNL     1      -3.491  -0.383 -32.934  1.00  0.00     0.039 C 
HETATM   16  C   UNL     1      -4.490   0.931 -31.078  1.00  0.00     0.039 C 
ENDBRANCH   1  14
BRANCH   8  17
HETATM   17  C   UNL     1     -10.274   3.116 -33.722  1.00  0.00     0.311 C 
BRANCH  17  18
HETATM   18  C   UNL     1     -11.689   2.572 -33.715  1.00  0.00    -0.030 A 
HETATM   19  C   UNL     1     -12.646   3.110 -32.836  1.00  0.00     0.012 A 
HETATM   20  C   UNL     1     -13.948   2.610 -32.817  1.00  0.00     0.043 A 
HETATM   21  C   UNL     1     -14.299   1.579 -33.678  1.00  0.00     0.116 A 
HETATM   22  F   UNL     1     -15.548   1.095 -33.654  1.00  0.00    -0.206 F 
HETATM   23  C   UNL     1     -13.372   1.038 -34.561  1.00  0.00     0.043 A 
HETATM   24  C   UNL     1     -12.068   1.535 -34.583  1.00  0.00     0.012 A 
ENDBRANCH  17  18
ENDBRANCH   8  17
TORSDOF 3
ENDMDL
MODEL 10
REMARK VINA RESULT:      -6.7      4.507      7.782
REMARK  3 active torsions:
REMARK  status: ('A' for Active; 'I' for Inactive)
REMARK    1  A    between atoms: C_2  and  N_3 
REMARK    2  A    between atoms: N_10  and  C_11 
REMARK    3  A    between atoms: C_11  and  C_12 
ROOT
HETATM    1  N   UNL     1      -6.292   0.659 -32.449  1.00  0.00    -0.063 N 
HETATM    2  H   UNL     1      -6.046  -0.332 -32.574  1.00  0.00     0.280 HD
HETATM    3  C   UNL     1      -4.966   1.407 -32.650  1.00  0.00     0.277 C 
HETATM    4  C   UNL     1      -4.943   2.922 -32.278  1.00  0.00     0.132 C 
HETATM    5  O   UNL     1      -6.029   3.622 -32.919  1.00  0.00    -0.373 OA
HETATM    6  C   UNL     1      -5.719   4.071 -34.244  1.00  0.00     0.199 C 
HETATM    7  C   UNL     1      -4.560   5.079 -34.274  1.00  0.00     0.299 C 
HETATM    8  N   UNL     1      -3.564   4.912 -33.198  1.00  0.00     0.097 N 
HETATM    9  C   UNL     1      -3.554   3.512 -32.737  1.00  0.00     0.314 C 
HETATM   10  C   UNL     1      -5.043   3.074 -30.735  1.00  0.00     0.209 C 
HETATM   11  O   UNL     1      -6.313   2.988 -30.107  1.00  0.00    -0.386 OA
HETATM   12  C   UNL     1      -7.294   2.109 -30.623  1.00  0.00     0.195 C 
HETATM   13  C   UNL     1      -6.770   0.727 -31.002  1.00  0.00     0.261 C 
ENDROOT
BRANCH   1  14
HETATM   14  C   UNL     1      -7.370   0.906 -33.528  1.00  0.00     0.180 C 
HETATM   15  C   UNL     1      -8.581  -0.006 -33.312  1.00  0.00     0.039 C 
HETATM   16  C   UNL     1      -6.790   0.613 -34.915  1.00  0.00     0.039 C 
ENDBRANCH   1  14
BRANCH   8  17
HETATM   17  C   UNL     1      -3.782   5.880 -32.106  1.00  0.00     0.311 C 
BRANCH  17  18
HETATM   18  C   UNL     1      -2.501   6.340 -31.439  1.00  0.00    -0.030 A 
HETATM   19  C   UNL     1      -1.302   6.383 -32.172  1.00  0.00     0.012 A 
HETATM   20  C   UNL     1      -0.116   6.796 -31.563  1.00  0.00     0.043 A 
HETATM   21  C   UNL     1      -0.128   7.175 -30.227  1.00  0.00     0.116 A 
HETATM   22  F   UNL     1       1.012   7.566 -29.643  1.00  0.00    -0.206 F 
HETATM   23  C   UNL     1      -1.303   7.149 -29.487  1.00  0.00     0.043 A 
HETATM   24  C   UNL     1      -2.491   6.736 -30.092  1.00  0.00     0.012 A 
ENDBRANCH  17  18
ENDBRANCH   8  17
TORSDOF 3
ENDMDL
