MODEL 1
REMARK VINA RESULT:      -8.7      0.000      0.000
REMARK  5 active torsions:
REMARK  status: ('A' for Active; 'I' for Inactive)
REMARK    1  A    between atoms: C_5  and  C_6 
REMARK    2  A    between atoms: C_6  and  N_7 
REMARK    3  A    between atoms: C_9  and  C_10 
REMARK       I    between atoms: C_10  and  N_11 
REMARK    4  A    between atoms: N_11  and  C_12 
REMARK    5  A    between atoms: C_12  and  O_13 
ROOT
HETATM    1  N   UNL     1      -7.128  -0.099 -33.481  1.00  0.00    -0.361 N 
HETATM    2  C   UNL     1      -8.394   0.102 -33.922  1.00  0.00     0.107 A 
HETATM    3  C   UNL     1      -9.396   0.541 -33.054  1.00  0.00     0.047 A 
HETATM    4  C   UNL     1      -9.080   0.747 -31.711  1.00  0.00     0.020 A 
HETATM    5  C   UNL     1      -7.774   0.532 -31.276  1.00  0.00     0.018 A 
HETATM    6  C   UNL     1      -6.804   0.117 -32.184  1.00  0.00     0.090 A 
ENDROOT
BRANCH   1   7
HETATM    7  C   UNL     1      -6.076  -0.508 -34.447  1.00  0.00     0.167 C 
BRANCH   7   8
HETATM    8  C   UNL     1      -5.788  -1.993 -34.481  1.00  0.00    -0.029 A 
HETATM    9  C   UNL     1      -4.767  -2.522 -33.630  1.00  0.00    -0.018 A 
HETATM   10  C   UNL     1      -4.513  -3.918 -33.647  1.00  0.00    -0.025 A 
HETATM   11  C   UNL     1      -3.975  -1.733 -32.757  1.00  0.00     0.013 A 
HETATM   12  C   UNL     1      -3.516  -4.468 -32.826  1.00  0.00     0.012 A 
HETATM   13  C   UNL     1      -5.257  -4.754 -34.487  1.00  0.00     0.012 A 
HETATM   14  C   UNL     1      -2.755  -3.663 -31.983  1.00  0.00     0.001 A 
HETATM   15  C   UNL     1      -2.983  -2.296 -31.949  1.00  0.00     0.001 A 
HETATM   16  C   UNL     1      -6.241  -4.236 -35.318  1.00  0.00     0.002 A 
HETATM   17  C   UNL     1      -6.505  -2.869 -35.320  1.00  0.00     0.010 A 
ENDBRANCH   7   8
ENDBRANCH   1   7
BRANCH   3  18
HETATM   18  C   UNL     1     -10.740   0.750 -33.641  1.00  0.00     0.254 C 
HETATM   19  N   UNL     1     -11.781   0.007 -33.157  1.00  0.00    -0.336 N 
HETATM   20  H   UNL     1     -11.716  -0.632 -32.381  1.00  0.00     0.164 HD
HETATM   21  O   UNL     1     -10.863   1.600 -34.517  1.00  0.00    -0.268 OA
BRANCH  19  22
HETATM   22  C   UNL     1     -13.107   0.186 -33.645  1.00  0.00     0.290 C 
BRANCH  22  23
HETATM   23  O   UNL     1     -13.703  -1.080 -33.510  1.00  0.00    -0.382 OA
HETATM   24  H   UNL     1     -13.739  -1.461 -34.404  1.00  0.00     0.211 HD
ENDBRANCH  22  23
ENDBRANCH  19  22
ENDBRANCH   3  18
TORSDOF 5
ENDMDL
MODEL 2
REMARK VINA RESULT:      -8.6      1.488      2.780
REMARK  5 active torsions:
REMARK  status: ('A' for Active; 'I' for Inactive)
REMARK    1  A    between atoms: C_5  and  C_6 
REMARK    2  A    between atoms: C_6  and  N_7 
REMARK    3  A    between atoms: C_9  and  C_10 
REMARK       I    between atoms: C_10  and  N_11 
REMARK    4  A    between atoms: N_11  and  C_12 
REMARK    5  A    between atoms: C_12  and  O_13 
ROOT
HETATM    1  N   UNL     1      -7.667   0.266 -33.807  1.00  0.00    -0.361 N 
HETATM    2  C   UNL     1      -8.798   0.716 -34.405  1.00  0.00     0.107 A 
HETATM    3  C   UNL     1      -9.908   1.093 -33.648  1.00  0.00     0.047 A 
HETATM    4  C   UNL     1      -9.848   0.977 -32.260  1.00  0.00     0.020 A 
HETATM    5  C   UNL     1      -8.679   0.510 -31.664  1.00  0.00     0.018 A 
HETATM    6  C   UNL     1      -7.589   0.168 -32.459  1.00  0.00     0.090 A 
ENDROOT
BRANCH   1   7
HETATM    7  C   UNL     1      -6.484  -0.070 -34.642  1.00  0.00     0.167 C 
BRANCH   7   8
HETATM    8  C   UNL     1      -5.380  -0.802 -33.912  1.00  0.00    -0.029 A 
HETATM    9  C   UNL     1      -5.237  -2.212 -34.104  1.00  0.00    -0.018 A 
HETATM   10  C   UNL     1      -4.187  -2.894 -33.437  1.00  0.00    -0.025 A 
HETATM   11  C   UNL     1      -6.089  -2.990 -34.928  1.00  0.00     0.013 A 
HETATM   12  C   UNL     1      -4.022  -4.278 -33.602  1.00  0.00     0.012 A 
HETATM   13  C   UNL     1      -3.310  -2.187 -32.606  1.00  0.00     0.012 A 
HETATM   14  C   UNL     1      -4.879  -5.012 -34.416  1.00  0.00     0.001 A 
HETATM   15  C   UNL     1      -5.914  -4.369 -35.079  1.00  0.00     0.001 A 
HETATM   16  C   UNL     1      -3.457  -0.819 -32.415  1.00  0.00     0.002 A 
HETATM   17  C   UNL     1      -4.483  -0.131 -33.058  1.00  0.00     0.010 A 
ENDBRANCH   7   8
ENDBRANCH   1   7
BRANCH   3  18
HETATM   18  C   UNL     1     -11.086   1.591 -34.398  1.00  0.00     0.254 C 
HETATM   19  N   UNL     1     -10.933   2.706 -35.176  1.00  0.00    -0.336 N 
HETATM   20  H   UNL     1     -10.058   3.180 -35.331  1.00  0.00     0.164 HD
HETATM   21  O   UNL     1     -12.136   0.966 -34.307  1.00  0.00    -0.268 OA
BRANCH  19  22
HETATM   22  C   UNL     1     -12.010   3.214 -35.957  1.00  0.00     0.290 C 
BRANCH  22  23
HETATM   23  O   UNL     1     -12.229   2.227 -36.934  1.00  0.00    -0.382 OA
HETATM   24  H   UNL     1     -13.174   2.275 -37.163  1.00  0.00     0.211 HD
ENDBRANCH  22  23
ENDBRANCH  19  22
ENDBRANCH   3  18
TORSDOF 5
ENDMDL
MODEL 3
REMARK VINA RESULT:      -8.5      4.650      6.209
REMARK  5 active torsions:
REMARK  status: ('A' for Active; 'I' for Inactive)
REMARK    1  A    between atoms: C_5  and  C_6 
REMARK    2  A    between atoms: C_6  and  N_7 
REMARK    3  A    between atoms: C_9  and  C_10 
REMARK       I    between atoms: C_10  and  N_11 
REMARK    4  A    between atoms: N_11  and  C_12 
REMARK    5  A    between atoms: C_12  and  O_13 
ROOT
HETATM    1  N   UNL     1      -4.066   1.050 -31.693  1.00  0.00    -0.361 N 
HETATM    2  C   UNL     1      -3.313   1.987 -32.320  1.00  0.00     0.107 A 
HETATM    3  C   UNL     1      -3.430   3.339 -31.992  1.00  0.00     0.047 A 
HETATM    4  C   UNL     1      -4.356   3.719 -31.021  1.00  0.00     0.020 A 
HETATM    5  C   UNL     1      -5.122   2.741 -30.389  1.00  0.00     0.018 A 
HETATM    6  C   UNL     1      -4.953   1.403 -30.733  1.00  0.00     0.090 A 
ENDROOT
BRANCH   1   7
HETATM    7  C   UNL     1      -3.870  -0.385 -32.026  1.00  0.00     0.167 C 
BRANCH   7   8
HETATM    8  C   UNL     1      -4.827  -0.932 -33.062  1.00  0.00    -0.029 A 
HETATM    9  C   UNL     1      -4.708  -2.300 -33.463  1.00  0.00    -0.018 A 
HETATM   10  C   UNL     1      -5.620  -2.818 -34.418  1.00  0.00    -0.025 A 
HETATM   11  C   UNL     1      -3.722  -3.189 -32.965  1.00  0.00     0.013 A 
HETATM   12  C   UNL     1      -5.529  -4.155 -34.835  1.00  0.00     0.012 A 
HETATM   13  C   UNL     1      -6.617  -1.994 -34.953  1.00  0.00     0.012 A 
HETATM   14  C   UNL     1      -4.546  -5.000 -34.327  1.00  0.00     0.001 A 
HETATM   15  C   UNL     1      -3.642  -4.518 -33.393  1.00  0.00     0.001 A 
HETATM   16  C   UNL     1      -6.723  -0.663 -34.568  1.00  0.00     0.002 A 
HETATM   17  C   UNL     1      -5.837  -0.134 -33.634  1.00  0.00     0.010 A 
ENDBRANCH   7   8
ENDBRANCH   1   7
BRANCH   3  18
HETATM   18  C   UNL     1      -2.547   4.279 -32.722  1.00  0.00     0.254 C 
HETATM   19  N   UNL     1      -3.042   4.898 -33.837  1.00  0.00    -0.336 N 
HETATM   20  H   UNL     1      -3.990   4.814 -34.166  1.00  0.00     0.164 HD
HETATM   21  O   UNL     1      -1.422   4.478 -32.278  1.00  0.00    -0.268 OA
BRANCH  19  22
HETATM   22  C   UNL     1      -2.264   5.846 -34.562  1.00  0.00     0.290 C 
BRANCH  22  23
HETATM   23  O   UNL     1      -1.423   5.062 -35.371  1.00  0.00    -0.382 OA
HETATM   24  H   UNL     1      -0.603   5.572 -35.488  1.00  0.00     0.211 HD
ENDBRANCH  22  23
ENDBRANCH  19  22
ENDBRANCH   3  18
TORSDOF 5
ENDMDL
MODEL 4
REMARK VINA RESULT:      -8.4      1.508      3.240
REMARK  5 active torsions:
REMARK  status: ('A' for Active; 'I' for Inactive)
REMARK    1  A    between atoms: C_5  and  C_6 
REMARK    2  A    between atoms: C_6  and  N_7 
REMARK    3  A    between atoms: C_9  and  C_10 
REMARK       I    between atoms: C_10  and  N_11 
REMARK    4  A    between atoms: N_11  and  C_12 
REMARK    5  A    between atoms: C_12  and  O_13 
ROOT
HETATM    1  N   UNL     1      -8.284   1.228 -32.301  1.00  0.00    -0.361 N 
HETATM    2  C   UNL     1      -9.537   0.983 -32.760  1.00  0.00     0.107 A 
HETATM    3  C   UNL     1     -10.120   1.805 -33.726  1.00  0.00     0.047 A 
HETATM    4  C   UNL     1      -9.403   2.902 -34.199  1.00  0.00     0.020 A 
HETATM    5  C   UNL     1      -8.118   3.139 -33.714  1.00  0.00     0.018 A 
HETATM    6  C   UNL     1      -7.569   2.278 -32.768  1.00  0.00     0.090 A 
ENDROOT
BRANCH   1   7
HETATM    7  C   UNL     1      -7.674   0.297 -31.317  1.00  0.00     0.167 C 
BRANCH   7   8
HETATM    8  C   UNL     1      -6.257  -0.126 -31.639  1.00  0.00    -0.029 A 
HETATM    9  C   UNL     1      -6.027  -0.990 -32.756  1.00  0.00    -0.018 A 
HETATM   10  C   UNL     1      -4.696  -1.368 -33.070  1.00  0.00    -0.025 A 
HETATM   11  C   UNL     1      -7.056  -1.505 -33.585  1.00  0.00     0.013 A 
HETATM   12  C   UNL     1      -4.437  -2.216 -34.158  1.00  0.00     0.012 A 
HETATM   13  C   UNL     1      -3.633  -0.898 -32.292  1.00  0.00     0.012 A 
HETATM   14  C   UNL     1      -5.472  -2.706 -34.949  1.00  0.00     0.001 A 
HETATM   15  C   UNL     1      -6.782  -2.352 -34.663  1.00  0.00     0.001 A 
HETATM   16  C   UNL     1      -3.861  -0.066 -31.202  1.00  0.00     0.002 A 
HETATM   17  C   UNL     1      -5.159   0.315 -30.874  1.00  0.00     0.010 A 
ENDBRANCH   7   8
ENDBRANCH   1   7
BRANCH   3  18
HETATM   18  C   UNL     1     -11.485   1.437 -34.175  1.00  0.00     0.254 C 
HETATM   19  N   UNL     1     -12.187   0.528 -33.433  1.00  0.00    -0.336 N 
HETATM   20  H   UNL     1     -11.871   0.134 -32.561  1.00  0.00     0.164 HD
HETATM   21  O   UNL     1     -11.931   1.986 -35.176  1.00  0.00    -0.268 OA
BRANCH  19  22
HETATM   22  C   UNL     1     -13.518   0.162 -33.781  1.00  0.00     0.290 C 
BRANCH  22  23
HETATM   23  O   UNL     1     -13.690  -1.112 -33.210  1.00  0.00    -0.382 OA
HETATM   24  H   UNL     1     -14.329  -1.002 -32.484  1.00  0.00     0.211 HD
ENDBRANCH  22  23
ENDBRANCH  19  22
ENDBRANCH   3  18
TORSDOF 5
ENDMDL
MODEL 5
REMARK VINA RESULT:      -8.3      6.208      8.294
REMARK  5 active torsions:
REMARK  status: ('A' for Active; 'I' for Inactive)
REMARK    1  A    between atoms: C_5  and  C_6 
REMARK    2  A    between atoms: C_6  and  N_7 
REMARK    3  A    between atoms: C_9  and  C_10 
REMARK       I    between atoms: C_10  and  N_11 
REMARK    4  A    between atoms: N_11  and  C_12 
REMARK    5  A    between atoms: C_12  and  O_13 
ROOT
HETATM    1  N   UNL     1      -3.632   3.658 -32.383  1.00  0.00    -0.361 N 
HETATM    2  C   UNL     1      -2.629   4.017 -31.545  1.00  0.00     0.107 A 
HETATM    3  C   UNL     1      -1.600   4.858 -31.975  1.00  0.00     0.047 A 
HETATM    4  C   UNL     1      -1.605   5.306 -33.295  1.00  0.00     0.020 A 
HETATM    5  C   UNL     1      -2.643   4.924 -34.143  1.00  0.00     0.018 A 
HETATM    6  C   UNL     1      -3.659   4.104 -33.661  1.00  0.00     0.090 A 
ENDROOT
BRANCH   1   7
HETATM    7  C   UNL     1      -4.741   2.811 -31.872  1.00  0.00     0.167 C 
BRANCH   7   8
HETATM    8  C   UNL     1      -4.574   1.329 -32.123  1.00  0.00    -0.029 A 
HETATM    9  C   UNL     1      -5.386   0.698 -33.118  1.00  0.00    -0.018 A 
HETATM   10  C   UNL     1      -5.214  -0.688 -33.368  1.00  0.00    -0.025 A 
HETATM   11  C   UNL     1      -6.371   1.373 -33.883  1.00  0.00     0.013 A 
HETATM   12  C   UNL     1      -5.997  -1.338 -34.336  1.00  0.00     0.012 A 
HETATM   13  C   UNL     1      -4.262  -1.417 -32.647  1.00  0.00     0.012 A 
HETATM   14  C   UNL     1      -6.957  -0.644 -35.067  1.00  0.00     0.001 A 
HETATM   15  C   UNL     1      -7.145   0.711 -34.841  1.00  0.00     0.001 A 
HETATM   16  C   UNL     1      -3.481  -0.802 -31.675  1.00  0.00     0.002 A 
HETATM   17  C   UNL     1      -3.636   0.556 -31.412  1.00  0.00     0.010 A 
ENDBRANCH   7   8
ENDBRANCH   1   7
BRANCH   3  18
HETATM   18  C   UNL     1      -0.564   5.207 -30.974  1.00  0.00     0.254 C 
HETATM   19  N   UNL     1      -0.931   5.976 -29.905  1.00  0.00    -0.336 N 
HETATM   20  H   UNL     1      -1.873   6.273 -29.709  1.00  0.00     0.164 HD
HETATM   21  O   UNL     1       0.569   4.768 -31.138  1.00  0.00    -0.268 OA
BRANCH  19  22
HETATM   22  C   UNL     1       0.002   6.314 -28.883  1.00  0.00     0.290 C 
BRANCH  22  23
HETATM   23  O   UNL     1       0.347   5.080 -28.303  1.00  0.00    -0.382 OA
HETATM   24  H   UNL     1      -0.103   4.396 -28.830  1.00  0.00     0.211 HD
ENDBRANCH  22  23
ENDBRANCH  19  22
ENDBRANCH   3  18
TORSDOF 5
ENDMDL
MODEL 6
REMARK VINA RESULT:      -8.3      1.792      2.764
REMARK  5 active torsions:
REMARK  status: ('A' for Active; 'I' for Inactive)
REMARK    1  A    between atoms: C_5  and  C_6 
REMARK    2  A    between atoms: C_6  and  N_7 
REMARK    3  A    between atoms: C_9  and  C_10 
REMARK       I    between atoms: C_10  and  N_11 
REMARK    4  A    between atoms: N_11  and  C_12 
REMARK    5  A    between atoms: C_12  and  O_13 
ROOT
HETATM    1  N   UNL     1      -8.960   1.349 -32.857  1.00  0.00    -0.361 N 
HETATM    2  C   UNL     1     -10.257   1.099 -33.160  1.00  0.00     0.107 A 
HETATM    3  C   UNL     1     -10.986   1.971 -33.970  1.00  0.00     0.047 A 
HETATM    4  C   UNL     1     -10.365   3.125 -34.447  1.00  0.00     0.020 A 
HETATM    5  C   UNL     1      -9.032   3.366 -34.123  1.00  0.00     0.018 A 
HETATM    6  C   UNL     1      -8.339   2.455 -33.331  1.00  0.00     0.090 A 
ENDROOT
BRANCH   1   7
HETATM    7  C   UNL     1      -8.199   0.367 -32.042  1.00  0.00     0.167 C 
BRANCH   7   8
HETATM    8  C   UNL     1      -7.162  -0.425 -32.808  1.00  0.00    -0.029 A 
HETATM    9  C   UNL     1      -5.803  -0.405 -32.360  1.00  0.00    -0.018 A 
HETATM   10  C   UNL     1      -4.836  -1.166 -33.066  1.00  0.00    -0.025 A 
HETATM   11  C   UNL     1      -5.348   0.337 -31.242  1.00  0.00     0.013 A 
HETATM   12  C   UNL     1      -3.494  -1.166 -32.654  1.00  0.00     0.012 A 
HETATM   13  C   UNL     1      -5.217  -1.921 -34.182  1.00  0.00     0.012 A 
HETATM   14  C   UNL     1      -3.081  -0.422 -31.553  1.00  0.00     0.001 A 
HETATM   15  C   UNL     1      -4.007   0.330 -30.847  1.00  0.00     0.001 A 
HETATM   16  C   UNL     1      -6.536  -1.931 -34.618  1.00  0.00     0.002 A 
HETATM   17  C   UNL     1      -7.500  -1.189 -33.942  1.00  0.00     0.010 A 
ENDBRANCH   7   8
ENDBRANCH   1   7
BRANCH   3  18
HETATM   18  C   UNL     1     -12.391   1.594 -34.258  1.00  0.00     0.254 C 
HETATM   19  N   UNL     1     -13.238   1.403 -33.203  1.00  0.00    -0.336 N 
HETATM   20  H   UNL     1     -12.997   1.563 -32.238  1.00  0.00     0.164 HD
HETATM   21  O   UNL     1     -12.734   1.497 -35.431  1.00  0.00    -0.268 OA
BRANCH  19  22
HETATM   22  C   UNL     1     -14.611   1.082 -33.406  1.00  0.00     0.290 C 
BRANCH  22  23
HETATM   23  O   UNL     1     -14.585  -0.064 -34.221  1.00  0.00    -0.382 OA
HETATM   24  H   UNL     1     -14.307  -0.800 -33.648  1.00  0.00     0.211 HD
ENDBRANCH  22  23
ENDBRANCH  19  22
ENDBRANCH   3  18
TORSDOF 5
ENDMDL
MODEL 7
REMARK VINA RESULT:      -7.8      4.544      6.059
REMARK  5 active torsions:
REMARK  status: ('A' for Active; 'I' for Inactive)
REMARK    1  A    between atoms: C_5  and  C_6 
REMARK    2  A    between atoms: C_6  and  N_7 
REMARK    3  A    between atoms: C_9  and  C_10 
REMARK       I    between atoms: C_10  and  N_11 
REMARK    4  A    between atoms: N_11  and  C_12 
REMARK    5  A    between atoms: C_12  and  O_13 
ROOT
HETATM    1  N   UNL     1      -4.189   2.023 -31.722  1.00  0.00    -0.361 N 
HETATM    2  C   UNL     1      -4.724   2.900 -30.837  1.00  0.00     0.107 A 
HETATM    3  C   UNL     1      -4.429   4.263 -30.909  1.00  0.00     0.047 A 
HETATM    4  C   UNL     1      -3.551   4.710 -31.896  1.00  0.00     0.020 A 
HETATM    5  C   UNL     1      -3.009   3.794 -32.795  1.00  0.00     0.018 A 
HETATM    6  C   UNL     1      -3.351   2.448 -32.697  1.00  0.00     0.090 A 
ENDROOT
BRANCH   1   7
HETATM    7  C   UNL     1      -4.573   0.590 -31.651  1.00  0.00     0.167 C 
BRANCH   7   8
HETATM    8  C   UNL     1      -5.397   0.095 -32.820  1.00  0.00    -0.029 A 
HETATM    9  C   UNL     1      -5.125  -1.202 -33.361  1.00  0.00    -0.018 A 
HETATM   10  C   UNL     1      -5.912  -1.673 -34.443  1.00  0.00    -0.025 A 
HETATM   11  C   UNL     1      -4.104  -2.061 -32.884  1.00  0.00     0.013 A 
HETATM   12  C   UNL     1      -5.670  -2.939 -34.999  1.00  0.00     0.012 A 
HETATM   13  C   UNL     1      -6.936  -0.874 -34.964  1.00  0.00     0.012 A 
HETATM   14  C   UNL     1      -4.656  -3.756 -34.507  1.00  0.00     0.001 A 
HETATM   15  C   UNL     1      -3.872  -3.318 -33.451  1.00  0.00     0.001 A 
HETATM   16  C   UNL     1      -7.191   0.388 -34.442  1.00  0.00     0.002 A 
HETATM   17  C   UNL     1      -6.429   0.872 -33.382  1.00  0.00     0.010 A 
ENDBRANCH   7   8
ENDBRANCH   1   7
BRANCH   3  18
HETATM   18  C   UNL     1      -5.082   5.138 -29.908  1.00  0.00     0.254 C 
HETATM   19  N   UNL     1      -5.153   4.701 -28.614  1.00  0.00    -0.336 N 
HETATM   20  H   UNL     1      -4.733   3.852 -28.273  1.00  0.00     0.164 HD
HETATM   21  O   UNL     1      -5.507   6.226 -30.281  1.00  0.00    -0.268 OA
BRANCH  19  22
HETATM   22  C   UNL     1      -5.728   5.509 -27.592  1.00  0.00     0.290 C 
BRANCH  22  23
HETATM   23  O   UNL     1      -4.978   5.204 -26.442  1.00  0.00    -0.382 OA
HETATM   24  H   UNL     1      -4.783   4.252 -26.488  1.00  0.00     0.211 HD
ENDBRANCH  22  23
ENDBRANCH  19  22
ENDBRANCH   3  18
TORSDOF 5
ENDMDL
MODEL 8
REMARK VINA RESULT:      -7.8      4.576      6.546
REMARK  5 active torsions:
REMARK  status: ('A' for Active; 'I' for Inactive)
REMARK    1  A    between atoms: C_5  and  C_6 
REMARK    2  A    between atoms: C_6  and  N_7 
REMARK    3  A    between atoms: C_9  and  C_10 
REMARK       I    between atoms: C_10  and  N_11 
REMARK    4  A    between atoms: N_11  and  C_12 
REMARK    5  A    between atoms: C_12  and  O_13 
ROOT
HETATM    1  N   UNL     1      -6.101   1.975 -30.805  1.00  0.00    -0.361 N 
HETATM    2  C   UNL     1      -4.847   2.310 -31.198  1.00  0.00     0.107 A 
HETATM    3  C   UNL     1      -4.379   3.618 -31.064  1.00  0.00     0.047 A 
HETATM    4  C   UNL     1      -5.231   4.588 -30.539  1.00  0.00     0.020 A 
HETATM    5  C   UNL     1      -6.517   4.225 -30.143  1.00  0.00     0.018 A 
HETATM    6  C   UNL     1      -6.932   2.903 -30.276  1.00  0.00     0.090 A 
ENDROOT
BRANCH   1   7
HETATM    7  C   UNL     1      -6.544   0.560 -30.908  1.00  0.00     0.167 C 
BRANCH   7   8
HETATM    8  C   UNL     1      -6.891   0.104 -32.308  1.00  0.00    -0.029 A 
HETATM    9  C   UNL     1      -6.041  -0.843 -32.961  1.00  0.00    -0.018 A 
HETATM   10  C   UNL     1      -6.379  -1.286 -34.266  1.00  0.00    -0.025 A 
HETATM   11  C   UNL     1      -4.860  -1.377 -32.385  1.00  0.00     0.013 A 
HETATM   12  C   UNL     1      -5.565  -2.214 -34.934  1.00  0.00     0.012 A 
HETATM   13  C   UNL     1      -7.530  -0.798 -34.894  1.00  0.00     0.012 A 
HETATM   14  C   UNL     1      -4.410  -2.715 -34.340  1.00  0.00     0.001 A 
HETATM   15  C   UNL     1      -4.057  -2.297 -33.066  1.00  0.00     0.001 A 
HETATM   16  C   UNL     1      -8.349   0.129 -34.261  1.00  0.00     0.002 A 
HETATM   17  C   UNL     1      -8.034   0.580 -32.982  1.00  0.00     0.010 A 
ENDBRANCH   7   8
ENDBRANCH   1   7
BRANCH   3  18
HETATM   18  C   UNL     1      -2.986   3.874 -31.503  1.00  0.00     0.254 C 
HETATM   19  N   UNL     1      -2.229   4.749 -30.776  1.00  0.00    -0.336 N 
HETATM   20  H   UNL     1      -2.525   5.188 -29.919  1.00  0.00     0.164 HD
HETATM   21  O   UNL     1      -2.570   3.269 -32.485  1.00  0.00    -0.268 OA
BRANCH  19  22
HETATM   22  C   UNL     1      -0.870   5.009 -31.115  1.00  0.00     0.290 C 
BRANCH  22  23
HETATM   23  O   UNL     1      -0.135   4.501 -30.030  1.00  0.00    -0.382 OA
HETATM   24  H   UNL     1      -0.706   4.592 -29.247  1.00  0.00     0.211 HD
ENDBRANCH  22  23
ENDBRANCH  19  22
ENDBRANCH   3  18
TORSDOF 5
ENDMDL
MODEL 9
REMARK VINA RESULT:      -7.8      3.545      5.522
REMARK  5 active torsions:
REMARK  status: ('A' for Active; 'I' for Inactive)
REMARK    1  A    between atoms: C_5  and  C_6 
REMARK    2  A    between atoms: C_6  and  N_7 
REMARK    3  A    between atoms: C_9  and  C_10 
REMARK       I    between atoms: C_10  and  N_11 
REMARK    4  A    between atoms: N_11  and  C_12 
REMARK    5  A    between atoms: C_12  and  O_13 
ROOT
HETATM    1  N   UNL     1      -7.581   1.778 -32.149  1.00  0.00    -0.361 N 
HETATM    2  C   UNL     1      -6.710   2.792 -32.377  1.00  0.00     0.107 A 
HETATM    3  C   UNL     1      -7.075   3.887 -33.162  1.00  0.00     0.047 A 
HETATM    4  C   UNL     1      -8.347   3.915 -33.732  1.00  0.00     0.020 A 
HETATM    5  C   UNL     1      -9.227   2.862 -33.487  1.00  0.00     0.018 A 
HETATM    6  C   UNL     1      -8.826   1.802 -32.679  1.00  0.00     0.090 A 
ENDROOT
BRANCH   1   7
HETATM    7  C   UNL     1      -7.178   0.658 -31.259  1.00  0.00     0.167 C 
BRANCH   7   8
HETATM    8  C   UNL     1      -5.853   0.017 -31.607  1.00  0.00    -0.029 A 
HETATM    9  C   UNL     1      -5.789  -0.889 -32.713  1.00  0.00    -0.018 A 
HETATM   10  C   UNL     1      -4.540  -1.473 -33.051  1.00  0.00    -0.025 A 
HETATM   11  C   UNL     1      -6.906  -1.252 -33.506  1.00  0.00     0.013 A 
HETATM   12  C   UNL     1      -4.444  -2.367 -34.129  1.00  0.00     0.012 A 
HETATM   13  C   UNL     1      -3.396  -1.159 -32.309  1.00  0.00     0.012 A 
HETATM   14  C   UNL     1      -5.563  -2.704 -34.885  1.00  0.00     0.001 A 
HETATM   15  C   UNL     1      -6.795  -2.148 -34.573  1.00  0.00     0.001 A 
HETATM   16  C   UNL     1      -3.464  -0.286 -31.230  1.00  0.00     0.002 A 
HETATM   17  C   UNL     1      -4.679   0.295 -30.878  1.00  0.00     0.010 A 
ENDBRANCH   7   8
ENDBRANCH   1   7
BRANCH   3  18
HETATM   18  C   UNL     1      -6.056   4.951 -33.333  1.00  0.00     0.254 C 
HETATM   19  N   UNL     1      -4.887   4.632 -33.966  1.00  0.00    -0.336 N 
HETATM   20  H   UNL     1      -4.689   3.738 -34.387  1.00  0.00     0.164 HD
HETATM   21  O   UNL     1      -6.320   6.075 -32.921  1.00  0.00    -0.268 OA
BRANCH  19  22
HETATM   22  C   UNL     1      -3.883   5.614 -34.202  1.00  0.00     0.290 C 
BRANCH  22  23
HETATM   23  O   UNL     1      -3.610   5.509 -35.578  1.00  0.00    -0.382 OA
HETATM   24  H   UNL     1      -4.150   4.770 -35.908  1.00  0.00     0.211 HD
ENDBRANCH  22  23
ENDBRANCH  19  22
ENDBRANCH   3  18
TORSDOF 5
ENDMDL
MODEL 10
REMARK VINA RESULT:      -7.8      4.553      6.225
REMARK  5 active torsions:
REMARK  status: ('A' for Active; 'I' for Inactive)
REMARK    1  A    between atoms: C_5  and  C_6 
REMARK    2  A    between atoms: C_6  and  N_7 
REMARK    3  A    between atoms: C_9  and  C_10 
REMARK       I    between atoms: C_10  and  N_11 
REMARK    4  A    between atoms: N_11  and  C_12 
REMARK    5  A    between atoms: C_12  and  O_13 
ROOT
HETATM    1  N   UNL     1      -6.181   2.718 -31.849  1.00  0.00    -0.361 N 
HETATM    2  C   UNL     1      -6.158   3.514 -30.752  1.00  0.00     0.107 A 
HETATM    3  C   UNL     1      -5.855   4.873 -30.857  1.00  0.00     0.047 A 
HETATM    4  C   UNL     1      -5.551   5.400 -32.112  1.00  0.00     0.020 A 
HETATM    5  C   UNL     1      -5.577   4.566 -33.227  1.00  0.00     0.018 A 
HETATM    6  C   UNL     1      -5.907   3.222 -33.075  1.00  0.00     0.090 A 
ENDROOT
BRANCH   1   7
HETATM    7  C   UNL     1      -6.566   1.290 -31.706  1.00  0.00     0.167 C 
BRANCH   7   8
HETATM    8  C   UNL     1      -5.436   0.305 -31.910  1.00  0.00    -0.029 A 
HETATM    9  C   UNL     1      -5.575  -0.714 -32.905  1.00  0.00    -0.018 A 
HETATM   10  C   UNL     1      -4.506  -1.624 -33.110  1.00  0.00    -0.025 A 
HETATM   11  C   UNL     1      -6.729  -0.882 -33.711  1.00  0.00     0.013 A 
HETATM   12  C   UNL     1      -4.612  -2.637 -34.076  1.00  0.00     0.012 A 
HETATM   13  C   UNL     1      -3.339  -1.517 -32.346  1.00  0.00     0.012 A 
HETATM   14  C   UNL     1      -5.761  -2.775 -34.849  1.00  0.00     0.001 A 
HETATM   15  C   UNL     1      -6.820  -1.899 -34.667  1.00  0.00     0.001 A 
HETATM   16  C   UNL     1      -3.211  -0.531 -31.375  1.00  0.00     0.002 A 
HETATM   17  C   UNL     1      -4.249   0.370 -31.155  1.00  0.00     0.010 A 
ENDBRANCH   7   8
ENDBRANCH   1   7
BRANCH   3  18
HETATM   18  C   UNL     1      -5.879   5.659 -29.601  1.00  0.00     0.254 C 
HETATM   19  N   UNL     1      -5.298   5.116 -28.488  1.00  0.00    -0.336 N 
HETATM   20  H   UNL     1      -4.795   4.244 -28.472  1.00  0.00     0.164 HD
HETATM   21  O   UNL     1      -6.394   6.771 -29.624  1.00  0.00    -0.268 OA
BRANCH  19  22
HETATM   22  C   UNL     1      -5.246   5.833 -27.258  1.00  0.00     0.290 C 
BRANCH  22  23
HETATM   23  O   UNL     1      -4.627   4.944 -26.362  1.00  0.00    -0.382 OA
HETATM   24  H   UNL     1      -4.807   4.049 -26.697  1.00  0.00     0.211 HD
ENDBRANCH  22  23
ENDBRANCH  19  22
ENDBRANCH   3  18
TORSDOF 5
ENDMDL
