MODEL 1
REMARK VINA RESULT:     -10.2      0.000      0.000
REMARK  4 active torsions:
REMARK  status: ('A' for Active; 'I' for Inactive)
REMARK    1  A    between atoms: C_4  and  N_5 
REMARK       I    between atoms: N_5  and  C_6 
REMARK    2  A    between atoms: C_6  and  C_7 
REMARK    3  A    between atoms: C_7  and  N_8 
REMARK    4  A    between atoms: C_12  and  C_13 
ROOT
HETATM    1  N   UNL     1      -5.420   1.443 -31.050  1.00  0.00    -0.304 N 
HETATM    2  C   UNL     1      -6.693   1.160 -31.523  1.00  0.00     0.261 C 
HETATM    3  O   UNL     1      -7.711   1.741 -31.188  1.00  0.00    -0.267 OA
HETATM    4  C   UNL     1      -6.526  -0.052 -32.415  1.00  0.00     0.068 C 
HETATM    5  C   UNL     1      -7.444  -0.483 -33.303  1.00  0.00     0.093 C 
HETATM    6  C   UNL     1      -7.150  -1.636 -34.249  1.00  0.00     0.025 C 
HETATM    7  N   UNL     1      -6.907  -2.593 -35.033  1.00  0.00    -0.096 N 
HETATM    8  C   UNL     1      -5.146  -0.538 -32.185  1.00  0.00     0.008 A 
HETATM    9  C   UNL     1      -4.517   0.423 -31.377  1.00  0.00     0.049 A 
HETATM   10  C   UNL     1      -4.442  -1.662 -32.590  1.00  0.00     0.015 A 
HETATM   11  C   UNL     1      -3.107  -1.800 -32.190  1.00  0.00     0.001 A 
HETATM   12  C   UNL     1      -2.490  -0.827 -31.391  1.00  0.00     0.002 A 
HETATM   13  C   UNL     1      -3.198   0.300 -30.975  1.00  0.00     0.030 A 
ENDROOT
BRANCH   5  14
HETATM   14  C   UNL     1      -8.674   0.197 -33.534  1.00  0.00     0.149 A 
HETATM   15  N   UNL     1      -9.897  -0.077 -33.127  1.00  0.00    -0.228 NA
HETATM   16  C   UNL     1     -10.686   0.959 -33.561  1.00  0.00     0.086 A 
HETATM   17  C   UNL     1      -9.925   1.914 -34.222  1.00  0.00     0.062 A 
HETATM   18  C   UNL     1     -12.065   1.165 -33.414  1.00  0.00     0.034 A 
HETATM   19  N   UNL     1      -8.654   1.403 -34.203  1.00  0.00    -0.338 N 
HETATM   20  C   UNL     1     -10.456   3.098 -34.740  1.00  0.00     0.032 A 
HETATM   21  H   UNL     1      -7.843   1.856 -34.600  1.00  0.00     0.167 HD
HETATM   22  C   UNL     1     -11.832   3.290 -34.576  1.00  0.00     0.002 A 
HETATM   23  C   UNL     1     -12.627   2.340 -33.929  1.00  0.00     0.002 A 
ENDBRANCH   5  14
BRANCH   1  24
HETATM   24  C   UNL     1      -5.068   2.697 -30.425  1.00  0.00     0.235 C 
BRANCH  24  25
HETATM   25  C   UNL     1      -4.602   3.792 -31.378  1.00  0.00     0.240 C 
HETATM   26  N   UNL     1      -3.269   3.677 -31.731  1.00  0.00    -0.326 N 
HETATM   27  H   UNL     1      -2.829   2.770 -31.567  1.00  0.00     0.169 HD
HETATM   28  O   UNL     1      -5.365   4.704 -31.695  1.00  0.00    -0.271 OA
BRANCH  26  29
HETATM   29  C   UNL     1      -2.445   4.694 -32.255  1.00  0.00     0.035 A 
HETATM   30  C   UNL     1      -1.485   5.374 -31.499  1.00  0.00     0.036 A 
HETATM   31  C   UNL     1      -0.628   6.314 -32.095  1.00  0.00    -0.060 A 
HETATM   32  C   UNL     1       0.460   6.965 -31.291  1.00  0.00     0.048 C 
HETATM   33  C   UNL     1      -0.746   6.574 -33.464  1.00  0.00     0.007 A 
HETATM   34  C   UNL     1      -1.708   5.909 -34.223  1.00  0.00     0.003 A 
HETATM   35  C   UNL     1      -2.547   4.967 -33.623  1.00  0.00     0.029 A 
ENDBRANCH  26  29
ENDBRANCH  24  25
ENDBRANCH   1  24
TORSDOF 4
ENDMDL
MODEL 2
REMARK VINA RESULT:     -10.0      2.715      6.409
REMARK  4 active torsions:
REMARK  status: ('A' for Active; 'I' for Inactive)
REMARK    1  A    between atoms: C_4  and  N_5 
REMARK       I    between atoms: N_5  and  C_6 
REMARK    2  A    between atoms: C_6  and  C_7 
REMARK    3  A    between atoms: C_7  and  N_8 
REMARK    4  A    between atoms: C_12  and  C_13 
ROOT
HETATM    1  N   UNL     1      -7.030   1.781 -32.413  1.00  0.00    -0.304 N 
HETATM    2  C   UNL     1      -8.320   1.836 -32.921  1.00  0.00     0.261 C 
HETATM    3  O   UNL     1      -9.112   0.910 -32.925  1.00  0.00    -0.267 OA
HETATM    4  C   UNL     1      -8.447   3.214 -33.534  1.00  0.00     0.068 C 
HETATM    5  C   UNL     1      -9.614   3.797 -33.876  1.00  0.00     0.093 C 
HETATM    6  C   UNL     1      -9.667   5.232 -34.373  1.00  0.00     0.025 C 
HETATM    7  N   UNL     1      -9.711   6.423 -34.785  1.00  0.00    -0.096 N 
HETATM    8  C   UNL     1      -7.080   3.783 -33.542  1.00  0.00     0.008 A 
HETATM    9  C   UNL     1      -6.274   2.886 -32.823  1.00  0.00     0.049 A 
HETATM   10  C   UNL     1      -6.519   4.931 -34.082  1.00  0.00     0.015 A 
HETATM   11  C   UNL     1      -5.154   5.172 -33.879  1.00  0.00     0.001 A 
HETATM   12  C   UNL     1      -4.364   4.272 -33.151  1.00  0.00     0.002 A 
HETATM   13  C   UNL     1      -4.923   3.112 -32.615  1.00  0.00     0.030 A 
ENDROOT
BRANCH   5  14
HETATM   14  C   UNL     1     -10.879   3.183 -33.650  1.00  0.00     0.149 A 
HETATM   15  N   UNL     1     -11.838   3.480 -32.796  1.00  0.00    -0.228 NA
HETATM   16  C   UNL     1     -12.874   2.620 -33.069  1.00  0.00     0.086 A 
HETATM   17  C   UNL     1     -12.560   1.796 -34.142  1.00  0.00     0.062 A 
HETATM   18  C   UNL     1     -14.127   2.495 -32.453  1.00  0.00     0.034 A 
HETATM   19  N   UNL     1     -11.285   2.163 -34.485  1.00  0.00    -0.338 N 
HETATM   20  C   UNL     1     -13.440   0.847 -34.666  1.00  0.00     0.032 A 
HETATM   21  H   UNL     1     -10.752   1.758 -35.241  1.00  0.00     0.167 HD
HETATM   22  C   UNL     1     -14.689   0.742 -34.045  1.00  0.00     0.002 A 
HETATM   23  C   UNL     1     -15.029   1.546 -32.953  1.00  0.00     0.002 A 
ENDBRANCH   5  14
BRANCH   1  24
HETATM   24  C   UNL     1      -6.591   0.775 -31.473  1.00  0.00     0.235 C 
BRANCH  24  25
HETATM   25  C   UNL     1      -5.757  -0.353 -32.070  1.00  0.00     0.240 C 
HETATM   26  N   UNL     1      -6.273  -0.844 -33.256  1.00  0.00    -0.326 N 
HETATM   27  H   UNL     1      -6.951  -0.253 -33.739  1.00  0.00     0.169 HD
HETATM   28  O   UNL     1      -4.781  -0.792 -31.461  1.00  0.00    -0.271 OA
BRANCH  26  29
HETATM   29  C   UNL     1      -5.990  -2.093 -33.845  1.00  0.00     0.035 A 
HETATM   30  C   UNL     1      -4.764  -2.752 -33.706  1.00  0.00     0.036 A 
HETATM   31  C   UNL     1      -4.567  -4.036 -34.239  1.00  0.00    -0.060 A 
HETATM   32  C   UNL     1      -3.280  -4.768 -33.999  1.00  0.00     0.048 C 
HETATM   33  C   UNL     1      -5.616  -4.658 -34.924  1.00  0.00     0.007 A 
HETATM   34  C   UNL     1      -6.838  -4.005 -35.078  1.00  0.00     0.003 A 
HETATM   35  C   UNL     1      -7.027  -2.733 -34.533  1.00  0.00     0.029 A 
ENDBRANCH  26  29
ENDBRANCH  24  25
ENDBRANCH   1  24
TORSDOF 4
ENDMDL
MODEL 3
REMARK VINA RESULT:     -10.0      2.435      8.039
REMARK  4 active torsions:
REMARK  status: ('A' for Active; 'I' for Inactive)
REMARK    1  A    between atoms: C_4  and  N_5 
REMARK       I    between atoms: N_5  and  C_6 
REMARK    2  A    between atoms: C_6  and  C_7 
REMARK    3  A    between atoms: C_7  and  N_8 
REMARK    4  A    between atoms: C_12  and  C_13 
ROOT
HETATM    1  N   UNL     1      -7.903   1.505 -34.313  1.00  0.00    -0.304 N 
HETATM    2  C   UNL     1      -6.948   2.342 -33.755  1.00  0.00     0.261 C 
HETATM    3  O   UNL     1      -5.781   2.048 -33.564  1.00  0.00    -0.267 OA
HETATM    4  C   UNL     1      -7.701   3.595 -33.360  1.00  0.00     0.068 C 
HETATM    5  C   UNL     1      -7.122   4.774 -33.054  1.00  0.00     0.093 C 
HETATM    6  C   UNL     1      -7.953   6.019 -32.787  1.00  0.00     0.025 C 
HETATM    7  N   UNL     1      -8.642   7.051 -32.565  1.00  0.00    -0.096 N 
HETATM    8  C   UNL     1      -9.138   3.270 -33.512  1.00  0.00     0.008 A 
HETATM    9  C   UNL     1      -9.196   2.007 -34.120  1.00  0.00     0.049 A 
HETATM   10  C   UNL     1     -10.313   3.931 -33.188  1.00  0.00     0.015 A 
HETATM   11  C   UNL     1     -11.536   3.321 -33.495  1.00  0.00     0.001 A 
HETATM   12  C   UNL     1     -11.577   2.063 -34.113  1.00  0.00     0.002 A 
HETATM   13  C   UNL     1     -10.397   1.391 -34.431  1.00  0.00     0.030 A 
ENDROOT
BRANCH   5  14
HETATM   14  C   UNL     1      -5.715   4.982 -33.117  1.00  0.00     0.149 A 
HETATM   15  N   UNL     1      -4.807   5.012 -32.162  1.00  0.00    -0.228 NA
HETATM   16  C   UNL     1      -3.594   5.155 -32.790  1.00  0.00     0.086 A 
HETATM   17  C   UNL     1      -3.754   5.177 -34.169  1.00  0.00     0.062 A 
HETATM   18  C   UNL     1      -2.305   5.255 -32.249  1.00  0.00     0.034 A 
HETATM   19  N   UNL     1      -5.109   5.078 -34.352  1.00  0.00    -0.338 N 
HETATM   20  C   UNL     1      -2.688   5.275 -35.066  1.00  0.00     0.032 A 
HETATM   21  H   UNL     1      -5.570   5.060 -35.250  1.00  0.00     0.167 HD
HETATM   22  C   UNL     1      -1.408   5.365 -34.508  1.00  0.00     0.002 A 
HETATM   23  C   UNL     1      -1.216   5.361 -33.123  1.00  0.00     0.002 A 
ENDBRANCH   5  14
BRANCH   1  24
HETATM   24  C   UNL     1      -7.570   0.342 -35.105  1.00  0.00     0.235 C 
BRANCH  24  25
HETATM   25  C   UNL     1      -7.085  -0.867 -34.313  1.00  0.00     0.240 C 
HETATM   26  N   UNL     1      -5.710  -1.025 -34.347  1.00  0.00    -0.326 N 
HETATM   27  H   UNL     1      -5.163  -0.211 -34.632  1.00  0.00     0.169 HD
HETATM   28  O   UNL     1      -7.894  -1.633 -33.791  1.00  0.00    -0.271 OA
BRANCH  26  29
HETATM   29  C   UNL     1      -4.990  -2.204 -34.068  1.00  0.00     0.035 A 
HETATM   30  C   UNL     1      -4.093  -2.325 -33.001  1.00  0.00     0.036 A 
HETATM   31  C   UNL     1      -3.470  -3.551 -32.715  1.00  0.00    -0.060 A 
HETATM   32  C   UNL     1      -2.587  -3.689 -31.510  1.00  0.00     0.048 C 
HETATM   33  C   UNL     1      -3.750  -4.662 -33.516  1.00  0.00     0.007 A 
HETATM   34  C   UNL     1      -4.633  -4.548 -34.589  1.00  0.00     0.003 A 
HETATM   35  C   UNL     1      -5.257  -3.328 -34.858  1.00  0.00     0.029 A 
ENDBRANCH  26  29
ENDBRANCH  24  25
ENDBRANCH   1  24
TORSDOF 4
ENDMDL
MODEL 4
REMARK VINA RESULT:      -9.8      2.268      6.907
REMARK  4 active torsions:
REMARK  status: ('A' for Active; 'I' for Inactive)
REMARK    1  A    between atoms: C_4  and  N_5 
REMARK       I    between atoms: N_5  and  C_6 
REMARK    2  A    between atoms: C_6  and  C_7 
REMARK    3  A    between atoms: C_7  and  N_8 
REMARK    4  A    between atoms: C_12  and  C_13 
ROOT
HETATM    1  N   UNL     1      -6.883  -0.374 -34.440  1.00  0.00    -0.304 N 
HETATM    2  C   UNL     1      -6.011   0.578 -33.932  1.00  0.00     0.261 C 
HETATM    3  O   UNL     1      -6.163   1.784 -34.014  1.00  0.00    -0.267 OA
HETATM    4  C   UNL     1      -4.838  -0.209 -33.386  1.00  0.00     0.068 C 
HETATM    5  C   UNL     1      -3.906   0.286 -32.547  1.00  0.00     0.093 C 
HETATM    6  C   UNL     1      -2.828  -0.602 -31.947  1.00  0.00     0.025 C 
HETATM    7  N   UNL     1      -1.935  -1.339 -31.449  1.00  0.00    -0.096 N 
HETATM    8  C   UNL     1      -5.027  -1.600 -33.858  1.00  0.00     0.008 A 
HETATM    9  C   UNL     1      -6.294  -1.644 -34.461  1.00  0.00     0.049 A 
HETATM   10  C   UNL     1      -4.248  -2.746 -33.812  1.00  0.00     0.015 A 
HETATM   11  C   UNL     1      -4.759  -3.930 -34.360  1.00  0.00     0.001 A 
HETATM   12  C   UNL     1      -6.030  -3.961 -34.949  1.00  0.00     0.002 A 
HETATM   13  C   UNL     1      -6.812  -2.808 -35.006  1.00  0.00     0.030 A 
ENDROOT
BRANCH   5  14
HETATM   14  C   UNL     1      -3.952   1.616 -32.040  1.00  0.00     0.149 A 
HETATM   15  N   UNL     1      -3.306   2.702 -32.415  1.00  0.00    -0.228 NA
HETATM   16  C   UNL     1      -3.800   3.726 -31.644  1.00  0.00     0.086 A 
HETATM   17  C   UNL     1      -4.801   3.268 -30.798  1.00  0.00     0.062 A 
HETATM   18  C   UNL     1      -3.454   5.084 -31.622  1.00  0.00     0.034 A 
HETATM   19  N   UNL     1      -4.871   1.924 -31.058  1.00  0.00    -0.338 N 
HETATM   20  C   UNL     1      -5.510   4.096 -29.926  1.00  0.00     0.032 A 
HETATM   21  H   UNL     1      -5.510   1.282 -30.611  1.00  0.00     0.167 HD
HETATM   22  C   UNL     1      -5.158   5.450 -29.924  1.00  0.00     0.002 A 
HETATM   23  C   UNL     1      -4.144   5.939 -30.752  1.00  0.00     0.002 A 
ENDBRANCH   5  14
BRANCH   1  24
HETATM   24  C   UNL     1      -8.261  -0.089 -34.768  1.00  0.00     0.235 C 
BRANCH  24  25
HETATM   25  C   UNL     1      -9.109   0.441 -33.616  1.00  0.00     0.240 C 
HETATM   26  N   UNL     1      -9.298   1.810 -33.664  1.00  0.00    -0.326 N 
HETATM   27  H   UNL     1      -9.116   2.267 -34.560  1.00  0.00     0.169 HD
HETATM   28  O   UNL     1      -9.483  -0.316 -32.722  1.00  0.00    -0.271 OA
BRANCH  26  29
HETATM   29  C   UNL     1      -9.679   2.647 -32.596  1.00  0.00     0.035 A 
HETATM   30  C   UNL     1     -10.936   3.253 -32.501  1.00  0.00     0.036 A 
HETATM   31  C   UNL     1     -11.294   4.004 -31.369  1.00  0.00    -0.060 A 
HETATM   32  C   UNL     1     -12.680   4.567 -31.240  1.00  0.00     0.048 C 
HETATM   33  C   UNL     1     -10.373   4.150 -30.327  1.00  0.00     0.007 A 
HETATM   34  C   UNL     1      -9.113   3.559 -30.418  1.00  0.00     0.003 A 
HETATM   35  C   UNL     1      -8.772   2.804 -31.542  1.00  0.00     0.029 A 
ENDBRANCH  26  29
ENDBRANCH  24  25
ENDBRANCH   1  24
TORSDOF 4
ENDMDL
MODEL 5
REMARK VINA RESULT:      -9.8      2.593      8.673
REMARK  4 active torsions:
REMARK  status: ('A' for Active; 'I' for Inactive)
REMARK    1  A    between atoms: C_4  and  N_5 
REMARK       I    between atoms: N_5  and  C_6 
REMARK    2  A    between atoms: C_6  and  C_7 
REMARK    3  A    between atoms: C_7  and  N_8 
REMARK    4  A    between atoms: C_12  and  C_13 
ROOT
HETATM    1  N   UNL     1      -6.878   2.663 -32.605  1.00  0.00    -0.304 N 
HETATM    2  C   UNL     1      -5.801   3.391 -32.121  1.00  0.00     0.261 C 
HETATM    3  O   UNL     1      -4.628   3.114 -32.304  1.00  0.00    -0.267 OA
HETATM    4  C   UNL     1      -6.411   4.482 -31.266  1.00  0.00     0.068 C 
HETATM    5  C   UNL     1      -5.756   5.583 -30.846  1.00  0.00     0.093 C 
HETATM    6  C   UNL     1      -6.473   6.692 -30.093  1.00  0.00     0.025 C 
HETATM    7  N   UNL     1      -7.068   7.612 -29.469  1.00  0.00    -0.096 N 
HETATM    8  C   UNL     1      -7.844   4.135 -31.127  1.00  0.00     0.008 A 
HETATM    9  C   UNL     1      -8.073   3.046 -31.982  1.00  0.00     0.049 A 
HETATM   10  C   UNL     1      -8.888   4.649 -30.373  1.00  0.00     0.015 A 
HETATM   11  C   UNL     1     -10.158   4.070 -30.501  1.00  0.00     0.001 A 
HETATM   12  C   UNL     1     -10.373   2.989 -31.367  1.00  0.00     0.002 A 
HETATM   13  C   UNL     1      -9.323   2.465 -32.119  1.00  0.00     0.030 A 
ENDROOT
BRANCH   5  14
HETATM   14  C   UNL     1      -4.407   5.864 -31.207  1.00  0.00     0.149 A 
HETATM   15  N   UNL     1      -3.914   6.650 -32.143  1.00  0.00    -0.228 NA
HETATM   16  C   UNL     1      -2.550   6.619 -31.990  1.00  0.00     0.086 A 
HETATM   17  C   UNL     1      -2.194   5.822 -30.910  1.00  0.00     0.062 A 
HETATM   18  C   UNL     1      -1.545   7.261 -32.727  1.00  0.00     0.034 A 
HETATM   19  N   UNL     1      -3.388   5.344 -30.437  1.00  0.00    -0.338 N 
HETATM   20  C   UNL     1      -0.874   5.635 -30.493  1.00  0.00     0.032 A 
HETATM   21  H   UNL     1      -3.490   4.730 -29.641  1.00  0.00     0.167 HD
HETATM   22  C   UNL     1       0.115   6.291 -31.235  1.00  0.00     0.002 A 
HETATM   23  C   UNL     1      -0.211   7.087 -32.337  1.00  0.00     0.002 A 
ENDBRANCH   5  14
BRANCH   1  24
HETATM   24  C   UNL     1      -6.775   1.732 -33.706  1.00  0.00     0.235 C 
BRANCH  24  25
HETATM   25  C   UNL     1      -6.473   0.290 -33.312  1.00  0.00     0.240 C 
HETATM   26  N   UNL     1      -5.783  -0.408 -34.288  1.00  0.00    -0.326 N 
HETATM   27  H   UNL     1      -5.316   0.149 -35.006  1.00  0.00     0.169 HD
HETATM   28  O   UNL     1      -6.903  -0.168 -32.255  1.00  0.00    -0.271 OA
BRANCH  26  29
HETATM   29  C   UNL     1      -5.692  -1.808 -34.418  1.00  0.00     0.035 A 
HETATM   30  C   UNL     1      -4.542  -2.539 -34.099  1.00  0.00     0.036 A 
HETATM   31  C   UNL     1      -4.536  -3.942 -34.160  1.00  0.00    -0.060 A 
HETATM   32  C   UNL     1      -3.326  -4.715 -33.722  1.00  0.00     0.048 C 
HETATM   33  C   UNL     1      -5.698  -4.613 -34.553  1.00  0.00     0.007 A 
HETATM   34  C   UNL     1      -6.845  -3.893 -34.884  1.00  0.00     0.003 A 
HETATM   35  C   UNL     1      -6.845  -2.499 -34.807  1.00  0.00     0.029 A 
ENDBRANCH  26  29
ENDBRANCH  24  25
ENDBRANCH   1  24
TORSDOF 4
ENDMDL
MODEL 6
REMARK VINA RESULT:      -9.4      2.617      8.429
REMARK  4 active torsions:
REMARK  status: ('A' for Active; 'I' for Inactive)
REMARK    1  A    between atoms: C_4  and  N_5 
REMARK       I    between atoms: N_5  and  C_6 
REMARK    2  A    between atoms: C_6  and  C_7 
REMARK    3  A    between atoms: C_7  and  N_8 
REMARK    4  A    between atoms: C_12  and  C_13 
ROOT
HETATM    1  N   UNL     1      -9.023   2.699 -33.398  1.00  0.00    -0.304 N 
HETATM    2  C   UNL     1      -7.782   3.271 -33.158  1.00  0.00     0.261 C 
HETATM    3  O   UNL     1      -6.716   2.685 -33.220  1.00  0.00    -0.267 OA
HETATM    4  C   UNL     1      -8.078   4.689 -32.716  1.00  0.00     0.068 C 
HETATM    5  C   UNL     1      -7.167   5.682 -32.665  1.00  0.00     0.093 C 
HETATM    6  C   UNL     1      -7.568   7.108 -32.328  1.00  0.00     0.025 C 
HETATM    7  N   UNL     1      -7.901   8.292 -32.048  1.00  0.00    -0.096 N 
HETATM    8  C   UNL     1      -9.541   4.750 -32.497  1.00  0.00     0.008 A 
HETATM    9  C   UNL     1     -10.061   3.529 -32.955  1.00  0.00     0.049 A 
HETATM   10  C   UNL     1     -10.395   5.707 -31.970  1.00  0.00     0.015 A 
HETATM   11  C   UNL     1     -11.768   5.431 -31.925  1.00  0.00     0.001 A 
HETATM   12  C   UNL     1     -12.274   4.211 -32.396  1.00  0.00     0.002 A 
HETATM   13  C   UNL     1     -11.416   3.243 -32.917  1.00  0.00     0.030 A 
ENDROOT
BRANCH   5  14
HETATM   14  C   UNL     1      -5.813   5.509 -33.074  1.00  0.00     0.149 A 
HETATM   15  N   UNL     1      -5.252   5.629 -34.261  1.00  0.00    -0.228 NA
HETATM   16  C   UNL     1      -3.905   5.443 -34.068  1.00  0.00     0.086 A 
HETATM   17  C   UNL     1      -3.624   5.240 -32.723  1.00  0.00     0.062 A 
HETATM   18  C   UNL     1      -2.853   5.451 -34.993  1.00  0.00     0.034 A 
HETATM   19  N   UNL     1      -4.851   5.274 -32.114  1.00  0.00    -0.338 N 
HETATM   20  C   UNL     1      -2.331   5.060 -32.226  1.00  0.00     0.032 A 
HETATM   21  H   UNL     1      -5.007   5.164 -31.122  1.00  0.00     0.167 HD
HETATM   22  C   UNL     1      -1.292   5.080 -33.163  1.00  0.00     0.002 A 
HETATM   23  C   UNL     1      -1.545   5.266 -34.525  1.00  0.00     0.002 A 
ENDBRANCH   5  14
BRANCH   1  24
HETATM   24  C   UNL     1      -9.199   1.468 -34.133  1.00  0.00     0.235 C 
BRANCH  24  25
HETATM   25  C   UNL     1      -8.453   0.262 -33.572  1.00  0.00     0.240 C 
HETATM   26  N   UNL     1      -7.202   0.084 -34.135  1.00  0.00    -0.326 N 
HETATM   27  H   UNL     1      -6.802   0.886 -34.624  1.00  0.00     0.169 HD
HETATM   28  O   UNL     1      -9.002  -0.485 -32.763  1.00  0.00    -0.271 OA
BRANCH  26  29
HETATM   29  C   UNL     1      -6.439  -1.101 -34.137  1.00  0.00     0.035 A 
HETATM   30  C   UNL     1      -6.860  -2.288 -34.747  1.00  0.00     0.036 A 
HETATM   31  C   UNL     1      -6.020  -3.413 -34.799  1.00  0.00    -0.060 A 
HETATM   32  C   UNL     1      -6.448  -4.645 -35.540  1.00  0.00     0.048 C 
HETATM   33  C   UNL     1      -4.747  -3.341 -34.224  1.00  0.00     0.007 A 
HETATM   34  C   UNL     1      -4.324  -2.166 -33.603  1.00  0.00     0.003 A 
HETATM   35  C   UNL     1      -5.162  -1.049 -33.569  1.00  0.00     0.029 A 
ENDBRANCH  26  29
ENDBRANCH  24  25
ENDBRANCH   1  24
TORSDOF 4
ENDMDL
MODEL 7
REMARK VINA RESULT:      -9.4      2.172      7.653
REMARK  4 active torsions:
REMARK  status: ('A' for Active; 'I' for Inactive)
REMARK    1  A    between atoms: C_4  and  N_5 
REMARK       I    between atoms: N_5  and  C_6 
REMARK    2  A    between atoms: C_6  and  C_7 
REMARK    3  A    between atoms: C_7  and  N_8 
REMARK    4  A    between atoms: C_12  and  C_13 
ROOT
HETATM    1  N   UNL     1      -7.125   0.405 -34.562  1.00  0.00    -0.304 N 
HETATM    2  C   UNL     1      -6.409   1.445 -33.987  1.00  0.00     0.261 C 
HETATM    3  O   UNL     1      -6.651   2.630 -34.135  1.00  0.00    -0.267 OA
HETATM    4  C   UNL     1      -5.253   0.782 -33.267  1.00  0.00     0.068 C 
HETATM    5  C   UNL     1      -4.482   1.382 -32.338  1.00  0.00     0.093 C 
HETATM    6  C   UNL     1      -3.419   0.611 -31.573  1.00  0.00     0.025 C 
HETATM    7  N   UNL     1      -2.538  -0.029 -30.938  1.00  0.00    -0.096 N 
HETATM    8  C   UNL     1      -5.262  -0.633 -33.704  1.00  0.00     0.008 A 
HETATM    9  C   UNL     1      -6.432  -0.808 -34.459  1.00  0.00     0.049 A 
HETATM   10  C   UNL     1      -4.400  -1.703 -33.515  1.00  0.00     0.015 A 
HETATM   11  C   UNL     1      -4.734  -2.943 -34.075  1.00  0.00     0.001 A 
HETATM   12  C   UNL     1      -5.912  -3.104 -34.818  1.00  0.00     0.002 A 
HETATM   13  C   UNL     1      -6.775  -2.028 -35.017  1.00  0.00     0.030 A 
ENDROOT
BRANCH   5  14
HETATM   14  C   UNL     1      -4.705   2.717 -31.894  1.00  0.00     0.149 A 
HETATM   15  N   UNL     1      -5.263   3.173 -30.791  1.00  0.00    -0.228 NA
HETATM   16  C   UNL     1      -5.134   4.540 -30.833  1.00  0.00     0.086 A 
HETATM   17  C   UNL     1      -4.448   4.934 -31.974  1.00  0.00     0.062 A 
HETATM   18  C   UNL     1      -5.564   5.514 -29.922  1.00  0.00     0.034 A 
HETATM   19  N   UNL     1      -4.197   3.761 -32.638  1.00  0.00    -0.338 N 
HETATM   20  C   UNL     1      -4.137   6.264 -32.264  1.00  0.00     0.032 A 
HETATM   21  H   UNL     1      -3.703   3.689 -33.515  1.00  0.00     0.167 HD
HETATM   22  C   UNL     1      -4.566   7.223 -31.338  1.00  0.00     0.002 A 
HETATM   23  C   UNL     1      -5.273   6.858 -30.189  1.00  0.00     0.002 A 
ENDBRANCH   5  14
BRANCH   1  24
HETATM   24  C   UNL     1      -8.468   0.556 -35.071  1.00  0.00     0.235 C 
BRANCH  24  25
HETATM   25  C   UNL     1      -9.545   0.775 -34.014  1.00  0.00     0.240 C 
HETATM   26  N   UNL     1     -10.636   1.483 -34.485  1.00  0.00    -0.326 N 
HETATM   27  H   UNL     1     -10.745   1.534 -35.499  1.00  0.00     0.169 HD
HETATM   28  O   UNL     1      -9.359   0.406 -32.854  1.00  0.00    -0.271 OA
BRANCH  26  29
HETATM   29  C   UNL     1     -11.591   2.174 -33.712  1.00  0.00     0.035 A 
HETATM   30  C   UNL     1     -12.920   1.759 -33.577  1.00  0.00     0.036 A 
HETATM   31  C   UNL     1     -13.806   2.434 -32.721  1.00  0.00    -0.060 A 
HETATM   32  C   UNL     1     -15.201   1.919 -32.513  1.00  0.00     0.048 C 
HETATM   33  C   UNL     1     -13.347   3.541 -32.000  1.00  0.00     0.007 A 
HETATM   34  C   UNL     1     -12.027   3.969 -32.136  1.00  0.00     0.003 A 
HETATM   35  C   UNL     1     -11.151   3.283 -32.981  1.00  0.00     0.029 A 
ENDBRANCH  26  29
ENDBRANCH  24  25
ENDBRANCH   1  24
TORSDOF 4
ENDMDL
MODEL 8
REMARK VINA RESULT:      -9.0      2.485      7.737
REMARK  4 active torsions:
REMARK  status: ('A' for Active; 'I' for Inactive)
REMARK    1  A    between atoms: C_4  and  N_5 
REMARK       I    between atoms: N_5  and  C_6 
REMARK    2  A    between atoms: C_6  and  C_7 
REMARK    3  A    between atoms: C_7  and  N_8 
REMARK    4  A    between atoms: C_12  and  C_13 
ROOT
HETATM    1  N   UNL     1      -6.215   5.020 -29.781  1.00  0.00    -0.304 N 
HETATM    2  C   UNL     1      -5.393   3.955 -30.121  1.00  0.00     0.261 C 
HETATM    3  O   UNL     1      -5.586   2.793 -29.810  1.00  0.00    -0.267 OA
HETATM    4  C   UNL     1      -4.210   4.577 -30.831  1.00  0.00     0.068 C 
HETATM    5  C   UNL     1      -3.322   3.896 -31.583  1.00  0.00     0.093 C 
HETATM    6  C   UNL     1      -2.232   4.612 -32.364  1.00  0.00     0.025 C 
HETATM    7  N   UNL     1      -1.328   5.205 -33.012  1.00  0.00    -0.096 N 
HETATM    8  C   UNL     1      -4.335   6.038 -30.625  1.00  0.00     0.008 A 
HETATM    9  C   UNL     1      -5.581   6.247 -30.013  1.00  0.00     0.049 A 
HETATM   10  C   UNL     1      -3.516   7.123 -30.903  1.00  0.00     0.015 A 
HETATM   11  C   UNL     1      -3.967   8.408 -30.577  1.00  0.00     0.001 A 
HETATM   12  C   UNL     1      -5.218   8.601 -29.975  1.00  0.00     0.002 A 
HETATM   13  C   UNL     1      -6.040   7.512 -29.685  1.00  0.00     0.030 A 
ENDROOT
BRANCH   5  14
HETATM   14  C   UNL     1      -3.431   2.498 -31.830  1.00  0.00     0.149 A 
HETATM   15  N   UNL     1      -2.817   1.475 -31.270  1.00  0.00    -0.228 NA
HETATM   16  C   UNL     1      -3.369   0.346 -31.824  1.00  0.00     0.086 A 
HETATM   17  C   UNL     1      -4.374   0.680 -32.722  1.00  0.00     0.062 A 
HETATM   18  C   UNL     1      -3.074  -1.005 -31.597  1.00  0.00     0.034 A 
HETATM   19  N   UNL     1      -4.387   2.050 -32.719  1.00  0.00    -0.338 N 
HETATM   20  C   UNL     1      -5.137  -0.266 -33.410  1.00  0.00     0.032 A 
HETATM   21  H   UNL     1      -5.013   2.623 -33.266  1.00  0.00     0.167 HD
HETATM   22  C   UNL     1      -4.835  -1.611 -33.164  1.00  0.00     0.002 A 
HETATM   23  C   UNL     1      -3.819  -1.978 -32.278  1.00  0.00     0.002 A 
ENDBRANCH   5  14
BRANCH   1  24
HETATM   24  C   UNL     1      -7.592   4.859 -29.374  1.00  0.00     0.235 C 
BRANCH  24  25
HETATM   25  C   UNL     1      -8.522   4.280 -30.436  1.00  0.00     0.240 C 
HETATM   26  N   UNL     1      -8.631   2.903 -30.372  1.00  0.00    -0.326 N 
HETATM   27  H   UNL     1      -8.334   2.459 -29.501  1.00  0.00     0.169 HD
HETATM   28  O   UNL     1      -9.024   5.013 -31.286  1.00  0.00    -0.271 OA
BRANCH  26  29
HETATM   29  C   UNL     1      -9.071   2.043 -31.399  1.00  0.00     0.035 A 
HETATM   30  C   UNL     1     -10.128   2.351 -32.262  1.00  0.00     0.036 A 
HETATM   31  C   UNL     1     -10.466   1.499 -33.326  1.00  0.00    -0.060 A 
HETATM   32  C   UNL     1     -11.539   1.890 -34.300  1.00  0.00     0.048 C 
HETATM   33  C   UNL     1      -9.735   0.322 -33.516  1.00  0.00     0.007 A 
HETATM   34  C   UNL     1      -8.687   0.001 -32.654  1.00  0.00     0.003 A 
HETATM   35  C   UNL     1      -8.351   0.862 -31.607  1.00  0.00     0.029 A 
ENDBRANCH  26  29
ENDBRANCH  24  25
ENDBRANCH   1  24
TORSDOF 4
ENDMDL
MODEL 9
REMARK VINA RESULT:      -8.8      2.728      7.276
REMARK  4 active torsions:
REMARK  status: ('A' for Active; 'I' for Inactive)
REMARK    1  A    between atoms: C_4  and  N_5 
REMARK       I    between atoms: N_5  and  C_6 
REMARK    2  A    between atoms: C_6  and  C_7 
REMARK    3  A    between atoms: C_7  and  N_8 
REMARK    4  A    between atoms: C_12  and  C_13 
ROOT
HETATM    1  N   UNL     1      -6.565   5.015 -29.614  1.00  0.00    -0.304 N 
HETATM    2  C   UNL     1      -6.293   3.901 -30.395  1.00  0.00     0.261 C 
HETATM    3  O   UNL     1      -6.942   2.870 -30.397  1.00  0.00    -0.267 OA
HETATM    4  C   UNL     1      -5.000   4.226 -31.114  1.00  0.00     0.068 C 
HETATM    5  C   UNL     1      -4.530   3.557 -32.186  1.00  0.00     0.093 C 
HETATM    6  C   UNL     1      -3.286   4.022 -32.926  1.00  0.00     0.025 C 
HETATM    7  N   UNL     1      -2.255   4.407 -33.540  1.00  0.00    -0.096 N 
HETATM    8  C   UNL     1      -4.482   5.460 -30.480  1.00  0.00     0.008 A 
HETATM    9  C   UNL     1      -5.485   5.907 -29.604  1.00  0.00     0.049 A 
HETATM   10  C   UNL     1      -3.299   6.175 -30.591  1.00  0.00     0.015 A 
HETATM   11  C   UNL     1      -3.143   7.341 -29.831  1.00  0.00     0.001 A 
HETATM   12  C   UNL     1      -4.157   7.780 -28.969  1.00  0.00     0.002 A 
HETATM   13  C   UNL     1      -5.344   7.058 -28.847  1.00  0.00     0.030 A 
ENDROOT
BRANCH   5  14
HETATM   14  C   UNL     1      -5.236   2.480 -32.795  1.00  0.00     0.149 A 
HETATM   15  N   UNL     1      -6.090   2.471 -33.798  1.00  0.00    -0.228 NA
HETATM   16  C   UNL     1      -6.393   1.152 -34.031  1.00  0.00     0.086 A 
HETATM   17  C   UNL     1      -5.680   0.324 -33.174  1.00  0.00     0.062 A 
HETATM   18  C   UNL     1      -7.258   0.579 -34.973  1.00  0.00     0.034 A 
HETATM   19  N   UNL     1      -4.962   1.190 -32.391  1.00  0.00    -0.338 N 
HETATM   20  C   UNL     1      -5.758  -1.070 -33.207  1.00  0.00     0.032 A 
HETATM   21  H   UNL     1      -4.326   0.913 -31.657  1.00  0.00     0.167 HD
HETATM   22  C   UNL     1      -6.620  -1.625 -34.160  1.00  0.00     0.002 A 
HETATM   23  C   UNL     1      -7.363  -0.817 -35.026  1.00  0.00     0.002 A 
ENDBRANCH   5  14
BRANCH   1  24
HETATM   24  C   UNL     1      -7.854   5.264 -29.011  1.00  0.00     0.235 C 
BRANCH  24  25
HETATM   25  C   UNL     1      -9.021   5.367 -29.988  1.00  0.00     0.240 C 
HETATM   26  N   UNL     1      -9.767   4.204 -30.070  1.00  0.00    -0.326 N 
HETATM   27  H   UNL     1      -9.655   3.533 -29.308  1.00  0.00     0.169 HD
HETATM   28  O   UNL     1      -9.174   6.381 -30.666  1.00  0.00    -0.271 OA
BRANCH  26  29
HETATM   29  C   UNL     1     -10.636   3.832 -31.116  1.00  0.00     0.035 A 
HETATM   30  C   UNL     1     -10.260   2.990 -32.168  1.00  0.00     0.036 A 
HETATM   31  C   UNL     1     -11.192   2.579 -33.134  1.00  0.00    -0.060 A 
HETATM   32  C   UNL     1     -10.797   1.599 -34.201  1.00  0.00     0.048 C 
HETATM   33  C   UNL     1     -12.514   3.026 -33.042  1.00  0.00     0.007 A 
HETATM   34  C   UNL     1     -12.895   3.875 -32.003  1.00  0.00     0.003 A 
HETATM   35  C   UNL     1     -11.963   4.268 -31.040  1.00  0.00     0.029 A 
ENDBRANCH  26  29
ENDBRANCH  24  25
ENDBRANCH   1  24
TORSDOF 4
ENDMDL
MODEL 10
REMARK VINA RESULT:      -8.8      3.525      8.233
REMARK  4 active torsions:
REMARK  status: ('A' for Active; 'I' for Inactive)
REMARK    1  A    between atoms: C_4  and  N_5 
REMARK       I    between atoms: N_5  and  C_6 
REMARK    2  A    between atoms: C_6  and  C_7 
REMARK    3  A    between atoms: C_7  and  N_8 
REMARK    4  A    between atoms: C_12  and  C_13 
ROOT
HETATM    1  N   UNL     1      -8.551   3.983 -33.616  1.00  0.00    -0.304 N 
HETATM    2  C   UNL     1      -7.198   4.287 -33.637  1.00  0.00     0.261 C 
HETATM    3  O   UNL     1      -6.724   5.360 -33.970  1.00  0.00    -0.267 OA
HETATM    4  C   UNL     1      -6.495   2.996 -33.275  1.00  0.00     0.068 C 
HETATM    5  C   UNL     1      -5.205   2.905 -32.894  1.00  0.00     0.093 C 
HETATM    6  C   UNL     1      -4.607   1.588 -32.429  1.00  0.00     0.025 C 
HETATM    7  N   UNL     1      -4.111   0.495 -32.044  1.00  0.00    -0.096 N 
HETATM    8  C   UNL     1      -7.536   1.943 -33.310  1.00  0.00     0.008 A 
HETATM    9  C   UNL     1      -8.761   2.604 -33.489  1.00  0.00     0.049 A 
HETATM   10  C   UNL     1      -7.510   0.561 -33.206  1.00  0.00     0.015 A 
HETATM   11  C   UNL     1      -8.720  -0.142 -33.269  1.00  0.00     0.001 A 
HETATM   12  C   UNL     1      -9.937   0.533 -33.438  1.00  0.00     0.002 A 
HETATM   13  C   UNL     1      -9.966   1.923 -33.552  1.00  0.00     0.030 A 
ENDROOT
BRANCH   5  14
HETATM   14  C   UNL     1      -4.362   4.044 -32.744  1.00  0.00     0.149 A 
HETATM   15  N   UNL     1      -3.943   4.666 -31.661  1.00  0.00    -0.228 NA
HETATM   16  C   UNL     1      -3.079   5.643 -32.090  1.00  0.00     0.086 A 
HETATM   17  C   UNL     1      -2.934   5.600 -33.470  1.00  0.00     0.062 A 
HETATM   18  C   UNL     1      -2.363   6.599 -31.356  1.00  0.00     0.034 A 
HETATM   19  N   UNL     1      -3.767   4.586 -33.864  1.00  0.00    -0.338 N 
HETATM   20  C   UNL     1      -2.087   6.452 -34.183  1.00  0.00     0.032 A 
HETATM   21  H   UNL     1      -3.897   4.283 -34.819  1.00  0.00     0.167 HD
HETATM   22  C   UNL     1      -1.373   7.394 -33.433  1.00  0.00     0.002 A 
HETATM   23  C   UNL     1      -1.510   7.473 -32.044  1.00  0.00     0.002 A 
ENDBRANCH   5  14
BRANCH   1  24
HETATM   24  C   UNL     1      -9.588   4.989 -33.591  1.00  0.00     0.235 C 
BRANCH  24  25
HETATM   25  C   UNL     1     -10.058   5.474 -34.959  1.00  0.00     0.240 C 
HETATM   26  N   UNL     1     -10.068   6.852 -35.075  1.00  0.00    -0.326 N 
HETATM   27  H   UNL     1      -9.521   7.374 -34.388  1.00  0.00     0.169 HD
HETATM   28  O   UNL     1     -10.454   4.668 -35.800  1.00  0.00    -0.271 OA
BRANCH  26  29
HETATM   29  C   UNL     1     -10.787   7.614 -36.018  1.00  0.00     0.035 A 
HETATM   30  C   UNL     1     -10.177   8.438 -36.970  1.00  0.00     0.036 A 
HETATM   31  C   UNL     1     -10.937   9.104 -37.945  1.00  0.00    -0.060 A 
HETATM   32  C   UNL     1     -10.260   9.906 -39.018  1.00  0.00     0.048 C 
HETATM   33  C   UNL     1     -12.326   8.942 -37.956  1.00  0.00     0.007 A 
HETATM   34  C   UNL     1     -12.944   8.132 -37.004  1.00  0.00     0.003 A 
HETATM   35  C   UNL     1     -12.177   7.464 -36.046  1.00  0.00     0.029 A 
ENDBRANCH  26  29
ENDBRANCH  24  25
ENDBRANCH   1  24
TORSDOF 4
ENDMDL
