MODEL 1
REMARK VINA RESULT:      -8.9      0.000      0.000
REMARK  8 active torsions:
REMARK  status: ('A' for Active; 'I' for Inactive)
REMARK    1  A    between atoms: C_2  and  N_3 
REMARK    2  A    between atoms: C_11  and  C_12 
REMARK    3  A    between atoms: C_14  and  O_15 
REMARK    4  A    between atoms: O_15  and  C_16 
REMARK    5  A    between atoms: C_18  and  O_19 
REMARK    6  A    between atoms: O_19  and  C_20 
REMARK    7  A    between atoms: C_20  and  C_21 
REMARK    8  A    between atoms: C_31  and  O_32 
ROOT
HETATM    1  N   UNL     1       0.311   7.920 -28.681  1.00  0.00    -0.067 N 
HETATM    2  H   UNL     1       1.065   8.607 -28.559  1.00  0.00     0.280 HD
HETATM    3  C   UNL     1       0.417   7.444 -30.132  1.00  0.00     0.281 C 
HETATM    4  C   UNL     1      -0.836   6.758 -30.553  1.00  0.00     0.018 A 
HETATM    5  C   UNL     1      -2.065   6.899 -29.931  1.00  0.00    -0.024 A 
HETATM    6  C   UNL     1      -3.058   6.089 -30.569  1.00  0.00     0.057 A 
HETATM    7  C   UNL     1      -2.535   5.380 -31.624  1.00  0.00     0.087 A 
HETATM    8  N   UNL     1      -3.268   4.515 -32.341  1.00  0.00    -0.357 N 
HETATM    9  C   UNL     1      -4.713   4.523 -32.166  1.00  0.00     0.243 C 
HETATM   10  N   UNL     1      -5.258   5.177 -30.964  1.00  0.00    -0.235 NA
HETATM   11  C   UNL     1      -4.452   5.886 -30.273  1.00  0.00     0.173 C 
HETATM   12  S   UNL     1      -0.887   5.695 -31.881  1.00  0.00    -0.074 SA
HETATM   13  C   UNL     1      -2.236   7.766 -28.717  1.00  0.00     0.068 C 
HETATM   14  C   UNL     1      -1.009   8.665 -28.474  1.00  0.00     0.240 C 
HETATM   15  H   UNL     1      -2.933   4.111 -33.211  1.00  0.00     0.162 HD
ENDROOT
BRANCH   9  16
HETATM   16  C   UNL     1      -5.231   3.093 -32.218  1.00  0.00    -0.012 A 
HETATM   17  C   UNL     1      -6.582   2.797 -31.936  1.00  0.00     0.050 A 
HETATM   18  C   UNL     1      -7.080   1.498 -32.068  1.00  0.00     0.103 A 
HETATM   19  C   UNL     1      -6.210   0.494 -32.506  1.00  0.00     0.112 A 
HETATM   20  C   UNL     1      -4.873   0.764 -32.803  1.00  0.00     0.041 A 
HETATM   21  C   UNL     1      -4.384   2.059 -32.652  1.00  0.00     0.014 A 
BRANCH  18  22
HETATM   22  O   UNL     1      -8.376   1.123 -31.834  1.00  0.00    -0.349 OA
BRANCH  22  23
HETATM   23  C   UNL     1      -9.355   1.552 -32.779  1.00  0.00     0.171 C 
HETATM   24  C   UNL     1     -10.215   0.356 -33.143  1.00  0.00     0.034 C 
ENDBRANCH  22  23
ENDBRANCH  18  22
BRANCH  19  25
HETATM   25  O   UNL     1      -6.739  -0.779 -32.777  1.00  0.00    -0.272 OA
BRANCH  25  26
HETATM   26  C   UNL     1      -6.815  -1.141 -34.107  1.00  0.00     0.298 C 
HETATM   27  O   UNL     1      -7.360  -0.524 -35.010  1.00  0.00    -0.259 OA
BRANCH  26  28
HETATM   28  C   UNL     1      -6.179  -2.476 -34.288  1.00  0.00     0.039 A 
HETATM   29  C   UNL     1      -4.827  -2.615 -33.947  1.00  0.00     0.017 A 
HETATM   30  C   UNL     1      -4.176  -3.837 -34.133  1.00  0.00     0.001 A 
HETATM   31  C   UNL     1      -4.873  -4.926 -34.655  1.00  0.00     0.000 A 
HETATM   32  C   UNL     1      -6.221  -4.799 -34.987  1.00  0.00     0.001 A 
HETATM   33  C   UNL     1      -6.876  -3.579 -34.803  1.00  0.00     0.017 A 
ENDBRANCH  26  28
ENDBRANCH  25  26
ENDBRANCH  19  25
ENDBRANCH   9  16
BRANCH  11  34
HETATM   34  O   UNL     1      -4.927   6.497 -29.174  1.00  0.00    -0.344 OA
HETATM   35  H   UNL     1      -5.748   6.029 -28.936  1.00  0.00     0.219 HD
ENDBRANCH  11  34
BRANCH   1  36
HETATM   36  C   UNL     1       0.586   6.796 -27.704  1.00  0.00     0.231 C 
HETATM   37  C   UNL     1       1.138   7.331 -26.397  1.00  0.00     0.034 C 
ENDBRANCH   1  36
TORSDOF 8
ENDMDL
MODEL 2
REMARK VINA RESULT:      -8.8      1.361      1.906
REMARK  8 active torsions:
REMARK  status: ('A' for Active; 'I' for Inactive)
REMARK    1  A    between atoms: C_2  and  N_3 
REMARK    2  A    between atoms: C_11  and  C_12 
REMARK    3  A    between atoms: C_14  and  O_15 
REMARK    4  A    between atoms: O_15  and  C_16 
REMARK    5  A    between atoms: C_18  and  O_19 
REMARK    6  A    between atoms: O_19  and  C_20 
REMARK    7  A    between atoms: C_20  and  C_21 
REMARK    8  A    between atoms: C_31  and  O_32 
ROOT
HETATM    1  N   UNL     1      -1.258   8.322 -29.539  1.00  0.00    -0.067 N 
HETATM    2  H   UNL     1      -0.714   9.192 -29.515  1.00  0.00     0.280 HD
HETATM    3  C   UNL     1      -2.054   8.370 -30.846  1.00  0.00     0.281 C 
HETATM    4  C   UNL     1      -3.166   7.379 -30.821  1.00  0.00     0.018 A 
HETATM    5  C   UNL     1      -3.699   6.814 -29.675  1.00  0.00    -0.024 A 
HETATM    6  C   UNL     1      -4.740   5.886 -29.999  1.00  0.00     0.057 A 
HETATM    7  C   UNL     1      -4.935   5.793 -31.356  1.00  0.00     0.087 A 
HETATM    8  N   UNL     1      -5.825   4.947 -31.897  1.00  0.00    -0.357 N 
HETATM    9  C   UNL     1      -6.791   4.306 -31.017  1.00  0.00     0.243 C 
HETATM   10  N   UNL     1      -6.510   4.301 -29.572  1.00  0.00    -0.235 NA
HETATM   11  C   UNL     1      -5.560   5.050 -29.163  1.00  0.00     0.173 C 
HETATM   12  S   UNL     1      -3.915   6.820 -32.243  1.00  0.00    -0.074 SA
HETATM   13  C   UNL     1      -3.161   7.145 -28.313  1.00  0.00     0.068 C 
HETATM   14  C   UNL     1      -2.216   8.360 -28.347  1.00  0.00     0.240 C 
HETATM   15  H   UNL     1      -6.082   4.986 -32.879  1.00  0.00     0.162 HD
ENDROOT
BRANCH   9  16
HETATM   16  C   UNL     1      -7.008   2.871 -31.475  1.00  0.00    -0.012 A 
HETATM   17  C   UNL     1      -8.284   2.420 -31.877  1.00  0.00     0.050 A 
HETATM   18  C   UNL     1      -8.469   1.130 -32.380  1.00  0.00     0.103 A 
HETATM   19  C   UNL     1      -7.353   0.294 -32.496  1.00  0.00     0.112 A 
HETATM   20  C   UNL     1      -6.078   0.721 -32.117  1.00  0.00     0.041 A 
HETATM   21  C   UNL     1      -5.910   2.004 -31.601  1.00  0.00     0.014 A 
BRANCH  18  22
HETATM   22  O   UNL     1      -9.663   0.615 -32.809  1.00  0.00    -0.349 OA
BRANCH  22  23
HETATM   23  C   UNL     1     -10.252   1.215 -33.960  1.00  0.00     0.171 C 
HETATM   24  C   UNL     1     -11.749   1.311 -33.729  1.00  0.00     0.034 C 
ENDBRANCH  22  23
ENDBRANCH  18  22
BRANCH  19  25
HETATM   25  O   UNL     1      -7.508  -0.948 -33.132  1.00  0.00    -0.272 OA
BRANCH  25  26
HETATM   26  C   UNL     1      -6.935  -1.073 -34.381  1.00  0.00     0.298 C 
HETATM   27  O   UNL     1      -7.075  -0.325 -35.337  1.00  0.00    -0.259 OA
BRANCH  26  28
HETATM   28  C   UNL     1      -6.145  -2.335 -34.432  1.00  0.00     0.039 A 
HETATM   29  C   UNL     1      -6.795  -3.506 -34.844  1.00  0.00     0.017 A 
HETATM   30  C   UNL     1      -6.107  -4.721 -34.873  1.00  0.00     0.001 A 
HETATM   31  C   UNL     1      -4.766  -4.772 -34.496  1.00  0.00     0.000 A 
HETATM   32  C   UNL     1      -4.108  -3.611 -34.095  1.00  0.00     0.001 A 
HETATM   33  C   UNL     1      -4.793  -2.393 -34.064  1.00  0.00     0.017 A 
ENDBRANCH  26  28
ENDBRANCH  25  26
ENDBRANCH  19  25
ENDBRANCH   9  16
BRANCH  11  34
HETATM   34  O   UNL     1      -5.288   5.065 -27.846  1.00  0.00    -0.344 OA
HETATM   35  H   UNL     1      -5.232   4.133 -27.568  1.00  0.00     0.219 HD
ENDBRANCH  11  34
BRANCH   1  36
HETATM   36  C   UNL     1      -0.258   7.184 -29.538  1.00  0.00     0.231 C 
HETATM   37  C   UNL     1       0.671   7.275 -28.343  1.00  0.00     0.034 C 
ENDBRANCH   1  36
TORSDOF 8
ENDMDL
MODEL 3
REMARK VINA RESULT:      -8.6      1.064      1.458
REMARK  8 active torsions:
REMARK  status: ('A' for Active; 'I' for Inactive)
REMARK    1  A    between atoms: C_2  and  N_3 
REMARK    2  A    between atoms: C_11  and  C_12 
REMARK    3  A    between atoms: C_14  and  O_15 
REMARK    4  A    between atoms: O_15  and  C_16 
REMARK    5  A    between atoms: C_18  and  O_19 
REMARK    6  A    between atoms: O_19  and  C_20 
REMARK    7  A    between atoms: C_20  and  C_21 
REMARK    8  A    between atoms: C_31  and  O_32 
ROOT
HETATM    1  N   UNL     1      -0.756   8.840 -27.200  1.00  0.00    -0.067 N 
HETATM    2  H   UNL     1      -0.147   9.637 -26.978  1.00  0.00     0.280 HD
HETATM    3  C   UNL     1      -0.544   8.563 -28.691  1.00  0.00     0.281 C 
HETATM    4  C   UNL     1      -1.639   7.708 -29.227  1.00  0.00     0.018 A 
HETATM    5  C   UNL     1      -2.880   7.544 -28.635  1.00  0.00    -0.024 A 
HETATM    6  C   UNL     1      -3.693   6.642 -29.393  1.00  0.00     0.057 A 
HETATM    7  C   UNL     1      -3.033   6.171 -30.502  1.00  0.00     0.087 A 
HETATM    8  N   UNL     1      -3.580   5.272 -31.335  1.00  0.00    -0.357 N 
HETATM    9  C   UNL     1      -5.002   4.990 -31.208  1.00  0.00     0.243 C 
HETATM   10  N   UNL     1      -5.676   5.387 -29.961  1.00  0.00    -0.235 NA
HETATM   11  C   UNL     1      -5.027   6.150 -29.168  1.00  0.00     0.173 C 
HETATM   12  S   UNL     1      -1.471   6.815 -30.666  1.00  0.00    -0.074 SA
HETATM   13  C   UNL     1      -3.226   8.218 -27.339  1.00  0.00     0.068 C 
HETATM   14  C   UNL     1      -2.196   9.296 -26.957  1.00  0.00     0.240 C 
HETATM   15  H   UNL     1      -3.163   5.041 -32.232  1.00  0.00     0.162 HD
ENDROOT
BRANCH   9  16
HETATM   16  C   UNL     1      -5.238   3.503 -31.437  1.00  0.00    -0.012 A 
HETATM   17  C   UNL     1      -6.508   2.926 -31.216  1.00  0.00     0.050 A 
HETATM   18  C   UNL     1      -6.750   1.581 -31.508  1.00  0.00     0.103 A 
HETATM   19  C   UNL     1      -5.707   0.818 -32.044  1.00  0.00     0.112 A 
HETATM   20  C   UNL     1      -4.447   1.370 -32.283  1.00  0.00     0.041 A 
HETATM   21  C   UNL     1      -4.213   2.707 -31.972  1.00  0.00     0.014 A 
BRANCH  18  22
HETATM   22  O   UNL     1      -7.950   0.943 -31.343  1.00  0.00    -0.349 OA
BRANCH  22  23
HETATM   23  C   UNL     1      -9.015   1.332 -32.208  1.00  0.00     0.171 C 
HETATM   24  C   UNL     1      -9.634   0.073 -32.790  1.00  0.00     0.034 C 
ENDBRANCH  22  23
ENDBRANCH  18  22
BRANCH  19  25
HETATM   25  O   UNL     1      -5.985  -0.490 -32.471  1.00  0.00    -0.272 OA
BRANCH  25  26
HETATM   26  C   UNL     1      -6.094  -0.680 -33.834  1.00  0.00     0.298 C 
HETATM   27  O   UNL     1      -6.437   0.143 -34.670  1.00  0.00    -0.259 OA
BRANCH  26  28
HETATM   28  C   UNL     1      -5.792  -2.104 -34.155  1.00  0.00     0.039 A 
HETATM   29  C   UNL     1      -6.832  -2.906 -34.643  1.00  0.00     0.017 A 
HETATM   30  C   UNL     1      -6.608  -4.256 -34.923  1.00  0.00     0.001 A 
HETATM   31  C   UNL     1      -5.344  -4.809 -34.723  1.00  0.00     0.000 A 
HETATM   32  C   UNL     1      -4.301  -4.016 -34.248  1.00  0.00     0.001 A 
HETATM   33  C   UNL     1      -4.521  -2.665 -33.965  1.00  0.00     0.017 A 
ENDBRANCH  26  28
ENDBRANCH  25  26
ENDBRANCH  19  25
ENDBRANCH   9  16
BRANCH  11  34
HETATM   34  O   UNL     1      -5.623   6.530 -28.025  1.00  0.00    -0.344 OA
HETATM   35  H   UNL     1      -6.551   6.241 -28.093  1.00  0.00     0.219 HD
ENDBRANCH  11  34
BRANCH   1  36
HETATM   36  C   UNL     1      -0.285   7.682 -26.346  1.00  0.00     0.231 C 
HETATM   37  C   UNL     1       1.194   7.416 -26.555  1.00  0.00     0.034 C 
ENDBRANCH   1  36
TORSDOF 8
ENDMDL
MODEL 4
REMARK VINA RESULT:      -8.5      1.556      2.764
REMARK  8 active torsions:
REMARK  status: ('A' for Active; 'I' for Inactive)
REMARK    1  A    between atoms: C_2  and  N_3 
REMARK    2  A    between atoms: C_11  and  C_12 
REMARK    3  A    between atoms: C_14  and  O_15 
REMARK    4  A    between atoms: O_15  and  C_16 
REMARK    5  A    between atoms: C_18  and  O_19 
REMARK    6  A    between atoms: O_19  and  C_20 
REMARK    7  A    between atoms: C_20  and  C_21 
REMARK    8  A    between atoms: C_31  and  O_32 
ROOT
HETATM    1  N   UNL     1      -1.435   8.736 -27.720  1.00  0.00    -0.067 N 
HETATM    2  H   UNL     1      -0.954   9.614 -27.490  1.00  0.00     0.280 HD
HETATM    3  C   UNL     1      -1.910   8.894 -29.167  1.00  0.00     0.281 C 
HETATM    4  C   UNL     1      -2.948   7.876 -29.492  1.00  0.00     0.018 A 
HETATM    5  C   UNL     1      -3.704   7.187 -28.559  1.00  0.00    -0.024 A 
HETATM    6  C   UNL     1      -4.596   6.269 -29.200  1.00  0.00     0.057 A 
HETATM    7  C   UNL     1      -4.468   6.306 -30.567  1.00  0.00     0.087 A 
HETATM    8  N   UNL     1      -5.168   5.495 -31.376  1.00  0.00    -0.357 N 
HETATM    9  C   UNL     1      -6.278   4.745 -30.808  1.00  0.00     0.243 C 
HETATM   10  N   UNL     1      -6.338   4.604 -29.343  1.00  0.00    -0.235 NA
HETATM   11  C   UNL     1      -5.545   5.333 -28.657  1.00  0.00     0.173 C 
HETATM   12  S   UNL     1      -3.322   7.442 -31.095  1.00  0.00    -0.074 SA
HETATM   13  C   UNL     1      -3.510   7.395 -27.085  1.00  0.00     0.068 C 
HETATM   14  C   UNL     1      -2.642   8.631 -26.786  1.00  0.00     0.240 C 
HETATM   15  H   UNL     1      -5.193   5.624 -32.383  1.00  0.00     0.162 HD
ENDROOT
BRANCH   9  16
HETATM   16  C   UNL     1      -6.315   3.357 -31.432  1.00  0.00    -0.012 A 
HETATM   17  C   UNL     1      -5.124   2.640 -31.683  1.00  0.00     0.050 A 
HETATM   18  C   UNL     1      -5.158   1.333 -32.174  1.00  0.00     0.103 A 
HETATM   19  C   UNL     1      -6.405   0.737 -32.395  1.00  0.00     0.112 A 
HETATM   20  C   UNL     1      -7.596   1.421 -32.142  1.00  0.00     0.041 A 
HETATM   21  C   UNL     1      -7.549   2.730 -31.669  1.00  0.00     0.014 A 
BRANCH  18  22
HETATM   22  O   UNL     1      -4.059   0.558 -32.430  1.00  0.00    -0.349 OA
BRANCH  22  23
HETATM   23  C   UNL     1      -3.303   0.114 -31.305  1.00  0.00     0.171 C 
HETATM   24  C   UNL     1      -2.511  -1.112 -31.722  1.00  0.00     0.034 C 
ENDBRANCH  22  23
ENDBRANCH  18  22
BRANCH  19  25
HETATM   25  O   UNL     1      -6.445  -0.621 -32.750  1.00  0.00    -0.272 OA
BRANCH  25  26
HETATM   26  C   UNL     1      -6.426  -0.901 -34.102  1.00  0.00     0.298 C 
HETATM   27  O   UNL     1      -6.802  -0.178 -35.012  1.00  0.00    -0.259 OA
BRANCH  26  28
HETATM   28  C   UNL     1      -5.929  -2.291 -34.305  1.00  0.00     0.039 A 
HETATM   29  C   UNL     1      -6.841  -3.261 -34.745  1.00  0.00     0.017 A 
HETATM   30  C   UNL     1      -6.433  -4.586 -34.915  1.00  0.00     0.001 A 
HETATM   31  C   UNL     1      -5.112  -4.948 -34.652  1.00  0.00     0.000 A 
HETATM   32  C   UNL     1      -4.196  -3.988 -34.224  1.00  0.00     0.001 A 
HETATM   33  C   UNL     1      -4.600  -2.661 -34.052  1.00  0.00     0.017 A 
ENDBRANCH  26  28
ENDBRANCH  25  26
ENDBRANCH  19  25
ENDBRANCH   9  16
BRANCH  11  34
HETATM   34  O   UNL     1      -5.585   5.225 -27.318  1.00  0.00    -0.344 OA
HETATM   35  H   UNL     1      -6.264   4.557 -27.118  1.00  0.00     0.219 HD
ENDBRANCH  11  34
BRANCH   1  36
HETATM   36  C   UNL     1      -0.409   7.631 -27.588  1.00  0.00     0.231 C 
HETATM   37  C   UNL     1       0.779   7.876 -28.499  1.00  0.00     0.034 C 
ENDBRANCH   1  36
TORSDOF 8
ENDMDL
MODEL 5
REMARK VINA RESULT:      -8.5      1.571      2.160
REMARK  8 active torsions:
REMARK  status: ('A' for Active; 'I' for Inactive)
REMARK    1  A    between atoms: C_2  and  N_3 
REMARK    2  A    between atoms: C_11  and  C_12 
REMARK    3  A    between atoms: C_14  and  O_15 
REMARK    4  A    between atoms: O_15  and  C_16 
REMARK    5  A    between atoms: C_18  and  O_19 
REMARK    6  A    between atoms: O_19  and  C_20 
REMARK    7  A    between atoms: C_20  and  C_21 
REMARK    8  A    between atoms: C_31  and  O_32 
ROOT
HETATM    1  N   UNL     1       0.219   9.171 -27.024  1.00  0.00    -0.067 N 
HETATM    2  H   UNL     1       0.934   9.831 -26.696  1.00  0.00     0.280 HD
HETATM    3  C   UNL     1       0.935   8.248 -28.015  1.00  0.00     0.281 C 
HETATM    4  C   UNL     1      -0.051   7.511 -28.852  1.00  0.00     0.018 A 
HETATM    5  C   UNL     1      -1.368   7.891 -29.047  1.00  0.00    -0.024 A 
HETATM    6  C   UNL     1      -2.052   6.956 -29.889  1.00  0.00     0.057 A 
HETATM    7  C   UNL     1      -1.229   5.926 -30.278  1.00  0.00     0.087 A 
HETATM    8  N   UNL     1      -1.665   4.903 -31.030  1.00  0.00    -0.357 N 
HETATM    9  C   UNL     1      -2.969   5.022 -31.666  1.00  0.00     0.243 C 
HETATM   10  N   UNL     1      -3.895   6.048 -31.157  1.00  0.00    -0.235 NA
HETATM   11  C   UNL     1      -3.415   6.912 -30.347  1.00  0.00     0.173 C 
HETATM   12  S   UNL     1       0.352   6.079 -29.679  1.00  0.00    -0.074 SA
HETATM   13  C   UNL     1      -1.941   9.108 -28.381  1.00  0.00     0.068 C 
HETATM   14  C   UNL     1      -0.845   9.991 -27.755  1.00  0.00     0.240 C 
HETATM   15  H   UNL     1      -1.031   4.229 -31.447  1.00  0.00     0.162 HD
ENDROOT
BRANCH   9  16
HETATM   16  C   UNL     1      -3.670   3.671 -31.623  1.00  0.00    -0.012 A 
HETATM   17  C   UNL     1      -4.836   3.480 -30.851  1.00  0.00     0.050 A 
HETATM   18  C   UNL     1      -5.531   2.268 -30.879  1.00  0.00     0.103 A 
HETATM   19  C   UNL     1      -5.054   1.247 -31.708  1.00  0.00     0.112 A 
HETATM   20  C   UNL     1      -3.910   1.416 -32.491  1.00  0.00     0.041 A 
HETATM   21  C   UNL     1      -3.217   2.623 -32.442  1.00  0.00     0.014 A 
BRANCH  18  22
HETATM   22  O   UNL     1      -6.676   2.000 -30.178  1.00  0.00    -0.349 OA
BRANCH  22  23
HETATM   23  C   UNL     1      -7.634   3.052 -30.076  1.00  0.00     0.171 C 
HETATM   24  C   UNL     1      -8.229   3.284 -31.453  1.00  0.00     0.034 C 
ENDBRANCH  22  23
ENDBRANCH  18  22
BRANCH  19  25
HETATM   25  O   UNL     1      -5.825   0.082 -31.848  1.00  0.00    -0.272 OA
BRANCH  25  26
HETATM   26  C   UNL     1      -6.496  -0.068 -33.045  1.00  0.00     0.298 C 
HETATM   27  O   UNL     1      -7.341   0.677 -33.517  1.00  0.00    -0.259 OA
BRANCH  26  28
HETATM   28  C   UNL     1      -6.085  -1.353 -33.678  1.00  0.00     0.039 A 
HETATM   29  C   UNL     1      -7.086  -2.181 -34.204  1.00  0.00     0.017 A 
HETATM   30  C   UNL     1      -6.754  -3.412 -34.774  1.00  0.00     0.001 A 
HETATM   31  C   UNL     1      -5.422  -3.820 -34.825  1.00  0.00     0.000 A 
HETATM   32  C   UNL     1      -4.418  -2.999 -34.314  1.00  0.00     0.001 A 
HETATM   33  C   UNL     1      -4.746  -1.766 -33.742  1.00  0.00     0.017 A 
ENDBRANCH  26  28
ENDBRANCH  25  26
ENDBRANCH  19  25
ENDBRANCH   9  16
BRANCH  11  34
HETATM   34  O   UNL     1      -4.239   7.861 -29.873  1.00  0.00    -0.344 OA
HETATM   35  H   UNL     1      -3.678   8.627 -29.656  1.00  0.00     0.219 HD
ENDBRANCH  11  34
BRANCH   1  36
HETATM   36  C   UNL     1      -0.264   8.412 -25.806  1.00  0.00     0.231 C 
HETATM   37  C   UNL     1      -0.932   9.343 -24.812  1.00  0.00     0.034 C 
ENDBRANCH   1  36
TORSDOF 8
ENDMDL
MODEL 6
REMARK VINA RESULT:      -8.2      3.832     10.194
REMARK  8 active torsions:
REMARK  status: ('A' for Active; 'I' for Inactive)
REMARK    1  A    between atoms: C_2  and  N_3 
REMARK    2  A    between atoms: C_11  and  C_12 
REMARK    3  A    between atoms: C_14  and  O_15 
REMARK    4  A    between atoms: O_15  and  C_16 
REMARK    5  A    between atoms: C_18  and  O_19 
REMARK    6  A    between atoms: O_19  and  C_20 
REMARK    7  A    between atoms: C_20  and  C_21 
REMARK    8  A    between atoms: C_31  and  O_32 
ROOT
HETATM    1  N   UNL     1     -14.049   2.080 -33.817  1.00  0.00    -0.067 N 
HETATM    2  H   UNL     1     -15.001   2.155 -34.196  1.00  0.00     0.280 HD
HETATM    3  C   UNL     1     -13.186   2.994 -34.691  1.00  0.00     0.281 C 
HETATM    4  C   UNL     1     -11.741   2.681 -34.510  1.00  0.00     0.018 A 
HETATM    5  C   UNL     1     -11.244   1.493 -34.003  1.00  0.00    -0.024 A 
HETATM    6  C   UNL     1      -9.814   1.521 -33.941  1.00  0.00     0.057 A 
HETATM    7  C   UNL     1      -9.309   2.716 -34.394  1.00  0.00     0.087 A 
HETATM    8  N   UNL     1      -7.995   2.991 -34.382  1.00  0.00    -0.357 N 
HETATM    9  C   UNL     1      -7.065   1.900 -34.132  1.00  0.00     0.243 C 
HETATM   10  N   UNL     1      -7.594   0.666 -33.528  1.00  0.00    -0.235 NA
HETATM   11  C   UNL     1      -8.865   0.546 -33.473  1.00  0.00     0.173 C 
HETATM   12  S   UNL     1     -10.515   3.788 -34.919  1.00  0.00    -0.074 SA
HETATM   13  C   UNL     1     -12.156   0.391 -33.549  1.00  0.00     0.068 C 
HETATM   14  C   UNL     1     -13.611   0.625 -33.997  1.00  0.00     0.240 C 
HETATM   15  H   UNL     1      -7.606   3.801 -34.856  1.00  0.00     0.162 HD
ENDROOT
BRANCH   9  16
HETATM   16  C   UNL     1      -5.918   2.410 -33.269  1.00  0.00    -0.012 A 
HETATM   17  C   UNL     1      -5.033   1.513 -32.631  1.00  0.00     0.050 A 
HETATM   18  C   UNL     1      -3.930   1.978 -31.911  1.00  0.00     0.103 A 
HETATM   19  C   UNL     1      -3.708   3.358 -31.850  1.00  0.00     0.112 A 
HETATM   20  C   UNL     1      -4.562   4.264 -32.483  1.00  0.00     0.041 A 
HETATM   21  C   UNL     1      -5.668   3.789 -33.184  1.00  0.00     0.014 A 
BRANCH  18  22
HETATM   22  O   UNL     1      -3.012   1.184 -31.276  1.00  0.00    -0.349 OA
BRANCH  22  23
HETATM   23  C   UNL     1      -3.395  -0.164 -31.010  1.00  0.00     0.171 C 
HETATM   24  C   UNL     1      -2.658  -1.065 -31.985  1.00  0.00     0.034 C 
ENDBRANCH  22  23
ENDBRANCH  18  22
BRANCH  19  25
HETATM   25  O   UNL     1      -2.526   3.821 -31.251  1.00  0.00    -0.272 OA
BRANCH  25  26
HETATM   26  C   UNL     1      -1.809   4.766 -31.957  1.00  0.00     0.298 C 
HETATM   27  O   UNL     1      -1.497   4.725 -33.138  1.00  0.00    -0.259 OA
BRANCH  26  28
HETATM   28  C   UNL     1      -1.389   5.854 -31.031  1.00  0.00     0.039 A 
HETATM   29  C   UNL     1      -0.018   6.064 -30.837  1.00  0.00     0.017 A 
HETATM   30  C   UNL     1       0.426   7.048 -29.950  1.00  0.00     0.001 A 
HETATM   31  C   UNL     1      -0.497   7.830 -29.258  1.00  0.00     0.000 A 
HETATM   32  C   UNL     1      -1.864   7.636 -29.453  1.00  0.00     0.001 A 
HETATM   33  C   UNL     1      -2.312   6.652 -30.339  1.00  0.00     0.017 A 
ENDBRANCH  26  28
ENDBRANCH  25  26
ENDBRANCH  19  25
ENDBRANCH   9  16
BRANCH  11  34
HETATM   34  O   UNL     1      -9.372  -0.574 -32.930  1.00  0.00    -0.344 OA
HETATM   35  H   UNL     1     -10.233  -0.327 -32.547  1.00  0.00     0.219 HD
ENDBRANCH  11  34
BRANCH   1  36
HETATM   36  C   UNL     1     -14.110   2.572 -32.386  1.00  0.00     0.231 C 
HETATM   37  C   UNL     1     -15.547   2.726 -31.923  1.00  0.00     0.034 C 
ENDBRANCH   1  36
TORSDOF 8
ENDMDL
MODEL 7
REMARK VINA RESULT:      -8.0      3.374     10.580
REMARK  8 active torsions:
REMARK  status: ('A' for Active; 'I' for Inactive)
REMARK    1  A    between atoms: C_2  and  N_3 
REMARK    2  A    between atoms: C_11  and  C_12 
REMARK    3  A    between atoms: C_14  and  O_15 
REMARK    4  A    between atoms: O_15  and  C_16 
REMARK    5  A    between atoms: C_18  and  O_19 
REMARK    6  A    between atoms: O_19  and  C_20 
REMARK    7  A    between atoms: C_20  and  C_21 
REMARK    8  A    between atoms: C_31  and  O_32 
ROOT
HETATM    1  N   UNL     1      -9.170   1.841 -32.543  1.00  0.00    -0.067 N 
HETATM    2  H   UNL     1     -10.043   1.496 -32.960  1.00  0.00     0.280 HD
HETATM    3  C   UNL     1      -8.603   2.848 -33.548  1.00  0.00     0.281 C 
HETATM    4  C   UNL     1      -7.167   3.122 -33.262  1.00  0.00     0.018 A 
HETATM    5  C   UNL     1      -6.335   2.302 -32.519  1.00  0.00    -0.024 A 
HETATM    6  C   UNL     1      -5.022   2.863 -32.416  1.00  0.00     0.057 A 
HETATM    7  C   UNL     1      -4.930   4.066 -33.074  1.00  0.00     0.087 A 
HETATM    8  N   UNL     1      -3.807   4.801 -33.072  1.00  0.00    -0.357 N 
HETATM    9  C   UNL     1      -2.581   4.187 -32.585  1.00  0.00     0.243 C 
HETATM   10  N   UNL     1      -2.697   2.964 -31.773  1.00  0.00    -0.235 NA
HETATM   11  C   UNL     1      -3.842   2.398 -31.737  1.00  0.00     0.173 C 
HETATM   12  S   UNL     1      -6.378   4.517 -33.836  1.00  0.00    -0.074 SA
HETATM   13  C   UNL     1      -6.839   1.035 -31.891  1.00  0.00     0.068 C 
HETATM   14  C   UNL     1      -8.229   0.641 -32.424  1.00  0.00     0.240 C 
HETATM   15  H   UNL     1      -3.685   5.606 -33.680  1.00  0.00     0.162 HD
ENDROOT
BRANCH   9  16
HETATM   16  C   UNL     1      -1.783   5.218 -31.799  1.00  0.00    -0.012 A 
HETATM   17  C   UNL     1      -2.410   6.054 -30.850  1.00  0.00     0.050 A 
HETATM   18  C   UNL     1      -1.667   6.940 -30.065  1.00  0.00     0.103 A 
HETATM   19  C   UNL     1      -0.278   6.968 -30.228  1.00  0.00     0.112 A 
HETATM   20  C   UNL     1       0.367   6.141 -31.150  1.00  0.00     0.041 A 
HETATM   21  C   UNL     1      -0.387   5.275 -31.939  1.00  0.00     0.014 A 
BRANCH  18  22
HETATM   22  O   UNL     1      -2.187   7.773 -29.112  1.00  0.00    -0.349 OA
BRANCH  22  23
HETATM   23  C   UNL     1      -3.075   7.193 -28.158  1.00  0.00     0.171 C 
HETATM   24  C   UNL     1      -2.623   7.618 -26.772  1.00  0.00     0.034 C 
ENDBRANCH  22  23
ENDBRANCH  18  22
BRANCH  19  25
HETATM   25  O   UNL     1       0.484   7.750 -29.344  1.00  0.00    -0.272 OA
BRANCH  25  26
HETATM   26  C   UNL     1       0.796   7.174 -28.129  1.00  0.00     0.298 C 
HETATM   27  O   UNL     1       0.757   5.987 -27.842  1.00  0.00    -0.259 OA
BRANCH  26  28
HETATM   28  C   UNL     1       1.133   8.247 -27.152  1.00  0.00     0.039 A 
HETATM   29  C   UNL     1       1.976   7.924 -26.081  1.00  0.00     0.017 A 
HETATM   30  C   UNL     1       2.292   8.886 -25.118  1.00  0.00     0.001 A 
HETATM   31  C   UNL     1       1.772  10.175 -25.224  1.00  0.00     0.000 A 
HETATM   32  C   UNL     1       0.941  10.509 -26.293  1.00  0.00     0.001 A 
HETATM   33  C   UNL     1       0.622   9.549 -27.257  1.00  0.00     0.017 A 
ENDBRANCH  26  28
ENDBRANCH  25  26
ENDBRANCH  19  25
ENDBRANCH   9  16
BRANCH  11  34
HETATM   34  O   UNL     1      -3.971   1.277 -31.007  1.00  0.00    -0.344 OA
HETATM   35  H   UNL     1      -3.866   0.533 -31.627  1.00  0.00     0.219 HD
ENDBRANCH  11  34
BRANCH   1  36
HETATM   36  C   UNL     1      -9.546   2.508 -31.237  1.00  0.00     0.231 C 
HETATM   37  C   UNL     1     -10.455   3.699 -31.474  1.00  0.00     0.034 C 
ENDBRANCH   1  36
TORSDOF 8
ENDMDL
MODEL 8
REMARK VINA RESULT:      -8.0      2.805      3.805
REMARK  8 active torsions:
REMARK  status: ('A' for Active; 'I' for Inactive)
REMARK    1  A    between atoms: C_2  and  N_3 
REMARK    2  A    between atoms: C_11  and  C_12 
REMARK    3  A    between atoms: C_14  and  O_15 
REMARK    4  A    between atoms: O_15  and  C_16 
REMARK    5  A    between atoms: C_18  and  O_19 
REMARK    6  A    between atoms: O_19  and  C_20 
REMARK    7  A    between atoms: C_20  and  C_21 
REMARK    8  A    between atoms: C_31  and  O_32 
ROOT
HETATM    1  N   UNL     1      -6.737  10.124 -27.828  1.00  0.00    -0.067 N 
HETATM    2  H   UNL     1      -6.608  10.965 -27.254  1.00  0.00     0.280 HD
HETATM    3  C   UNL     1      -5.576   9.194 -27.464  1.00  0.00     0.281 C 
HETATM    4  C   UNL     1      -5.416   8.127 -28.491  1.00  0.00     0.018 A 
HETATM    5  C   UNL     1      -5.909   8.189 -29.783  1.00  0.00    -0.024 A 
HETATM    6  C   UNL     1      -5.601   6.993 -30.507  1.00  0.00     0.057 A 
HETATM    7  C   UNL     1      -4.904   6.095 -29.733  1.00  0.00     0.087 A 
HETATM    8  N   UNL     1      -4.550   4.882 -30.184  1.00  0.00    -0.357 N 
HETATM    9  C   UNL     1      -4.675   4.612 -31.608  1.00  0.00     0.243 C 
HETATM   10  N   UNL     1      -5.527   5.507 -32.409  1.00  0.00    -0.235 NA
HETATM   11  C   UNL     1      -5.917   6.588 -31.851  1.00  0.00     0.173 C 
HETATM   12  S   UNL     1      -4.588   6.676 -28.169  1.00  0.00    -0.074 SA
HETATM   13  C   UNL     1      -6.701   9.370 -30.265  1.00  0.00     0.068 C 
HETATM   14  C   UNL     1      -6.615  10.558 -29.290  1.00  0.00     0.240 C 
HETATM   15  H   UNL     1      -3.906   4.282 -29.676  1.00  0.00     0.162 HD
ENDROOT
BRANCH   9  16
HETATM   16  C   UNL     1      -5.155   3.181 -31.805  1.00  0.00    -0.012 A 
HETATM   17  C   UNL     1      -6.513   2.838 -31.631  1.00  0.00     0.050 A 
HETATM   18  C   UNL     1      -6.972   1.545 -31.896  1.00  0.00     0.103 A 
HETATM   19  C   UNL     1      -6.054   0.595 -32.358  1.00  0.00     0.112 A 
HETATM   20  C   UNL     1      -4.708   0.913 -32.550  1.00  0.00     0.041 A 
HETATM   21  C   UNL     1      -4.260   2.201 -32.266  1.00  0.00     0.014 A 
BRANCH  18  22
HETATM   22  O   UNL     1      -8.270   1.129 -31.772  1.00  0.00    -0.349 OA
BRANCH  22  23
HETATM   23  C   UNL     1      -9.186   1.555 -32.779  1.00  0.00     0.171 C 
HETATM   24  C   UNL     1     -10.118   0.398 -33.090  1.00  0.00     0.034 C 
ENDBRANCH  22  23
ENDBRANCH  18  22
BRANCH  19  25
HETATM   25  O   UNL     1      -6.535  -0.661 -32.760  1.00  0.00    -0.272 OA
BRANCH  25  26
HETATM   26  C   UNL     1      -6.465  -0.941 -34.110  1.00  0.00     0.298 C 
HETATM   27  O   UNL     1      -6.849  -0.235 -35.032  1.00  0.00    -0.259 OA
BRANCH  26  28
HETATM   28  C   UNL     1      -5.900  -2.306 -34.298  1.00  0.00     0.039 A 
HETATM   29  C   UNL     1      -6.739  -3.303 -34.813  1.00  0.00     0.017 A 
HETATM   30  C   UNL     1      -6.267  -4.609 -34.973  1.00  0.00     0.001 A 
HETATM   31  C   UNL     1      -4.954  -4.922 -34.624  1.00  0.00     0.000 A 
HETATM   32  C   UNL     1      -4.109  -3.934 -34.122  1.00  0.00     0.001 A 
HETATM   33  C   UNL     1      -4.578  -2.628 -33.960  1.00  0.00     0.017 A 
ENDBRANCH  26  28
ENDBRANCH  25  26
ENDBRANCH  19  25
ENDBRANCH   9  16
BRANCH  11  34
HETATM   34  O   UNL     1      -6.692   7.424 -32.563  1.00  0.00    -0.344 OA
HETATM   35  H   UNL     1      -7.397   7.724 -31.961  1.00  0.00     0.219 HD
ENDBRANCH  11  34
BRANCH   1  36
HETATM   36  C   UNL     1      -8.073   9.528 -27.433  1.00  0.00     0.231 C 
HETATM   37  C   UNL     1      -8.658  10.248 -26.233  1.00  0.00     0.034 C 
ENDBRANCH   1  36
TORSDOF 8
ENDMDL
MODEL 9
REMARK VINA RESULT:      -8.0      2.746      3.700
REMARK  8 active torsions:
REMARK  status: ('A' for Active; 'I' for Inactive)
REMARK    1  A    between atoms: C_2  and  N_3 
REMARK    2  A    between atoms: C_11  and  C_12 
REMARK    3  A    between atoms: C_14  and  O_15 
REMARK    4  A    between atoms: O_15  and  C_16 
REMARK    5  A    between atoms: C_18  and  O_19 
REMARK    6  A    between atoms: O_19  and  C_20 
REMARK    7  A    between atoms: C_20  and  C_21 
REMARK    8  A    between atoms: C_31  and  O_32 
ROOT
HETATM    1  N   UNL     1      -5.381   9.942 -29.928  1.00  0.00    -0.067 N 
HETATM    2  H   UNL     1      -5.368  10.868 -29.484  1.00  0.00     0.280 HD
HETATM    3  C   UNL     1      -6.116   9.025 -28.946  1.00  0.00     0.281 C 
HETATM    4  C   UNL     1      -5.862   7.594 -29.274  1.00  0.00     0.018 A 
HETATM    5  C   UNL     1      -4.804   7.130 -30.036  1.00  0.00    -0.024 A 
HETATM    6  C   UNL     1      -4.861   5.707 -30.179  1.00  0.00     0.057 A 
HETATM    7  C   UNL     1      -5.950   5.174 -29.531  1.00  0.00     0.087 A 
HETATM    8  N   UNL     1      -6.237   3.864 -29.569  1.00  0.00    -0.357 N 
HETATM    9  C   UNL     1      -5.229   2.951 -30.087  1.00  0.00     0.243 C 
HETATM   10  N   UNL     1      -4.132   3.518 -30.889  1.00  0.00    -0.235 NA
HETATM   11  C   UNL     1      -4.010   4.789 -30.889  1.00  0.00     0.173 C 
HETATM   12  S   UNL     1      -6.882   6.345 -28.731  1.00  0.00    -0.074 SA
HETATM   13  C   UNL     1      -3.802   8.070 -30.642  1.00  0.00     0.068 C 
HETATM   14  C   UNL     1      -3.925   9.493 -30.067  1.00  0.00     0.240 C 
HETATM   15  H   UNL     1      -6.943   3.446 -28.970  1.00  0.00     0.162 HD
ENDROOT
BRANCH   9  16
HETATM   16  C   UNL     1      -5.913   1.861 -30.902  1.00  0.00    -0.012 A 
HETATM   17  C   UNL     1      -6.986   2.165 -31.768  1.00  0.00     0.050 A 
HETATM   18  C   UNL     1      -7.557   1.183 -32.581  1.00  0.00     0.103 A 
HETATM   19  C   UNL     1      -7.029  -0.111 -32.533  1.00  0.00     0.112 A 
HETATM   20  C   UNL     1      -5.960  -0.433 -31.694  1.00  0.00     0.041 A 
HETATM   21  C   UNL     1      -5.410   0.550 -30.876  1.00  0.00     0.014 A 
BRANCH  18  22
HETATM   22  O   UNL     1      -8.586   1.389 -33.461  1.00  0.00    -0.349 OA
BRANCH  22  23
HETATM   23  C   UNL     1      -9.882   1.599 -32.904  1.00  0.00     0.171 C 
HETATM   24  C   UNL     1     -10.710   0.351 -33.153  1.00  0.00     0.034 C 
ENDBRANCH  22  23
ENDBRANCH  18  22
BRANCH  19  25
HETATM   25  O   UNL     1      -7.504  -1.064 -33.449  1.00  0.00    -0.272 OA
BRANCH  25  26
HETATM   26  C   UNL     1      -6.779  -1.207 -34.615  1.00  0.00     0.298 C 
HETATM   27  O   UNL     1      -6.750  -0.439 -35.566  1.00  0.00    -0.259 OA
BRANCH  26  28
HETATM   28  C   UNL     1      -6.063  -2.513 -34.589  1.00  0.00     0.039 A 
HETATM   29  C   UNL     1      -6.770  -3.662 -34.967  1.00  0.00     0.017 A 
HETATM   30  C   UNL     1      -6.154  -4.915 -34.924  1.00  0.00     0.001 A 
HETATM   31  C   UNL     1      -4.827  -5.025 -34.508  1.00  0.00     0.000 A 
HETATM   32  C   UNL     1      -4.113  -3.885 -34.141  1.00  0.00     0.001 A 
HETATM   33  C   UNL     1      -4.726  -2.631 -34.182  1.00  0.00     0.017 A 
ENDBRANCH  26  28
ENDBRANCH  25  26
ENDBRANCH  19  25
ENDBRANCH   9  16
BRANCH  11  34
HETATM   34  O   UNL     1      -3.012   5.330 -31.609  1.00  0.00    -0.344 OA
HETATM   35  H   UNL     1      -3.353   6.173 -31.959  1.00  0.00     0.219 HD
ENDBRANCH  11  34
BRANCH   1  36
HETATM   36  C   UNL     1      -6.145  10.093 -31.227  1.00  0.00     0.231 C 
HETATM   37  C   UNL     1      -7.569  10.549 -30.972  1.00  0.00     0.034 C 
ENDBRANCH   1  36
TORSDOF 8
ENDMDL
MODEL 10
REMARK VINA RESULT:      -7.9      2.757     10.520
REMARK  8 active torsions:
REMARK  status: ('A' for Active; 'I' for Inactive)
REMARK    1  A    between atoms: C_2  and  N_3 
REMARK    2  A    between atoms: C_11  and  C_12 
REMARK    3  A    between atoms: C_14  and  O_15 
REMARK    4  A    between atoms: O_15  and  C_16 
REMARK    5  A    between atoms: C_18  and  O_19 
REMARK    6  A    between atoms: O_19  and  C_20 
REMARK    7  A    between atoms: C_20  and  C_21 
REMARK    8  A    between atoms: C_31  and  O_32 
ROOT
HETATM    1  N   UNL     1      -7.120  -1.200 -34.172  1.00  0.00    -0.067 N 
HETATM    2  H   UNL     1      -7.771  -1.990 -34.247  1.00  0.00     0.280 HD
HETATM    3  C   UNL     1      -7.123  -0.803 -32.692  1.00  0.00     0.281 C 
HETATM    4  C   UNL     1      -6.542   0.556 -32.512  1.00  0.00     0.018 A 
HETATM    5  C   UNL     1      -6.423   1.508 -33.511  1.00  0.00    -0.024 A 
HETATM    6  C   UNL     1      -5.804   2.698 -33.013  1.00  0.00     0.057 A 
HETATM    7  C   UNL     1      -5.484   2.586 -31.681  1.00  0.00     0.087 A 
HETATM    8  N   UNL     1      -4.849   3.561 -31.011  1.00  0.00    -0.357 N 
HETATM    9  C   UNL     1      -4.733   4.868 -31.640  1.00  0.00     0.243 C 
HETATM   10  N   UNL     1      -4.954   4.957 -33.093  1.00  0.00    -0.235 NA
HETATM   11  C   UNL     1      -5.453   3.930 -33.668  1.00  0.00     0.173 C 
HETATM   12  S   UNL     1      -5.942   1.094 -31.013  1.00  0.00    -0.074 SA
HETATM   13  C   UNL     1      -6.861   1.226 -34.919  1.00  0.00     0.068 C 
HETATM   14  C   UNL     1      -7.699  -0.062 -35.015  1.00  0.00     0.240 C 
HETATM   15  H   UNL     1      -4.752   3.548 -30.000  1.00  0.00     0.162 HD
ENDROOT
BRANCH   9  16
HETATM   16  C   UNL     1      -3.365   5.456 -31.320  1.00  0.00    -0.012 A 
HETATM   17  C   UNL     1      -3.244   6.678 -30.622  1.00  0.00     0.050 A 
HETATM   18  C   UNL     1      -1.992   7.175 -30.251  1.00  0.00     0.103 A 
HETATM   19  C   UNL     1      -0.856   6.424 -30.571  1.00  0.00     0.112 A 
HETATM   20  C   UNL     1      -0.951   5.207 -31.248  1.00  0.00     0.041 A 
HETATM   21  C   UNL     1      -2.203   4.730 -31.628  1.00  0.00     0.014 A 
BRANCH  18  22
HETATM   22  O   UNL     1      -1.780   8.338 -29.561  1.00  0.00    -0.349 OA
BRANCH  22  23
HETATM   23  C   UNL     1      -2.763   8.707 -28.595  1.00  0.00     0.171 C 
HETATM   24  C   UNL     1      -2.359  10.042 -27.996  1.00  0.00     0.034 C 
ENDBRANCH  22  23
ENDBRANCH  18  22
BRANCH  19  25
HETATM   25  O   UNL     1       0.388   6.848 -30.076  1.00  0.00    -0.272 OA
BRANCH  25  26
HETATM   26  C   UNL     1       0.783   6.309 -28.868  1.00  0.00     0.298 C 
HETATM   27  O   UNL     1       1.036   5.137 -28.629  1.00  0.00    -0.259 OA
BRANCH  26  28
HETATM   28  C   UNL     1       0.793   7.381 -27.834  1.00  0.00     0.039 A 
HETATM   29  C   UNL     1       0.046   7.179 -26.666  1.00  0.00     0.017 A 
HETATM   30  C   UNL     1      -0.006   8.170 -25.682  1.00  0.00     0.001 A 
HETATM   31  C   UNL     1       0.691   9.365 -25.860  1.00  0.00     0.000 A 
HETATM   32  C   UNL     1       1.445   9.570 -27.014  1.00  0.00     0.001 A 
HETATM   33  C   UNL     1       1.500   8.581 -28.000  1.00  0.00     0.017 A 
ENDBRANCH  26  28
ENDBRANCH  25  26
ENDBRANCH  19  25
ENDBRANCH   9  16
BRANCH  11  34
HETATM   34  O   UNL     1      -5.668   3.990 -34.993  1.00  0.00    -0.344 OA
HETATM   35  H   UNL     1      -6.436   4.576 -35.119  1.00  0.00     0.219 HD
ENDBRANCH  11  34
BRANCH   1  36
HETATM   36  C   UNL     1      -5.763  -1.710 -34.608  1.00  0.00     0.231 C 
HETATM   37  C   UNL     1      -5.827  -3.179 -34.983  1.00  0.00     0.034 C 
ENDBRANCH   1  36
TORSDOF 8
ENDMDL
