MODEL 1
REMARK VINA RESULT:      -8.4      0.000      0.000
REMARK  6 active torsions:
REMARK  status: ('A' for Active; 'I' for Inactive)
REMARK    1  A    between atoms: C_2  and  N_3 
REMARK    2  A    between atoms: C_2  and  C_25 
REMARK       I    between atoms: N_3  and  C_4 
REMARK    3  A    between atoms: C_4  and  C_5 
REMARK    4  A    between atoms: C_5  and  N_6 
REMARK    5  A    between atoms: C_10  and  N_11 
REMARK       I    between atoms: N_11  and  C_12 
REMARK       I    between atoms: C_12  and  N_13 
REMARK    6  A    between atoms: N_13  and  C_14 
ROOT
HETATM    1  N   UNL     1      -4.563   1.380 -30.681  1.00  0.00    -0.063 N 
HETATM    2  H   UNL     1      -3.959   1.765 -29.941  1.00  0.00     0.280 HD
HETATM    3  C   UNL     1      -4.425   2.309 -31.865  1.00  0.00     0.237 C 
HETATM    4  C   UNL     1      -5.254   3.566 -31.705  1.00  0.00     0.053 C 
HETATM    5  C   UNL     1      -6.715   3.296 -31.367  1.00  0.00     0.089 C 
HETATM    6  C   UNL     1      -6.817   2.416 -30.126  1.00  0.00     0.053 C 
HETATM    7  C   UNL     1      -5.950   1.168 -30.129  1.00  0.00     0.237 C 
ENDROOT
BRANCH   1   8
HETATM    8  C   UNL     1      -3.959   0.000 -31.019  1.00  0.00     0.337 C 
BRANCH   8   9
HETATM    9  C   UNL     1      -4.059  -0.346 -32.505  1.00  0.00     0.244 C 
HETATM   10  N   UNL     1      -5.307  -0.727 -32.926  1.00  0.00    -0.351 N 
HETATM   11  H   UNL     1      -6.092  -0.755 -32.283  1.00  0.00     0.163 HD
HETATM   12  O   UNL     1      -3.089  -0.204 -33.244  1.00  0.00    -0.272 OA
BRANCH  10  13
HETATM   13  C   UNL     1      -5.621  -1.025 -34.317  1.00  0.00     0.120 C 
HETATM   14  C   UNL     1      -6.922  -0.358 -34.766  1.00  0.00     0.038 C 
BRANCH  13  15
HETATM   15  C   UNL     1      -5.678  -2.526 -34.467  1.00  0.00     0.005 A 
HETATM   16  S   UNL     1      -4.285  -3.505 -34.209  1.00  0.00    -0.104 SA
HETATM   17  C   UNL     1      -5.144  -4.940 -34.556  1.00  0.00     0.050 A 
HETATM   18  C   UNL     1      -6.462  -4.690 -34.865  1.00  0.00     0.008 A 
HETATM   19  C   UNL     1      -6.770  -3.300 -34.814  1.00  0.00     0.017 A 
ENDBRANCH  13  15
ENDBRANCH  10  13
ENDBRANCH   8   9
ENDBRANCH   1   8
BRANCH   5  20
HETATM   20  N   UNL     1      -7.515   2.890 -32.526  1.00  0.00    -0.338 N 
HETATM   21  C   UNL     1      -8.886   2.852 -32.612  1.00  0.00     0.321 C 
HETATM   22  N   UNL     1      -9.312   2.132 -33.701  1.00  0.00    -0.309 N 
HETATM   23  O   UNL     1      -9.605   3.333 -31.748  1.00  0.00    -0.247 OA
HETATM   24  H   UNL     1      -8.619   1.556 -34.157  1.00  0.00     0.170 HD
HETATM   25  H   UNL     1      -7.016   2.760 -33.398  1.00  0.00     0.164 HD
BRANCH  22  26
HETATM   26  C   UNL     1     -10.659   1.853 -34.028  1.00  0.00     0.036 A 
HETATM   27  C   UNL     1     -11.429   2.656 -34.878  1.00  0.00     0.032 A 
HETATM   28  C   UNL     1     -12.768   2.345 -35.126  1.00  0.00     0.044 A 
HETATM   29  C   UNL     1     -13.336   1.230 -34.525  1.00  0.00     0.116 A 
HETATM   30  F   UNL     1     -14.623   0.943 -34.751  1.00  0.00    -0.206 F 
HETATM   31  C   UNL     1     -12.584   0.407 -33.697  1.00  0.00     0.044 A 
HETATM   32  C   UNL     1     -11.241   0.712 -33.456  1.00  0.00     0.032 A 
ENDBRANCH  22  26
ENDBRANCH   5  20
TORSDOF 6
ENDMDL
MODEL 2
REMARK VINA RESULT:      -8.2      5.166      8.644
REMARK  6 active torsions:
REMARK  status: ('A' for Active; 'I' for Inactive)
REMARK    1  A    between atoms: C_2  and  N_3 
REMARK    2  A    between atoms: C_2  and  C_25 
REMARK       I    between atoms: N_3  and  C_4 
REMARK    3  A    between atoms: C_4  and  C_5 
REMARK    4  A    between atoms: C_5  and  N_6 
REMARK    5  A    between atoms: C_10  and  N_11 
REMARK       I    between atoms: N_11  and  C_12 
REMARK       I    between atoms: C_12  and  N_13 
REMARK    6  A    between atoms: N_13  and  C_14 
ROOT
HETATM    1  N   UNL     1      -3.794   4.998 -32.372  1.00  0.00    -0.063 N 
HETATM    2  H   UNL     1      -3.695   5.644 -31.576  1.00  0.00     0.280 HD
HETATM    3  C   UNL     1      -5.277   4.882 -32.640  1.00  0.00     0.237 C 
HETATM    4  C   UNL     1      -5.962   3.945 -31.668  1.00  0.00     0.053 C 
HETATM    5  C   UNL     1      -5.298   2.577 -31.566  1.00  0.00     0.089 C 
HETATM    6  C   UNL     1      -3.820   2.731 -31.224  1.00  0.00     0.053 C 
HETATM    7  C   UNL     1      -3.046   3.723 -32.074  1.00  0.00     0.237 C 
ENDROOT
BRANCH   1   8
HETATM    8  C   UNL     1      -3.098   5.704 -33.555  1.00  0.00     0.337 C 
BRANCH   8   9
HETATM    9  C   UNL     1      -2.063   6.736 -33.108  1.00  0.00     0.244 C 
HETATM   10  N   UNL     1      -1.740   6.690 -31.776  1.00  0.00    -0.351 N 
HETATM   11  H   UNL     1      -2.160   6.004 -31.158  1.00  0.00     0.163 HD
HETATM   12  O   UNL     1      -1.529   7.478 -33.927  1.00  0.00    -0.272 OA
BRANCH  10  13
HETATM   13  C   UNL     1      -0.723   7.541 -31.174  1.00  0.00     0.120 C 
HETATM   14  C   UNL     1       0.668   6.912 -31.251  1.00  0.00     0.038 C 
BRANCH  13  15
HETATM   15  C   UNL     1      -1.136   7.818 -29.749  1.00  0.00     0.005 A 
HETATM   16  S   UNL     1      -2.794   7.823 -29.282  1.00  0.00    -0.104 SA
HETATM   17  C   UNL     1      -2.407   8.190 -27.660  1.00  0.00     0.050 A 
HETATM   18  C   UNL     1      -1.050   8.311 -27.467  1.00  0.00     0.008 A 
HETATM   19  C   UNL     1      -0.317   8.098 -28.670  1.00  0.00     0.017 A 
ENDBRANCH  13  15
ENDBRANCH  10  13
ENDBRANCH   8   9
ENDBRANCH   1   8
BRANCH   5  20
HETATM   20  N   UNL     1      -5.623   1.688 -32.685  1.00  0.00    -0.338 N 
HETATM   21  C   UNL     1      -5.675   0.315 -32.661  1.00  0.00     0.321 C 
HETATM   22  N   UNL     1      -5.690  -0.220 -33.927  1.00  0.00    -0.309 N 
HETATM   23  O   UNL     1      -5.616  -0.320 -31.619  1.00  0.00    -0.247 OA
HETATM   24  H   UNL     1      -5.444   0.406 -34.681  1.00  0.00     0.170 HD
HETATM   25  H   UNL     1      -5.984   2.128 -33.523  1.00  0.00     0.164 HD
BRANCH  22  26
HETATM   26  C   UNL     1      -5.674  -1.598 -34.238  1.00  0.00     0.036 A 
HETATM   27  C   UNL     1      -6.819  -2.323 -34.588  1.00  0.00     0.032 A 
HETATM   28  C   UNL     1      -6.740  -3.695 -34.844  1.00  0.00     0.044 A 
HETATM   29  C   UNL     1      -5.514  -4.339 -34.752  1.00  0.00     0.116 A 
HETATM   30  F   UNL     1      -5.442  -5.656 -34.981  1.00  0.00    -0.206 F 
HETATM   31  C   UNL     1      -4.362  -3.634 -34.429  1.00  0.00     0.044 A 
HETATM   32  C   UNL     1      -4.439  -2.261 -34.182  1.00  0.00     0.032 A 
ENDBRANCH  22  26
ENDBRANCH   5  20
TORSDOF 6
ENDMDL
MODEL 3
REMARK VINA RESULT:      -8.0      6.513      9.471
REMARK  6 active torsions:
REMARK  status: ('A' for Active; 'I' for Inactive)
REMARK    1  A    between atoms: C_2  and  N_3 
REMARK    2  A    between atoms: C_2  and  C_25 
REMARK       I    between atoms: N_3  and  C_4 
REMARK    3  A    between atoms: C_4  and  C_5 
REMARK    4  A    between atoms: C_5  and  N_6 
REMARK    5  A    between atoms: C_10  and  N_11 
REMARK       I    between atoms: N_11  and  C_12 
REMARK       I    between atoms: C_12  and  N_13 
REMARK    6  A    between atoms: N_13  and  C_14 
ROOT
HETATM    1  N   UNL     1      -4.420   3.975 -32.626  1.00  0.00    -0.063 N 
HETATM    2  H   UNL     1      -4.676   4.101 -33.616  1.00  0.00     0.280 HD
HETATM    3  C   UNL     1      -4.739   5.283 -31.937  1.00  0.00     0.237 C 
HETATM    4  C   UNL     1      -3.676   6.332 -32.181  1.00  0.00     0.053 C 
HETATM    5  C   UNL     1      -2.263   5.856 -31.862  1.00  0.00     0.089 C 
HETATM    6  C   UNL     1      -1.951   4.576 -32.630  1.00  0.00     0.053 C 
HETATM    7  C   UNL     1      -2.999   3.480 -32.540  1.00  0.00     0.237 C 
ENDROOT
BRANCH   1   8
HETATM    8  C   UNL     1      -5.354   2.862 -32.105  1.00  0.00     0.337 C 
BRANCH   8   9
HETATM    9  C   UNL     1      -6.112   2.148 -33.224  1.00  0.00     0.244 C 
HETATM   10  N   UNL     1      -6.198   0.786 -33.084  1.00  0.00    -0.351 N 
HETATM   11  H   UNL     1      -5.794   0.315 -32.281  1.00  0.00     0.163 HD
HETATM   12  O   UNL     1      -6.652   2.790 -34.119  1.00  0.00    -0.272 OA
BRANCH  10  13
HETATM   13  C   UNL     1      -6.941  -0.063 -34.006  1.00  0.00     0.120 C 
HETATM   14  C   UNL     1      -8.365  -0.328 -33.518  1.00  0.00     0.038 C 
BRANCH  13  15
HETATM   15  C   UNL     1      -6.161  -1.342 -34.186  1.00  0.00     0.005 A 
HETATM   16  S   UNL     1      -4.556  -1.505 -33.582  1.00  0.00    -0.104 SA
HETATM   17  C   UNL     1      -4.425  -3.105 -34.164  1.00  0.00     0.050 A 
HETATM   18  C   UNL     1      -5.570  -3.516 -34.807  1.00  0.00     0.008 A 
HETATM   19  C   UNL     1      -6.570  -2.500 -34.821  1.00  0.00     0.017 A 
ENDBRANCH  13  15
ENDBRANCH  10  13
ENDBRANCH   8   9
ENDBRANCH   1   8
BRANCH   5  20
HETATM   20  N   UNL     1      -1.960   5.851 -30.428  1.00  0.00    -0.338 N 
HETATM   21  C   UNL     1      -1.394   6.870 -29.700  1.00  0.00     0.321 C 
HETATM   22  N   UNL     1      -0.953   6.439 -28.472  1.00  0.00    -0.309 N 
HETATM   23  O   UNL     1      -1.234   7.989 -30.164  1.00  0.00    -0.247 OA
HETATM   24  H   UNL     1      -0.890   5.439 -28.344  1.00  0.00     0.170 HD
HETATM   25  H   UNL     1      -2.332   5.078 -29.889  1.00  0.00     0.164 HD
BRANCH  22  26
HETATM   26  C   UNL     1      -0.268   7.228 -27.521  1.00  0.00     0.036 A 
HETATM   27  C   UNL     1       1.127   7.268 -27.413  1.00  0.00     0.032 A 
HETATM   28  C   UNL     1       1.740   8.038 -26.421  1.00  0.00     0.044 A 
HETATM   29  C   UNL     1       0.957   8.770 -25.539  1.00  0.00     0.116 A 
HETATM   30  F   UNL     1       1.545   9.493 -24.579  1.00  0.00    -0.206 F 
HETATM   31  C   UNL     1      -0.428   8.762 -25.643  1.00  0.00     0.044 A 
HETATM   32  C   UNL     1      -1.041   7.999 -26.641  1.00  0.00     0.032 A 
ENDBRANCH  22  26
ENDBRANCH   5  20
TORSDOF 6
ENDMDL
MODEL 4
REMARK VINA RESULT:      -8.0      4.655      7.875
REMARK  6 active torsions:
REMARK  status: ('A' for Active; 'I' for Inactive)
REMARK    1  A    between atoms: C_2  and  N_3 
REMARK    2  A    between atoms: C_2  and  C_25 
REMARK       I    between atoms: N_3  and  C_4 
REMARK    3  A    between atoms: C_4  and  C_5 
REMARK    4  A    between atoms: C_5  and  N_6 
REMARK    5  A    between atoms: C_10  and  N_11 
REMARK       I    between atoms: N_11  and  C_12 
REMARK       I    between atoms: C_12  and  N_13 
REMARK    6  A    between atoms: N_13  and  C_14 
ROOT
HETATM    1  N   UNL     1      -5.908   5.166 -31.131  1.00  0.00    -0.063 N 
HETATM    2  H   UNL     1      -5.970   5.703 -30.254  1.00  0.00     0.280 HD
HETATM    3  C   UNL     1      -7.293   4.617 -31.389  1.00  0.00     0.237 C 
HETATM    4  C   UNL     1      -7.589   3.394 -30.547  1.00  0.00     0.053 C 
HETATM    5  C   UNL     1      -6.523   2.310 -30.650  1.00  0.00     0.089 C 
HETATM    6  C   UNL     1      -5.151   2.883 -30.313  1.00  0.00     0.053 C 
HETATM    7  C   UNL     1      -4.781   4.171 -31.027  1.00  0.00     0.237 C 
ENDROOT
BRANCH   1   8
HETATM    8  C   UNL     1      -5.542   6.204 -32.214  1.00  0.00     0.337 C 
BRANCH   8   9
HETATM    9  C   UNL     1      -4.257   6.968 -31.897  1.00  0.00     0.244 C 
HETATM   10  N   UNL     1      -3.146   6.536 -32.574  1.00  0.00    -0.351 N 
HETATM   11  H   UNL     1      -3.203   5.773 -33.241  1.00  0.00     0.163 HD
HETATM   12  O   UNL     1      -4.279   7.940 -31.147  1.00  0.00    -0.272 OA
BRANCH  10  13
HETATM   13  C   UNL     1      -1.845   7.182 -32.464  1.00  0.00     0.120 C 
HETATM   14  C   UNL     1      -1.054   7.100 -33.769  1.00  0.00     0.038 C 
BRANCH  13  15
HETATM   15  C   UNL     1      -1.105   6.538 -31.317  1.00  0.00     0.005 A 
HETATM   16  S   UNL     1      -0.978   7.314 -29.785  1.00  0.00    -0.104 SA
HETATM   17  C   UNL     1      -0.067   6.026 -29.131  1.00  0.00     0.050 A 
HETATM   18  C   UNL     1       0.144   5.024 -30.050  1.00  0.00     0.008 A 
HETATM   19  C   UNL     1      -0.453   5.318 -31.309  1.00  0.00     0.017 A 
ENDBRANCH  13  15
ENDBRANCH  10  13
ENDBRANCH   8   9
ENDBRANCH   1   8
BRANCH   5  20
HETATM   20  N   UNL     1      -6.619   1.514 -31.877  1.00  0.00    -0.338 N 
HETATM   21  C   UNL     1      -6.404   0.163 -32.005  1.00  0.00     0.321 C 
HETATM   22  N   UNL     1      -6.258  -0.211 -33.319  1.00  0.00    -0.309 N 
HETATM   23  O   UNL     1      -6.270  -0.569 -31.035  1.00  0.00    -0.247 OA
HETATM   24  H   UNL     1      -6.104   0.535 -33.983  1.00  0.00     0.170 HD
HETATM   25  H   UNL     1      -7.020   1.975 -32.686  1.00  0.00     0.164 HD
BRANCH  22  26
HETATM   26  C   UNL     1      -5.961  -1.515 -33.775  1.00  0.00     0.036 A 
HETATM   27  C   UNL     1      -4.671  -2.059 -33.771  1.00  0.00     0.032 A 
HETATM   28  C   UNL     1      -4.439  -3.341 -34.276  1.00  0.00     0.044 A 
HETATM   29  C   UNL     1      -5.500  -4.080 -34.782  1.00  0.00     0.116 A 
HETATM   30  F   UNL     1      -5.274  -5.301 -35.280  1.00  0.00    -0.206 F 
HETATM   31  C   UNL     1      -6.791  -3.569 -34.775  1.00  0.00     0.044 A 
HETATM   32  C   UNL     1      -7.024  -2.290 -34.262  1.00  0.00     0.032 A 
ENDBRANCH  22  26
ENDBRANCH   5  20
TORSDOF 6
ENDMDL
MODEL 5
REMARK VINA RESULT:      -7.9      3.419      6.831
REMARK  6 active torsions:
REMARK  status: ('A' for Active; 'I' for Inactive)
REMARK    1  A    between atoms: C_2  and  N_3 
REMARK    2  A    between atoms: C_2  and  C_25 
REMARK       I    between atoms: N_3  and  C_4 
REMARK    3  A    between atoms: C_4  and  C_5 
REMARK    4  A    between atoms: C_5  and  N_6 
REMARK    5  A    between atoms: C_10  and  N_11 
REMARK       I    between atoms: N_11  and  C_12 
REMARK       I    between atoms: C_12  and  N_13 
REMARK    6  A    between atoms: N_13  and  C_14 
ROOT
HETATM    1  N   UNL     1      -7.320   5.030 -31.058  1.00  0.00    -0.063 N 
HETATM    2  H   UNL     1      -7.396   5.480 -30.134  1.00  0.00     0.280 HD
HETATM    3  C   UNL     1      -8.101   3.739 -30.963  1.00  0.00     0.237 C 
HETATM    4  C   UNL     1      -7.321   2.649 -30.259  1.00  0.00     0.053 C 
HETATM    5  C   UNL     1      -5.928   2.426 -30.835  1.00  0.00     0.089 C 
HETATM    6  C   UNL     1      -5.145   3.734 -30.848  1.00  0.00     0.053 C 
HETATM    7  C   UNL     1      -5.867   4.929 -31.445  1.00  0.00     0.237 C 
ENDROOT
BRANCH   1   8
HETATM    8  C   UNL     1      -8.018   5.998 -32.038  1.00  0.00     0.337 C 
BRANCH   8   9
HETATM    9  C   UNL     1      -8.420   5.328 -33.352  1.00  0.00     0.244 C 
HETATM   10  N   UNL     1      -9.756   5.043 -33.470  1.00  0.00    -0.351 N 
HETATM   11  H   UNL     1     -10.410   5.282 -32.731  1.00  0.00     0.163 HD
HETATM   12  O   UNL     1      -7.590   5.149 -34.239  1.00  0.00    -0.272 OA
BRANCH  10  13
HETATM   13  C   UNL     1     -10.345   4.473 -34.674  1.00  0.00     0.120 C 
HETATM   14  C   UNL     1     -11.417   5.384 -35.272  1.00  0.00     0.038 C 
BRANCH  13  15
HETATM   15  C   UNL     1     -10.896   3.113 -34.320  1.00  0.00     0.005 A 
HETATM   16  S   UNL     1     -12.547   2.714 -34.606  1.00  0.00    -0.104 SA
HETATM   17  C   UNL     1     -12.348   1.141 -33.973  1.00  0.00     0.050 A 
HETATM   18  C   UNL     1     -11.059   0.915 -33.547  1.00  0.00     0.008 A 
HETATM   19  C   UNL     1     -10.222   2.051 -33.746  1.00  0.00     0.017 A 
ENDBRANCH  13  15
ENDBRANCH  10  13
ENDBRANCH   8   9
ENDBRANCH   1   8
BRANCH   5  20
HETATM   20  N   UNL     1      -5.930   1.650 -32.078  1.00  0.00    -0.338 N 
HETATM   21  C   UNL     1      -6.004   0.283 -32.200  1.00  0.00     0.321 C 
HETATM   22  N   UNL     1      -5.662  -0.139 -33.461  1.00  0.00    -0.309 N 
HETATM   23  O   UNL     1      -6.255  -0.441 -31.248  1.00  0.00    -0.247 OA
HETATM   24  H   UNL     1      -5.202   0.539 -34.052  1.00  0.00     0.170 HD
HETATM   25  H   UNL     1      -6.029   2.175 -32.940  1.00  0.00     0.164 HD
BRANCH  22  26
HETATM   26  C   UNL     1      -5.576  -1.485 -33.883  1.00  0.00     0.036 A 
HETATM   27  C   UNL     1      -4.387  -2.225 -33.863  1.00  0.00     0.032 A 
HETATM   28  C   UNL     1      -4.362  -3.540 -34.335  1.00  0.00     0.044 A 
HETATM   29  C   UNL     1      -5.527  -4.116 -34.823  1.00  0.00     0.116 A 
HETATM   30  F   UNL     1      -5.498  -5.370 -35.289  1.00  0.00    -0.206 F 
HETATM   31  C   UNL     1      -6.722  -3.408 -34.830  1.00  0.00     0.044 A 
HETATM   32  C   UNL     1      -6.749  -2.095 -34.350  1.00  0.00     0.032 A 
ENDBRANCH  22  26
ENDBRANCH   5  20
TORSDOF 6
ENDMDL
MODEL 6
REMARK VINA RESULT:      -7.9      5.481      8.706
REMARK  6 active torsions:
REMARK  status: ('A' for Active; 'I' for Inactive)
REMARK    1  A    between atoms: C_2  and  N_3 
REMARK    2  A    between atoms: C_2  and  C_25 
REMARK       I    between atoms: N_3  and  C_4 
REMARK    3  A    between atoms: C_4  and  C_5 
REMARK    4  A    between atoms: C_5  and  N_6 
REMARK    5  A    between atoms: C_10  and  N_11 
REMARK       I    between atoms: N_11  and  C_12 
REMARK       I    between atoms: C_12  and  N_13 
REMARK    6  A    between atoms: N_13  and  C_14 
ROOT
HETATM    1  N   UNL     1      -5.196   6.108 -30.677  1.00  0.00    -0.063 N 
HETATM    2  H   UNL     1      -5.520   7.062 -30.891  1.00  0.00     0.280 HD
HETATM    3  C   UNL     1      -4.391   5.657 -31.875  1.00  0.00     0.237 C 
HETATM    4  C   UNL     1      -5.273   5.206 -33.020  1.00  0.00     0.053 C 
HETATM    5  C   UNL     1      -6.315   4.169 -32.616  1.00  0.00     0.089 C 
HETATM    6  C   UNL     1      -7.155   4.687 -31.454  1.00  0.00     0.053 C 
HETATM    7  C   UNL     1      -6.377   5.258 -30.281  1.00  0.00     0.237 C 
ENDROOT
BRANCH   1   8
HETATM    8  C   UNL     1      -4.274   6.260 -29.449  1.00  0.00     0.337 C 
BRANCH   8   9
HETATM    9  C   UNL     1      -3.007   7.060 -29.750  1.00  0.00     0.244 C 
HETATM   10  N   UNL     1      -1.838   6.351 -29.647  1.00  0.00    -0.351 N 
HETATM   11  H   UNL     1      -1.842   5.367 -29.402  1.00  0.00     0.163 HD
HETATM   12  O   UNL     1      -3.081   8.226 -30.128  1.00  0.00    -0.272 OA
BRANCH  10  13
HETATM   13  C   UNL     1      -0.534   6.916 -29.965  1.00  0.00     0.120 C 
HETATM   14  C   UNL     1       0.305   5.970 -30.824  1.00  0.00     0.038 C 
BRANCH  13  15
HETATM   15  C   UNL     1       0.154   7.253 -28.664  1.00  0.00     0.005 A 
HETATM   16  S   UNL     1      -0.206   6.397 -27.213  1.00  0.00    -0.104 SA
HETATM   17  C   UNL     1       0.904   7.326 -26.308  1.00  0.00     0.050 A 
HETATM   18  C   UNL     1       1.538   8.272 -27.081  1.00  0.00     0.008 A 
HETATM   19  C   UNL     1       1.105   8.230 -28.439  1.00  0.00     0.017 A 
ENDBRANCH  13  15
ENDBRANCH  10  13
ENDBRANCH   8   9
ENDBRANCH   1   8
BRANCH   5  20
HETATM   20  N   UNL     1      -5.767   2.817 -32.478  1.00  0.00    -0.338 N 
HETATM   21  C   UNL     1      -5.906   1.774 -33.362  1.00  0.00     0.321 C 
HETATM   22  N   UNL     1      -5.555   0.572 -32.798  1.00  0.00    -0.309 N 
HETATM   23  O   UNL     1      -6.379   1.928 -34.479  1.00  0.00    -0.247 OA
HETATM   24  H   UNL     1      -5.462   0.560 -31.792  1.00  0.00     0.170 HD
HETATM   25  H   UNL     1      -5.102   2.672 -31.727  1.00  0.00     0.164 HD
BRANCH  22  26
HETATM   26  C   UNL     1      -5.651  -0.691 -33.425  1.00  0.00     0.036 A 
HETATM   27  C   UNL     1      -4.537  -1.445 -33.814  1.00  0.00     0.032 A 
HETATM   28  C   UNL     1      -4.703  -2.669 -34.468  1.00  0.00     0.044 A 
HETATM   29  C   UNL     1      -5.983  -3.138 -34.730  1.00  0.00     0.116 A 
HETATM   30  F   UNL     1      -6.139  -4.303 -35.370  1.00  0.00    -0.206 F 
HETATM   31  C   UNL     1      -7.100  -2.417 -34.332  1.00  0.00     0.044 A 
HETATM   32  C   UNL     1      -6.936  -1.197 -33.670  1.00  0.00     0.032 A 
ENDBRANCH  22  26
ENDBRANCH   5  20
TORSDOF 6
ENDMDL
MODEL 7
REMARK VINA RESULT:      -7.6      8.174     11.430
REMARK  6 active torsions:
REMARK  status: ('A' for Active; 'I' for Inactive)
REMARK    1  A    between atoms: C_2  and  N_3 
REMARK    2  A    between atoms: C_2  and  C_25 
REMARK       I    between atoms: N_3  and  C_4 
REMARK    3  A    between atoms: C_4  and  C_5 
REMARK    4  A    between atoms: C_5  and  N_6 
REMARK    5  A    between atoms: C_10  and  N_11 
REMARK       I    between atoms: N_11  and  C_12 
REMARK       I    between atoms: C_12  and  N_13 
REMARK    6  A    between atoms: N_13  and  C_14 
ROOT
HETATM    1  N   UNL     1       0.169   6.919 -29.247  1.00  0.00    -0.063 N 
HETATM    2  H   UNL     1       0.606   7.785 -29.593  1.00  0.00     0.280 HD
HETATM    3  C   UNL     1       0.614   5.818 -30.182  1.00  0.00     0.237 C 
HETATM    4  C   UNL     1      -0.173   5.814 -31.475  1.00  0.00     0.053 C 
HETATM    5  C   UNL     1      -1.683   5.806 -31.272  1.00  0.00     0.089 C 
HETATM    6  C   UNL     1      -2.103   6.972 -30.383  1.00  0.00     0.053 C 
HETATM    7  C   UNL     1      -1.315   7.137 -29.096  1.00  0.00     0.237 C 
ENDROOT
BRANCH   1   8
HETATM    8  C   UNL     1       0.772   6.695 -27.843  1.00  0.00     0.337 C 
BRANCH   8   9
HETATM    9  C   UNL     1       1.343   7.973 -27.229  1.00  0.00     0.244 C 
HETATM   10  N   UNL     1       1.331   8.011 -25.858  1.00  0.00    -0.351 N 
HETATM   11  H   UNL     1       0.977   7.230 -25.316  1.00  0.00     0.163 HD
HETATM   12  O   UNL     1       1.837   8.841 -27.944  1.00  0.00    -0.272 OA
BRANCH  10  13
HETATM   13  C   UNL     1       1.897   9.109 -25.087  1.00  0.00     0.120 C 
HETATM   14  C   UNL     1       3.049   8.646 -24.194  1.00  0.00     0.038 C 
BRANCH  13  15
HETATM   15  C   UNL     1       0.781   9.734 -24.286  1.00  0.00     0.005 A 
HETATM   16  S   UNL     1       1.047  10.326 -22.690  1.00  0.00    -0.104 SA
HETATM   17  C   UNL     1      -0.579  10.817 -22.527  1.00  0.00     0.050 A 
HETATM   18  C   UNL     1      -1.318  10.540 -23.654  1.00  0.00     0.008 A 
HETATM   19  C   UNL     1      -0.535   9.915 -24.667  1.00  0.00     0.017 A 
ENDBRANCH  13  15
ENDBRANCH  10  13
ENDBRANCH   8   9
ENDBRANCH   1   8
BRANCH   5  20
HETATM   20  N   UNL     1      -2.216   4.487 -30.919  1.00  0.00    -0.338 N 
HETATM   21  C   UNL     1      -2.766   3.562 -31.773  1.00  0.00     0.321 C 
HETATM   22  N   UNL     1      -3.452   2.583 -31.097  1.00  0.00    -0.309 N 
HETATM   23  O   UNL     1      -2.710   3.686 -32.988  1.00  0.00    -0.247 OA
HETATM   24  H   UNL     1      -3.657   2.769 -30.125  1.00  0.00     0.170 HD
HETATM   25  H   UNL     1      -2.035   4.163 -29.976  1.00  0.00     0.164 HD
BRANCH  22  26
HETATM   26  C   UNL     1      -4.183   1.530 -31.692  1.00  0.00     0.036 A 
HETATM   27  C   UNL     1      -5.557   1.595 -31.951  1.00  0.00     0.032 A 
HETATM   28  C   UNL     1      -6.227   0.500 -32.503  1.00  0.00     0.044 A 
HETATM   29  C   UNL     1      -5.522  -0.658 -32.799  1.00  0.00     0.116 A 
HETATM   30  F   UNL     1      -6.168  -1.711 -33.313  1.00  0.00    -0.206 F 
HETATM   31  C   UNL     1      -4.154  -0.735 -32.572  1.00  0.00     0.044 A 
HETATM   32  C   UNL     1      -3.481   0.363 -32.028  1.00  0.00     0.032 A 
ENDBRANCH  22  26
ENDBRANCH   5  20
TORSDOF 6
ENDMDL
MODEL 8
REMARK VINA RESULT:      -7.6      4.334      7.257
REMARK  6 active torsions:
REMARK  status: ('A' for Active; 'I' for Inactive)
REMARK    1  A    between atoms: C_2  and  N_3 
REMARK    2  A    between atoms: C_2  and  C_25 
REMARK       I    between atoms: N_3  and  C_4 
REMARK    3  A    between atoms: C_4  and  C_5 
REMARK    4  A    between atoms: C_5  and  N_6 
REMARK    5  A    between atoms: C_10  and  N_11 
REMARK       I    between atoms: N_11  and  C_12 
REMARK       I    between atoms: C_12  and  N_13 
REMARK    6  A    between atoms: N_13  and  C_14 
ROOT
HETATM    1  N   UNL     1      -9.261   1.809 -32.448  1.00  0.00    -0.063 N 
HETATM    2  H   UNL     1     -10.163   1.789 -31.952  1.00  0.00     0.280 HD
HETATM    3  C   UNL     1      -8.194   1.630 -31.392  1.00  0.00     0.237 C 
HETATM    4  C   UNL     1      -7.919   2.912 -30.635  1.00  0.00     0.053 C 
HETATM    5  C   UNL     1      -7.625   4.104 -31.538  1.00  0.00     0.089 C 
HETATM    6  C   UNL     1      -8.756   4.297 -32.543  1.00  0.00     0.053 C 
HETATM    7  C   UNL     1      -9.188   3.052 -33.297  1.00  0.00     0.237 C 
ENDROOT
BRANCH   1   8
HETATM    8  C   UNL     1      -9.286   0.582 -33.384  1.00  0.00     0.337 C 
BRANCH   8   9
HETATM    9  C   UNL     1      -7.956   0.350 -34.100  1.00  0.00     0.244 C 
HETATM   10  N   UNL     1      -7.225  -0.710 -33.631  1.00  0.00    -0.351 N 
HETATM   11  H   UNL     1      -7.570  -1.291 -32.874  1.00  0.00     0.163 HD
HETATM   12  O   UNL     1      -7.641   1.037 -35.068  1.00  0.00    -0.272 OA
BRANCH  10  13
HETATM   13  C   UNL     1      -5.967  -1.136 -34.228  1.00  0.00     0.120 C 
HETATM   14  C   UNL     1      -6.041  -2.569 -34.757  1.00  0.00     0.038 C 
BRANCH  13  15
HETATM   15  C   UNL     1      -4.884  -0.976 -33.189  1.00  0.00     0.005 A 
HETATM   16  S   UNL     1      -4.685   0.499 -32.322  1.00  0.00    -0.104 SA
HETATM   17  C   UNL     1      -3.362  -0.119 -31.437  1.00  0.00     0.050 A 
HETATM   18  C   UNL     1      -3.067  -1.416 -31.788  1.00  0.00     0.008 A 
HETATM   19  C   UNL     1      -3.943  -1.911 -32.797  1.00  0.00     0.017 A 
ENDBRANCH  13  15
ENDBRANCH  10  13
ENDBRANCH   8   9
ENDBRANCH   1   8
BRANCH   5  20
HETATM   20  N   UNL     1      -6.262   4.104 -32.076  1.00  0.00    -0.338 N 
HETATM   21  C   UNL     1      -5.161   4.724 -31.537  1.00  0.00     0.321 C 
HETATM   22  N   UNL     1      -4.125   4.803 -32.436  1.00  0.00    -0.309 N 
HETATM   23  O   UNL     1      -5.175   5.217 -30.419  1.00  0.00    -0.247 OA
HETATM   24  H   UNL     1      -4.354   4.616 -33.402  1.00  0.00     0.170 HD
HETATM   25  H   UNL     1      -6.078   3.470 -32.845  1.00  0.00     0.164 HD
BRANCH  22  26
HETATM   26  C   UNL     1      -2.884   5.440 -32.208  1.00  0.00     0.036 A 
HETATM   27  C   UNL     1      -2.634   6.779 -32.532  1.00  0.00     0.032 A 
HETATM   28  C   UNL     1      -1.370   7.336 -32.318  1.00  0.00     0.044 A 
HETATM   29  C   UNL     1      -0.358   6.554 -31.779  1.00  0.00     0.116 A 
HETATM   30  F   UNL     1       0.856   7.084 -31.590  1.00  0.00    -0.206 F 
HETATM   31  C   UNL     1      -0.592   5.230 -31.429  1.00  0.00     0.044 A 
HETATM   32  C   UNL     1      -1.858   4.675 -31.634  1.00  0.00     0.032 A 
ENDBRANCH  22  26
ENDBRANCH   5  20
TORSDOF 6
ENDMDL
MODEL 9
REMARK VINA RESULT:      -7.5      6.305     10.078
REMARK  6 active torsions:
REMARK  status: ('A' for Active; 'I' for Inactive)
REMARK    1  A    between atoms: C_2  and  N_3 
REMARK    2  A    between atoms: C_2  and  C_25 
REMARK       I    between atoms: N_3  and  C_4 
REMARK    3  A    between atoms: C_4  and  C_5 
REMARK    4  A    between atoms: C_5  and  N_6 
REMARK    5  A    between atoms: C_10  and  N_11 
REMARK       I    between atoms: N_11  and  C_12 
REMARK       I    between atoms: C_12  and  N_13 
REMARK    6  A    between atoms: N_13  and  C_14 
ROOT
HETATM    1  N   UNL     1      -5.384   3.442 -32.524  1.00  0.00    -0.063 N 
HETATM    2  H   UNL     1      -5.485   2.711 -33.242  1.00  0.00     0.280 HD
HETATM    3  C   UNL     1      -4.655   4.588 -33.187  1.00  0.00     0.237 C 
HETATM    4  C   UNL     1      -3.165   4.338 -33.284  1.00  0.00     0.053 C 
HETATM    5  C   UNL     1      -2.522   3.952 -31.957  1.00  0.00     0.089 C 
HETATM    6  C   UNL     1      -3.237   2.749 -31.353  1.00  0.00     0.053 C 
HETATM    7  C   UNL     1      -4.752   2.844 -31.293  1.00  0.00     0.237 C 
ENDROOT
BRANCH   1   8
HETATM    8  C   UNL     1      -6.826   3.866 -32.172  1.00  0.00     0.337 C 
BRANCH   8   9
HETATM    9  C   UNL     1      -7.676   4.167 -33.406  1.00  0.00     0.244 C 
HETATM   10  N   UNL     1      -8.948   3.655 -33.369  1.00  0.00    -0.351 N 
HETATM   11  H   UNL     1      -9.280   3.133 -32.564  1.00  0.00     0.163 HD
HETATM   12  O   UNL     1      -7.241   4.881 -34.304  1.00  0.00    -0.272 OA
BRANCH  10  13
HETATM   13  C   UNL     1      -9.933   3.895 -34.414  1.00  0.00     0.120 C 
HETATM   14  C   UNL     1     -10.591   5.268 -34.277  1.00  0.00     0.038 C 
BRANCH  13  15
HETATM   15  C   UNL     1     -10.947   2.779 -34.359  1.00  0.00     0.005 A 
HETATM   16  S   UNL     1     -12.318   2.761 -35.401  1.00  0.00    -0.104 SA
HETATM   17  C   UNL     1     -12.890   1.295 -34.738  1.00  0.00     0.050 A 
HETATM   18  C   UNL     1     -12.067   0.823 -33.743  1.00  0.00     0.008 A 
HETATM   19  C   UNL     1     -10.947   1.677 -33.523  1.00  0.00     0.017 A 
ENDBRANCH  13  15
ENDBRANCH  10  13
ENDBRANCH   8   9
ENDBRANCH   1   8
BRANCH   5  20
HETATM   20  N   UNL     1      -2.294   5.094 -31.067  1.00  0.00    -0.338 N 
HETATM   21  C   UNL     1      -1.130   5.409 -30.408  1.00  0.00     0.321 C 
HETATM   22  N   UNL     1      -1.336   6.339 -29.418  1.00  0.00    -0.309 N 
HETATM   23  O   UNL     1      -0.076   4.836 -30.641  1.00  0.00    -0.247 OA
HETATM   24  H   UNL     1      -2.297   6.504 -29.151  1.00  0.00     0.170 HD
HETATM   25  H   UNL     1      -3.019   5.802 -31.043  1.00  0.00     0.164 HD
BRANCH  22  26
HETATM   26  C   UNL     1      -0.355   6.818 -28.521  1.00  0.00     0.036 A 
HETATM   27  C   UNL     1      -0.201   6.335 -27.216  1.00  0.00     0.032 A 
HETATM   28  C   UNL     1       0.764   6.882 -26.367  1.00  0.00     0.044 A 
HETATM   29  C   UNL     1       1.576   7.911 -26.824  1.00  0.00     0.116 A 
HETATM   30  F   UNL     1       2.489   8.445 -26.004  1.00  0.00    -0.206 F 
HETATM   31  C   UNL     1       1.456   8.389 -28.122  1.00  0.00     0.044 A 
HETATM   32  C   UNL     1       0.497   7.836 -28.975  1.00  0.00     0.032 A 
ENDBRANCH  22  26
ENDBRANCH   5  20
TORSDOF 6
ENDMDL
MODEL 10
REMARK VINA RESULT:      -7.5      8.378     11.560
REMARK  6 active torsions:
REMARK  status: ('A' for Active; 'I' for Inactive)
REMARK    1  A    between atoms: C_2  and  N_3 
REMARK    2  A    between atoms: C_2  and  C_25 
REMARK       I    between atoms: N_3  and  C_4 
REMARK    3  A    between atoms: C_4  and  C_5 
REMARK    4  A    between atoms: C_5  and  N_6 
REMARK    5  A    between atoms: C_10  and  N_11 
REMARK       I    between atoms: N_11  and  C_12 
REMARK       I    between atoms: C_12  and  N_13 
REMARK    6  A    between atoms: N_13  and  C_14 
ROOT
HETATM    1  N   UNL     1      -0.660   6.984 -28.444  1.00  0.00    -0.063 N 
HETATM    2  H   UNL     1      -0.136   7.858 -28.588  1.00  0.00     0.280 HD
HETATM    3  C   UNL     1       0.159   5.889 -29.088  1.00  0.00     0.237 C 
HETATM    4  C   UNL     1      -0.010   5.858 -30.592  1.00  0.00     0.053 C 
HETATM    5  C   UNL     1      -1.466   5.813 -31.042  1.00  0.00     0.089 C 
HETATM    6  C   UNL     1      -2.244   6.973 -30.430  1.00  0.00     0.053 C 
HETATM    7  C   UNL     1      -2.074   7.165 -28.934  1.00  0.00     0.237 C 
ENDROOT
BRANCH   1   8
HETATM    8  C   UNL     1      -0.698   6.783 -26.913  1.00  0.00     0.337 C 
BRANCH   8   9
HETATM    9  C   UNL     1      -0.677   8.100 -26.139  1.00  0.00     0.244 C 
HETATM   10  N   UNL     1       0.519   8.770 -26.170  1.00  0.00    -0.351 N 
HETATM   11  H   UNL     1       1.311   8.403 -26.688  1.00  0.00     0.163 HD
HETATM   12  O   UNL     1      -1.699   8.528 -25.608  1.00  0.00    -0.272 OA
BRANCH  10  13
HETATM   13  C   UNL     1       0.717  10.075 -25.555  1.00  0.00     0.120 C 
HETATM   14  C   UNL     1       0.734  11.199 -26.591  1.00  0.00     0.038 C 
BRANCH  13  15
HETATM   15  C   UNL     1       2.001  10.022 -24.763  1.00  0.00     0.005 A 
HETATM   16  S   UNL     1       2.462  11.311 -23.717  1.00  0.00    -0.104 SA
HETATM   17  C   UNL     1       3.903  10.518 -23.260  1.00  0.00     0.050 A 
HETATM   18  C   UNL     1       4.043   9.300 -23.886  1.00  0.00     0.008 A 
HETATM   19  C   UNL     1       2.948   9.015 -24.752  1.00  0.00     0.017 A 
ENDBRANCH  13  15
ENDBRANCH  10  13
ENDBRANCH   8   9
ENDBRANCH   1   8
BRANCH   5  20
HETATM   20  N   UNL     1      -2.071   4.483 -30.925  1.00  0.00    -0.338 N 
HETATM   21  C   UNL     1      -2.608   3.727 -31.939  1.00  0.00     0.321 C 
HETATM   22  N   UNL     1      -3.370   2.691 -31.458  1.00  0.00    -0.309 N 
HETATM   23  O   UNL     1      -2.478   4.032 -33.115  1.00  0.00    -0.247 OA
HETATM   24  H   UNL     1      -3.622   2.735 -30.480  1.00  0.00     0.170 HD
HETATM   25  H   UNL     1      -1.957   4.010 -30.036  1.00  0.00     0.164 HD
BRANCH  22  26
HETATM   26  C   UNL     1      -4.108   1.777 -32.244  1.00  0.00     0.036 A 
HETATM   27  C   UNL     1      -5.349   2.080 -32.817  1.00  0.00     0.032 A 
HETATM   28  C   UNL     1      -6.046   1.115 -33.550  1.00  0.00     0.044 A 
HETATM   29  C   UNL     1      -5.500  -0.150 -33.711  1.00  0.00     0.116 A 
HETATM   30  F   UNL     1      -6.176  -1.078 -34.399  1.00  0.00    -0.206 F 
HETATM   31  C   UNL     1      -4.260  -0.464 -33.170  1.00  0.00     0.044 A 
HETATM   32  C   UNL     1      -3.558   0.503 -32.445  1.00  0.00     0.032 A 
ENDBRANCH  22  26
ENDBRANCH   5  20
TORSDOF 6
ENDMDL
