MODEL 1
REMARK VINA RESULT:      -8.7      0.000      0.000
REMARK  5 active torsions:
REMARK  status: ('A' for Active; 'I' for Inactive)
REMARK    1  A    between atoms: C_6  and  O_7 
REMARK    2  A    between atoms: O_7  and  C_8 
REMARK    3  A    between atoms: C_8  and  C_9 
REMARK       I    between atoms: C_9  and  N_10 
REMARK    4  A    between atoms: N_10  and  N_11 
REMARK    5  A    between atoms: C_12  and  C_13 
ROOT
HETATM    1  C   UNL     1      -2.887   3.675 -32.289  1.00  0.00     0.261 C 
HETATM    2  N   UNL     1      -3.458   2.549 -31.714  1.00  0.00    -0.246 N 
HETATM    3  O   UNL     1      -2.519   3.767 -33.459  1.00  0.00    -0.269 OA
HETATM    4  H   UNL     1      -3.766   2.582 -30.746  1.00  0.00     0.192 HD
ENDROOT
BRANCH   2   5
HETATM    5  N   UNL     1      -3.593   1.417 -32.459  1.00  0.00    -0.184 NA
HETATM    6  C   UNL     1      -4.743   0.828 -32.426  1.00  0.00     0.153 C 
BRANCH   6   7
HETATM    7  C   UNL     1      -4.934  -0.400 -33.179  1.00  0.00     0.018 A 
HETATM    8  C   UNL     1      -4.314  -1.681 -32.976  1.00  0.00     0.004 A 
HETATM    9  C   UNL     1      -4.826  -2.551 -33.939  1.00  0.00     0.043 A 
HETATM   10  C   UNL     1      -3.364  -2.187 -32.063  1.00  0.00     0.014 A 
HETATM   11  C   UNL     1      -4.441  -3.896 -34.031  1.00  0.00     0.030 A 
HETATM   12  N   UNL     1      -5.717  -1.835 -34.698  1.00  0.00    -0.358 N 
HETATM   13  C   UNL     1      -3.500  -4.367 -33.112  1.00  0.00     0.002 A 
HETATM   14  C   UNL     1      -2.966  -3.527 -32.140  1.00  0.00     0.001 A 
HETATM   15  H   UNL     1      -6.241  -2.225 -35.469  1.00  0.00     0.166 HD
HETATM   16  C   UNL     1      -5.800  -0.536 -34.258  1.00  0.00     0.018 A 
HETATM   17  C   UNL     1      -6.712   0.438 -34.913  1.00  0.00     0.069 C 
ENDBRANCH   6   7
ENDBRANCH   2   5
BRANCH   1  18
HETATM   18  C   UNL     1      -2.648   4.810 -31.299  1.00  0.00     0.280 C 
BRANCH  18  19
HETATM   19  O   UNL     1      -1.504   5.593 -31.631  1.00  0.00    -0.341 OA
BRANCH  19  20
HETATM   20  C   UNL     1      -0.789   6.058 -30.554  1.00  0.00     0.086 A 
HETATM   21  C   UNL     1      -0.960   7.398 -30.181  1.00  0.00     0.044 A 
HETATM   22  C   UNL     1      -0.269   7.928 -29.085  1.00  0.00     0.028 A 
HETATM   23 BR   UNL     1      -2.110   8.554 -31.156  1.00  0.00    -0.048 Br
HETATM   24  C   UNL     1       0.585   7.118 -28.329  1.00  0.00    -0.061 A 
HETATM   25  C   UNL     1       1.357   7.680 -27.170  1.00  0.00     0.048 C 
HETATM   26  C   UNL     1       0.749   5.779 -28.695  1.00  0.00     0.009 A 
HETATM   27  C   UNL     1       0.061   5.251 -29.791  1.00  0.00     0.039 A 
ENDBRANCH  19  20
ENDBRANCH  18  19
ENDBRANCH   1  18
TORSDOF 5
ENDMDL
MODEL 2
REMARK VINA RESULT:      -8.6      6.508     10.108
REMARK  5 active torsions:
REMARK  status: ('A' for Active; 'I' for Inactive)
REMARK    1  A    between atoms: C_6  and  O_7 
REMARK    2  A    between atoms: O_7  and  C_8 
REMARK    3  A    between atoms: C_8  and  C_9 
REMARK       I    between atoms: C_9  and  N_10 
REMARK    4  A    between atoms: N_10  and  N_11 
REMARK    5  A    between atoms: C_12  and  C_13 
ROOT
HETATM    1  C   UNL     1     -10.044   2.600 -34.343  1.00  0.00     0.261 C 
HETATM    2  N   UNL     1      -9.875   1.247 -34.595  1.00  0.00    -0.246 N 
HETATM    3  O   UNL     1      -9.136   3.423 -34.239  1.00  0.00    -0.269 OA
HETATM    4  H   UNL     1     -10.692   0.651 -34.702  1.00  0.00     0.192 HD
ENDROOT
BRANCH   2   5
HETATM    5  N   UNL     1      -8.615   0.740 -34.690  1.00  0.00    -0.184 NA
HETATM    6  C   UNL     1      -8.230  -0.056 -33.747  1.00  0.00     0.153 C 
BRANCH   6   7
HETATM    7  C   UNL     1      -6.885  -0.604 -33.783  1.00  0.00     0.018 A 
HETATM    8  C   UNL     1      -6.468  -1.930 -34.148  1.00  0.00     0.004 A 
HETATM    9  C   UNL     1      -5.077  -1.976 -34.043  1.00  0.00     0.043 A 
HETATM   10  C   UNL     1      -7.140  -3.101 -34.561  1.00  0.00     0.014 A 
HETATM   11  C   UNL     1      -4.330  -3.126 -34.331  1.00  0.00     0.030 A 
HETATM   12  N   UNL     1      -4.663  -0.735 -33.630  1.00  0.00    -0.358 N 
HETATM   13  C   UNL     1      -5.024  -4.268 -34.738  1.00  0.00     0.002 A 
HETATM   14  C   UNL     1      -6.410  -4.260 -34.851  1.00  0.00     0.001 A 
HETATM   15  H   UNL     1      -3.695  -0.487 -33.476  1.00  0.00     0.166 HD
HETATM   16  C   UNL     1      -5.734   0.109 -33.468  1.00  0.00     0.018 A 
HETATM   17  C   UNL     1      -5.542   1.519 -33.038  1.00  0.00     0.069 C 
ENDBRANCH   6   7
ENDBRANCH   2   5
BRANCH   1  18
HETATM   18  C   UNL     1     -11.496   2.998 -34.099  1.00  0.00     0.280 C 
BRANCH  18  19
HETATM   19  O   UNL     1     -11.986   2.536 -32.842  1.00  0.00    -0.341 OA
BRANCH  19  20
HETATM   20  C   UNL     1     -13.339   2.687 -32.658  1.00  0.00     0.086 A 
HETATM   21  C   UNL     1     -14.173   1.619 -33.015  1.00  0.00     0.044 A 
HETATM   22  C   UNL     1     -15.560   1.706 -32.842  1.00  0.00     0.028 A 
HETATM   23 BR   UNL     1     -13.466   0.025 -33.772  1.00  0.00    -0.048 Br
HETATM   24  C   UNL     1     -16.131   2.854 -32.283  1.00  0.00    -0.061 A 
HETATM   25  C   UNL     1     -17.618   2.975 -32.119  1.00  0.00     0.048 C 
HETATM   26  C   UNL     1     -15.298   3.916 -31.918  1.00  0.00     0.009 A 
HETATM   27  C   UNL     1     -13.915   3.830 -32.095  1.00  0.00     0.039 A 
ENDBRANCH  19  20
ENDBRANCH  18  19
ENDBRANCH   1  18
TORSDOF 5
ENDMDL
MODEL 3
REMARK VINA RESULT:      -8.6      5.936      9.645
REMARK  5 active torsions:
REMARK  status: ('A' for Active; 'I' for Inactive)
REMARK    1  A    between atoms: C_6  and  O_7 
REMARK    2  A    between atoms: O_7  and  C_8 
REMARK    3  A    between atoms: C_8  and  C_9 
REMARK       I    between atoms: C_9  and  N_10 
REMARK    4  A    between atoms: N_10  and  N_11 
REMARK    5  A    between atoms: C_12  and  C_13 
ROOT
HETATM    1  C   UNL     1      -9.910   0.883 -33.461  1.00  0.00     0.261 C 
HETATM    2  N   UNL     1      -8.586   1.222 -33.697  1.00  0.00    -0.246 N 
HETATM    3  O   UNL     1     -10.292  -0.146 -32.907  1.00  0.00    -0.269 OA
HETATM    4  H   UNL     1      -8.367   2.116 -34.130  1.00  0.00     0.192 HD
ENDROOT
BRANCH   2   5
HETATM    5  N   UNL     1      -7.602   0.348 -33.347  1.00  0.00    -0.184 NA
HETATM    6  C   UNL     1      -6.775  -0.006 -34.274  1.00  0.00     0.153 C 
BRANCH   6   7
HETATM    7  C   UNL     1      -5.723  -0.958 -33.963  1.00  0.00     0.018 A 
HETATM    8  C   UNL     1      -5.665  -2.361 -34.273  1.00  0.00     0.004 A 
HETATM    9  C   UNL     1      -4.452  -2.847 -33.785  1.00  0.00     0.043 A 
HETATM   10  C   UNL     1      -6.529  -3.267 -34.924  1.00  0.00     0.014 A 
HETATM   11  C   UNL     1      -4.060  -4.186 -33.918  1.00  0.00     0.030 A 
HETATM   12  N   UNL     1      -3.798  -1.791 -33.201  1.00  0.00    -0.358 N 
HETATM   13  C   UNL     1      -4.937  -5.059 -34.568  1.00  0.00     0.002 A 
HETATM   14  C   UNL     1      -6.156  -4.610 -35.064  1.00  0.00     0.001 A 
HETATM   15  H   UNL     1      -2.887  -1.862 -32.768  1.00  0.00     0.166 HD
HETATM   16  C   UNL     1      -4.544  -0.642 -33.298  1.00  0.00     0.018 A 
HETATM   17  C   UNL     1      -4.043   0.646 -32.750  1.00  0.00     0.069 C 
ENDBRANCH   6   7
ENDBRANCH   2   5
BRANCH   1  18
HETATM   18  C   UNL     1     -10.907   1.875 -34.049  1.00  0.00     0.280 C 
BRANCH  18  19
HETATM   19  O   UNL     1     -11.429   2.772 -33.071  1.00  0.00    -0.341 OA
BRANCH  19  20
HETATM   20  C   UNL     1     -12.780   2.661 -32.848  1.00  0.00     0.086 A 
HETATM   21  C   UNL     1     -13.387   3.607 -32.011  1.00  0.00     0.044 A 
HETATM   22  C   UNL     1     -14.762   3.556 -31.753  1.00  0.00     0.028 A 
HETATM   23 BR   UNL     1     -12.372   4.978 -31.173  1.00  0.00    -0.048 Br
HETATM   24  C   UNL     1     -15.557   2.571 -32.350  1.00  0.00    -0.061 A 
HETATM   25  C   UNL     1     -17.027   2.484 -32.059  1.00  0.00     0.048 C 
HETATM   26  C   UNL     1     -14.953   1.633 -33.193  1.00  0.00     0.009 A 
HETATM   27  C   UNL     1     -13.580   1.682 -33.447  1.00  0.00     0.039 A 
ENDBRANCH  19  20
ENDBRANCH  18  19
ENDBRANCH   1  18
TORSDOF 5
ENDMDL
MODEL 4
REMARK VINA RESULT:      -8.4      5.548      8.841
REMARK  5 active torsions:
REMARK  status: ('A' for Active; 'I' for Inactive)
REMARK    1  A    between atoms: C_6  and  O_7 
REMARK    2  A    between atoms: O_7  and  C_8 
REMARK    3  A    between atoms: C_8  and  C_9 
REMARK       I    between atoms: C_9  and  N_10 
REMARK    4  A    between atoms: N_10  and  N_11 
REMARK    5  A    between atoms: C_12  and  C_13 
ROOT
HETATM    1  C   UNL     1      -8.167   2.407 -32.208  1.00  0.00     0.261 C 
HETATM    2  N   UNL     1      -7.517   1.767 -33.252  1.00  0.00    -0.246 N 
HETATM    3  O   UNL     1      -7.994   2.174 -31.013  1.00  0.00    -0.269 OA
HETATM    4  H   UNL     1      -7.700   2.056 -34.210  1.00  0.00     0.192 HD
ENDROOT
BRANCH   2   5
HETATM    5  N   UNL     1      -6.646   0.758 -32.975  1.00  0.00    -0.184 NA
HETATM    6  C   UNL     1      -6.151   0.117 -33.983  1.00  0.00     0.153 C 
BRANCH   6   7
HETATM    7  C   UNL     1      -5.238  -0.988 -33.744  1.00  0.00     0.018 A 
HETATM    8  C   UNL     1      -5.386  -2.368 -34.120  1.00  0.00     0.004 A 
HETATM    9  C   UNL     1      -4.244  -3.044 -33.687  1.00  0.00     0.043 A 
HETATM   10  C   UNL     1      -6.382  -3.111 -34.788  1.00  0.00     0.014 A 
HETATM   11  C   UNL     1      -4.049  -4.416 -33.892  1.00  0.00     0.030 A 
HETATM   12  N   UNL     1      -3.436  -2.120 -33.073  1.00  0.00    -0.358 N 
HETATM   13  C   UNL     1      -5.053  -5.124 -34.558  1.00  0.00     0.002 A 
HETATM   14  C   UNL     1      -6.206  -4.484 -35.001  1.00  0.00     0.001 A 
HETATM   15  H   UNL     1      -2.536  -2.339 -32.669  1.00  0.00     0.166 HD
HETATM   16  C   UNL     1      -4.014  -0.874 -33.096  1.00  0.00     0.018 A 
HETATM   17  C   UNL     1      -3.324   0.303 -32.504  1.00  0.00     0.069 C 
ENDBRANCH   6   7
ENDBRANCH   2   5
BRANCH   1  18
HETATM   18  C   UNL     1      -9.231   3.398 -32.668  1.00  0.00     0.280 C 
BRANCH  18  19
HETATM   19  O   UNL     1      -9.707   3.119 -33.983  1.00  0.00    -0.341 OA
BRANCH  19  20
HETATM   20  C   UNL     1     -10.931   2.497 -34.035  1.00  0.00     0.086 A 
HETATM   21  C   UNL     1     -12.007   3.210 -34.582  1.00  0.00     0.044 A 
HETATM   22  C   UNL     1     -13.277   2.627 -34.673  1.00  0.00     0.028 A 
HETATM   23 BR   UNL     1     -11.797   4.997 -35.194  1.00  0.00    -0.048 Br
HETATM   24  C   UNL     1     -13.484   1.312 -34.243  1.00  0.00    -0.061 A 
HETATM   25  C   UNL     1     -14.846   0.685 -34.307  1.00  0.00     0.048 C 
HETATM   26  C   UNL     1     -12.409   0.598 -33.707  1.00  0.00     0.009 A 
HETATM   27  C   UNL     1     -11.142   1.181 -33.612  1.00  0.00     0.039 A 
ENDBRANCH  19  20
ENDBRANCH  18  19
ENDBRANCH   1  18
TORSDOF 5
ENDMDL
MODEL 5
REMARK VINA RESULT:      -8.2      5.674      8.900
REMARK  5 active torsions:
REMARK  status: ('A' for Active; 'I' for Inactive)
REMARK    1  A    between atoms: C_6  and  O_7 
REMARK    2  A    between atoms: O_7  and  C_8 
REMARK    3  A    between atoms: C_8  and  C_9 
REMARK       I    between atoms: C_9  and  N_10 
REMARK    4  A    between atoms: N_10  and  N_11 
REMARK    5  A    between atoms: C_12  and  C_13 
ROOT
HETATM    1  C   UNL     1      -8.586   2.928 -31.029  1.00  0.00     0.261 C 
HETATM    2  N   UNL     1      -8.738   1.573 -31.282  1.00  0.00    -0.246 N 
HETATM    3  O   UNL     1      -7.523   3.544 -31.066  1.00  0.00    -0.269 OA
HETATM    4  H   UNL     1      -9.667   1.160 -31.263  1.00  0.00     0.192 HD
ENDROOT
BRANCH   2   5
HETATM    5  N   UNL     1      -7.636   0.818 -31.547  1.00  0.00    -0.184 NA
HETATM    6  C   UNL     1      -7.336   0.634 -32.791  1.00  0.00     0.153 C 
BRANCH   6   7
HETATM    7  C   UNL     1      -6.188  -0.186 -33.133  1.00  0.00     0.018 A 
HETATM    8  C   UNL     1      -6.166  -1.480 -33.758  1.00  0.00     0.004 A 
HETATM    9  C   UNL     1      -4.830  -1.858 -33.894  1.00  0.00     0.043 A 
HETATM   10  C   UNL     1      -7.157  -2.371 -34.225  1.00  0.00     0.014 A 
HETATM   11  C   UNL     1      -4.437  -3.072 -34.473  1.00  0.00     0.030 A 
HETATM   12  N   UNL     1      -4.068  -0.842 -33.373  1.00  0.00    -0.358 N 
HETATM   13  C   UNL     1      -5.441  -3.932 -34.926  1.00  0.00     0.002 A 
HETATM   14  C   UNL     1      -6.784  -3.589 -34.805  1.00  0.00     0.001 A 
HETATM   15  H   UNL     1      -3.058  -0.852 -33.347  1.00  0.00     0.166 HD
HETATM   16  C   UNL     1      -4.865   0.177 -32.909  1.00  0.00     0.018 A 
HETATM   17  C   UNL     1      -4.272   1.401 -32.309  1.00  0.00     0.069 C 
ENDBRANCH   6   7
ENDBRANCH   2   5
BRANCH   1  18
HETATM   18  C   UNL     1      -9.875   3.613 -30.586  1.00  0.00     0.280 C 
BRANCH  18  19
HETATM   19  O   UNL     1     -10.584   4.200 -31.675  1.00  0.00    -0.341 OA
BRANCH  19  20
HETATM   20  C   UNL     1     -11.873   3.752 -31.834  1.00  0.00     0.086 A 
HETATM   21  C   UNL     1     -12.148   2.918 -32.927  1.00  0.00     0.044 A 
HETATM   22  C   UNL     1     -13.440   2.420 -33.138  1.00  0.00     0.028 A 
HETATM   23 BR   UNL     1     -10.796   2.453 -34.178  1.00  0.00    -0.048 Br
HETATM   24  C   UNL     1     -14.471   2.726 -32.243  1.00  0.00    -0.061 A 
HETATM   25  C   UNL     1     -15.866   2.224 -32.472  1.00  0.00     0.048 C 
HETATM   26  C   UNL     1     -14.194   3.550 -31.148  1.00  0.00     0.009 A 
HETATM   27  C   UNL     1     -12.906   4.051 -30.940  1.00  0.00     0.039 A 
ENDBRANCH  19  20
ENDBRANCH  18  19
ENDBRANCH   1  18
TORSDOF 5
ENDMDL
MODEL 6
REMARK VINA RESULT:      -8.1      2.238      2.836
REMARK  5 active torsions:
REMARK  status: ('A' for Active; 'I' for Inactive)
REMARK    1  A    between atoms: C_6  and  O_7 
REMARK    2  A    between atoms: O_7  and  C_8 
REMARK    3  A    between atoms: C_8  and  C_9 
REMARK       I    between atoms: C_9  and  N_10 
REMARK    4  A    between atoms: N_10  and  N_11 
REMARK    5  A    between atoms: C_12  and  C_13 
ROOT
HETATM    1  C   UNL     1      -6.241   3.564 -32.463  1.00  0.00     0.261 C 
HETATM    2  N   UNL     1      -6.051   2.416 -31.709  1.00  0.00    -0.246 N 
HETATM    3  O   UNL     1      -6.572   3.590 -33.647  1.00  0.00    -0.269 OA
HETATM    4  H   UNL     1      -5.814   2.497 -30.724  1.00  0.00     0.192 HD
ENDROOT
BRANCH   2   5
HETATM    5  N   UNL     1      -6.184   1.199 -32.304  1.00  0.00    -0.184 NA
HETATM    6  C   UNL     1      -5.120   0.680 -32.823  1.00  0.00     0.153 C 
BRANCH   6   7
HETATM    7  C   UNL     1      -5.209  -0.604 -33.496  1.00  0.00     0.018 A 
HETATM    8  C   UNL     1      -4.500  -1.820 -33.202  1.00  0.00     0.004 A 
HETATM    9  C   UNL     1      -4.932  -2.786 -34.111  1.00  0.00     0.043 A 
HETATM   10  C   UNL     1      -3.530  -2.194 -32.247  1.00  0.00     0.014 A 
HETATM   11  C   UNL     1      -4.448  -4.101 -34.110  1.00  0.00     0.030 A 
HETATM   12  N   UNL     1      -5.861  -2.188 -34.925  1.00  0.00    -0.358 N 
HETATM   13  C   UNL     1      -3.490  -4.442 -33.152  1.00  0.00     0.002 A 
HETATM   14  C   UNL     1      -3.034  -3.503 -32.232  1.00  0.00     0.001 A 
HETATM   15  H   UNL     1      -6.342  -2.665 -35.676  1.00  0.00     0.166 HD
HETATM   16  C   UNL     1      -6.045  -0.874 -34.573  1.00  0.00     0.018 A 
HETATM   17  C   UNL     1      -7.015  -0.014 -35.301  1.00  0.00     0.069 C 
ENDBRANCH   6   7
ENDBRANCH   2   5
BRANCH   1  18
HETATM   18  C   UNL     1      -5.901   4.848 -31.715  1.00  0.00     0.280 C 
BRANCH  18  19
HETATM   19  O   UNL     1      -5.177   5.776 -32.520  1.00  0.00    -0.341 OA
BRANCH  19  20
HETATM   20  C   UNL     1      -3.862   5.949 -32.162  1.00  0.00     0.086 A 
HETATM   21  C   UNL     1      -2.885   5.793 -33.155  1.00  0.00     0.044 A 
HETATM   22  C   UNL     1      -1.528   5.967 -32.856  1.00  0.00     0.028 A 
HETATM   23 BR   UNL     1      -3.353   5.314 -34.933  1.00  0.00    -0.048 Br
HETATM   24  C   UNL     1      -1.130   6.327 -31.564  1.00  0.00    -0.061 A 
HETATM   25  C   UNL     1       0.323   6.487 -31.221  1.00  0.00     0.048 C 
HETATM   26  C   UNL     1      -2.105   6.492 -30.576  1.00  0.00     0.009 A 
HETATM   27  C   UNL     1      -3.459   6.314 -30.874  1.00  0.00     0.039 A 
ENDBRANCH  19  20
ENDBRANCH  18  19
ENDBRANCH   1  18
TORSDOF 5
ENDMDL
MODEL 7
REMARK VINA RESULT:      -8.0      1.959      3.195
REMARK  5 active torsions:
REMARK  status: ('A' for Active; 'I' for Inactive)
REMARK    1  A    between atoms: C_6  and  O_7 
REMARK    2  A    between atoms: O_7  and  C_8 
REMARK    3  A    between atoms: C_8  and  C_9 
REMARK       I    between atoms: C_9  and  N_10 
REMARK    4  A    between atoms: N_10  and  N_11 
REMARK    5  A    between atoms: C_12  and  C_13 
ROOT
HETATM    1  C   UNL     1      -2.582   5.092 -32.457  1.00  0.00     0.261 C 
HETATM    2  N   UNL     1      -2.610   3.878 -31.787  1.00  0.00    -0.246 N 
HETATM    3  O   UNL     1      -2.935   5.271 -33.621  1.00  0.00    -0.269 OA
HETATM    4  H   UNL     1      -2.333   3.838 -30.810  1.00  0.00     0.192 HD
ENDROOT
BRANCH   2   5
HETATM    5  N   UNL     1      -3.006   2.759 -32.455  1.00  0.00    -0.184 NA
HETATM    6  C   UNL     1      -3.947   2.056 -31.916  1.00  0.00     0.153 C 
BRANCH   6   7
HETATM    7  C   UNL     1      -4.388   0.837 -32.570  1.00  0.00     0.018 A 
HETATM    8  C   UNL     1      -5.512   0.648 -33.447  1.00  0.00     0.004 A 
HETATM    9  C   UNL     1      -5.519  -0.692 -33.835  1.00  0.00     0.043 A 
HETATM   10  C   UNL     1      -6.526   1.490 -33.952  1.00  0.00     0.014 A 
HETATM   11  C   UNL     1      -6.482  -1.229 -34.700  1.00  0.00     0.030 A 
HETATM   12  N   UNL     1      -4.450  -1.296 -33.222  1.00  0.00    -0.358 N 
HETATM   13  C   UNL     1      -7.473  -0.370 -35.184  1.00  0.00     0.002 A 
HETATM   14  C   UNL     1      -7.498   0.971 -34.816  1.00  0.00     0.001 A 
HETATM   15  H   UNL     1      -4.215  -2.273 -33.333  1.00  0.00     0.166 HD
HETATM   16  C   UNL     1      -3.754  -0.395 -32.455  1.00  0.00     0.018 A 
HETATM   17  C   UNL     1      -2.542  -0.806 -31.699  1.00  0.00     0.069 C 
ENDBRANCH   6   7
ENDBRANCH   2   5
BRANCH   1  18
HETATM   18  C   UNL     1      -1.966   6.224 -31.641  1.00  0.00     0.280 C 
BRANCH  18  19
HETATM   19  O   UNL     1      -1.970   5.955 -30.241  1.00  0.00    -0.341 OA
BRANCH  19  20
HETATM   20  C   UNL     1      -1.225   6.825 -29.483  1.00  0.00     0.086 A 
HETATM   21  C   UNL     1       0.080   6.445 -29.140  1.00  0.00     0.044 A 
HETATM   22  C   UNL     1       0.894   7.293 -28.379  1.00  0.00     0.028 A 
HETATM   23 BR   UNL     1       0.788   4.762 -29.667  1.00  0.00    -0.048 Br
HETATM   24  C   UNL     1       0.424   8.546 -27.971  1.00  0.00    -0.061 A 
HETATM   25  C   UNL     1       1.274   9.452 -27.129  1.00  0.00     0.048 C 
HETATM   26  C   UNL     1      -0.874   8.929 -28.321  1.00  0.00     0.009 A 
HETATM   27  C   UNL     1      -1.688   8.081 -29.078  1.00  0.00     0.039 A 
ENDBRANCH  19  20
ENDBRANCH  18  19
ENDBRANCH   1  18
TORSDOF 5
ENDMDL
MODEL 8
REMARK VINA RESULT:      -7.9      5.936      9.764
REMARK  5 active torsions:
REMARK  status: ('A' for Active; 'I' for Inactive)
REMARK    1  A    between atoms: C_6  and  O_7 
REMARK    2  A    between atoms: O_7  and  C_8 
REMARK    3  A    between atoms: C_8  and  C_9 
REMARK       I    between atoms: C_9  and  N_10 
REMARK    4  A    between atoms: N_10  and  N_11 
REMARK    5  A    between atoms: C_12  and  C_13 
ROOT
HETATM    1  C   UNL     1      -7.422   1.902 -31.932  1.00  0.00     0.261 C 
HETATM    2  N   UNL     1      -8.637   1.244 -32.051  1.00  0.00    -0.246 N 
HETATM    3  O   UNL     1      -7.243   3.105 -32.114  1.00  0.00    -0.269 OA
HETATM    4  H   UNL     1      -8.691   0.251 -31.842  1.00  0.00     0.192 HD
ENDROOT
BRANCH   2   5
HETATM    5  N   UNL     1      -9.735   1.943 -32.449  1.00  0.00    -0.184 NA
HETATM    6  C   UNL     1     -10.096   1.815 -33.684  1.00  0.00     0.153 C 
BRANCH   6   7
HETATM    7  C   UNL     1     -11.244   2.560 -34.171  1.00  0.00     0.018 A 
HETATM    8  C   UNL     1     -11.297   3.917 -34.641  1.00  0.00     0.004 A 
HETATM    9  C   UNL     1     -12.615   4.179 -35.016  1.00  0.00     0.043 A 
HETATM   10  C   UNL     1     -10.349   4.952 -34.786  1.00  0.00     0.014 A 
HETATM   11  C   UNL     1     -13.029   5.416 -35.529  1.00  0.00     0.030 A 
HETATM   12  N   UNL     1     -13.336   3.035 -34.783  1.00  0.00    -0.358 N 
HETATM   13  C   UNL     1     -12.067   6.420 -35.662  1.00  0.00     0.002 A 
HETATM   14  C   UNL     1     -10.744   6.195 -35.295  1.00  0.00     0.001 A 
HETATM   15  H   UNL     1     -14.325   2.944 -34.972  1.00  0.00     0.166 HD
HETATM   16  C   UNL     1     -12.531   2.045 -34.275  1.00  0.00     0.018 A 
HETATM   17  C   UNL     1     -13.078   0.701 -33.952  1.00  0.00     0.069 C 
ENDBRANCH   6   7
ENDBRANCH   2   5
BRANCH   1  18
HETATM   18  C   UNL     1      -6.250   0.971 -31.639  1.00  0.00     0.280 C 
BRANCH  18  19
HETATM   19  O   UNL     1      -5.409   0.777 -32.774  1.00  0.00    -0.341 OA
BRANCH  19  20
HETATM   20  C   UNL     1      -5.572  -0.426 -33.416  1.00  0.00     0.086 A 
HETATM   21  C   UNL     1      -4.598  -1.414 -33.218  1.00  0.00     0.044 A 
HETATM   22  C   UNL     1      -4.713  -2.666 -33.835  1.00  0.00     0.028 A 
HETATM   23 BR   UNL     1      -3.074  -1.092 -32.130  1.00  0.00    -0.048 Br
HETATM   24  C   UNL     1      -5.820  -2.957 -34.641  1.00  0.00    -0.061 A 
HETATM   25  C   UNL     1      -5.941  -4.283 -35.334  1.00  0.00     0.048 C 
HETATM   26  C   UNL     1      -6.796  -1.975 -34.831  1.00  0.00     0.009 A 
HETATM   27  C   UNL     1      -6.679  -0.725 -34.218  1.00  0.00     0.039 A 
ENDBRANCH  19  20
ENDBRANCH  18  19
ENDBRANCH   1  18
TORSDOF 5
ENDMDL
MODEL 9
REMARK VINA RESULT:      -7.9      3.026      9.542
REMARK  5 active torsions:
REMARK  status: ('A' for Active; 'I' for Inactive)
REMARK    1  A    between atoms: C_6  and  O_7 
REMARK    2  A    between atoms: O_7  and  C_8 
REMARK    3  A    between atoms: C_8  and  C_9 
REMARK       I    between atoms: C_9  and  N_10 
REMARK    4  A    between atoms: N_10  and  N_11 
REMARK    5  A    between atoms: C_12  and  C_13 
ROOT
HETATM    1  C   UNL     1      -5.868   2.125 -31.395  1.00  0.00     0.261 C 
HETATM    2  N   UNL     1      -4.807   2.762 -32.020  1.00  0.00    -0.246 N 
HETATM    3  O   UNL     1      -6.229   2.315 -30.235  1.00  0.00    -0.269 OA
HETATM    4  H   UNL     1      -4.609   2.565 -32.997  1.00  0.00     0.192 HD
ENDROOT
BRANCH   2   5
HETATM    5  N   UNL     1      -4.046   3.640 -31.309  1.00  0.00    -0.184 NA
HETATM    6  C   UNL     1      -4.300   4.897 -31.466  1.00  0.00     0.153 C 
BRANCH   6   7
HETATM    7  C   UNL     1      -3.501   5.879 -30.754  1.00  0.00     0.018 A 
HETATM    8  C   UNL     1      -2.072   6.039 -30.753  1.00  0.00     0.004 A 
HETATM    9  C   UNL     1      -1.773   7.126 -29.932  1.00  0.00     0.043 A 
HETATM   10  C   UNL     1      -1.000   5.362 -31.374  1.00  0.00     0.014 A 
HETATM   11  C   UNL     1      -0.464   7.571 -29.705  1.00  0.00     0.030 A 
HETATM   12  N   UNL     1      -2.964   7.608 -29.451  1.00  0.00    -0.358 N 
HETATM   13  C   UNL     1       0.576   6.882 -30.334  1.00  0.00     0.002 A 
HETATM   14  C   UNL     1       0.316   5.791 -31.158  1.00  0.00     0.001 A 
HETATM   15  H   UNL     1      -3.041   8.403 -28.830  1.00  0.00     0.166 HD
HETATM   16  C   UNL     1      -4.019   6.873 -29.933  1.00  0.00     0.018 A 
HETATM   17  C   UNL     1      -5.420   7.209 -29.565  1.00  0.00     0.069 C 
ENDBRANCH   6   7
ENDBRANCH   2   5
BRANCH   1  18
HETATM   18  C   UNL     1      -6.528   1.052 -32.256  1.00  0.00     0.280 C 
BRANCH  18  19
HETATM   19  O   UNL     1      -5.811   0.802 -33.463  1.00  0.00    -0.341 OA
BRANCH  19  20
HETATM   20  C   UNL     1      -5.808  -0.509 -33.872  1.00  0.00     0.086 A 
HETATM   21  C   UNL     1      -4.676  -1.284 -33.585  1.00  0.00     0.044 A 
HETATM   22  C   UNL     1      -4.616  -2.630 -33.966  1.00  0.00     0.028 A 
HETATM   23 BR   UNL     1      -3.171  -0.539 -32.695  1.00  0.00    -0.048 Br
HETATM   24  C   UNL     1      -5.699  -3.229 -34.617  1.00  0.00    -0.061 A 
HETATM   25  C   UNL     1      -5.637  -4.662 -35.059  1.00  0.00     0.048 C 
HETATM   26  C   UNL     1      -6.832  -2.459 -34.896  1.00  0.00     0.009 A 
HETATM   27  C   UNL     1      -6.890  -1.114 -34.519  1.00  0.00     0.039 A 
ENDBRANCH  19  20
ENDBRANCH  18  19
ENDBRANCH   1  18
TORSDOF 5
ENDMDL
MODEL 10
REMARK VINA RESULT:      -7.7      3.212      9.997
REMARK  5 active torsions:
REMARK  status: ('A' for Active; 'I' for Inactive)
REMARK    1  A    between atoms: C_6  and  O_7 
REMARK    2  A    between atoms: O_7  and  C_8 
REMARK    3  A    between atoms: C_8  and  C_9 
REMARK       I    between atoms: C_9  and  N_10 
REMARK    4  A    between atoms: N_10  and  N_11 
REMARK    5  A    between atoms: C_12  and  C_13 
ROOT
HETATM    1  C   UNL     1      -4.698   2.133 -31.664  1.00  0.00     0.261 C 
HETATM    2  N   UNL     1      -3.355   2.474 -31.595  1.00  0.00    -0.246 N 
HETATM    3  O   UNL     1      -5.635   2.870 -31.362  1.00  0.00    -0.269 OA
HETATM    4  H   UNL     1      -2.653   1.806 -31.903  1.00  0.00     0.192 HD
ENDROOT
BRANCH   2   5
HETATM    5  N   UNL     1      -3.003   3.697 -31.112  1.00  0.00    -0.184 NA
HETATM    6  C   UNL     1      -2.296   4.452 -31.887  1.00  0.00     0.153 C 
BRANCH   6   7
HETATM    7  C   UNL     1      -1.868   5.756 -31.411  1.00  0.00     0.018 A 
HETATM    8  C   UNL     1      -2.654   6.947 -31.233  1.00  0.00     0.004 A 
HETATM    9  C   UNL     1      -1.805   7.939 -30.741  1.00  0.00     0.043 A 
HETATM   10  C   UNL     1      -4.010   7.278 -31.443  1.00  0.00     0.014 A 
HETATM   11  C   UNL     1      -2.243   9.237 -30.446  1.00  0.00     0.030 A 
HETATM   12  N   UNL     1      -0.557   7.381 -30.625  1.00  0.00    -0.358 N 
HETATM   13  C   UNL     1      -3.591   9.534 -30.664  1.00  0.00     0.002 A 
HETATM   14  C   UNL     1      -4.465   8.571 -31.156  1.00  0.00     0.001 A 
HETATM   15  H   UNL     1       0.254   7.881 -30.285  1.00  0.00     0.166 HD
HETATM   16  C   UNL     1      -0.570   6.067 -31.022  1.00  0.00     0.018 A 
HETATM   17  C   UNL     1       0.664   5.239 -30.975  1.00  0.00     0.069 C 
ENDBRANCH   6   7
ENDBRANCH   2   5
BRANCH   1  18
HETATM   18  C   UNL     1      -4.939   0.682 -32.066  1.00  0.00     0.280 C 
BRANCH  18  19
HETATM   19  O   UNL     1      -5.149   0.531 -33.468  1.00  0.00    -0.341 OA
BRANCH  19  20
HETATM   20  C   UNL     1      -5.355  -0.762 -33.886  1.00  0.00     0.086 A 
HETATM   21  C   UNL     1      -6.564  -1.059 -34.529  1.00  0.00     0.044 A 
HETATM   22  C   UNL     1      -6.830  -2.355 -34.988  1.00  0.00     0.028 A 
HETATM   23 BR   UNL     1      -7.901   0.268 -34.779  1.00  0.00    -0.048 Br
HETATM   24  C   UNL     1      -5.877  -3.368 -34.835  1.00  0.00    -0.061 A 
HETATM   25  C   UNL     1      -6.159  -4.769 -35.294  1.00  0.00     0.048 C 
HETATM   26  C   UNL     1      -4.666  -3.069 -34.202  1.00  0.00     0.009 A 
HETATM   27  C   UNL     1      -4.403  -1.776 -33.741  1.00  0.00     0.039 A 
ENDBRANCH  19  20
ENDBRANCH  18  19
ENDBRANCH   1  18
TORSDOF 5
ENDMDL
