MODEL 1
REMARK VINA RESULT:      -9.5      0.000      0.000
REMARK  4 active torsions:
REMARK  status: ('A' for Active; 'I' for Inactive)
REMARK    1  A    between atoms: C_2  and  C_3 
REMARK    2  A    between atoms: C_10  and  C_11 
REMARK       I    between atoms: C_11  and  N_12 
REMARK    3  A    between atoms: N_12  and  C_13 
REMARK    4  A    between atoms: C_20  and  C_21 
REMARK       I    between atoms: C_21  and  N_22 
ROOT
HETATM    1  C   UNL     1      -9.914   1.965 -34.187  1.00  0.00     0.035 A 
HETATM    2  C   UNL     1     -11.165   1.342 -34.233  1.00  0.00     0.046 A 
HETATM    3  C   UNL     1     -12.249   1.877 -33.500  1.00  0.00     0.030 A 
HETATM    4  C   UNL     1     -12.046   3.016 -32.733  1.00  0.00     0.063 A 
HETATM    5  N   UNL     1     -13.254   3.280 -32.149  1.00  0.00    -0.277 N 
HETATM    6  H   UNL     1     -13.477   4.040 -31.517  1.00  0.00     0.189 HD
HETATM    7  N   UNL     1     -14.230   2.416 -32.475  1.00  0.00    -0.168 NA
HETATM    8  C   UNL     1     -13.624   1.543 -33.312  1.00  0.00     0.156 A 
HETATM    9  C   UNL     1     -10.816   3.667 -32.655  1.00  0.00     0.034 A 
HETATM   10  C   UNL     1      -9.762   3.118 -33.398  1.00  0.00     0.032 A 
ENDROOT
BRANCH   1  11
HETATM   11  N   UNL     1      -8.764   1.541 -34.879  1.00  0.00    -0.324 N 
HETATM   12  C   UNL     1      -7.537   1.081 -34.509  1.00  0.00     0.246 C 
HETATM   13  O   UNL     1      -6.726   0.757 -35.377  1.00  0.00    -0.268 OA
HETATM   14  H   UNL     1      -8.817   1.581 -35.890  1.00  0.00     0.169 HD
BRANCH  12  15
HETATM   15  C   UNL     1      -7.182   0.929 -33.088  1.00  0.00     0.082 C 
HETATM   16  C   UNL     1      -6.565  -0.162 -32.596  1.00  0.00    -0.045 C 
HETATM   17  C   UNL     1      -6.234  -0.300 -31.136  1.00  0.00     0.049 C 
BRANCH  16  18
HETATM   18  C   UNL     1      -6.170  -1.306 -33.445  1.00  0.00    -0.008 A 
HETATM   19  C   UNL     1      -4.838  -1.578 -33.801  1.00  0.00     0.044 A 
HETATM   20 CL   UNL     1      -3.525  -0.579 -33.283  1.00  0.00    -0.083 Cl
HETATM   21  C   UNL     1      -4.532  -2.681 -34.607  1.00  0.00     0.024 A 
HETATM   22  C   UNL     1      -5.549  -3.519 -35.067  1.00  0.00     0.002 A 
HETATM   23  C   UNL     1      -6.872  -3.254 -34.726  1.00  0.00     0.001 A 
HETATM   24  C   UNL     1      -7.181  -2.157 -33.920  1.00  0.00     0.013 A 
ENDBRANCH  16  18
ENDBRANCH  12  15
ENDBRANCH   1  11
BRANCH   8  25
HETATM   25  C   UNL     1     -14.359   0.425 -33.918  1.00  0.00     0.270 C 
HETATM   26  N   UNL     1     -13.960  -0.808 -33.481  1.00  0.00    -0.365 N 
HETATM   27  H   UNL     1     -13.217  -0.862 -32.795  1.00  0.00     0.159 HD
HETATM   28  H   UNL     1     -14.411  -1.637 -33.836  1.00  0.00     0.159 HD
HETATM   29  O   UNL     1     -15.263   0.551 -34.739  1.00  0.00    -0.266 OA
ENDBRANCH   8  25
TORSDOF 4
ENDMDL
MODEL 2
REMARK VINA RESULT:      -9.1      2.581      3.664
REMARK  4 active torsions:
REMARK  status: ('A' for Active; 'I' for Inactive)
REMARK    1  A    between atoms: C_2  and  C_3 
REMARK    2  A    between atoms: C_10  and  C_11 
REMARK       I    between atoms: C_11  and  N_12 
REMARK    3  A    between atoms: N_12  and  C_13 
REMARK    4  A    between atoms: C_20  and  C_21 
REMARK       I    between atoms: C_21  and  N_22 
ROOT
HETATM    1  C   UNL     1      -9.283   1.564 -32.360  1.00  0.00     0.035 A 
HETATM    2  C   UNL     1     -10.514   0.964 -32.644  1.00  0.00     0.046 A 
HETATM    3  C   UNL     1     -11.264   1.388 -33.764  1.00  0.00     0.030 A 
HETATM    4  C   UNL     1     -10.766   2.409 -34.562  1.00  0.00     0.063 A 
HETATM    5  N   UNL     1     -11.703   2.595 -35.540  1.00  0.00    -0.277 N 
HETATM    6  H   UNL     1     -11.673   3.266 -36.299  1.00  0.00     0.189 HD
HETATM    7  N   UNL     1     -12.766   1.778 -35.455  1.00  0.00    -0.168 NA
HETATM    8  C   UNL     1     -12.509   1.024 -34.362  1.00  0.00     0.156 A 
HETATM    9  C   UNL     1      -9.547   3.037 -34.314  1.00  0.00     0.034 A 
HETATM   10  C   UNL     1      -8.821   2.592 -33.201  1.00  0.00     0.032 A 
ENDROOT
BRANCH   1  11
HETATM   11  N   UNL     1      -8.437   1.224 -31.287  1.00  0.00    -0.324 N 
HETATM   12  C   UNL     1      -7.359   0.405 -31.138  1.00  0.00     0.246 C 
HETATM   13  O   UNL     1      -6.801   0.336 -30.042  1.00  0.00    -0.268 OA
HETATM   14  H   UNL     1      -8.653   1.661 -30.399  1.00  0.00     0.169 HD
BRANCH  12  15
HETATM   15  C   UNL     1      -6.829  -0.365 -32.275  1.00  0.00     0.082 C 
HETATM   16  C   UNL     1      -5.757   0.022 -32.991  1.00  0.00    -0.045 C 
HETATM   17  C   UNL     1      -5.251  -0.774 -34.162  1.00  0.00     0.049 C 
BRANCH  16  18
HETATM   18  C   UNL     1      -4.999   1.254 -32.688  1.00  0.00    -0.008 A 
HETATM   19  C   UNL     1      -3.893   1.286 -31.821  1.00  0.00     0.044 A 
HETATM   20 CL   UNL     1      -3.321  -0.130 -31.009  1.00  0.00    -0.083 Cl
HETATM   21  C   UNL     1      -3.217   2.487 -31.580  1.00  0.00     0.024 A 
HETATM   22  C   UNL     1      -3.637   3.666 -32.196  1.00  0.00     0.002 A 
HETATM   23  C   UNL     1      -4.735   3.648 -33.052  1.00  0.00     0.001 A 
HETATM   24  C   UNL     1      -5.410   2.450 -33.297  1.00  0.00     0.013 A 
ENDBRANCH  16  18
ENDBRANCH  12  15
ENDBRANCH   1  11
BRANCH   8  25
HETATM   25  C   UNL     1     -13.436  -0.025 -33.918  1.00  0.00     0.270 C 
HETATM   26  N   UNL     1     -14.746   0.218 -34.233  1.00  0.00    -0.365 N 
HETATM   27  H   UNL     1     -14.974   1.068 -34.735  1.00  0.00     0.159 HD
HETATM   28  H   UNL     1     -15.456  -0.448 -33.975  1.00  0.00     0.159 HD
HETATM   29  O   UNL     1     -13.101  -1.044 -33.324  1.00  0.00    -0.266 OA
ENDBRANCH   8  25
TORSDOF 4
ENDMDL
MODEL 3
REMARK VINA RESULT:      -9.0      3.238      4.543
REMARK  4 active torsions:
REMARK  status: ('A' for Active; 'I' for Inactive)
REMARK    1  A    between atoms: C_2  and  C_3 
REMARK    2  A    between atoms: C_10  and  C_11 
REMARK       I    between atoms: C_11  and  N_12 
REMARK    3  A    between atoms: N_12  and  C_13 
REMARK    4  A    between atoms: C_20  and  C_21 
REMARK       I    between atoms: C_21  and  N_22 
ROOT
HETATM    1  C   UNL     1      -8.352   1.155 -31.729  1.00  0.00     0.035 A 
HETATM    2  C   UNL     1      -8.268   2.419 -32.322  1.00  0.00     0.046 A 
HETATM    3  C   UNL     1      -9.148   2.765 -33.374  1.00  0.00     0.030 A 
HETATM    4  C   UNL     1     -10.080   1.833 -33.807  1.00  0.00     0.063 A 
HETATM    5  N   UNL     1     -10.765   2.448 -34.818  1.00  0.00    -0.277 N 
HETATM    6  H   UNL     1     -11.521   2.061 -35.372  1.00  0.00     0.189 HD
HETATM    7  N   UNL     1     -10.367   3.705 -35.075  1.00  0.00    -0.168 NA
HETATM    8  C   UNL     1      -9.367   3.916 -34.189  1.00  0.00     0.156 A 
HETATM    9  C   UNL     1     -10.195   0.562 -33.248  1.00  0.00     0.034 A 
HETATM   10  C   UNL     1      -9.315   0.248 -32.203  1.00  0.00     0.032 A 
ENDROOT
BRANCH   1  11
HETATM   11  N   UNL     1      -7.546   0.695 -30.670  1.00  0.00    -0.324 N 
HETATM   12  C   UNL     1      -6.277   0.953 -30.249  1.00  0.00     0.246 C 
HETATM   13  O   UNL     1      -5.850   0.390 -29.240  1.00  0.00    -0.268 OA
HETATM   14  H   UNL     1      -7.968   0.002 -30.063  1.00  0.00     0.169 HD
BRANCH  12  15
HETATM   15  C   UNL     1      -5.425   1.922 -30.958  1.00  0.00     0.082 C 
HETATM   16  C   UNL     1      -4.527   1.564 -31.895  1.00  0.00    -0.045 C 
HETATM   17  C   UNL     1      -3.655   2.574 -32.588  1.00  0.00     0.049 C 
BRANCH  16  18
HETATM   18  C   UNL     1      -4.326   0.161 -32.313  1.00  0.00    -0.008 A 
HETATM   19  C   UNL     1      -5.007  -0.428 -33.392  1.00  0.00     0.044 A 
HETATM   20 CL   UNL     1      -6.167   0.444 -34.332  1.00  0.00    -0.083 Cl
HETATM   21  C   UNL     1      -4.767  -1.762 -33.737  1.00  0.00     0.024 A 
HETATM   22  C   UNL     1      -3.851  -2.523 -33.009  1.00  0.00     0.002 A 
HETATM   23  C   UNL     1      -3.175  -1.952 -31.934  1.00  0.00     0.001 A 
HETATM   24  C   UNL     1      -3.411  -0.619 -31.589  1.00  0.00     0.013 A 
ENDBRANCH  16  18
ENDBRANCH  12  15
ENDBRANCH   1  11
BRANCH   8  25
HETATM   25  C   UNL     1      -8.656   5.200 -34.127  1.00  0.00     0.270 C 
HETATM   26  N   UNL     1      -9.477   6.295 -34.143  1.00  0.00    -0.365 N 
HETATM   27  H   UNL     1     -10.478   6.149 -34.191  1.00  0.00     0.159 HD
HETATM   28  H   UNL     1      -9.080   7.220 -34.098  1.00  0.00     0.159 HD
HETATM   29  O   UNL     1      -7.437   5.317 -34.056  1.00  0.00    -0.266 OA
ENDBRANCH   8  25
TORSDOF 4
ENDMDL
MODEL 4
REMARK VINA RESULT:      -9.0      3.064      4.265
REMARK  4 active torsions:
REMARK  status: ('A' for Active; 'I' for Inactive)
REMARK    1  A    between atoms: C_2  and  C_3 
REMARK    2  A    between atoms: C_10  and  C_11 
REMARK       I    between atoms: C_11  and  N_12 
REMARK    3  A    between atoms: N_12  and  C_13 
REMARK    4  A    between atoms: C_20  and  C_21 
REMARK       I    between atoms: C_21  and  N_22 
ROOT
HETATM    1  C   UNL     1      -8.496   1.126 -31.845  1.00  0.00     0.035 A 
HETATM    2  C   UNL     1      -8.405   2.396 -32.424  1.00  0.00     0.046 A 
HETATM    3  C   UNL     1      -9.294   2.765 -33.459  1.00  0.00     0.030 A 
HETATM    4  C   UNL     1     -10.242   1.849 -33.892  1.00  0.00     0.063 A 
HETATM    5  N   UNL     1     -10.932   2.483 -34.887  1.00  0.00    -0.277 N 
HETATM    6  H   UNL     1     -11.700   2.112 -35.435  1.00  0.00     0.189 HD
HETATM    7  N   UNL     1     -10.523   3.739 -35.134  1.00  0.00    -0.168 NA
HETATM    8  C   UNL     1      -9.510   3.928 -34.258  1.00  0.00     0.156 A 
HETATM    9  C   UNL     1     -10.365   0.572 -33.346  1.00  0.00     0.034 A 
HETATM   10  C   UNL     1      -9.476   0.236 -32.317  1.00  0.00     0.032 A 
ENDROOT
BRANCH   1  11
HETATM   11  N   UNL     1      -7.682   0.644 -30.801  1.00  0.00    -0.324 N 
HETATM   12  C   UNL     1      -6.413   0.900 -30.379  1.00  0.00     0.246 C 
HETATM   13  O   UNL     1      -5.978   0.313 -29.387  1.00  0.00    -0.268 OA
HETATM   14  H   UNL     1      -8.097  -0.067 -30.210  1.00  0.00     0.169 HD
BRANCH  12  15
HETATM   15  C   UNL     1      -5.571   1.892 -31.066  1.00  0.00     0.082 C 
HETATM   16  C   UNL     1      -4.880   1.620 -32.189  1.00  0.00    -0.045 C 
HETATM   17  C   UNL     1      -4.010   2.647 -32.858  1.00  0.00     0.049 C 
BRANCH  16  18
HETATM   18  C   UNL     1      -4.918   0.297 -32.848  1.00  0.00    -0.008 A 
HETATM   19  C   UNL     1      -4.032  -0.747 -32.535  1.00  0.00     0.044 A 
HETATM   20 CL   UNL     1      -2.789  -0.571 -31.345  1.00  0.00    -0.083 Cl
HETATM   21  C   UNL     1      -4.125  -1.977 -33.194  1.00  0.00     0.024 A 
HETATM   22  C   UNL     1      -5.099  -2.177 -34.173  1.00  0.00     0.002 A 
HETATM   23  C   UNL     1      -5.979  -1.148 -34.496  1.00  0.00     0.001 A 
HETATM   24  C   UNL     1      -5.890   0.080 -33.838  1.00  0.00     0.013 A 
ENDBRANCH  16  18
ENDBRANCH  12  15
ENDBRANCH   1  11
BRANCH   8  25
HETATM   25  C   UNL     1      -8.782   5.203 -34.190  1.00  0.00     0.270 C 
HETATM   26  N   UNL     1      -9.591   6.307 -34.174  1.00  0.00    -0.365 N 
HETATM   27  H   UNL     1     -10.595   6.173 -34.205  1.00  0.00     0.159 HD
HETATM   28  H   UNL     1      -9.183   7.226 -34.122  1.00  0.00     0.159 HD
HETATM   29  O   UNL     1      -7.561   5.305 -34.141  1.00  0.00    -0.266 OA
ENDBRANCH   8  25
TORSDOF 4
ENDMDL
MODEL 5
REMARK VINA RESULT:      -8.7      3.730      7.962
REMARK  4 active torsions:
REMARK  status: ('A' for Active; 'I' for Inactive)
REMARK    1  A    between atoms: C_2  and  C_3 
REMARK    2  A    between atoms: C_10  and  C_11 
REMARK       I    between atoms: C_11  and  N_12 
REMARK    3  A    between atoms: N_12  and  C_13 
REMARK    4  A    between atoms: C_20  and  C_21 
REMARK       I    between atoms: C_21  and  N_22 
ROOT
HETATM    1  C   UNL     1      -7.940   0.514 -31.864  1.00  0.00     0.035 A 
HETATM    2  C   UNL     1      -6.600   0.212 -31.603  1.00  0.00     0.046 A 
HETATM    3  C   UNL     1      -5.874  -0.610 -32.495  1.00  0.00     0.030 A 
HETATM    4  C   UNL     1      -6.513  -1.114 -33.618  1.00  0.00     0.063 A 
HETATM    5  N   UNL     1      -5.571  -1.863 -34.267  1.00  0.00    -0.277 N 
HETATM    6  H   UNL     1      -5.688  -2.384 -35.129  1.00  0.00     0.189 HD
HETATM    7  N   UNL     1      -4.368  -1.883 -33.668  1.00  0.00    -0.168 NA
HETATM    8  C   UNL     1      -4.540  -1.111 -32.571  1.00  0.00     0.156 A 
HETATM    9  C   UNL     1      -7.847  -0.842 -33.916  1.00  0.00     0.034 A 
HETATM   10  C   UNL     1      -8.541  -0.020 -33.018  1.00  0.00     0.032 A 
ENDROOT
BRANCH   1  11
HETATM   11  N   UNL     1      -8.765   1.327 -31.065  1.00  0.00    -0.324 N 
HETATM   12  C   UNL     1      -9.323   2.562 -31.207  1.00  0.00     0.246 C 
HETATM   13  O   UNL     1     -10.040   3.007 -30.310  1.00  0.00    -0.268 OA
HETATM   14  H   UNL     1      -9.018   0.947 -30.160  1.00  0.00     0.169 HD
BRANCH  12  15
HETATM   15  C   UNL     1      -9.112   3.352 -32.432  1.00  0.00     0.082 C 
HETATM   16  C   UNL     1     -10.033   3.454 -33.409  1.00  0.00    -0.045 C 
HETATM   17  C   UNL     1      -9.781   4.250 -34.659  1.00  0.00     0.049 C 
BRANCH  16  18
HETATM   18  C   UNL     1     -11.353   2.794 -33.333  1.00  0.00    -0.008 A 
HETATM   19  C   UNL     1     -12.481   3.391 -32.746  1.00  0.00     0.044 A 
HETATM   20 CL   UNL     1     -12.423   4.967 -32.036  1.00  0.00    -0.083 Cl
HETATM   21  C   UNL     1     -13.704   2.711 -32.710  1.00  0.00     0.024 A 
HETATM   22  C   UNL     1     -13.812   1.431 -33.255  1.00  0.00     0.002 A 
HETATM   23  C   UNL     1     -12.699   0.827 -33.834  1.00  0.00     0.001 A 
HETATM   24  C   UNL     1     -11.478   1.504 -33.874  1.00  0.00     0.013 A 
ENDBRANCH  16  18
ENDBRANCH  12  15
ENDBRANCH   1  11
BRANCH   8  25
HETATM   25  C   UNL     1      -3.439  -0.859 -31.631  1.00  0.00     0.270 C 
HETATM   26  N   UNL     1      -2.494  -1.848 -31.600  1.00  0.00    -0.365 N 
HETATM   27  H   UNL     1      -2.613  -2.651 -32.206  1.00  0.00     0.159 HD
HETATM   28  H   UNL     1      -1.697  -1.762 -30.990  1.00  0.00     0.159 HD
HETATM   29  O   UNL     1      -3.339   0.141 -30.929  1.00  0.00    -0.266 OA
ENDBRANCH   8  25
TORSDOF 4
ENDMDL
MODEL 6
REMARK VINA RESULT:      -8.7      2.398      3.032
REMARK  4 active torsions:
REMARK  status: ('A' for Active; 'I' for Inactive)
REMARK    1  A    between atoms: C_2  and  C_3 
REMARK    2  A    between atoms: C_10  and  C_11 
REMARK       I    between atoms: C_11  and  N_12 
REMARK    3  A    between atoms: N_12  and  C_13 
REMARK    4  A    between atoms: C_20  and  C_21 
REMARK       I    between atoms: C_21  and  N_22 
ROOT
HETATM    1  C   UNL     1      -9.768   2.691 -31.385  1.00  0.00     0.035 A 
HETATM    2  C   UNL     1     -10.436   2.415 -32.583  1.00  0.00     0.046 A 
HETATM    3  C   UNL     1     -11.492   3.252 -33.011  1.00  0.00     0.030 A 
HETATM    4  C   UNL     1     -11.855   4.336 -32.224  1.00  0.00     0.063 A 
HETATM    5  N   UNL     1     -12.889   4.936 -32.887  1.00  0.00    -0.277 N 
HETATM    6  H   UNL     1     -13.407   5.759 -32.600  1.00  0.00     0.189 HD
HETATM    7  N   UNL     1     -13.227   4.342 -34.044  1.00  0.00    -0.168 NA
HETATM    8  C   UNL     1     -12.370   3.300 -34.136  1.00  0.00     0.156 A 
HETATM    9  C   UNL     1     -11.220   4.645 -31.023  1.00  0.00     0.034 A 
HETATM   10  C   UNL     1     -10.173   3.802 -30.626  1.00  0.00     0.032 A 
ENDROOT
BRANCH   1  11
HETATM   11  N   UNL     1      -8.697   1.945 -30.858  1.00  0.00    -0.324 N 
HETATM   12  C   UNL     1      -7.344   1.967 -31.015  1.00  0.00     0.246 C 
HETATM   13  O   UNL     1      -6.650   1.175 -30.376  1.00  0.00    -0.268 OA
HETATM   14  H   UNL     1      -8.949   1.203 -30.215  1.00  0.00     0.169 HD
BRANCH  12  15
HETATM   15  C   UNL     1      -6.700   2.947 -31.905  1.00  0.00     0.082 C 
HETATM   16  C   UNL     1      -6.304   2.654 -33.158  1.00  0.00    -0.045 C 
HETATM   17  C   UNL     1      -5.628   3.669 -34.037  1.00  0.00     0.049 C 
BRANCH  16  18
HETATM   18  C   UNL     1      -6.497   1.320 -33.764  1.00  0.00    -0.008 A 
HETATM   19  C   UNL     1      -5.608   0.249 -33.572  1.00  0.00     0.044 A 
HETATM   20 CL   UNL     1      -4.180   0.402 -32.608  1.00  0.00    -0.083 Cl
HETATM   21  C   UNL     1      -5.852  -0.991 -34.172  1.00  0.00     0.024 A 
HETATM   22  C   UNL     1      -6.981  -1.174 -34.971  1.00  0.00     0.002 A 
HETATM   23  C   UNL     1      -7.866  -0.118 -35.174  1.00  0.00     0.001 A 
HETATM   24  C   UNL     1      -7.627   1.119 -34.574  1.00  0.00     0.013 A 
ENDBRANCH  16  18
ENDBRANCH  12  15
ENDBRANCH   1  11
BRANCH   8  25
HETATM   25  C   UNL     1     -12.396   2.385 -35.285  1.00  0.00     0.270 C 
HETATM   26  N   UNL     1     -11.991   2.955 -36.461  1.00  0.00    -0.365 N 
HETATM   27  H   UNL     1     -11.709   3.928 -36.456  1.00  0.00     0.159 HD
HETATM   28  H   UNL     1     -11.969   2.403 -37.304  1.00  0.00     0.159 HD
HETATM   29  O   UNL     1     -12.735   1.207 -35.229  1.00  0.00    -0.266 OA
ENDBRANCH   8  25
TORSDOF 4
ENDMDL
MODEL 7
REMARK VINA RESULT:      -8.7      4.311      5.957
REMARK  4 active torsions:
REMARK  status: ('A' for Active; 'I' for Inactive)
REMARK    1  A    between atoms: C_2  and  C_3 
REMARK    2  A    between atoms: C_10  and  C_11 
REMARK       I    between atoms: C_11  and  N_12 
REMARK    3  A    between atoms: N_12  and  C_13 
REMARK    4  A    between atoms: C_20  and  C_21 
REMARK       I    between atoms: C_21  and  N_22 
ROOT
HETATM    1  C   UNL     1      -6.005   1.266 -33.037  1.00  0.00     0.035 A 
HETATM    2  C   UNL     1      -7.092   1.912 -32.441  1.00  0.00     0.046 A 
HETATM    3  C   UNL     1      -8.354   1.905 -33.078  1.00  0.00     0.030 A 
HETATM    4  C   UNL     1      -8.488   1.259 -34.299  1.00  0.00     0.063 A 
HETATM    5  N   UNL     1      -9.797   1.430 -34.658  1.00  0.00    -0.277 N 
HETATM    6  H   UNL     1     -10.252   1.093 -35.498  1.00  0.00     0.189 HD
HETATM    7  N   UNL     1     -10.530   2.124 -33.771  1.00  0.00    -0.168 NA
HETATM    8  C   UNL     1      -9.652   2.424 -32.787  1.00  0.00     0.156 A 
HETATM    9  C   UNL     1      -7.431   0.607 -34.931  1.00  0.00     0.034 A 
HETATM   10  C   UNL     1      -6.194   0.624 -34.273  1.00  0.00     0.032 A 
ENDROOT
BRANCH   1  11
HETATM   11  N   UNL     1      -4.705   1.189 -32.500  1.00  0.00    -0.324 N 
HETATM   12  C   UNL     1      -3.995   1.924 -31.600  1.00  0.00     0.246 C 
HETATM   13  O   UNL     1      -2.849   1.579 -31.310  1.00  0.00    -0.268 OA
HETATM   14  H   UNL     1      -4.128   0.431 -32.846  1.00  0.00     0.169 HD
BRANCH  12  15
HETATM   15  C   UNL     1      -4.591   3.099 -30.942  1.00  0.00     0.082 C 
HETATM   16  C   UNL     1      -4.424   4.357 -31.390  1.00  0.00    -0.045 C 
HETATM   17  C   UNL     1      -5.026   5.540 -30.685  1.00  0.00     0.049 C 
BRANCH  16  18
HETATM   18  C   UNL     1      -3.638   4.674 -32.601  1.00  0.00    -0.008 A 
HETATM   19  C   UNL     1      -4.217   4.871 -33.867  1.00  0.00     0.044 A 
HETATM   20 CL   UNL     1      -5.922   4.745 -34.127  1.00  0.00    -0.083 Cl
HETATM   21  C   UNL     1      -3.415   5.173 -34.973  1.00  0.00     0.024 A 
HETATM   22  C   UNL     1      -2.031   5.277 -34.830  1.00  0.00     0.002 A 
HETATM   23  C   UNL     1      -1.446   5.077 -33.582  1.00  0.00     0.001 A 
HETATM   24  C   UNL     1      -2.244   4.779 -32.476  1.00  0.00     0.013 A 
ENDBRANCH  16  18
ENDBRANCH  12  15
ENDBRANCH   1  11
BRANCH   8  25
HETATM   25  C   UNL     1     -10.062   3.180 -31.597  1.00  0.00     0.270 C 
HETATM   26  N   UNL     1      -9.903   2.499 -30.421  1.00  0.00    -0.365 N 
HETATM   27  H   UNL     1      -9.525   1.560 -30.452  1.00  0.00     0.159 HD
HETATM   28  H   UNL     1     -10.151   2.938 -29.549  1.00  0.00     0.159 HD
HETATM   29  O   UNL     1     -10.502   4.324 -31.618  1.00  0.00    -0.266 OA
ENDBRANCH   8  25
TORSDOF 4
ENDMDL
MODEL 8
REMARK VINA RESULT:      -8.7      3.855      7.507
REMARK  4 active torsions:
REMARK  status: ('A' for Active; 'I' for Inactive)
REMARK    1  A    between atoms: C_2  and  C_3 
REMARK    2  A    between atoms: C_10  and  C_11 
REMARK       I    between atoms: C_11  and  N_12 
REMARK    3  A    between atoms: N_12  and  C_13 
REMARK    4  A    between atoms: C_20  and  C_21 
REMARK       I    between atoms: C_21  and  N_22 
ROOT
HETATM    1  C   UNL     1      -6.440   1.659 -34.266  1.00  0.00     0.035 A 
HETATM    2  C   UNL     1      -5.455   1.214 -33.379  1.00  0.00     0.046 A 
HETATM    3  C   UNL     1      -5.140  -0.162 -33.308  1.00  0.00     0.030 A 
HETATM    4  C   UNL     1      -5.827  -1.054 -34.120  1.00  0.00     0.063 A 
HETATM    5  N   UNL     1      -5.313  -2.286 -33.822  1.00  0.00    -0.277 N 
HETATM    6  H   UNL     1      -5.582  -3.177 -34.224  1.00  0.00     0.189 HD
HETATM    7  N   UNL     1      -4.343  -2.274 -32.892  1.00  0.00    -0.168 NA
HETATM    8  C   UNL     1      -4.223  -0.967 -32.565  1.00  0.00     0.156 A 
HETATM    9  C   UNL     1      -6.818  -0.654 -35.014  1.00  0.00     0.034 A 
HETATM   10  C   UNL     1      -7.105   0.716 -35.069  1.00  0.00     0.032 A 
ENDROOT
BRANCH   1  11
HETATM   11  N   UNL     1      -6.836   2.999 -34.440  1.00  0.00    -0.324 N 
HETATM   12  C   UNL     1      -7.443   3.931 -33.653  1.00  0.00     0.246 C 
HETATM   13  O   UNL     1      -7.640   5.062 -34.099  1.00  0.00    -0.268 OA
HETATM   14  H   UNL     1      -6.654   3.398 -35.354  1.00  0.00     0.169 HD
BRANCH  12  15
HETATM   15  C   UNL     1      -7.830   3.616 -32.268  1.00  0.00     0.082 C 
HETATM   16  C   UNL     1      -9.032   3.108 -31.937  1.00  0.00    -0.045 C 
HETATM   17  C   UNL     1      -9.407   2.817 -30.511  1.00  0.00     0.049 C 
BRANCH  16  18
HETATM   18  C   UNL     1     -10.072   2.802 -32.941  1.00  0.00    -0.008 A 
HETATM   19  C   UNL     1     -10.387   1.495 -33.351  1.00  0.00     0.044 A 
HETATM   20 CL   UNL     1      -9.566   0.111 -32.719  1.00  0.00    -0.083 Cl
HETATM   21  C   UNL     1     -11.386   1.274 -34.305  1.00  0.00     0.024 A 
HETATM   22  C   UNL     1     -12.078   2.351 -34.861  1.00  0.00     0.002 A 
HETATM   23  C   UNL     1     -11.769   3.651 -34.467  1.00  0.00     0.001 A 
HETATM   24  C   UNL     1     -10.774   3.874 -33.514  1.00  0.00     0.013 A 
ENDBRANCH  16  18
ENDBRANCH  12  15
ENDBRANCH   1  11
BRANCH   8  25
HETATM   25  C   UNL     1      -3.242  -0.511 -31.571  1.00  0.00     0.270 C 
HETATM   26  N   UNL     1      -2.085  -1.241 -31.555  1.00  0.00    -0.365 N 
HETATM   27  H   UNL     1      -1.988  -2.011 -32.206  1.00  0.00     0.159 HD
HETATM   28  H   UNL     1      -1.349  -1.000 -30.910  1.00  0.00     0.159 HD
HETATM   29  O   UNL     1      -3.408   0.440 -30.815  1.00  0.00    -0.266 OA
ENDBRANCH   8  25
TORSDOF 4
ENDMDL
MODEL 9
REMARK VINA RESULT:      -8.6      3.027      4.684
REMARK  4 active torsions:
REMARK  status: ('A' for Active; 'I' for Inactive)
REMARK    1  A    between atoms: C_2  and  C_3 
REMARK    2  A    between atoms: C_10  and  C_11 
REMARK       I    between atoms: C_11  and  N_12 
REMARK    3  A    between atoms: N_12  and  C_13 
REMARK    4  A    between atoms: C_20  and  C_21 
REMARK       I    between atoms: C_21  and  N_22 
ROOT
HETATM    1  C   UNL     1      -8.859   1.305 -31.886  1.00  0.00     0.035 A 
HETATM    2  C   UNL     1      -9.049   2.548 -32.497  1.00  0.00     0.046 A 
HETATM    3  C   UNL     1      -9.999   2.688 -33.535  1.00  0.00     0.030 A 
HETATM    4  C   UNL     1     -10.725   1.576 -33.937  1.00  0.00     0.063 A 
HETATM    5  N   UNL     1     -11.540   2.019 -34.942  1.00  0.00    -0.277 N 
HETATM    6  H   UNL     1     -12.208   1.474 -35.475  1.00  0.00     0.189 HD
HETATM    7  N   UNL     1     -11.415   3.327 -35.224  1.00  0.00    -0.168 NA
HETATM    8  C   UNL     1     -10.466   3.755 -34.360  1.00  0.00     0.156 A 
HETATM    9  C   UNL     1     -10.565   0.318 -33.359  1.00  0.00     0.034 A 
HETATM   10  C   UNL     1      -9.622   0.210 -32.329  1.00  0.00     0.032 A 
ENDROOT
BRANCH   1  11
HETATM   11  N   UNL     1      -7.958   1.039 -30.838  1.00  0.00    -0.324 N 
HETATM   12  C   UNL     1      -6.843   0.269 -30.703  1.00  0.00     0.246 C 
HETATM   13  O   UNL     1      -6.239   0.264 -29.630  1.00  0.00    -0.268 OA
HETATM   14  H   UNL     1      -8.155   1.502 -29.958  1.00  0.00     0.169 HD
BRANCH  12  15
HETATM   15  C   UNL     1      -6.330  -0.525 -31.832  1.00  0.00     0.082 C 
HETATM   16  C   UNL     1      -5.412  -0.061 -32.701  1.00  0.00    -0.045 C 
HETATM   17  C   UNL     1      -4.923  -0.887 -33.858  1.00  0.00     0.049 C 
BRANCH  16  18
HETATM   18  C   UNL     1      -4.820   1.288 -32.590  1.00  0.00    -0.008 A 
HETATM   19  C   UNL     1      -3.657   1.562 -31.851  1.00  0.00     0.044 A 
HETATM   20 CL   UNL     1      -2.811   0.330 -30.980  1.00  0.00    -0.083 Cl
HETATM   21  C   UNL     1      -3.146   2.863 -31.790  1.00  0.00     0.024 A 
HETATM   22  C   UNL     1      -3.790   3.903 -32.462  1.00  0.00     0.002 A 
HETATM   23  C   UNL     1      -4.947   3.644 -33.192  1.00  0.00     0.001 A 
HETATM   24  C   UNL     1      -5.458   2.347 -33.257  1.00  0.00     0.013 A 
ENDBRANCH  16  18
ENDBRANCH  12  15
ENDBRANCH   1  11
BRANCH   8  25
HETATM   25  C   UNL     1     -10.034   5.159 -34.330  1.00  0.00     0.270 C 
HETATM   26  N   UNL     1     -10.648   5.910 -33.365  1.00  0.00    -0.365 N 
HETATM   27  H   UNL     1     -11.327   5.463 -32.761  1.00  0.00     0.159 HD
HETATM   28  H   UNL     1     -10.412   6.884 -33.262  1.00  0.00     0.159 HD
HETATM   29  O   UNL     1      -9.194   5.645 -35.080  1.00  0.00    -0.266 OA
ENDBRANCH   8  25
TORSDOF 4
ENDMDL
MODEL 10
REMARK VINA RESULT:      -8.5      2.771      3.676
REMARK  4 active torsions:
REMARK  status: ('A' for Active; 'I' for Inactive)
REMARK    1  A    between atoms: C_2  and  C_3 
REMARK    2  A    between atoms: C_10  and  C_11 
REMARK       I    between atoms: C_11  and  N_12 
REMARK    3  A    between atoms: N_12  and  C_13 
REMARK    4  A    between atoms: C_20  and  C_21 
REMARK       I    between atoms: C_21  and  N_22 
ROOT
HETATM    1  C   UNL     1      -9.291   1.763 -31.770  1.00  0.00     0.035 A 
HETATM    2  C   UNL     1     -10.134   2.762 -32.266  1.00  0.00     0.046 A 
HETATM    3  C   UNL     1     -11.159   2.430 -33.182  1.00  0.00     0.030 A 
HETATM    4  C   UNL     1     -11.304   1.109 -33.582  1.00  0.00     0.063 A 
HETATM    5  N   UNL     1     -12.354   1.108 -34.458  1.00  0.00    -0.277 N 
HETATM    6  H   UNL     1     -12.740   0.312 -34.952  1.00  0.00     0.189 HD
HETATM    7  N   UNL     1     -12.913   2.314 -34.657  1.00  0.00    -0.168 NA
HETATM    8  C   UNL     1     -12.185   3.142 -33.873  1.00  0.00     0.156 A 
HETATM    9  C   UNL     1     -10.484   0.083 -33.116  1.00  0.00     0.034 A 
HETATM   10  C   UNL     1      -9.481   0.440 -32.204  1.00  0.00     0.032 A 
ENDROOT
BRANCH   1  11
HETATM   11  N   UNL     1      -8.246   1.960 -30.847  1.00  0.00    -0.324 N 
HETATM   12  C   UNL     1      -7.108   2.710 -30.832  1.00  0.00     0.246 C 
HETATM   13  O   UNL     1      -6.384   2.687 -29.837  1.00  0.00    -0.268 OA
HETATM   14  H   UNL     1      -8.312   1.432 -29.985  1.00  0.00     0.169 HD
BRANCH  12  15
HETATM   15  C   UNL     1      -6.755   3.574 -31.971  1.00  0.00     0.082 C 
HETATM   16  C   UNL     1      -6.077   3.132 -33.047  1.00  0.00    -0.045 C 
HETATM   17  C   UNL     1      -5.711   4.043 -34.185  1.00  0.00     0.049 C 
BRANCH  16  18
HETATM   18  C   UNL     1      -5.639   1.729 -33.192  1.00  0.00    -0.008 A 
HETATM   19  C   UNL     1      -4.486   1.212 -32.576  1.00  0.00     0.044 A 
HETATM   20 CL   UNL     1      -3.455   2.190 -31.590  1.00  0.00    -0.083 Cl
HETATM   21  C   UNL     1      -4.130  -0.129 -32.752  1.00  0.00     0.024 A 
HETATM   22  C   UNL     1      -4.915  -0.967 -33.546  1.00  0.00     0.002 A 
HETATM   23  C   UNL     1      -6.055  -0.464 -34.167  1.00  0.00     0.001 A 
HETATM   24  C   UNL     1      -6.416   0.873 -33.991  1.00  0.00     0.013 A 
ENDBRANCH  16  18
ENDBRANCH  12  15
ENDBRANCH   1  11
BRANCH   8  25
HETATM   25  C   UNL     1     -12.484   4.578 -33.790  1.00  0.00     0.270 C 
HETATM   26  N   UNL     1     -13.804   4.861 -33.565  1.00  0.00    -0.365 N 
HETATM   27  H   UNL     1     -14.456   4.091 -33.472  1.00  0.00     0.159 HD
HETATM   28  H   UNL     1     -14.105   5.819 -33.486  1.00  0.00     0.159 HD
HETATM   29  O   UNL     1     -11.649   5.470 -33.897  1.00  0.00    -0.266 OA
ENDBRANCH   8  25
TORSDOF 4
ENDMDL
