MODEL 1
REMARK VINA RESULT:     -10.0      0.000      0.000
REMARK  8 active torsions:
REMARK  status: ('A' for Active; 'I' for Inactive)
REMARK       I    between atoms: C_2  and  N_3 
REMARK    1  A    between atoms: N_6  and  C_7 
REMARK    2  A    between atoms: C_8  and  N_9 
REMARK    3  A    between atoms: N_9  and  C_10 
REMARK    4  A    between atoms: C_10  and  N_11 
REMARK       I    between atoms: N_11  and  C_12 
REMARK    5  A    between atoms: C_12  and  C_13 
REMARK    6  A    between atoms: C_15  and  O_16 
REMARK    7  A    between atoms: O_16  and  C_17 
REMARK    8  A    between atoms: C_17  and  C_18 
ROOT
HETATM    1  C   UNL     1      -4.476   3.819 -31.284  1.00  0.00     0.179 C 
HETATM    2  S   UNL     1      -5.292   5.010 -30.440  1.00  0.00    -0.040 SA
ENDROOT
BRANCH   1   3
HETATM    3  N   UNL     1      -3.137   3.900 -31.428  1.00  0.00    -0.331 N 
HETATM    4  H   UNL     1      -2.578   3.535 -30.660  1.00  0.00     0.168 HD
BRANCH   3   5
HETATM    5  C   UNL     1      -2.351   4.657 -32.328  1.00  0.00     0.061 A 
HETATM    6  C   UNL     1      -1.668   5.779 -31.778  1.00  0.00     0.057 A 
HETATM    7  C   UNL     1      -1.070   6.676 -32.674  1.00  0.00     0.031 A 
HETATM    8  C   UNL     1      -1.092   6.446 -34.054  1.00  0.00     0.002 A 
HETATM    9  C   UNL     1      -1.720   5.317 -34.567  1.00  0.00     0.002 A 
HETATM   10  C   UNL     1      -2.358   4.424 -33.708  1.00  0.00     0.032 A 
BRANCH   6  11
HETATM   11  N   UNL     1      -1.615   5.939 -30.377  1.00  0.00    -0.376 N 
HETATM   12  C   UNL     1      -0.270   5.631 -29.799  1.00  0.00     0.143 C 
HETATM   13  C   UNL     1       0.608   6.894 -29.704  1.00  0.00     0.145 C 
HETATM   14  N   UNL     1      -0.094   7.936 -28.946  1.00  0.00    -0.349 N 
HETATM   15  C   UNL     1       0.081   8.156 -27.589  1.00  0.00     0.215 C 
HETATM   16  C   UNL     1      -1.370   8.318 -29.557  1.00  0.00     0.145 C 
HETATM   17  C   UNL     1       1.350   7.632 -26.966  1.00  0.00     0.117 C 
HETATM   18  O   UNL     1      -0.743   8.759 -26.902  1.00  0.00    -0.274 OA
HETATM   19  C   UNL     1      -2.293   7.091 -29.729  1.00  0.00     0.143 C 
ENDBRANCH   6  11
ENDBRANCH   3   5
ENDBRANCH   1   3
BRANCH   1  20
HETATM   20  N   UNL     1      -5.193   2.762 -31.753  1.00  0.00    -0.299 N 
HETATM   21  C   UNL     1      -5.869   1.834 -30.967  1.00  0.00     0.257 C 
HETATM   22  O   UNL     1      -5.692   1.599 -29.779  1.00  0.00    -0.267 OA
HETATM   23  H   UNL     1      -5.673   3.008 -32.609  1.00  0.00     0.171 HD
BRANCH  21  24
HETATM   24  C   UNL     1      -6.972   1.134 -31.677  1.00  0.00     0.035 A 
HETATM   25  C   UNL     1      -6.710   0.234 -32.714  1.00  0.00     0.053 A 
HETATM   26  C   UNL     1      -7.776  -0.321 -33.417  1.00  0.00     0.070 A 
HETATM   27  C   UNL     1      -9.095  -0.032 -33.071  1.00  0.00     0.037 A 
HETATM   28  C   UNL     1      -9.355   0.844 -32.016  1.00  0.00     0.004 A 
HETATM   29  C   UNL     1      -8.295   1.427 -31.318  1.00  0.00     0.017 A 
BRANCH  26  30
HETATM   30  O   UNL     1      -7.488  -1.209 -34.414  1.00  0.00    -0.347 OA
BRANCH  30  31
HETATM   31  C   UNL     1      -6.100  -1.154 -34.765  1.00  0.00     0.214 C 
BRANCH  31  32
HETATM   32  C   UNL     1      -5.533  -2.539 -34.585  1.00  0.00    -0.034 A 
HETATM   33  C   UNL     1      -6.236  -3.661 -35.046  1.00  0.00     0.009 A 
HETATM   34  C   UNL     1      -5.729  -4.945 -34.844  1.00  0.00     0.001 A 
HETATM   35  C   UNL     1      -4.521  -5.122 -34.172  1.00  0.00     0.000 A 
HETATM   36  C   UNL     1      -3.819  -4.015 -33.700  1.00  0.00     0.001 A 
HETATM   37  C   UNL     1      -4.322  -2.729 -33.902  1.00  0.00     0.009 A 
ENDBRANCH  31  32
ENDBRANCH  30  31
ENDBRANCH  26  30
ENDBRANCH  21  24
ENDBRANCH   1  20
TORSDOF 8
ENDMDL
MODEL 2
REMARK VINA RESULT:      -9.8      2.579      3.874
REMARK  8 active torsions:
REMARK  status: ('A' for Active; 'I' for Inactive)
REMARK       I    between atoms: C_2  and  N_3 
REMARK    1  A    between atoms: N_6  and  C_7 
REMARK    2  A    between atoms: C_8  and  N_9 
REMARK    3  A    between atoms: N_9  and  C_10 
REMARK    4  A    between atoms: C_10  and  N_11 
REMARK       I    between atoms: N_11  and  C_12 
REMARK    5  A    between atoms: C_12  and  C_13 
REMARK    6  A    between atoms: C_15  and  O_16 
REMARK    7  A    between atoms: O_16  and  C_17 
REMARK    8  A    between atoms: C_17  and  C_18 
ROOT
HETATM    1  C   UNL     1      -6.800   4.006 -29.764  1.00  0.00     0.179 C 
HETATM    2  S   UNL     1      -7.324   5.219 -28.740  1.00  0.00    -0.040 SA
ENDROOT
BRANCH   1   3
HETATM    3  N   UNL     1      -5.527   3.566 -29.685  1.00  0.00    -0.331 N 
HETATM    4  H   UNL     1      -4.865   4.182 -29.219  1.00  0.00     0.168 HD
BRANCH   3   5
HETATM    5  C   UNL     1      -4.866   2.526 -30.381  1.00  0.00     0.061 A 
HETATM    6  C   UNL     1      -4.121   2.912 -31.532  1.00  0.00     0.057 A 
HETATM    7  C   UNL     1      -3.647   1.893 -32.368  1.00  0.00     0.031 A 
HETATM    8  C   UNL     1      -3.847   0.544 -32.053  1.00  0.00     0.002 A 
HETATM    9  C   UNL     1      -4.533   0.188 -30.897  1.00  0.00     0.002 A 
HETATM   10  C   UNL     1      -5.051   1.176 -30.063  1.00  0.00     0.032 A 
BRANCH   6  11
HETATM   11  N   UNL     1      -3.888   4.282 -31.778  1.00  0.00    -0.376 N 
HETATM   12  C   UNL     1      -2.793   4.855 -30.934  1.00  0.00     0.143 C 
HETATM   13  C   UNL     1      -1.428   4.772 -31.644  1.00  0.00     0.145 C 
HETATM   14  N   UNL     1      -1.508   5.420 -32.959  1.00  0.00    -0.349 N 
HETATM   15  C   UNL     1      -1.142   6.734 -33.197  1.00  0.00     0.215 C 
HETATM   16  C   UNL     1      -2.509   4.803 -33.833  1.00  0.00     0.145 C 
HETATM   17  C   UNL     1      -0.211   7.379 -32.202  1.00  0.00     0.117 C 
HETATM   18  O   UNL     1      -1.537   7.368 -34.175  1.00  0.00    -0.274 OA
HETATM   19  C   UNL     1      -3.904   4.806 -33.168  1.00  0.00     0.143 C 
ENDBRANCH   6  11
ENDBRANCH   3   5
ENDBRANCH   1   3
BRANCH   1  20
HETATM   20  N   UNL     1      -7.706   3.452 -30.616  1.00  0.00    -0.299 N 
HETATM   21  C   UNL     1      -7.772   3.685 -31.987  1.00  0.00     0.257 C 
HETATM   22  O   UNL     1      -7.283   4.621 -32.604  1.00  0.00    -0.267 OA
HETATM   23  H   UNL     1      -7.911   2.498 -30.347  1.00  0.00     0.171 HD
BRANCH  21  24
HETATM   24  C   UNL     1      -8.453   2.604 -32.748  1.00  0.00     0.035 A 
HETATM   25  C   UNL     1      -7.727   1.685 -33.510  1.00  0.00     0.053 A 
HETATM   26  C   UNL     1      -8.413   0.754 -34.285  1.00  0.00     0.070 A 
HETATM   27  C   UNL     1      -9.805   0.693 -34.273  1.00  0.00     0.037 A 
HETATM   28  C   UNL     1     -10.528   1.591 -33.488  1.00  0.00     0.004 A 
HETATM   29  C   UNL     1      -9.854   2.548 -32.724  1.00  0.00     0.017 A 
BRANCH  26  30
HETATM   30  O   UNL     1      -7.674  -0.141 -35.006  1.00  0.00    -0.347 OA
BRANCH  30  31
HETATM   31  C   UNL     1      -6.365  -0.296 -34.446  1.00  0.00     0.214 C 
BRANCH  31  32
HETATM   32  C   UNL     1      -6.028  -1.765 -34.484  1.00  0.00    -0.034 A 
HETATM   33  C   UNL     1      -4.718  -2.200 -34.240  1.00  0.00     0.009 A 
HETATM   34  C   UNL     1      -4.398  -3.556 -34.313  1.00  0.00     0.001 A 
HETATM   35  C   UNL     1      -5.381  -4.489 -34.639  1.00  0.00     0.000 A 
HETATM   36  C   UNL     1      -6.684  -4.067 -34.895  1.00  0.00     0.001 A 
HETATM   37  C   UNL     1      -7.007  -2.712 -34.821  1.00  0.00     0.009 A 
ENDBRANCH  31  32
ENDBRANCH  30  31
ENDBRANCH  26  30
ENDBRANCH  21  24
ENDBRANCH   1  20
TORSDOF 8
ENDMDL
MODEL 3
REMARK VINA RESULT:      -9.8      1.563      3.935
REMARK  8 active torsions:
REMARK  status: ('A' for Active; 'I' for Inactive)
REMARK       I    between atoms: C_2  and  N_3 
REMARK    1  A    between atoms: N_6  and  C_7 
REMARK    2  A    between atoms: C_8  and  N_9 
REMARK    3  A    between atoms: N_9  and  C_10 
REMARK    4  A    between atoms: C_10  and  N_11 
REMARK       I    between atoms: N_11  and  C_12 
REMARK    5  A    between atoms: C_12  and  C_13 
REMARK    6  A    between atoms: C_15  and  O_16 
REMARK    7  A    between atoms: O_16  and  C_17 
REMARK    8  A    between atoms: C_17  and  C_18 
ROOT
HETATM    1  C   UNL     1      -3.887   3.359 -31.432  1.00  0.00     0.179 C 
HETATM    2  S   UNL     1      -5.130   3.898 -30.451  1.00  0.00    -0.040 SA
ENDROOT
BRANCH   1   3
HETATM    3  N   UNL     1      -2.665   3.920 -31.331  1.00  0.00    -0.331 N 
HETATM    4  H   UNL     1      -2.203   3.838 -30.428  1.00  0.00     0.168 HD
BRANCH   3   5
HETATM    5  C   UNL     1      -2.008   4.856 -32.165  1.00  0.00     0.061 A 
HETATM    6  C   UNL     1      -1.504   6.025 -31.526  1.00  0.00     0.057 A 
HETATM    7  C   UNL     1      -1.056   7.068 -32.347  1.00  0.00     0.031 A 
HETATM    8  C   UNL     1      -1.047   6.944 -33.741  1.00  0.00     0.002 A 
HETATM    9  C   UNL     1      -1.495   5.773 -34.343  1.00  0.00     0.002 A 
HETATM   10  C   UNL     1      -1.984   4.730 -33.558  1.00  0.00     0.032 A 
BRANCH   6  11
HETATM   11  N   UNL     1      -1.471   6.084 -30.117  1.00  0.00    -0.376 N 
HETATM   12  C   UNL     1      -0.105   5.865 -29.549  1.00  0.00     0.143 C 
HETATM   13  C   UNL     1       0.646   7.197 -29.353  1.00  0.00     0.145 C 
HETATM   14  N   UNL     1      -0.156   8.107 -28.527  1.00  0.00    -0.349 N 
HETATM   15  C   UNL     1      -0.007   8.241 -27.156  1.00  0.00     0.215 C 
HETATM   16  C   UNL     1      -1.461   8.408 -29.121  1.00  0.00     0.145 C 
HETATM   17  C   UNL     1       1.305   7.797 -26.560  1.00  0.00     0.117 C 
HETATM   18  O   UNL     1      -0.888   8.709 -26.434  1.00  0.00    -0.274 OA
HETATM   19  C   UNL     1      -2.260   7.114 -29.393  1.00  0.00     0.143 C 
ENDBRANCH   6  11
ENDBRANCH   3   5
ENDBRANCH   1   3
BRANCH   1  20
HETATM   20  N   UNL     1      -4.139   2.317 -32.270  1.00  0.00    -0.299 N 
HETATM   21  C   UNL     1      -3.729   1.003 -32.068  1.00  0.00     0.257 C 
HETATM   22  O   UNL     1      -2.839   0.609 -31.326  1.00  0.00    -0.267 OA
HETATM   23  H   UNL     1      -5.059   2.405 -32.683  1.00  0.00     0.171 HD
BRANCH  21  24
HETATM   24  C   UNL     1      -4.548  -0.001 -32.797  1.00  0.00     0.035 A 
HETATM   25  C   UNL     1      -5.941   0.099 -32.848  1.00  0.00     0.053 A 
HETATM   26  C   UNL     1      -6.674  -0.917 -33.456  1.00  0.00     0.070 A 
HETATM   27  C   UNL     1      -6.038  -2.003 -34.056  1.00  0.00     0.037 A 
HETATM   28  C   UNL     1      -4.646  -2.086 -34.030  1.00  0.00     0.004 A 
HETATM   29  C   UNL     1      -3.899  -1.087 -33.402  1.00  0.00     0.017 A 
BRANCH  26  30
HETATM   30  O   UNL     1      -8.032  -0.781 -33.504  1.00  0.00    -0.347 OA
BRANCH  30  31
HETATM   31  C   UNL     1      -8.473   0.279 -32.647  1.00  0.00     0.214 C 
BRANCH  31  32
HETATM   32  C   UNL     1      -9.630   0.962 -33.332  1.00  0.00    -0.034 A 
HETATM   33  C   UNL     1      -9.438   2.173 -34.010  1.00  0.00     0.009 A 
HETATM   34  C   UNL     1     -10.516   2.825 -34.611  1.00  0.00     0.001 A 
HETATM   35  C   UNL     1     -11.796   2.278 -34.531  1.00  0.00     0.000 A 
HETATM   36  C   UNL     1     -11.999   1.080 -33.850  1.00  0.00     0.001 A 
HETATM   37  C   UNL     1     -10.923   0.425 -33.250  1.00  0.00     0.009 A 
ENDBRANCH  31  32
ENDBRANCH  30  31
ENDBRANCH  26  30
ENDBRANCH  21  24
ENDBRANCH   1  20
TORSDOF 8
ENDMDL
MODEL 4
REMARK VINA RESULT:      -9.6      2.493     10.257
REMARK  8 active torsions:
REMARK  status: ('A' for Active; 'I' for Inactive)
REMARK       I    between atoms: C_2  and  N_3 
REMARK    1  A    between atoms: N_6  and  C_7 
REMARK    2  A    between atoms: C_8  and  N_9 
REMARK    3  A    between atoms: N_9  and  C_10 
REMARK    4  A    between atoms: C_10  and  N_11 
REMARK       I    between atoms: N_11  and  C_12 
REMARK    5  A    between atoms: C_12  and  C_13 
REMARK    6  A    between atoms: C_15  and  O_16 
REMARK    7  A    between atoms: O_16  and  C_17 
REMARK    8  A    between atoms: C_17  and  C_18 
ROOT
HETATM    1  C   UNL     1      -5.299   2.176 -30.867  1.00  0.00     0.179 C 
HETATM    2  S   UNL     1      -6.302   3.243 -30.059  1.00  0.00    -0.040 SA
ENDROOT
BRANCH   1   3
HETATM    3  N   UNL     1      -5.664   0.885 -30.999  1.00  0.00    -0.331 N 
HETATM    4  H   UNL     1      -5.717   0.340 -30.141  1.00  0.00     0.168 HD
BRANCH   3   5
HETATM    5  C   UNL     1      -5.718   0.054 -32.144  1.00  0.00     0.061 A 
HETATM    6  C   UNL     1      -6.973  -0.014 -32.814  1.00  0.00     0.057 A 
HETATM    7  C   UNL     1      -7.124  -0.993 -33.806  1.00  0.00     0.031 A 
HETATM    8  C   UNL     1      -6.064  -1.831 -34.166  1.00  0.00     0.002 A 
HETATM    9  C   UNL     1      -4.830  -1.713 -33.535  1.00  0.00     0.002 A 
HETATM   10  C   UNL     1      -4.657  -0.777 -32.518  1.00  0.00     0.032 A 
BRANCH   6  11
HETATM   11  N   UNL     1      -7.995   0.894 -32.464  1.00  0.00    -0.376 N 
HETATM   12  C   UNL     1      -8.109   2.047 -33.410  1.00  0.00     0.143 C 
HETATM   13  C   UNL     1      -9.122   1.759 -34.535  1.00  0.00     0.145 C 
HETATM   14  N   UNL     1     -10.419   1.388 -33.958  1.00  0.00    -0.349 N 
HETATM   15  C   UNL     1     -11.457   2.282 -33.750  1.00  0.00     0.215 C 
HETATM   16  C   UNL     1     -10.340   0.198 -33.106  1.00  0.00     0.145 C 
HETATM   17  C   UNL     1     -11.435   3.559 -34.551  1.00  0.00     0.117 C 
HETATM   18  O   UNL     1     -12.375   2.063 -32.959  1.00  0.00    -0.274 OA
HETATM   19  C   UNL     1      -9.305   0.392 -31.976  1.00  0.00     0.143 C 
ENDBRANCH   6  11
ENDBRANCH   3   5
ENDBRANCH   1   3
BRANCH   1  20
HETATM   20  N   UNL     1      -4.160   2.668 -31.426  1.00  0.00    -0.299 N 
HETATM   21  C   UNL     1      -4.095   3.428 -32.591  1.00  0.00     0.257 C 
HETATM   22  O   UNL     1      -4.945   3.516 -33.466  1.00  0.00    -0.267 OA
HETATM   23  H   UNL     1      -3.505   2.952 -30.709  1.00  0.00     0.171 HD
BRANCH  21  24
HETATM   24  C   UNL     1      -2.872   4.267 -32.694  1.00  0.00     0.035 A 
HETATM   25  C   UNL     1      -2.016   4.437 -31.602  1.00  0.00     0.053 A 
HETATM   26  C   UNL     1      -0.938   5.311 -31.714  1.00  0.00     0.070 A 
HETATM   27  C   UNL     1      -0.672   5.977 -32.910  1.00  0.00     0.037 A 
HETATM   28  C   UNL     1      -1.511   5.782 -34.008  1.00  0.00     0.004 A 
HETATM   29  C   UNL     1      -2.610   4.927 -33.902  1.00  0.00     0.017 A 
BRANCH  26  30
HETATM   30  O   UNL     1      -0.111   5.444 -30.635  1.00  0.00    -0.347 OA
BRANCH  30  31
HETATM   31  C   UNL     1       0.291   6.807 -30.460  1.00  0.00     0.214 C 
BRANCH  31  32
HETATM   32  C   UNL     1       0.491   7.034 -28.983  1.00  0.00    -0.034 A 
HETATM   33  C   UNL     1      -0.074   6.157 -28.048  1.00  0.00     0.009 A 
HETATM   34  C   UNL     1       0.079   6.389 -26.680  1.00  0.00     0.001 A 
HETATM   35  C   UNL     1       0.789   7.503 -26.235  1.00  0.00     0.000 A 
HETATM   36  C   UNL     1       1.345   8.387 -27.157  1.00  0.00     0.001 A 
HETATM   37  C   UNL     1       1.196   8.157 -28.525  1.00  0.00     0.009 A 
ENDBRANCH  31  32
ENDBRANCH  30  31
ENDBRANCH  26  30
ENDBRANCH  21  24
ENDBRANCH   1  20
TORSDOF 8
ENDMDL
MODEL 5
REMARK VINA RESULT:      -9.4      2.101      2.881
REMARK  8 active torsions:
REMARK  status: ('A' for Active; 'I' for Inactive)
REMARK       I    between atoms: C_2  and  N_3 
REMARK    1  A    between atoms: N_6  and  C_7 
REMARK    2  A    between atoms: C_8  and  N_9 
REMARK    3  A    between atoms: N_9  and  C_10 
REMARK    4  A    between atoms: C_10  and  N_11 
REMARK       I    between atoms: N_11  and  C_12 
REMARK    5  A    between atoms: C_12  and  C_13 
REMARK    6  A    between atoms: C_15  and  O_16 
REMARK    7  A    between atoms: O_16  and  C_17 
REMARK    8  A    between atoms: C_17  and  C_18 
ROOT
HETATM    1  C   UNL     1      -4.002   5.514 -31.516  1.00  0.00     0.179 C 
HETATM    2  S   UNL     1      -4.160   6.680 -32.705  1.00  0.00    -0.040 SA
ENDROOT
BRANCH   1   3
HETATM    3  N   UNL     1      -3.243   5.764 -30.430  1.00  0.00    -0.331 N 
HETATM    4  H   UNL     1      -3.742   5.969 -29.567  1.00  0.00     0.168 HD
BRANCH   3   5
HETATM    5  C   UNL     1      -1.867   6.078 -30.320  1.00  0.00     0.061 A 
HETATM    6  C   UNL     1      -1.519   7.055 -29.344  1.00  0.00     0.057 A 
HETATM    7  C   UNL     1      -0.209   7.552 -29.364  1.00  0.00     0.031 A 
HETATM    8  C   UNL     1       0.739   7.064 -30.270  1.00  0.00     0.002 A 
HETATM    9  C   UNL     1       0.392   6.071 -31.181  1.00  0.00     0.002 A 
HETATM   10  C   UNL     1      -0.912   5.582 -31.214  1.00  0.00     0.032 A 
BRANCH   6  11
HETATM   11  N   UNL     1      -2.488   7.473 -28.408  1.00  0.00    -0.376 N 
HETATM   12  C   UNL     1      -2.333   6.824 -27.069  1.00  0.00     0.143 C 
HETATM   13  C   UNL     1      -1.452   7.670 -26.128  1.00  0.00     0.145 C 
HETATM   14  N   UNL     1      -1.994   9.031 -26.024  1.00  0.00    -0.349 N 
HETATM   15  C   UNL     1      -2.841   9.450 -25.011  1.00  0.00     0.215 C 
HETATM   16  C   UNL     1      -2.059   9.714 -27.318  1.00  0.00     0.145 C 
HETATM   17  C   UNL     1      -2.843   8.642 -23.739  1.00  0.00     0.117 C 
HETATM   18  O   UNL     1      -3.564  10.441 -25.117  1.00  0.00    -0.274 OA
HETATM   19  C   UNL     1      -2.891   8.901 -28.335  1.00  0.00     0.143 C 
ENDBRANCH   6  11
ENDBRANCH   3   5
ENDBRANCH   1   3
BRANCH   1  20
HETATM   20  N   UNL     1      -4.704   4.357 -31.658  1.00  0.00    -0.299 N 
HETATM   21  C   UNL     1      -4.174   3.136 -32.068  1.00  0.00     0.257 C 
HETATM   22  O   UNL     1      -3.122   2.948 -32.663  1.00  0.00    -0.267 OA
HETATM   23  H   UNL     1      -5.414   4.280 -30.941  1.00  0.00     0.171 HD
BRANCH  21  24
HETATM   24  C   UNL     1      -4.975   1.959 -31.639  1.00  0.00     0.035 A 
HETATM   25  C   UNL     1      -5.586   1.119 -32.573  1.00  0.00     0.053 A 
HETATM   26  C   UNL     1      -6.407   0.088 -32.125  1.00  0.00     0.070 A 
HETATM   27  C   UNL     1      -6.589  -0.147 -30.763  1.00  0.00     0.037 A 
HETATM   28  C   UNL     1      -5.954   0.674 -29.831  1.00  0.00     0.004 A 
HETATM   29  C   UNL     1      -5.146   1.728 -30.266  1.00  0.00     0.017 A 
BRANCH  26  30
HETATM   30  O   UNL     1      -6.977  -0.726 -33.062  1.00  0.00    -0.347 OA
BRANCH  30  31
HETATM   31  C   UNL     1      -6.148  -0.829 -34.225  1.00  0.00     0.214 C 
BRANCH  31  32
HETATM   32  C   UNL     1      -5.728  -2.271 -34.356  1.00  0.00    -0.034 A 
HETATM   33  C   UNL     1      -6.642  -3.240 -34.791  1.00  0.00     0.009 A 
HETATM   34  C   UNL     1      -6.265  -4.581 -34.875  1.00  0.00     0.001 A 
HETATM   35  C   UNL     1      -4.975  -4.967 -34.516  1.00  0.00     0.000 A 
HETATM   36  C   UNL     1      -4.061  -4.014 -34.071  1.00  0.00     0.001 A 
HETATM   37  C   UNL     1      -4.435  -2.672 -33.988  1.00  0.00     0.009 A 
ENDBRANCH  31  32
ENDBRANCH  30  31
ENDBRANCH  26  30
ENDBRANCH  21  24
ENDBRANCH   1  20
TORSDOF 8
ENDMDL
MODEL 6
REMARK VINA RESULT:      -9.2      2.203      2.943
REMARK  8 active torsions:
REMARK  status: ('A' for Active; 'I' for Inactive)
REMARK       I    between atoms: C_2  and  N_3 
REMARK    1  A    between atoms: N_6  and  C_7 
REMARK    2  A    between atoms: C_8  and  N_9 
REMARK    3  A    between atoms: N_9  and  C_10 
REMARK    4  A    between atoms: C_10  and  N_11 
REMARK       I    between atoms: N_11  and  C_12 
REMARK    5  A    between atoms: C_12  and  C_13 
REMARK    6  A    between atoms: C_15  and  O_16 
REMARK    7  A    between atoms: O_16  and  C_17 
REMARK    8  A    between atoms: C_17  and  C_18 
ROOT
HETATM    1  C   UNL     1      -3.397   4.963 -33.176  1.00  0.00     0.179 C 
HETATM    2  S   UNL     1      -2.890   5.427 -34.701  1.00  0.00    -0.040 SA
ENDROOT
BRANCH   1   3
HETATM    3  N   UNL     1      -3.104   5.736 -32.111  1.00  0.00    -0.331 N 
HETATM    4  H   UNL     1      -3.796   6.437 -31.857  1.00  0.00     0.168 HD
BRANCH   3   5
HETATM    5  C   UNL     1      -1.877   5.951 -31.438  1.00  0.00     0.061 A 
HETATM    6  C   UNL     1      -1.848   7.033 -30.511  1.00  0.00     0.057 A 
HETATM    7  C   UNL     1      -0.600   7.415 -30.002  1.00  0.00     0.031 A 
HETATM    8  C   UNL     1       0.566   6.722 -30.344  1.00  0.00     0.002 A 
HETATM    9  C   UNL     1       0.509   5.636 -31.210  1.00  0.00     0.002 A 
HETATM   10  C   UNL     1      -0.710   5.253 -31.765  1.00  0.00     0.032 A 
BRANCH   6  11
HETATM   11  N   UNL     1      -3.057   7.663 -30.144  1.00  0.00    -0.376 N 
HETATM   12  C   UNL     1      -3.615   7.159 -28.851  1.00  0.00     0.143 C 
HETATM   13  C   UNL     1      -3.127   8.002 -27.657  1.00  0.00     0.145 C 
HETATM   14  N   UNL     1      -3.444   9.418 -27.881  1.00  0.00    -0.349 N 
HETATM   15  C   UNL     1      -4.578  10.044 -27.391  1.00  0.00     0.215 C 
HETATM   16  C   UNL     1      -2.820   9.951 -29.095  1.00  0.00     0.145 C 
HETATM   17  C   UNL     1      -5.271   9.393 -26.221  1.00  0.00     0.117 C 
HETATM   18  O   UNL     1      -5.017  11.091 -27.865  1.00  0.00    -0.274 OA
HETATM   19  C   UNL     1      -3.225   9.126 -30.337  1.00  0.00     0.143 C 
ENDBRANCH   6  11
ENDBRANCH   3   5
ENDBRANCH   1   3
BRANCH   1  20
HETATM   20  N   UNL     1      -4.152   3.836 -33.068  1.00  0.00    -0.299 N 
HETATM   21  C   UNL     1      -3.936   2.806 -32.156  1.00  0.00     0.257 C 
HETATM   22  O   UNL     1      -2.906   2.563 -31.542  1.00  0.00    -0.267 OA
HETATM   23  H   UNL     1      -5.128   4.042 -33.236  1.00  0.00     0.171 HD
BRANCH  21  24
HETATM   24  C   UNL     1      -5.147   1.990 -31.874  1.00  0.00     0.035 A 
HETATM   25  C   UNL     1      -5.554   0.974 -32.742  1.00  0.00     0.053 A 
HETATM   26  C   UNL     1      -6.749   0.303 -32.490  1.00  0.00     0.070 A 
HETATM   27  C   UNL     1      -7.514   0.596 -31.363  1.00  0.00     0.037 A 
HETATM   28  C   UNL     1      -7.090   1.590 -30.481  1.00  0.00     0.004 A 
HETATM   29  C   UNL     1      -5.907   2.288 -30.734  1.00  0.00     0.017 A 
BRANCH  26  30
HETATM   30  O   UNL     1      -7.111  -0.696 -33.348  1.00  0.00    -0.347 OA
BRANCH  30  31
HETATM   31  C   UNL     1      -6.164  -0.825 -34.415  1.00  0.00     0.214 C 
BRANCH  31  32
HETATM   32  C   UNL     1      -5.736  -2.269 -34.467  1.00  0.00    -0.034 A 
HETATM   33  C   UNL     1      -6.641  -3.266 -34.855  1.00  0.00     0.009 A 
HETATM   34  C   UNL     1      -6.255  -4.607 -34.865  1.00  0.00     0.001 A 
HETATM   35  C   UNL     1      -4.965  -4.965 -34.479  1.00  0.00     0.000 A 
HETATM   36  C   UNL     1      -4.060  -3.984 -34.081  1.00  0.00     0.001 A 
HETATM   37  C   UNL     1      -4.442  -2.642 -34.071  1.00  0.00     0.009 A 
ENDBRANCH  31  32
ENDBRANCH  30  31
ENDBRANCH  26  30
ENDBRANCH  21  24
ENDBRANCH   1  20
TORSDOF 8
ENDMDL
MODEL 7
REMARK VINA RESULT:      -9.0      2.288      3.760
REMARK  8 active torsions:
REMARK  status: ('A' for Active; 'I' for Inactive)
REMARK       I    between atoms: C_2  and  N_3 
REMARK    1  A    between atoms: N_6  and  C_7 
REMARK    2  A    between atoms: C_8  and  N_9 
REMARK    3  A    between atoms: N_9  and  C_10 
REMARK    4  A    between atoms: C_10  and  N_11 
REMARK       I    between atoms: N_11  and  C_12 
REMARK    5  A    between atoms: C_12  and  C_13 
REMARK    6  A    between atoms: C_15  and  O_16 
REMARK    7  A    between atoms: O_16  and  C_17 
REMARK    8  A    between atoms: C_17  and  C_18 
ROOT
HETATM    1  C   UNL     1      -3.347   6.414 -32.216  1.00  0.00     0.179 C 
HETATM    2  S   UNL     1      -2.225   7.036 -33.288  1.00  0.00    -0.040 SA
ENDROOT
BRANCH   1   3
HETATM    3  N   UNL     1      -3.953   7.232 -31.332  1.00  0.00    -0.331 N 
HETATM    4  H   UNL     1      -3.838   8.231 -31.489  1.00  0.00     0.168 HD
BRANCH   3   5
HETATM    5  C   UNL     1      -4.490   6.967 -30.049  1.00  0.00     0.061 A 
HETATM    6  C   UNL     1      -3.634   7.226 -28.941  1.00  0.00     0.057 A 
HETATM    7  C   UNL     1      -4.046   6.765 -27.684  1.00  0.00     0.031 A 
HETATM    8  C   UNL     1      -5.279   6.127 -27.513  1.00  0.00     0.002 A 
HETATM    9  C   UNL     1      -6.124   5.930 -28.600  1.00  0.00     0.002 A 
HETATM   10  C   UNL     1      -5.729   6.342 -29.871  1.00  0.00     0.032 A 
BRANCH   6  11
HETATM   11  N   UNL     1      -2.428   7.930 -29.148  1.00  0.00    -0.376 N 
HETATM   12  C   UNL     1      -2.363   9.221 -28.395  1.00  0.00     0.143 C 
HETATM   13  C   UNL     1      -1.704   9.039 -27.014  1.00  0.00     0.145 C 
HETATM   14  N   UNL     1      -0.382   8.421 -27.167  1.00  0.00    -0.349 N 
HETATM   15  C   UNL     1       0.803   9.136 -27.232  1.00  0.00     0.215 C 
HETATM   16  C   UNL     1      -0.443   7.108 -27.815  1.00  0.00     0.145 C 
HETATM   17  C   UNL     1       0.792  10.536 -26.672  1.00  0.00     0.117 C 
HETATM   18  O   UNL     1       1.836   8.669 -27.712  1.00  0.00    -0.274 OA
HETATM   19  C   UNL     1      -1.135   7.200 -29.193  1.00  0.00     0.143 C 
ENDBRANCH   6  11
ENDBRANCH   3   5
ENDBRANCH   1   3
BRANCH   1  20
HETATM   20  N   UNL     1      -3.662   5.093 -32.314  1.00  0.00    -0.299 N 
HETATM   21  C   UNL     1      -2.973   4.052 -31.698  1.00  0.00     0.257 C 
HETATM   22  O   UNL     1      -1.833   4.078 -31.253  1.00  0.00    -0.267 OA
HETATM   23  H   UNL     1      -4.665   4.967 -32.342  1.00  0.00     0.171 HD
BRANCH  21  24
HETATM   24  C   UNL     1      -3.785   2.821 -31.513  1.00  0.00     0.035 A 
HETATM   25  C   UNL     1      -3.620   1.711 -32.346  1.00  0.00     0.053 A 
HETATM   26  C   UNL     1      -4.470   0.619 -32.200  1.00  0.00     0.070 A 
HETATM   27  C   UNL     1      -5.448   0.595 -31.206  1.00  0.00     0.037 A 
HETATM   28  C   UNL     1      -5.591   1.691 -30.356  1.00  0.00     0.004 A 
HETATM   29  C   UNL     1      -4.761   2.805 -30.507  1.00  0.00     0.017 A 
BRANCH  26  30
HETATM   30  O   UNL     1      -4.273  -0.456 -33.019  1.00  0.00    -0.347 OA
BRANCH  30  31
HETATM   31  C   UNL     1      -5.391  -0.650 -33.893  1.00  0.00     0.214 C 
BRANCH  31  32
HETATM   32  C   UNL     1      -5.499  -2.128 -34.170  1.00  0.00    -0.034 A 
HETATM   33  C   UNL     1      -4.373  -2.955 -34.056  1.00  0.00     0.009 A 
HETATM   34  C   UNL     1      -4.464  -4.316 -34.351  1.00  0.00     0.001 A 
HETATM   35  C   UNL     1      -5.677  -4.861 -34.770  1.00  0.00     0.000 A 
HETATM   36  C   UNL     1      -6.799  -4.045 -34.897  1.00  0.00     0.001 A 
HETATM   37  C   UNL     1      -6.712  -2.684 -34.602  1.00  0.00     0.009 A 
ENDBRANCH  31  32
ENDBRANCH  30  31
ENDBRANCH  26  30
ENDBRANCH  21  24
ENDBRANCH   1  20
TORSDOF 8
ENDMDL
MODEL 8
REMARK VINA RESULT:      -8.8      2.302      4.666
REMARK  8 active torsions:
REMARK  status: ('A' for Active; 'I' for Inactive)
REMARK       I    between atoms: C_2  and  N_3 
REMARK    1  A    between atoms: N_6  and  C_7 
REMARK    2  A    between atoms: C_8  and  N_9 
REMARK    3  A    between atoms: N_9  and  C_10 
REMARK    4  A    between atoms: C_10  and  N_11 
REMARK       I    between atoms: N_11  and  C_12 
REMARK    5  A    between atoms: C_12  and  C_13 
REMARK    6  A    between atoms: C_15  and  O_16 
REMARK    7  A    between atoms: O_16  and  C_17 
REMARK    8  A    between atoms: C_17  and  C_18 
ROOT
HETATM    1  C   UNL     1      -4.607   4.123 -31.163  1.00  0.00     0.179 C 
HETATM    2  S   UNL     1      -5.408   5.040 -30.017  1.00  0.00    -0.040 SA
ENDROOT
BRANCH   1   3
HETATM    3  N   UNL     1      -3.263   4.192 -31.255  1.00  0.00    -0.331 N 
HETATM    4  H   UNL     1      -2.737   3.858 -30.451  1.00  0.00     0.168 HD
BRANCH   3   5
HETATM    5  C   UNL     1      -2.436   4.908 -32.154  1.00  0.00     0.061 A 
HETATM    6  C   UNL     1      -1.695   5.991 -31.601  1.00  0.00     0.057 A 
HETATM    7  C   UNL     1      -1.049   6.856 -32.495  1.00  0.00     0.031 A 
HETATM    8  C   UNL     1      -1.082   6.630 -33.875  1.00  0.00     0.002 A 
HETATM    9  C   UNL     1      -1.769   5.536 -34.391  1.00  0.00     0.002 A 
HETATM   10  C   UNL     1      -2.454   4.678 -33.534  1.00  0.00     0.032 A 
BRANCH   6  11
HETATM   11  N   UNL     1      -1.635   6.145 -30.200  1.00  0.00    -0.376 N 
HETATM   12  C   UNL     1      -0.282   5.854 -29.632  1.00  0.00     0.143 C 
HETATM   13  C   UNL     1       0.579   7.129 -29.537  1.00  0.00     0.145 C 
HETATM   14  N   UNL     1      -0.132   8.158 -28.770  1.00  0.00    -0.349 N 
HETATM   15  C   UNL     1       0.049   8.374 -27.414  1.00  0.00     0.215 C 
HETATM   16  C   UNL     1      -1.417   8.524 -29.371  1.00  0.00     0.145 C 
HETATM   17  C   UNL     1       1.329   7.865 -26.802  1.00  0.00     0.117 C 
HETATM   18  O   UNL     1      -0.779   8.963 -26.718  1.00  0.00    -0.274 OA
HETATM   19  C   UNL     1      -2.324   7.286 -29.543  1.00  0.00     0.143 C 
ENDBRANCH   6  11
ENDBRANCH   3   5
ENDBRANCH   1   3
BRANCH   1  20
HETATM   20  N   UNL     1      -5.343   3.279 -31.937  1.00  0.00    -0.299 N 
HETATM   21  C   UNL     1      -5.612   1.945 -31.645  1.00  0.00     0.257 C 
HETATM   22  O   UNL     1      -5.008   1.221 -30.865  1.00  0.00    -0.267 OA
HETATM   23  H   UNL     1      -6.114   3.772 -32.368  1.00  0.00     0.171 HD
BRANCH  21  24
HETATM   24  C   UNL     1      -6.825   1.415 -32.321  1.00  0.00     0.035 A 
HETATM   25  C   UNL     1      -7.990   2.179 -32.424  1.00  0.00     0.053 A 
HETATM   26  C   UNL     1      -9.133   1.606 -32.976  1.00  0.00     0.070 A 
HETATM   27  C   UNL     1      -9.117   0.303 -33.469  1.00  0.00     0.037 A 
HETATM   28  C   UNL     1      -7.945  -0.449 -33.393  1.00  0.00     0.004 A 
HETATM   29  C   UNL     1      -6.798   0.105 -32.819  1.00  0.00     0.017 A 
BRANCH  26  30
HETATM   30  O   UNL     1     -10.251   2.385 -33.078  1.00  0.00    -0.347 OA
BRANCH  30  31
HETATM   31  C   UNL     1     -10.955   2.117 -34.296  1.00  0.00     0.214 C 
BRANCH  31  32
HETATM   32  C   UNL     1     -12.407   1.918 -33.944  1.00  0.00    -0.034 A 
HETATM   33  C   UNL     1     -12.999   2.670 -32.921  1.00  0.00     0.009 A 
HETATM   34  C   UNL     1     -14.334   2.458 -32.570  1.00  0.00     0.001 A 
HETATM   35  C   UNL     1     -15.084   1.488 -33.231  1.00  0.00     0.000 A 
HETATM   36  C   UNL     1     -14.502   0.727 -34.242  1.00  0.00     0.001 A 
HETATM   37  C   UNL     1     -13.169   0.937 -34.597  1.00  0.00     0.009 A 
ENDBRANCH  31  32
ENDBRANCH  30  31
ENDBRANCH  26  30
ENDBRANCH  21  24
ENDBRANCH   1  20
TORSDOF 8
ENDMDL
MODEL 9
REMARK VINA RESULT:      -8.7      2.524      9.384
REMARK  8 active torsions:
REMARK  status: ('A' for Active; 'I' for Inactive)
REMARK       I    between atoms: C_2  and  N_3 
REMARK    1  A    between atoms: N_6  and  C_7 
REMARK    2  A    between atoms: C_8  and  N_9 
REMARK    3  A    between atoms: N_9  and  C_10 
REMARK    4  A    between atoms: C_10  and  N_11 
REMARK       I    between atoms: N_11  and  C_12 
REMARK    5  A    between atoms: C_12  and  C_13 
REMARK    6  A    between atoms: C_15  and  O_16 
REMARK    7  A    between atoms: O_16  and  C_17 
REMARK    8  A    between atoms: C_17  and  C_18 
ROOT
HETATM    1  C   UNL     1      -5.303   6.293 -29.580  1.00  0.00     0.179 C 
HETATM    2  S   UNL     1      -6.893   6.642 -29.966  1.00  0.00    -0.040 SA
ENDROOT
BRANCH   1   3
HETATM    3  N   UNL     1      -4.664   5.294 -30.221  1.00  0.00    -0.331 N 
HETATM    4  H   UNL     1      -4.526   4.434 -29.695  1.00  0.00     0.168 HD
BRANCH   3   5
HETATM    5  C   UNL     1      -3.888   5.306 -31.405  1.00  0.00     0.061 A 
HETATM    6  C   UNL     1      -3.568   4.035 -31.963  1.00  0.00     0.057 A 
HETATM    7  C   UNL     1      -2.621   4.001 -32.994  1.00  0.00     0.031 A 
HETATM    8  C   UNL     1      -2.055   5.177 -33.499  1.00  0.00     0.002 A 
HETATM    9  C   UNL     1      -2.420   6.412 -32.976  1.00  0.00     0.002 A 
HETATM   10  C   UNL     1      -3.330   6.480 -31.923  1.00  0.00     0.032 A 
BRANCH   6  11
HETATM   11  N   UNL     1      -4.211   2.881 -31.467  1.00  0.00    -0.376 N 
HETATM   12  C   UNL     1      -5.603   2.711 -31.988  1.00  0.00     0.143 C 
HETATM   13  C   UNL     1      -5.628   1.847 -33.265  1.00  0.00     0.145 C 
HETATM   14  N   UNL     1      -4.972   0.559 -33.011  1.00  0.00    -0.349 N 
HETATM   15  C   UNL     1      -5.648  -0.596 -32.655  1.00  0.00     0.215 C 
HETATM   16  C   UNL     1      -3.575   0.708 -32.594  1.00  0.00     0.145 C 
HETATM   17  C   UNL     1      -7.118  -0.660 -32.983  1.00  0.00     0.117 C 
HETATM   18  O   UNL     1      -5.095  -1.547 -32.103  1.00  0.00    -0.274 OA
HETATM   19  C   UNL     1      -3.462   1.604 -31.340  1.00  0.00     0.143 C 
ENDBRANCH   6  11
ENDBRANCH   3   5
ENDBRANCH   1   3
BRANCH   1  20
HETATM   20  N   UNL     1      -4.681   7.079 -28.660  1.00  0.00    -0.299 N 
HETATM   21  C   UNL     1      -4.586   6.808 -27.298  1.00  0.00     0.257 C 
HETATM   22  O   UNL     1      -5.280   6.039 -26.646  1.00  0.00    -0.267 OA
HETATM   23  H   UNL     1      -3.852   7.503 -29.056  1.00  0.00     0.171 HD
BRANCH  21  24
HETATM   24  C   UNL     1      -3.450   7.492 -26.626  1.00  0.00     0.035 A 
HETATM   25  C   UNL     1      -2.131   7.081 -26.835  1.00  0.00     0.053 A 
HETATM   26  C   UNL     1      -1.108   7.685 -26.108  1.00  0.00     0.070 A 
HETATM   27  C   UNL     1      -1.375   8.723 -25.217  1.00  0.00     0.037 A 
HETATM   28  C   UNL     1      -2.689   9.152 -25.033  1.00  0.00     0.004 A 
HETATM   29  C   UNL     1      -3.728   8.539 -25.736  1.00  0.00     0.017 A 
BRANCH  26  30
HETATM   30  O   UNL     1       0.172   7.272 -26.346  1.00  0.00    -0.347 OA
BRANCH  30  31
HETATM   31  C   UNL     1       0.738   7.969 -27.462  1.00  0.00     0.214 C 
BRANCH  31  32
HETATM   32  C   UNL     1       0.664   7.050 -28.655  1.00  0.00    -0.034 A 
HETATM   33  C   UNL     1       0.783   5.663 -28.491  1.00  0.00     0.009 A 
HETATM   34  C   UNL     1       0.754   4.815 -29.599  1.00  0.00     0.001 A 
HETATM   35  C   UNL     1       0.615   5.345 -30.880  1.00  0.00     0.000 A 
HETATM   36  C   UNL     1       0.507   6.723 -31.056  1.00  0.00     0.001 A 
HETATM   37  C   UNL     1       0.535   7.573 -29.950  1.00  0.00     0.009 A 
ENDBRANCH  31  32
ENDBRANCH  30  31
ENDBRANCH  26  30
ENDBRANCH  21  24
ENDBRANCH   1  20
TORSDOF 8
ENDMDL
MODEL 10
REMARK VINA RESULT:      -8.6      3.261      9.741
REMARK  8 active torsions:
REMARK  status: ('A' for Active; 'I' for Inactive)
REMARK       I    between atoms: C_2  and  N_3 
REMARK    1  A    between atoms: N_6  and  C_7 
REMARK    2  A    between atoms: C_8  and  N_9 
REMARK    3  A    between atoms: N_9  and  C_10 
REMARK    4  A    between atoms: C_10  and  N_11 
REMARK       I    between atoms: N_11  and  C_12 
REMARK    5  A    between atoms: C_12  and  C_13 
REMARK    6  A    between atoms: C_15  and  O_16 
REMARK    7  A    between atoms: O_16  and  C_17 
REMARK    8  A    between atoms: C_17  and  C_18 
ROOT
HETATM    1  C   UNL     1      -5.997   6.522 -29.698  1.00  0.00     0.179 C 
HETATM    2  S   UNL     1      -7.040   7.414 -30.653  1.00  0.00    -0.040 SA
ENDROOT
BRANCH   1   3
HETATM    3  N   UNL     1      -5.771   5.224 -29.987  1.00  0.00    -0.331 N 
HETATM    4  H   UNL     1      -6.122   4.544 -29.317  1.00  0.00     0.168 HD
BRANCH   3   5
HETATM    5  C   UNL     1      -4.882   4.627 -30.914  1.00  0.00     0.061 A 
HETATM    6  C   UNL     1      -5.344   3.443 -31.557  1.00  0.00     0.057 A 
HETATM    7  C   UNL     1      -4.413   2.706 -32.300  1.00  0.00     0.031 A 
HETATM    8  C   UNL     1      -3.095   3.148 -32.455  1.00  0.00     0.002 A 
HETATM    9  C   UNL     1      -2.678   4.334 -31.862  1.00  0.00     0.002 A 
HETATM   10  C   UNL     1      -3.567   5.072 -31.083  1.00  0.00     0.032 A 
BRANCH   6  11
HETATM   11  N   UNL     1      -6.698   3.068 -31.427  1.00  0.00    -0.376 N 
HETATM   12  C   UNL     1      -7.551   3.538 -32.562  1.00  0.00     0.143 C 
HETATM   13  C   UNL     1      -7.645   2.477 -33.677  1.00  0.00     0.145 C 
HETATM   14  N   UNL     1      -8.120   1.205 -33.118  1.00  0.00    -0.349 N 
HETATM   15  C   UNL     1      -9.445   0.804 -33.127  1.00  0.00     0.215 C 
HETATM   16  C   UNL     1      -7.237   0.684 -32.071  1.00  0.00     0.145 C 
HETATM   17  C   UNL     1     -10.355   1.460 -34.134  1.00  0.00     0.117 C 
HETATM   18  O   UNL     1      -9.884  -0.056 -32.363  1.00  0.00    -0.274 OA
HETATM   19  C   UNL     1      -7.055   1.713 -30.934  1.00  0.00     0.143 C 
ENDBRANCH   6  11
ENDBRANCH   3   5
ENDBRANCH   1   3
BRANCH   1  20
HETATM   20  N   UNL     1      -5.356   7.160 -28.681  1.00  0.00    -0.299 N 
HETATM   21  C   UNL     1      -5.083   6.613 -27.430  1.00  0.00     0.257 C 
HETATM   22  O   UNL     1      -5.619   5.643 -26.912  1.00  0.00    -0.267 OA
HETATM   23  H   UNL     1      -4.623   7.757 -29.041  1.00  0.00     0.171 HD
BRANCH  21  24
HETATM   24  C   UNL     1      -3.952   7.268 -26.722  1.00  0.00     0.035 A 
HETATM   25  C   UNL     1      -2.632   6.862 -26.933  1.00  0.00     0.053 A 
HETATM   26  C   UNL     1      -1.615   7.436 -26.174  1.00  0.00     0.070 A 
HETATM   27  C   UNL     1      -1.888   8.440 -25.247  1.00  0.00     0.037 A 
HETATM   28  C   UNL     1      -3.203   8.866 -25.059  1.00  0.00     0.004 A 
HETATM   29  C   UNL     1      -4.237   8.282 -25.796  1.00  0.00     0.017 A 
BRANCH  26  30
HETATM   30  O   UNL     1      -0.333   7.029 -26.415  1.00  0.00    -0.347 OA
BRANCH  30  31
HETATM   31  C   UNL     1       0.281   7.837 -27.425  1.00  0.00     0.214 C 
BRANCH  31  32
HETATM   32  C   UNL     1       0.449   6.978 -28.653  1.00  0.00    -0.034 A 
HETATM   33  C   UNL     1       0.278   7.525 -29.931  1.00  0.00     0.009 A 
HETATM   34  C   UNL     1       0.395   6.720 -31.066  1.00  0.00     0.001 A 
HETATM   35  C   UNL     1       0.676   5.362 -30.933  1.00  0.00     0.000 A 
HETATM   36  C   UNL     1       0.838   4.805 -29.665  1.00  0.00     0.001 A 
HETATM   37  C   UNL     1       0.723   5.607 -28.530  1.00  0.00     0.009 A 
ENDBRANCH  31  32
ENDBRANCH  30  31
ENDBRANCH  26  30
ENDBRANCH  21  24
ENDBRANCH   1  20
TORSDOF 8
ENDMDL
