MODEL 1
REMARK VINA RESULT:      -8.9      0.000      0.000
REMARK  4 active torsions:
REMARK  status: ('A' for Active; 'I' for Inactive)
REMARK    1  A    between atoms: C_3  and  N_4 
REMARK       I    between atoms: N_4  and  C_5 
REMARK    2  A    between atoms: C_5  and  C_6 
REMARK    3  A    between atoms: C_7  and  C_8 
REMARK    4  A    between atoms: C_11  and  O_12 
ROOT
HETATM    1  C   UNL     1      -7.456   1.760 -31.807  1.00  0.00     0.062 C 
HETATM    2  C   UNL     1      -6.571   2.603 -30.903  1.00  0.00     0.202 C 
HETATM    3  N   UNL     1      -7.326   3.724 -30.339  1.00  0.00    -0.083 N 
HETATM    4  C   UNL     1      -8.539   4.141 -30.815  1.00  0.00     0.726 A 
HETATM    5  N   UNL     1      -9.123   3.457 -31.821  1.00  0.00    -0.192 N 
HETATM    6  N   UNL     1      -6.936   4.446 -29.269  1.00  0.00    -0.141 NA
HETATM    7  C   UNL     1      -7.942   5.331 -29.188  1.00  0.00     0.162 A 
HETATM    8  C   UNL     1      -7.993   6.380 -28.150  1.00  0.00     0.096 C 
HETATM    9  N   UNL     1      -8.945   5.173 -30.120  1.00  0.00    -0.046 NA
HETATM   10  C   UNL     1      -8.666   2.205 -32.231  1.00  0.00     0.037 C 
HETATM   11  C   UNL     1      -9.604   1.413 -33.107  1.00  0.00     0.070 C 
HETATM   12  H   UNL     1     -10.084   3.695 -32.057  1.00  0.00     0.184 HD
ENDROOT
BRANCH   1  13
HETATM   13  C   UNL     1      -7.061   0.343 -31.999  1.00  0.00     0.256 C 
HETATM   14  N   UNL     1      -6.661   0.048 -33.282  1.00  0.00    -0.323 N 
HETATM   15  H   UNL     1      -6.679   0.802 -33.956  1.00  0.00     0.169 HD
HETATM   16  O   UNL     1      -7.112  -0.412 -31.035  1.00  0.00    -0.267 OA
BRANCH  14  17
HETATM   17  C   UNL     1      -6.212  -1.203 -33.776  1.00  0.00     0.041 A 
HETATM   18  C   UNL     1      -4.832  -1.502 -33.732  1.00  0.00    -0.035 A 
HETATM   19  C   UNL     1      -3.815  -0.552 -33.157  1.00  0.00     0.050 C 
HETATM   20  C   UNL     1      -4.377  -2.745 -34.211  1.00  0.00     0.009 A 
HETATM   21  C   UNL     1      -5.266  -3.680 -34.736  1.00  0.00     0.001 A 
HETATM   22  C   UNL     1      -6.621  -3.385 -34.785  1.00  0.00     0.002 A 
HETATM   23  C   UNL     1      -7.089  -2.158 -34.308  1.00  0.00     0.030 A 
ENDBRANCH  14  17
ENDBRANCH   1  13
BRANCH   2  24
HETATM   24  C   UNL     1      -5.338   3.149 -31.624  1.00  0.00    -0.028 A 
HETATM   25  C   UNL     1      -4.037   2.865 -31.174  1.00  0.00     0.012 A 
HETATM   26  C   UNL     1      -2.925   3.356 -31.861  1.00  0.00     0.037 A 
HETATM   27  C   UNL     1      -3.083   4.118 -33.018  1.00  0.00     0.068 A 
HETATM   28  C   UNL     1      -4.368   4.410 -33.471  1.00  0.00     0.037 A 
HETATM   29  C   UNL     1      -5.488   3.930 -32.780  1.00  0.00     0.012 A 
BRANCH  27  30
HETATM   30  O   UNL     1      -1.915   4.524 -33.603  1.00  0.00    -0.356 OA
HETATM   31  C   UNL     1      -2.029   5.138 -34.881  1.00  0.00     0.210 C 
ENDBRANCH  27  30
ENDBRANCH   2  24
TORSDOF 4
ENDMDL
MODEL 2
REMARK VINA RESULT:      -8.8      2.207      6.454
REMARK  4 active torsions:
REMARK  status: ('A' for Active; 'I' for Inactive)
REMARK    1  A    between atoms: C_3  and  N_4 
REMARK       I    between atoms: N_4  and  C_5 
REMARK    2  A    between atoms: C_5  and  C_6 
REMARK    3  A    between atoms: C_7  and  C_8 
REMARK    4  A    between atoms: C_11  and  O_12 
ROOT
HETATM    1  C   UNL     1      -5.531   1.823 -32.155  1.00  0.00     0.062 C 
HETATM    2  C   UNL     1      -6.255   1.256 -33.366  1.00  0.00     0.202 C 
HETATM    3  N   UNL     1      -7.704   1.268 -33.155  1.00  0.00    -0.083 N 
HETATM    4  C   UNL     1      -8.293   1.443 -31.932  1.00  0.00     0.726 A 
HETATM    5  N   UNL     1      -7.517   1.684 -30.855  1.00  0.00    -0.192 N 
HETATM    6  N   UNL     1      -8.620   1.146 -34.136  1.00  0.00    -0.141 NA
HETATM    7  C   UNL     1      -9.756   1.198 -33.422  1.00  0.00     0.162 A 
HETATM    8  C   UNL     1     -11.090   1.102 -34.048  1.00  0.00     0.096 C 
HETATM    9  N   UNL     1      -9.594   1.381 -32.067  1.00  0.00    -0.046 NA
HETATM   10  C   UNL     1      -6.166   2.007 -30.970  1.00  0.00     0.037 C 
HETATM   11  C   UNL     1      -5.516   2.585 -29.739  1.00  0.00     0.070 C 
HETATM   12  H   UNL     1      -7.982   1.957 -29.991  1.00  0.00     0.184 HD
ENDROOT
BRANCH   1  13
HETATM   13  C   UNL     1      -4.184   2.398 -32.390  1.00  0.00     0.256 C 
HETATM   14  N   UNL     1      -4.198   3.743 -32.680  1.00  0.00    -0.323 N 
HETATM   15  H   UNL     1      -5.100   4.199 -32.711  1.00  0.00     0.169 HD
HETATM   16  O   UNL     1      -3.210   1.659 -32.298  1.00  0.00    -0.267 OA
BRANCH  14  17
HETATM   17  C   UNL     1      -3.082   4.579 -32.936  1.00  0.00     0.041 A 
HETATM   18  C   UNL     1      -2.975   5.213 -34.194  1.00  0.00    -0.035 A 
HETATM   19  C   UNL     1      -4.014   5.057 -35.272  1.00  0.00     0.050 C 
HETATM   20  C   UNL     1      -1.875   6.053 -34.455  1.00  0.00     0.009 A 
HETATM   21  C   UNL     1      -0.888   6.260 -33.495  1.00  0.00     0.001 A 
HETATM   22  C   UNL     1      -0.989   5.634 -32.260  1.00  0.00     0.002 A 
HETATM   23  C   UNL     1      -2.077   4.802 -31.984  1.00  0.00     0.030 A 
ENDBRANCH  14  17
ENDBRANCH   1  13
BRANCH   2  24
HETATM   24  C   UNL     1      -5.815  -0.168 -33.706  1.00  0.00    -0.028 A 
HETATM   25  C   UNL     1      -4.768  -0.801 -33.014  1.00  0.00     0.012 A 
HETATM   26  C   UNL     1      -4.399  -2.111 -33.326  1.00  0.00     0.037 A 
HETATM   27  C   UNL     1      -5.076  -2.824 -34.315  1.00  0.00     0.068 A 
HETATM   28  C   UNL     1      -6.113  -2.207 -35.011  1.00  0.00     0.037 A 
HETATM   29  C   UNL     1      -6.481  -0.889 -34.710  1.00  0.00     0.012 A 
BRANCH  27  30
HETATM   30  O   UNL     1      -4.626  -4.100 -34.512  1.00  0.00    -0.356 OA
HETATM   31  C   UNL     1      -3.615  -4.558 -33.621  1.00  0.00     0.210 C 
ENDBRANCH  27  30
ENDBRANCH   2  24
TORSDOF 4
ENDMDL
MODEL 3
REMARK VINA RESULT:      -8.5      3.436      6.406
REMARK  4 active torsions:
REMARK  status: ('A' for Active; 'I' for Inactive)
REMARK    1  A    between atoms: C_3  and  N_4 
REMARK       I    between atoms: N_4  and  C_5 
REMARK    2  A    between atoms: C_5  and  C_6 
REMARK    3  A    between atoms: C_7  and  C_8 
REMARK    4  A    between atoms: C_11  and  O_12 
ROOT
HETATM    1  C   UNL     1      -9.114   2.453 -33.029  1.00  0.00     0.062 C 
HETATM    2  C   UNL     1     -10.038   2.868 -34.163  1.00  0.00     0.202 C 
HETATM    3  N   UNL     1     -10.005   4.321 -34.351  1.00  0.00    -0.083 N 
HETATM    4  C   UNL     1      -9.491   5.196 -33.434  1.00  0.00     0.726 A 
HETATM    5  N   UNL     1      -8.916   4.712 -32.312  1.00  0.00    -0.192 N 
HETATM    6  N   UNL     1     -10.441   4.958 -35.456  1.00  0.00    -0.141 NA
HETATM    7  C   UNL     1     -10.212   6.235 -35.113  1.00  0.00     0.162 A 
HETATM    8  C   UNL     1     -10.529   7.366 -36.008  1.00  0.00     0.096 C 
HETATM    9  N   UNL     1      -9.628   6.419 -33.879  1.00  0.00    -0.046 NA
HETATM   10  C   UNL     1      -8.604   3.362 -32.160  1.00  0.00     0.037 C 
HETATM   11  C   UNL     1      -7.665   3.023 -31.030  1.00  0.00     0.070 C 
HETATM   12  H   UNL     1      -8.413   5.369 -31.720  1.00  0.00     0.184 HD
ENDROOT
BRANCH   1  13
HETATM   13  C   UNL     1      -8.596   1.064 -33.062  1.00  0.00     0.256 C 
HETATM   14  N   UNL     1      -7.407   0.932 -33.743  1.00  0.00    -0.323 N 
HETATM   15  H   UNL     1      -7.013   1.769 -34.150  1.00  0.00     0.169 HD
HETATM   16  O   UNL     1      -9.239   0.188 -32.494  1.00  0.00    -0.267 OA
BRANCH  14  17
HETATM   17  C   UNL     1      -6.655  -0.255 -33.936  1.00  0.00     0.041 A 
HETATM   18  C   UNL     1      -5.350  -0.334 -33.400  1.00  0.00    -0.035 A 
HETATM   19  C   UNL     1      -4.730   0.786 -32.607  1.00  0.00     0.050 C 
HETATM   20  C   UNL     1      -4.598  -1.510 -33.578  1.00  0.00     0.009 A 
HETATM   21  C   UNL     1      -5.119  -2.594 -34.283  1.00  0.00     0.001 A 
HETATM   22  C   UNL     1      -6.398  -2.515 -34.814  1.00  0.00     0.002 A 
HETATM   23  C   UNL     1      -7.159  -1.356 -34.641  1.00  0.00     0.030 A 
ENDBRANCH  14  17
ENDBRANCH   1  13
BRANCH   2  24
HETATM   24  C   UNL     1     -11.485   2.430 -33.940  1.00  0.00    -0.028 A 
HETATM   25  C   UNL     1     -12.293   3.028 -32.958  1.00  0.00     0.012 A 
HETATM   26  C   UNL     1     -13.619   2.627 -32.787  1.00  0.00     0.037 A 
HETATM   27  C   UNL     1     -14.174   1.642 -33.602  1.00  0.00     0.068 A 
HETATM   28  C   UNL     1     -13.383   1.037 -34.577  1.00  0.00     0.037 A 
HETATM   29  C   UNL     1     -12.048   1.428 -34.746  1.00  0.00     0.012 A 
BRANCH  27  30
HETATM   30  O   UNL     1     -15.485   1.352 -33.341  1.00  0.00    -0.356 OA
HETATM   31  C   UNL     1     -16.139   2.186 -32.391  1.00  0.00     0.210 C 
ENDBRANCH  27  30
ENDBRANCH   2  24
TORSDOF 4
ENDMDL
MODEL 4
REMARK VINA RESULT:      -8.4      2.819      5.084
REMARK  4 active torsions:
REMARK  status: ('A' for Active; 'I' for Inactive)
REMARK    1  A    between atoms: C_3  and  N_4 
REMARK       I    between atoms: N_4  and  C_5 
REMARK    2  A    between atoms: C_5  and  C_6 
REMARK    3  A    between atoms: C_7  and  C_8 
REMARK    4  A    between atoms: C_11  and  O_12 
ROOT
HETATM    1  C   UNL     1      -7.558   1.341 -32.563  1.00  0.00     0.062 C 
HETATM    2  C   UNL     1      -8.294   2.531 -33.158  1.00  0.00     0.202 C 
HETATM    3  N   UNL     1      -8.402   3.615 -32.178  1.00  0.00    -0.083 N 
HETATM    4  C   UNL     1      -8.179   3.454 -30.837  1.00  0.00     0.726 A 
HETATM    5  N   UNL     1      -7.773   2.252 -30.376  1.00  0.00    -0.192 N 
HETATM    6  N   UNL     1      -8.694   4.894 -32.483  1.00  0.00    -0.141 NA
HETATM    7  C   UNL     1      -8.690   5.448 -31.261  1.00  0.00     0.162 A 
HETATM    8  C   UNL     1      -8.966   6.882 -31.039  1.00  0.00     0.096 C 
HETATM    9  N   UNL     1      -8.376   4.594 -30.226  1.00  0.00    -0.046 NA
HETATM   10  C   UNL     1      -7.334   1.239 -31.228  1.00  0.00     0.037 C 
HETATM   11  C   UNL     1      -6.593   0.100 -30.575  1.00  0.00     0.070 C 
HETATM   12  H   UNL     1      -7.474   2.197 -29.405  1.00  0.00     0.184 HD
ENDROOT
BRANCH   1  13
HETATM   13  C   UNL     1      -6.879   0.429 -33.515  1.00  0.00     0.256 C 
HETATM   14  N   UNL     1      -6.867  -0.886 -33.111  1.00  0.00    -0.323 N 
HETATM   15  H   UNL     1      -7.304  -1.101 -32.225  1.00  0.00     0.169 HD
HETATM   16  O   UNL     1      -6.415   0.904 -34.546  1.00  0.00    -0.267 OA
BRANCH  14  17
HETATM   17  C   UNL     1      -6.313  -1.993 -33.804  1.00  0.00     0.041 A 
HETATM   18  C   UNL     1      -4.911  -2.165 -33.809  1.00  0.00    -0.035 A 
HETATM   19  C   UNL     1      -3.976  -1.232 -33.087  1.00  0.00     0.050 C 
HETATM   20  C   UNL     1      -4.351  -3.266 -34.486  1.00  0.00     0.009 A 
HETATM   21  C   UNL     1      -5.159  -4.181 -35.156  1.00  0.00     0.001 A 
HETATM   22  C   UNL     1      -6.536  -4.010 -35.156  1.00  0.00     0.002 A 
HETATM   23  C   UNL     1      -7.107  -2.926 -34.484  1.00  0.00     0.030 A 
ENDBRANCH  14  17
ENDBRANCH   1  13
BRANCH   2  24
HETATM   24  C   UNL     1      -9.693   2.174 -33.658  1.00  0.00    -0.028 A 
HETATM   25  C   UNL     1     -10.398   1.070 -33.148  1.00  0.00     0.012 A 
HETATM   26  C   UNL     1     -11.684   0.775 -33.602  1.00  0.00     0.037 A 
HETATM   27  C   UNL     1     -12.304   1.584 -34.555  1.00  0.00     0.068 A 
HETATM   28  C   UNL     1     -11.614   2.679 -35.072  1.00  0.00     0.037 A 
HETATM   29  C   UNL     1     -10.319   2.973 -34.627  1.00  0.00     0.012 A 
BRANCH  27  30
HETATM   30  O   UNL     1     -13.568   1.195 -34.904  1.00  0.00    -0.356 OA
HETATM   31  C   UNL     1     -14.294   0.459 -33.926  1.00  0.00     0.210 C 
ENDBRANCH  27  30
ENDBRANCH   2  24
TORSDOF 4
ENDMDL
MODEL 5
REMARK VINA RESULT:      -8.3      2.313      4.627
REMARK  4 active torsions:
REMARK  status: ('A' for Active; 'I' for Inactive)
REMARK    1  A    between atoms: C_3  and  N_4 
REMARK       I    between atoms: N_4  and  C_5 
REMARK    2  A    between atoms: C_5  and  C_6 
REMARK    3  A    between atoms: C_7  and  C_8 
REMARK    4  A    between atoms: C_11  and  O_12 
ROOT
HETATM    1  C   UNL     1      -6.588   1.915 -31.455  1.00  0.00     0.062 C 
HETATM    2  C   UNL     1      -7.332   3.037 -32.162  1.00  0.00     0.202 C 
HETATM    3  N   UNL     1      -7.659   4.112 -31.223  1.00  0.00    -0.083 N 
HETATM    4  C   UNL     1      -7.607   3.976 -29.862  1.00  0.00     0.726 A 
HETATM    5  N   UNL     1      -7.169   2.814 -29.332  1.00  0.00    -0.192 N 
HETATM    6  N   UNL     1      -8.012   5.362 -31.584  1.00  0.00    -0.141 NA
HETATM    7  C   UNL     1      -8.218   5.919 -30.381  1.00  0.00     0.162 A 
HETATM    8  C   UNL     1      -8.637   7.326 -30.221  1.00  0.00     0.096 C 
HETATM    9  N   UNL     1      -7.977   5.099 -29.301  1.00  0.00    -0.046 NA
HETATM   10  C   UNL     1      -6.538   1.838 -30.102  1.00  0.00     0.037 C 
HETATM   11  C   UNL     1      -5.801   0.768 -29.337  1.00  0.00     0.070 C 
HETATM   12  H   UNL     1      -7.000   2.789 -28.329  1.00  0.00     0.184 HD
ENDROOT
BRANCH   1  13
HETATM   13  C   UNL     1      -5.714   1.059 -32.294  1.00  0.00     0.256 C 
HETATM   14  N   UNL     1      -6.159  -0.238 -32.413  1.00  0.00    -0.323 N 
HETATM   15  H   UNL     1      -7.011  -0.481 -31.927  1.00  0.00     0.169 HD
HETATM   16  O   UNL     1      -4.717   1.561 -32.799  1.00  0.00    -0.267 OA
BRANCH  14  17
HETATM   17  C   UNL     1      -5.558  -1.288 -33.155  1.00  0.00     0.041 A 
HETATM   18  C   UNL     1      -6.132  -1.670 -34.388  1.00  0.00    -0.035 A 
HETATM   19  C   UNL     1      -7.346  -0.991 -34.964  1.00  0.00     0.050 C 
HETATM   20  C   UNL     1      -5.539  -2.704 -35.137  1.00  0.00     0.009 A 
HETATM   21  C   UNL     1      -4.400  -3.361 -34.675  1.00  0.00     0.001 A 
HETATM   22  C   UNL     1      -3.839  -2.990 -33.461  1.00  0.00     0.002 A 
HETATM   23  C   UNL     1      -4.413  -1.962 -32.709  1.00  0.00     0.030 A 
ENDBRANCH  14  17
ENDBRANCH   1  13
BRANCH   2  24
HETATM   24  C   UNL     1      -8.617   2.562 -32.839  1.00  0.00    -0.028 A 
HETATM   25  C   UNL     1      -9.349   1.468 -32.345  1.00  0.00     0.012 A 
HETATM   26  C   UNL     1     -10.533   1.066 -32.966  1.00  0.00     0.037 A 
HETATM   27  C   UNL     1     -11.023   1.755 -34.074  1.00  0.00     0.068 A 
HETATM   28  C   UNL     1     -10.305   2.838 -34.577  1.00  0.00     0.037 A 
HETATM   29  C   UNL     1      -9.111   3.240 -33.965  1.00  0.00     0.012 A 
BRANCH  27  30
HETATM   30  O   UNL     1     -12.198   1.269 -34.578  1.00  0.00    -0.356 OA
HETATM   31  C   UNL     1     -12.919   0.368 -33.745  1.00  0.00     0.210 C 
ENDBRANCH  27  30
ENDBRANCH   2  24
TORSDOF 4
ENDMDL
MODEL 6
REMARK VINA RESULT:      -8.0     16.661     18.512
REMARK  4 active torsions:
REMARK  status: ('A' for Active; 'I' for Inactive)
REMARK    1  A    between atoms: C_3  and  N_4 
REMARK       I    between atoms: N_4  and  C_5 
REMARK    2  A    between atoms: C_5  and  C_6 
REMARK    3  A    between atoms: C_7  and  C_8 
REMARK    4  A    between atoms: C_11  and  O_12 
ROOT
HETATM    1  C   UNL     1      -5.555 -13.595 -38.576  1.00  0.00     0.062 C 
HETATM    2  C   UNL     1      -6.189 -13.091 -39.862  1.00  0.00     0.202 C 
HETATM    3  N   UNL     1      -7.621 -12.851 -39.672  1.00  0.00    -0.083 N 
HETATM    4  C   UNL     1      -8.339 -13.327 -38.609  1.00  0.00     0.726 A 
HETATM    5  N   UNL     1      -7.699 -14.005 -37.633  1.00  0.00    -0.192 N 
HETATM    6  N   UNL     1      -8.387 -12.108 -40.497  1.00  0.00    -0.141 NA
HETATM    7  C   UNL     1      -9.582 -12.226 -39.898  1.00  0.00     0.162 A 
HETATM    8  C   UNL     1     -10.800 -11.579 -40.425  1.00  0.00     0.096 C 
HETATM    9  N   UNL     1      -9.591 -12.965 -38.735  1.00  0.00    -0.046 NA
HETATM   10  C   UNL     1      -6.309 -14.030 -37.534  1.00  0.00     0.037 C 
HETATM   11  C   UNL     1      -5.747 -14.520 -36.224  1.00  0.00     0.070 C 
HETATM   12  H   UNL     1      -8.223 -14.218 -36.787  1.00  0.00     0.184 HD
ENDROOT
BRANCH   1  13
HETATM   13  C   UNL     1      -4.100 -13.358 -38.409  1.00  0.00     0.256 C 
HETATM   14  N   UNL     1      -3.317 -14.421 -38.794  1.00  0.00    -0.323 N 
HETATM   15  H   UNL     1      -3.792 -15.244 -39.140  1.00  0.00     0.169 HD
HETATM   16  O   UNL     1      -3.733 -12.274 -37.969  1.00  0.00    -0.267 OA
BRANCH  14  17
HETATM   17  C   UNL     1      -1.901 -14.498 -38.772  1.00  0.00     0.041 A 
HETATM   18  C   UNL     1      -1.193 -14.448 -39.994  1.00  0.00    -0.035 A 
HETATM   19  C   UNL     1      -1.880 -14.291 -41.324  1.00  0.00     0.050 C 
HETATM   20  C   UNL     1       0.213 -14.514 -39.983  1.00  0.00     0.009 A 
HETATM   21  C   UNL     1       0.916 -14.637 -38.786  1.00  0.00     0.001 A 
HETATM   22  C   UNL     1       0.221 -14.692 -37.586  1.00  0.00     0.002 A 
HETATM   23  C   UNL     1      -1.174 -14.622 -37.580  1.00  0.00     0.030 A 
ENDBRANCH  14  17
ENDBRANCH   1  13
BRANCH   2  24
HETATM   24  C   UNL     1      -5.999 -14.055 -41.034  1.00  0.00    -0.028 A 
HETATM   25  C   UNL     1      -5.253 -13.695 -42.169  1.00  0.00     0.012 A 
HETATM   26  C   UNL     1      -5.073 -14.599 -43.217  1.00  0.00     0.037 A 
HETATM   27  C   UNL     1      -5.612 -15.884 -43.148  1.00  0.00     0.068 A 
HETATM   28  C   UNL     1      -6.358 -16.251 -42.030  1.00  0.00     0.037 A 
HETATM   29  C   UNL     1      -6.551 -15.344 -40.980  1.00  0.00     0.012 A 
BRANCH  27  30
HETATM   30  O   UNL     1      -5.351 -16.675 -44.233  1.00  0.00    -0.356 OA
HETATM   31  C   UNL     1      -4.565 -16.091 -45.266  1.00  0.00     0.210 C 
ENDBRANCH  27  30
ENDBRANCH   2  24
TORSDOF 4
ENDMDL
MODEL 7
REMARK VINA RESULT:      -7.8      2.577      4.689
REMARK  4 active torsions:
REMARK  status: ('A' for Active; 'I' for Inactive)
REMARK    1  A    between atoms: C_3  and  N_4 
REMARK       I    between atoms: N_4  and  C_5 
REMARK    2  A    between atoms: C_5  and  C_6 
REMARK    3  A    between atoms: C_7  and  C_8 
REMARK    4  A    between atoms: C_11  and  O_12 
ROOT
HETATM    1  C   UNL     1      -6.715   1.794 -31.230  1.00  0.00     0.062 C 
HETATM    2  C   UNL     1      -7.078   3.086 -31.944  1.00  0.00     0.202 C 
HETATM    3  N   UNL     1      -6.300   4.207 -31.411  1.00  0.00    -0.083 N 
HETATM    4  C   UNL     1      -5.608   4.161 -30.232  1.00  0.00     0.726 A 
HETATM    5  N   UNL     1      -5.572   3.007 -29.533  1.00  0.00    -0.192 N 
HETATM    6  N   UNL     1      -6.146   5.393 -32.032  1.00  0.00    -0.141 NA
HETATM    7  C   UNL     1      -5.388   6.046 -31.137  1.00  0.00     0.162 A 
HETATM    8  C   UNL     1      -4.930   7.433 -31.347  1.00  0.00     0.096 C 
HETATM    9  N   UNL     1      -5.038   5.320 -30.020  1.00  0.00    -0.046 NA
HETATM   10  C   UNL     1      -6.000   1.796 -30.077  1.00  0.00     0.037 C 
HETATM   11  C   UNL     1      -5.586   0.553 -29.331  1.00  0.00     0.070 C 
HETATM   12  H   UNL     1      -4.934   2.955 -28.742  1.00  0.00     0.184 HD
ENDROOT
BRANCH   1  13
HETATM   13  C   UNL     1      -6.952   0.531 -31.971  1.00  0.00     0.256 C 
HETATM   14  N   UNL     1      -5.838   0.054 -32.624  1.00  0.00    -0.323 N 
HETATM   15  H   UNL     1      -4.989   0.596 -32.545  1.00  0.00     0.169 HD
HETATM   16  O   UNL     1      -8.071   0.033 -31.932  1.00  0.00    -0.267 OA
BRANCH  14  17
HETATM   17  C   UNL     1      -5.737  -1.130 -33.399  1.00  0.00     0.041 A 
HETATM   18  C   UNL     1      -4.555  -1.899 -33.323  1.00  0.00    -0.035 A 
HETATM   19  C   UNL     1      -3.400  -1.527 -32.431  1.00  0.00     0.050 C 
HETATM   20  C   UNL     1      -4.448  -3.081 -34.080  1.00  0.00     0.009 A 
HETATM   21  C   UNL     1      -5.486  -3.497 -34.910  1.00  0.00     0.001 A 
HETATM   22  C   UNL     1      -6.646  -2.739 -34.990  1.00  0.00     0.002 A 
HETATM   23  C   UNL     1      -6.770  -1.567 -34.239  1.00  0.00     0.030 A 
ENDBRANCH  14  17
ENDBRANCH   1  13
BRANCH   2  24
HETATM   24  C   UNL     1      -8.566   3.422 -31.841  1.00  0.00    -0.028 A 
HETATM   25  C   UNL     1      -9.377   3.533 -32.984  1.00  0.00     0.012 A 
HETATM   26  C   UNL     1     -10.738   3.818 -32.865  1.00  0.00     0.037 A 
HETATM   27  C   UNL     1     -11.324   3.976 -31.610  1.00  0.00     0.068 A 
HETATM   28  C   UNL     1     -10.530   3.874 -30.469  1.00  0.00     0.037 A 
HETATM   29  C   UNL     1      -9.161   3.599 -30.583  1.00  0.00     0.012 A 
BRANCH  27  30
HETATM   30  O   UNL     1     -12.666   4.238 -31.632  1.00  0.00    -0.356 OA
HETATM   31  C   UNL     1     -13.464   3.376 -32.435  1.00  0.00     0.210 C 
ENDBRANCH  27  30
ENDBRANCH   2  24
TORSDOF 4
ENDMDL
MODEL 8
REMARK VINA RESULT:      -7.7      2.708      4.754
REMARK  4 active torsions:
REMARK  status: ('A' for Active; 'I' for Inactive)
REMARK    1  A    between atoms: C_3  and  N_4 
REMARK       I    between atoms: N_4  and  C_5 
REMARK    2  A    between atoms: C_5  and  C_6 
REMARK    3  A    between atoms: C_7  and  C_8 
REMARK    4  A    between atoms: C_11  and  O_12 
ROOT
HETATM    1  C   UNL     1      -5.567   1.138 -32.372  1.00  0.00     0.062 C 
HETATM    2  C   UNL     1      -5.809   2.265 -33.363  1.00  0.00     0.202 C 
HETATM    3  N   UNL     1      -4.882   3.373 -33.122  1.00  0.00    -0.083 N 
HETATM    4  C   UNL     1      -4.147   3.515 -31.977  1.00  0.00     0.726 A 
HETATM    5  N   UNL     1      -4.214   2.558 -31.027  1.00  0.00    -0.192 N 
HETATM    6  N   UNL     1      -4.618   4.355 -34.007  1.00  0.00    -0.141 NA
HETATM    7  C   UNL     1      -3.750   5.097 -33.303  1.00  0.00     0.162 A 
HETATM    8  C   UNL     1      -3.143   6.331 -33.841  1.00  0.00     0.096 C 
HETATM    9  N   UNL     1      -3.435   4.611 -32.053  1.00  0.00    -0.046 NA
HETATM   10  C   UNL     1      -4.805   1.318 -31.264  1.00  0.00     0.037 C 
HETATM   11  C   UNL     1      -4.505   0.239 -30.253  1.00  0.00     0.070 C 
HETATM   12  H   UNL     1      -3.551   2.612 -30.257  1.00  0.00     0.184 HD
ENDROOT
BRANCH   1  13
HETATM   13  C   UNL     1      -5.983  -0.223 -32.791  1.00  0.00     0.256 C 
HETATM   14  N   UNL     1      -4.981  -0.949 -33.392  1.00  0.00    -0.323 N 
HETATM   15  H   UNL     1      -4.082  -0.498 -33.495  1.00  0.00     0.169 HD
HETATM   16  O   UNL     1      -7.135  -0.575 -32.565  1.00  0.00    -0.267 OA
BRANCH  14  17
HETATM   17  C   UNL     1      -5.058  -2.277 -33.885  1.00  0.00     0.041 A 
HETATM   18  C   UNL     1      -4.184  -3.254 -33.359  1.00  0.00    -0.035 A 
HETATM   19  C   UNL     1      -3.185  -2.950 -32.274  1.00  0.00     0.050 C 
HETATM   20  C   UNL     1      -4.259  -4.577 -33.834  1.00  0.00     0.009 A 
HETATM   21  C   UNL     1      -5.175  -4.934 -34.821  1.00  0.00     0.001 A 
HETATM   22  C   UNL     1      -6.030  -3.973 -35.342  1.00  0.00     0.002 A 
HETATM   23  C   UNL     1      -5.972  -2.657 -34.877  1.00  0.00     0.030 A 
ENDBRANCH  14  17
ENDBRANCH   1  13
BRANCH   2  24
HETATM   24  C   UNL     1      -7.241   2.798 -33.317  1.00  0.00    -0.028 A 
HETATM   25  C   UNL     1      -8.219   2.360 -34.226  1.00  0.00     0.012 A 
HETATM   26  C   UNL     1      -9.527   2.843 -34.150  1.00  0.00     0.037 A 
HETATM   27  C   UNL     1      -9.892   3.752 -33.158  1.00  0.00     0.068 A 
HETATM   28  C   UNL     1      -8.931   4.198 -32.253  1.00  0.00     0.037 A 
HETATM   29  C   UNL     1      -7.614   3.725 -32.331  1.00  0.00     0.012 A 
BRANCH  27  30
HETATM   30  O   UNL     1     -11.205   4.135 -33.186  1.00  0.00    -0.356 OA
HETATM   31  C   UNL     1     -11.889   4.136 -31.938  1.00  0.00     0.210 C 
ENDBRANCH  27  30
ENDBRANCH   2  24
TORSDOF 4
ENDMDL
MODEL 9
REMARK VINA RESULT:      -7.5      2.136      7.652
REMARK  4 active torsions:
REMARK  status: ('A' for Active; 'I' for Inactive)
REMARK    1  A    between atoms: C_3  and  N_4 
REMARK       I    between atoms: N_4  and  C_5 
REMARK    2  A    between atoms: C_5  and  C_6 
REMARK    3  A    between atoms: C_7  and  C_8 
REMARK    4  A    between atoms: C_11  and  O_12 
ROOT
HETATM    1  C   UNL     1      -6.517   1.305 -32.123  1.00  0.00     0.062 C 
HETATM    2  C   UNL     1      -7.565   0.253 -32.452  1.00  0.00     0.202 C 
HETATM    3  N   UNL     1      -6.997  -0.792 -33.308  1.00  0.00    -0.083 N 
HETATM    4  C   UNL     1      -5.813  -0.664 -33.982  1.00  0.00     0.726 A 
HETATM    5  N   UNL     1      -5.076   0.455 -33.813  1.00  0.00    -0.192 N 
HETATM    6  N   UNL     1      -7.550  -2.005 -33.501  1.00  0.00    -0.141 NA
HETATM    7  C   UNL     1      -6.670  -2.546 -34.358  1.00  0.00     0.162 A 
HETATM    8  C   UNL     1      -6.826  -3.911 -34.899  1.00  0.00     0.096 C 
HETATM    9  N   UNL     1      -5.590  -1.751 -34.674  1.00  0.00    -0.046 NA
HETATM   10  C   UNL     1      -5.343   1.374 -32.800  1.00  0.00     0.037 C 
HETATM   11  C   UNL     1      -4.253   2.375 -32.510  1.00  0.00     0.070 C 
HETATM   12  H   UNL     1      -4.137   0.463 -34.205  1.00  0.00     0.184 HD
ENDROOT
BRANCH   1  13
HETATM   13  C   UNL     1      -6.720   2.084 -30.877  1.00  0.00     0.256 C 
HETATM   14  N   UNL     1      -7.087   3.392 -31.094  1.00  0.00    -0.323 N 
HETATM   15  H   UNL     1      -7.176   3.693 -32.055  1.00  0.00     0.169 HD
HETATM   16  O   UNL     1      -6.560   1.516 -29.802  1.00  0.00    -0.267 OA
BRANCH  14  17
HETATM   17  C   UNL     1      -7.367   4.380 -30.116  1.00  0.00     0.041 A 
HETATM   18  C   UNL     1      -8.639   4.995 -30.109  1.00  0.00    -0.035 A 
HETATM   19  C   UNL     1      -9.724   4.626 -31.085  1.00  0.00     0.050 C 
HETATM   20  C   UNL     1      -8.931   5.970 -29.136  1.00  0.00     0.009 A 
HETATM   21  C   UNL     1      -7.982   6.343 -28.188  1.00  0.00     0.001 A 
HETATM   22  C   UNL     1      -6.730   5.744 -28.198  1.00  0.00     0.002 A 
HETATM   23  C   UNL     1      -6.427   4.770 -29.153  1.00  0.00     0.030 A 
ENDBRANCH  14  17
ENDBRANCH   1  13
BRANCH   2  24
HETATM   24  C   UNL     1      -8.799   0.839 -33.138  1.00  0.00    -0.028 A 
HETATM   25  C   UNL     1     -10.077   0.286 -32.951  1.00  0.00     0.012 A 
HETATM   26  C   UNL     1     -11.194   0.851 -33.569  1.00  0.00     0.037 A 
HETATM   27  C   UNL     1     -11.065   1.989 -34.366  1.00  0.00     0.068 A 
HETATM   28  C   UNL     1      -9.802   2.544 -34.563  1.00  0.00     0.037 A 
HETATM   29  C   UNL     1      -8.677   1.974 -33.954  1.00  0.00     0.012 A 
BRANCH  27  30
HETATM   30  O   UNL     1     -12.236   2.451 -34.900  1.00  0.00    -0.356 OA
HETATM   31  C   UNL     1     -12.145   3.623 -35.702  1.00  0.00     0.210 C 
ENDBRANCH  27  30
ENDBRANCH   2  24
TORSDOF 4
ENDMDL
MODEL 10
REMARK VINA RESULT:      -7.4      2.146      6.160
REMARK  4 active torsions:
REMARK  status: ('A' for Active; 'I' for Inactive)
REMARK    1  A    between atoms: C_3  and  N_4 
REMARK       I    between atoms: N_4  and  C_5 
REMARK    2  A    between atoms: C_5  and  C_6 
REMARK    3  A    between atoms: C_7  and  C_8 
REMARK    4  A    between atoms: C_11  and  O_12 
ROOT
HETATM    1  C   UNL     1      -7.038   3.865 -32.488  1.00  0.00     0.062 C 
HETATM    2  C   UNL     1      -7.451   2.766 -33.455  1.00  0.00     0.202 C 
HETATM    3  N   UNL     1      -8.876   2.459 -33.310  1.00  0.00    -0.083 N 
HETATM    4  C   UNL     1      -9.635   2.856 -32.243  1.00  0.00     0.726 A 
HETATM    5  N   UNL     1      -9.078   3.630 -31.289  1.00  0.00    -0.192 N 
HETATM    6  N   UNL     1      -9.609   1.787 -34.220  1.00  0.00    -0.141 NA
HETATM    7  C   UNL     1     -10.803   1.762 -33.607  1.00  0.00     0.162 A 
HETATM    8  C   UNL     1     -11.988   1.118 -34.207  1.00  0.00     0.096 C 
HETATM    9  N   UNL     1     -10.857   2.410 -32.393  1.00  0.00    -0.046 NA
HETATM   10  C   UNL     1      -7.839   4.246 -31.462  1.00  0.00     0.037 C 
HETATM   11  C   UNL     1      -7.502   5.342 -30.482  1.00  0.00     0.070 C 
HETATM   12  H   UNL     1      -9.696   4.032 -30.588  1.00  0.00     0.184 HD
ENDROOT
BRANCH   1  13
HETATM   13  C   UNL     1      -5.849   4.671 -32.860  1.00  0.00     0.256 C 
HETATM   14  N   UNL     1      -4.718   4.353 -32.143  1.00  0.00    -0.323 N 
HETATM   15  H   UNL     1      -4.802   3.625 -31.446  1.00  0.00     0.169 HD
HETATM   16  O   UNL     1      -5.967   5.510 -33.745  1.00  0.00    -0.267 OA
BRANCH  14  17
HETATM   17  C   UNL     1      -3.428   4.928 -32.273  1.00  0.00     0.041 A 
HETATM   18  C   UNL     1      -3.013   5.899 -31.334  1.00  0.00    -0.035 A 
HETATM   19  C   UNL     1      -3.877   6.333 -30.180  1.00  0.00     0.050 C 
HETATM   20  C   UNL     1      -1.731   6.469 -31.449  1.00  0.00     0.009 A 
HETATM   21  C   UNL     1      -0.870   6.097 -32.479  1.00  0.00     0.001 A 
HETATM   22  C   UNL     1      -1.280   5.148 -33.405  1.00  0.00     0.002 A 
HETATM   23  C   UNL     1      -2.547   4.569 -33.302  1.00  0.00     0.030 A 
ENDBRANCH  14  17
ENDBRANCH   1  13
BRANCH   2  24
HETATM   24  C   UNL     1      -6.646   1.480 -33.269  1.00  0.00    -0.028 A 
HETATM   25  C   UNL     1      -6.193   1.071 -32.002  1.00  0.00     0.012 A 
HETATM   26  C   UNL     1      -5.479  -0.120 -31.853  1.00  0.00     0.037 A 
HETATM   27  C   UNL     1      -5.220  -0.936 -32.953  1.00  0.00     0.068 A 
HETATM   28  C   UNL     1      -5.659  -0.540 -34.215  1.00  0.00     0.037 A 
HETATM   29  C   UNL     1      -6.367   0.659 -34.373  1.00  0.00     0.012 A 
BRANCH  27  30
HETATM   30  O   UNL     1      -4.526  -2.079 -32.669  1.00  0.00    -0.356 OA
HETATM   31  C   UNL     1      -3.294  -1.914 -31.975  1.00  0.00     0.210 C 
ENDBRANCH  27  30
ENDBRANCH   2  24
TORSDOF 4
ENDMDL
