MODEL 1
REMARK VINA RESULT:      -9.8      0.000      0.000
REMARK  7 active torsions:
REMARK  status: ('A' for Active; 'I' for Inactive)
REMARK    1  A    between atoms: C_2  and  C_3 
REMARK    2  A    between atoms: C_3  and  N_4 
REMARK    3  A    between atoms: C_8  and  C_9 
REMARK    4  A    between atoms: C_8  and  C_27 
REMARK    5  A    between atoms: N_12  and  C_14 
REMARK    6  A    between atoms: C_14  and  C_15 
REMARK    7  A    between atoms: C_27  and  C_28 
ROOT
HETATM    1  N   UNL     1      -4.829   2.794 -32.620  1.00  0.00    -0.268 N 
HETATM    2  C   UNL     1      -4.210   2.150 -31.595  1.00  0.00     0.326 C 
HETATM    3  O   UNL     1      -3.368   2.590 -30.835  1.00  0.00    -0.247 OA
HETATM    4  N   UNL     1      -4.699   0.863 -31.537  1.00  0.00    -0.324 N 
HETATM    5  C   UNL     1      -5.476   0.506 -32.717  1.00  0.00     0.123 C 
HETATM    6  C   UNL     1      -5.677   1.938 -33.262  1.00  0.00     0.257 C 
HETATM    7  O   UNL     1      -6.438   2.238 -34.173  1.00  0.00    -0.270 OA
HETATM    8  H   UNL     1      -4.219   0.195 -30.941  1.00  0.00     0.165 HD
ENDROOT
BRANCH   5   9
HETATM    9  C   UNL     1      -6.760  -0.290 -32.309  1.00  0.00     0.027 C 
HETATM   10  C   UNL     1      -7.654  -0.822 -33.442  1.00  0.00     0.035 C 
HETATM   11  C   UNL     1      -8.635   0.172 -34.051  1.00  0.00     0.235 C 
HETATM   12  N   UNL     1      -9.395   0.943 -33.000  1.00  0.00    -0.067 N 
HETATM   13  H   UNL     1     -10.102   0.302 -32.619  1.00  0.00     0.280 HD
HETATM   14  C   UNL     1      -8.572   1.459 -31.850  1.00  0.00     0.235 C 
HETATM   15  C   UNL     1      -7.672   0.388 -31.271  1.00  0.00     0.035 C 
BRANCH  12  16
HETATM   16  C   UNL     1     -10.163   2.114 -33.608  1.00  0.00     0.273 C 
BRANCH  16  17
HETATM   17  C   UNL     1     -11.657   2.025 -33.482  1.00  0.00    -0.030 A 
HETATM   18  C   UNL     1     -12.369   2.948 -32.703  1.00  0.00     0.048 A 
HETATM   19  C   UNL     1     -13.757   2.850 -32.600  1.00  0.00     0.102 A 
HETATM   20  C   UNL     1     -14.442   1.816 -33.240  1.00  0.00     0.102 A 
HETATM   21  O   UNL     1     -14.381   3.810 -31.848  1.00  0.00    -0.346 OA
HETATM   22  O   UNL     1     -15.798   1.647 -33.158  1.00  0.00    -0.346 OA
HETATM   23  C   UNL     1     -13.746   0.900 -34.022  1.00  0.00     0.040 A 
HETATM   24  C   UNL     1     -16.370   2.438 -32.108  1.00  0.00     0.202 C 
HETATM   25  C   UNL     1     -15.790   3.843 -32.117  1.00  0.00     0.202 C 
HETATM   26  C   UNL     1     -12.359   1.002 -34.144  1.00  0.00     0.012 A 
ENDBRANCH  16  17
ENDBRANCH  12  16
ENDBRANCH   5   9
BRANCH   5  27
HETATM   27  C   UNL     1      -4.572  -0.207 -33.770  1.00  0.00     0.080 C 
BRANCH  27  28
HETATM   28  C   UNL     1      -4.176  -1.626 -33.433  1.00  0.00    -0.052 A 
HETATM   29  C   UNL     1      -4.525  -2.696 -34.267  1.00  0.00     0.049 A 
HETATM   30  C   UNL     1      -4.147  -3.994 -33.933  1.00  0.00     0.116 A 
HETATM   31  F   UNL     1      -4.499  -5.004 -34.739  1.00  0.00    -0.206 F 
HETATM   32  C   UNL     1      -3.414  -4.255 -32.783  1.00  0.00     0.042 A 
HETATM   33  C   UNL     1      -3.050  -3.200 -31.950  1.00  0.00     0.003 A 
HETATM   34  C   UNL     1      -3.427  -1.893 -32.274  1.00  0.00     0.007 A 
ENDBRANCH  27  28
ENDBRANCH   5  27
BRANCH   1  35
HETATM   35  C   UNL     1      -4.544   4.163 -33.022  1.00  0.00     0.140 C 
BRANCH  35  36
HETATM   36  C   UNL     1      -3.289   4.308 -33.901  1.00  0.00    -0.004 C 
HETATM   37  C   UNL     1      -2.103   4.875 -33.120  1.00  0.00     0.011 C 
HETATM   38  C   UNL     1      -3.596   5.222 -35.090  1.00  0.00     0.011 C 
ENDBRANCH  35  36
ENDBRANCH   1  35
TORSDOF 7
ENDMDL
MODEL 2
REMARK VINA RESULT:      -9.7      1.752      2.157
REMARK  7 active torsions:
REMARK  status: ('A' for Active; 'I' for Inactive)
REMARK    1  A    between atoms: C_2  and  C_3 
REMARK    2  A    between atoms: C_3  and  N_4 
REMARK    3  A    between atoms: C_8  and  C_9 
REMARK    4  A    between atoms: C_8  and  C_27 
REMARK    5  A    between atoms: N_12  and  C_14 
REMARK    6  A    between atoms: C_14  and  C_15 
REMARK    7  A    between atoms: C_27  and  C_28 
ROOT
HETATM    1  N   UNL     1      -5.896   1.762 -31.284  1.00  0.00    -0.268 N 
HETATM    2  C   UNL     1      -5.942   0.636 -30.522  1.00  0.00     0.326 C 
HETATM    3  O   UNL     1      -5.833   0.546 -29.314  1.00  0.00    -0.247 OA
HETATM    4  N   UNL     1      -6.143  -0.440 -31.358  1.00  0.00    -0.324 N 
HETATM    5  C   UNL     1      -5.958  -0.102 -32.762  1.00  0.00     0.123 C 
HETATM    6  C   UNL     1      -6.014   1.435 -32.604  1.00  0.00     0.257 C 
HETATM    7  O   UNL     1      -6.091   2.230 -33.531  1.00  0.00    -0.270 OA
HETATM    8  H   UNL     1      -6.029  -1.373 -30.971  1.00  0.00     0.165 HD
ENDROOT
BRANCH   5   9
HETATM    9  C   UNL     1      -7.067  -0.770 -33.640  1.00  0.00     0.027 C 
HETATM   10  C   UNL     1      -7.302  -0.195 -35.047  1.00  0.00     0.035 C 
HETATM   11  C   UNL     1      -8.182   1.046 -35.131  1.00  0.00     0.235 C 
HETATM   12  N   UNL     1      -9.448   0.905 -34.322  1.00  0.00    -0.067 N 
HETATM   13  H   UNL     1     -10.070   0.287 -34.857  1.00  0.00     0.280 HD
HETATM   14  C   UNL     1      -9.280   0.316 -32.948  1.00  0.00     0.235 C 
HETATM   15  C   UNL     1      -8.442  -0.945 -32.970  1.00  0.00     0.035 C 
BRANCH  12  16
HETATM   16  C   UNL     1     -10.181   2.238 -34.190  1.00  0.00     0.273 C 
BRANCH  16  17
HETATM   17  C   UNL     1     -11.656   2.127 -33.933  1.00  0.00    -0.030 A 
HETATM   18  C   UNL     1     -12.285   2.948 -32.987  1.00  0.00     0.048 A 
HETATM   19  C   UNL     1     -13.658   2.832 -32.763  1.00  0.00     0.102 A 
HETATM   20  C   UNL     1     -14.407   1.876 -33.452  1.00  0.00     0.102 A 
HETATM   21  O   UNL     1     -14.201   3.693 -31.847  1.00  0.00    -0.346 OA
HETATM   22  O   UNL     1     -15.750   1.690 -33.260  1.00  0.00    -0.346 OA
HETATM   23  C   UNL     1     -13.794   1.062 -34.399  1.00  0.00     0.040 A 
HETATM   24  C   UNL     1     -16.213   2.350 -32.075  1.00  0.00     0.202 C 
HETATM   25  C   UNL     1     -15.629   3.750 -31.974  1.00  0.00     0.202 C 
HETATM   26  C   UNL     1     -12.425   1.185 -34.640  1.00  0.00     0.012 A 
ENDBRANCH  16  17
ENDBRANCH  12  16
ENDBRANCH   5   9
BRANCH   5  27
HETATM   27  C   UNL     1      -4.496  -0.411 -33.211  1.00  0.00     0.080 C 
BRANCH  27  28
HETATM   28  C   UNL     1      -4.063  -1.853 -33.070  1.00  0.00    -0.052 A 
HETATM   29  C   UNL     1      -4.462  -2.825 -33.995  1.00  0.00     0.049 A 
HETATM   30  C   UNL     1      -4.049  -4.146 -33.842  1.00  0.00     0.116 A 
HETATM   31  F   UNL     1      -4.449  -5.063 -34.733  1.00  0.00    -0.206 F 
HETATM   32  C   UNL     1      -3.233  -4.526 -32.785  1.00  0.00     0.042 A 
HETATM   33  C   UNL     1      -2.819  -3.568 -31.863  1.00  0.00     0.003 A 
HETATM   34  C   UNL     1      -3.231  -2.239 -32.005  1.00  0.00     0.007 A 
ENDBRANCH  27  28
ENDBRANCH   5  27
BRANCH   1  35
HETATM   35  C   UNL     1      -5.654   3.098 -30.762  1.00  0.00     0.140 C 
BRANCH  35  36
HETATM   36  C   UNL     1      -6.829   3.677 -29.955  1.00  0.00    -0.004 C 
HETATM   37  C   UNL     1      -8.136   3.660 -30.749  1.00  0.00     0.011 C 
HETATM   38  C   UNL     1      -6.509   5.114 -29.538  1.00  0.00     0.011 C 
ENDBRANCH  35  36
ENDBRANCH   1  35
TORSDOF 7
ENDMDL
MODEL 3
REMARK VINA RESULT:      -9.4      2.835      3.571
REMARK  7 active torsions:
REMARK  status: ('A' for Active; 'I' for Inactive)
REMARK    1  A    between atoms: C_2  and  C_3 
REMARK    2  A    between atoms: C_3  and  N_4 
REMARK    3  A    between atoms: C_8  and  C_9 
REMARK    4  A    between atoms: C_8  and  C_27 
REMARK    5  A    between atoms: N_12  and  C_14 
REMARK    6  A    between atoms: C_14  and  C_15 
REMARK    7  A    between atoms: C_27  and  C_28 
ROOT
HETATM    1  N   UNL     1      -4.801   1.269 -32.273  1.00  0.00    -0.268 N 
HETATM    2  C   UNL     1      -4.793   0.052 -31.668  1.00  0.00     0.326 C 
HETATM    3  O   UNL     1      -3.972  -0.388 -30.884  1.00  0.00    -0.247 OA
HETATM    4  N   UNL     1      -5.903  -0.646 -32.088  1.00  0.00    -0.324 N 
HETATM    5  C   UNL     1      -6.562  -0.017 -33.225  1.00  0.00     0.123 C 
HETATM    6  C   UNL     1      -5.870   1.360 -33.118  1.00  0.00     0.257 C 
HETATM    7  O   UNL     1      -6.200   2.358 -33.745  1.00  0.00    -0.270 OA
HETATM    8  H   UNL     1      -5.958  -1.637 -31.867  1.00  0.00     0.165 HD
ENDROOT
BRANCH   5   9
HETATM    9  C   UNL     1      -8.116  -0.052 -33.049  1.00  0.00     0.027 C 
HETATM   10  C   UNL     1      -8.974   0.483 -34.208  1.00  0.00     0.035 C 
HETATM   11  C   UNL     1      -9.156   1.994 -34.271  1.00  0.00     0.235 C 
HETATM   12  N   UNL     1      -9.525   2.583 -32.932  1.00  0.00    -0.067 N 
HETATM   13  H   UNL     1     -10.514   2.354 -32.773  1.00  0.00     0.280 HD
HETATM   14  C   UNL     1      -8.738   2.070 -31.757  1.00  0.00     0.235 C 
HETATM   15  C   UNL     1      -8.659   0.557 -31.744  1.00  0.00     0.035 C 
BRANCH  12  16
HETATM   16  C   UNL     1      -9.436   4.107 -32.945  1.00  0.00     0.273 C 
BRANCH  16  17
HETATM   17  C   UNL     1     -10.464   4.794 -33.798  1.00  0.00    -0.030 A 
HETATM   18  C   UNL     1     -10.193   6.035 -34.390  1.00  0.00     0.048 A 
HETATM   19  C   UNL     1     -11.160   6.657 -35.182  1.00  0.00     0.102 A 
HETATM   20  C   UNL     1     -12.412   6.067 -35.361  1.00  0.00     0.102 A 
HETATM   21  O   UNL     1     -10.806   7.852 -35.750  1.00  0.00    -0.346 OA
HETATM   22  O   UNL     1     -13.414   6.635 -36.101  1.00  0.00    -0.346 OA
HETATM   23  C   UNL     1     -12.687   4.831 -34.785  1.00  0.00     0.040 A 
HETATM   24  C   UNL     1     -13.145   8.013 -36.390  1.00  0.00     0.202 C 
HETATM   25  C   UNL     1     -11.698   8.201 -36.818  1.00  0.00     0.202 C 
HETATM   26  C   UNL     1     -11.719   4.195 -34.006  1.00  0.00     0.012 A 
ENDBRANCH  16  17
ENDBRANCH  12  16
ENDBRANCH   5   9
BRANCH   5  27
HETATM   27  C   UNL     1      -6.043  -0.630 -34.564  1.00  0.00     0.080 C 
BRANCH  27  28
HETATM   28  C   UNL     1      -5.796  -2.121 -34.545  1.00  0.00    -0.052 A 
HETATM   29  C   UNL     1      -4.527  -2.643 -34.266  1.00  0.00     0.049 A 
HETATM   30  C   UNL     1      -4.326  -4.021 -34.255  1.00  0.00     0.116 A 
HETATM   31  F   UNL     1      -3.103  -4.501 -33.995  1.00  0.00    -0.206 F 
HETATM   32  C   UNL     1      -5.369  -4.901 -34.508  1.00  0.00     0.042 A 
HETATM   33  C   UNL     1      -6.639  -4.396 -34.776  1.00  0.00     0.003 A 
HETATM   34  C   UNL     1      -6.852  -3.015 -34.793  1.00  0.00     0.007 A 
ENDBRANCH  27  28
ENDBRANCH   5  27
BRANCH   1  35
HETATM   35  C   UNL     1      -3.763   2.275 -32.111  1.00  0.00     0.140 C 
BRANCH  35  36
HETATM   36  C   UNL     1      -4.115   3.381 -31.101  1.00  0.00    -0.004 C 
HETATM   37  C   UNL     1      -5.299   2.993 -30.213  1.00  0.00     0.011 C 
HETATM   38  C   UNL     1      -4.445   4.675 -31.848  1.00  0.00     0.011 C 
ENDBRANCH  35  36
ENDBRANCH   1  35
TORSDOF 7
ENDMDL
MODEL 4
REMARK VINA RESULT:      -9.4      3.454      5.060
REMARK  7 active torsions:
REMARK  status: ('A' for Active; 'I' for Inactive)
REMARK    1  A    between atoms: C_2  and  C_3 
REMARK    2  A    between atoms: C_3  and  N_4 
REMARK    3  A    between atoms: C_8  and  C_9 
REMARK    4  A    between atoms: C_8  and  C_27 
REMARK    5  A    between atoms: N_12  and  C_14 
REMARK    6  A    between atoms: C_14  and  C_15 
REMARK    7  A    between atoms: C_27  and  C_28 
ROOT
HETATM    1  N   UNL     1      -4.634   1.294 -32.370  1.00  0.00    -0.268 N 
HETATM    2  C   UNL     1      -4.557   0.084 -31.755  1.00  0.00     0.326 C 
HETATM    3  O   UNL     1      -3.670  -0.333 -31.033  1.00  0.00    -0.247 OA
HETATM    4  N   UNL     1      -5.684  -0.637 -32.082  1.00  0.00    -0.324 N 
HETATM    5  C   UNL     1      -6.439  -0.033 -33.170  1.00  0.00     0.123 C 
HETATM    6  C   UNL     1      -5.765   1.358 -33.130  1.00  0.00     0.257 C 
HETATM    7  O   UNL     1      -6.161   2.343 -33.740  1.00  0.00    -0.270 OA
HETATM    8  H   UNL     1      -5.704  -1.626 -31.847  1.00  0.00     0.165 HD
ENDROOT
BRANCH   5   9
HETATM    9  C   UNL     1      -7.975  -0.092 -32.873  1.00  0.00     0.027 C 
HETATM   10  C   UNL     1      -8.934   0.238 -34.030  1.00  0.00     0.035 C 
HETATM   11  C   UNL     1      -9.185   1.717 -34.297  1.00  0.00     0.235 C 
HETATM   12  N   UNL     1      -9.485   2.484 -33.032  1.00  0.00    -0.067 N 
HETATM   13  H   UNL     1     -10.449   2.249 -32.768  1.00  0.00     0.280 HD
HETATM   14  C   UNL     1      -8.595   2.176 -31.858  1.00  0.00     0.235 C 
HETATM   15  C   UNL     1      -8.451   0.685 -31.633  1.00  0.00     0.035 C 
BRANCH  12  16
HETATM   16  C   UNL     1      -9.462   3.992 -33.272  1.00  0.00     0.273 C 
BRANCH  16  17
HETATM   17  C   UNL     1      -8.678   4.781 -32.264  1.00  0.00    -0.030 A 
HETATM   18  C   UNL     1      -7.489   5.430 -32.627  1.00  0.00     0.048 A 
HETATM   19  C   UNL     1      -6.775   6.162 -31.676  1.00  0.00     0.102 A 
HETATM   20  C   UNL     1      -7.218   6.225 -30.354  1.00  0.00     0.102 A 
HETATM   21  O   UNL     1      -5.642   6.792 -32.119  1.00  0.00    -0.346 OA
HETATM   22  O   UNL     1      -6.551   6.900 -29.368  1.00  0.00    -0.346 OA
HETATM   23  C   UNL     1      -8.401   5.591 -29.986  1.00  0.00     0.040 A 
HETATM   24  C   UNL     1      -5.220   7.250 -29.769  1.00  0.00     0.202 C 
HETATM   25  C   UNL     1      -5.212   7.797 -31.188  1.00  0.00     0.202 C 
HETATM   26  C   UNL     1      -9.129   4.873 -30.935  1.00  0.00     0.012 A 
ENDBRANCH  16  17
ENDBRANCH  12  16
ENDBRANCH   5   9
BRANCH   5  27
HETATM   27  C   UNL     1      -6.015  -0.651 -34.539  1.00  0.00     0.080 C 
BRANCH  27  28
HETATM   28  C   UNL     1      -5.775  -2.143 -34.532  1.00  0.00    -0.052 A 
HETATM   29  C   UNL     1      -4.506  -2.675 -34.271  1.00  0.00     0.049 A 
HETATM   30  C   UNL     1      -4.313  -4.054 -34.271  1.00  0.00     0.116 A 
HETATM   31  F   UNL     1      -3.089  -4.541 -34.029  1.00  0.00    -0.206 F 
HETATM   32  C   UNL     1      -5.363  -4.927 -34.519  1.00  0.00     0.042 A 
HETATM   33  C   UNL     1      -6.634  -4.413 -34.768  1.00  0.00     0.003 A 
HETATM   34  C   UNL     1      -6.839  -3.030 -34.774  1.00  0.00     0.007 A 
ENDBRANCH  27  28
ENDBRANCH   5  27
BRANCH   1  35
HETATM   35  C   UNL     1      -3.604   2.319 -32.298  1.00  0.00     0.140 C 
BRANCH  35  36
HETATM   36  C   UNL     1      -4.086   3.650 -31.695  1.00  0.00    -0.004 C 
HETATM   37  C   UNL     1      -2.926   4.603 -31.406  1.00  0.00     0.011 C 
HETATM   38  C   UNL     1      -4.853   3.379 -30.399  1.00  0.00     0.011 C 
ENDBRANCH  35  36
ENDBRANCH   1  35
TORSDOF 7
ENDMDL
MODEL 5
REMARK VINA RESULT:      -9.4      1.644      2.473
REMARK  7 active torsions:
REMARK  status: ('A' for Active; 'I' for Inactive)
REMARK    1  A    between atoms: C_2  and  C_3 
REMARK    2  A    between atoms: C_3  and  N_4 
REMARK    3  A    between atoms: C_8  and  C_9 
REMARK    4  A    between atoms: C_8  and  C_27 
REMARK    5  A    between atoms: N_12  and  C_14 
REMARK    6  A    between atoms: C_14  and  C_15 
REMARK    7  A    between atoms: C_27  and  C_28 
ROOT
HETATM    1  N   UNL     1      -4.200   1.564 -32.492  1.00  0.00    -0.268 N 
HETATM    2  C   UNL     1      -3.825   0.404 -31.890  1.00  0.00     0.326 C 
HETATM    3  O   UNL     1      -2.764   0.151 -31.349  1.00  0.00    -0.247 OA
HETATM    4  N   UNL     1      -4.871  -0.487 -31.982  1.00  0.00    -0.324 N 
HETATM    5  C   UNL     1      -5.903  -0.045 -32.910  1.00  0.00     0.123 C 
HETATM    6  C   UNL     1      -5.452   1.430 -33.018  1.00  0.00     0.257 C 
HETATM    7  O   UNL     1      -6.101   2.320 -33.551  1.00  0.00    -0.270 OA
HETATM    8  H   UNL     1      -4.695  -1.458 -31.736  1.00  0.00     0.165 HD
ENDROOT
BRANCH   5   9
HETATM    9  C   UNL     1      -7.326  -0.316 -32.319  1.00  0.00     0.027 C 
HETATM   10  C   UNL     1      -8.525  -0.203 -33.276  1.00  0.00     0.035 C 
HETATM   11  C   UNL     1      -9.053   1.202 -33.534  1.00  0.00     0.235 C 
HETATM   12  N   UNL     1      -9.229   1.990 -32.259  1.00  0.00    -0.067 N 
HETATM   13  H   UNL     1     -10.077   1.630 -31.806  1.00  0.00     0.280 HD
HETATM   14  C   UNL     1      -8.098   1.890 -31.271  1.00  0.00     0.235 C 
HETATM   15  C   UNL     1      -7.679   0.453 -31.034  1.00  0.00     0.035 C 
BRANCH  12  16
HETATM   16  C   UNL     1      -9.491   3.467 -32.544  1.00  0.00     0.273 C 
BRANCH  16  17
HETATM   17  C   UNL     1     -10.870   3.944 -32.188  1.00  0.00    -0.030 A 
HETATM   18  C   UNL     1     -12.007   3.271 -32.656  1.00  0.00     0.048 A 
HETATM   19  C   UNL     1     -13.280   3.728 -32.312  1.00  0.00     0.102 A 
HETATM   20  C   UNL     1     -13.432   4.875 -31.531  1.00  0.00     0.102 A 
HETATM   21  O   UNL     1     -14.338   2.995 -32.782  1.00  0.00    -0.346 OA
HETATM   22  O   UNL     1     -14.651   5.393 -31.182  1.00  0.00    -0.346 OA
HETATM   23  C   UNL     1     -12.310   5.546 -31.055  1.00  0.00     0.040 A 
HETATM   24  C   UNL     1     -15.712   4.822 -31.957  1.00  0.00     0.202 C 
HETATM   25  C   UNL     1     -15.544   3.315 -32.074  1.00  0.00     0.202 C 
HETATM   26  C   UNL     1     -11.034   5.084 -31.380  1.00  0.00     0.012 A 
ENDBRANCH  16  17
ENDBRANCH  12  16
ENDBRANCH   5   9
BRANCH   5  27
HETATM   27  C   UNL     1      -5.658  -0.650 -34.327  1.00  0.00     0.080 C 
BRANCH  27  28
HETATM   28  C   UNL     1      -5.513  -2.154 -34.377  1.00  0.00    -0.052 A 
HETATM   29  C   UNL     1      -4.294  -2.777 -34.085  1.00  0.00     0.049 A 
HETATM   30  C   UNL     1      -4.187  -4.164 -34.138  1.00  0.00     0.116 A 
HETATM   31  F   UNL     1      -3.009  -4.740 -33.865  1.00  0.00    -0.206 F 
HETATM   32  C   UNL     1      -5.279  -4.956 -34.469  1.00  0.00     0.042 A 
HETATM   33  C   UNL     1      -6.501  -4.352 -34.750  1.00  0.00     0.003 A 
HETATM   34  C   UNL     1      -6.619  -2.959 -34.703  1.00  0.00     0.007 A 
ENDBRANCH  27  28
ENDBRANCH   5  27
BRANCH   1  35
HETATM   35  C   UNL     1      -3.343   2.731 -32.635  1.00  0.00     0.140 C 
BRANCH  35  36
HETATM   36  C   UNL     1      -3.209   3.570 -31.353  1.00  0.00    -0.004 C 
HETATM   37  C   UNL     1      -4.511   4.288 -30.997  1.00  0.00     0.011 C 
HETATM   38  C   UNL     1      -2.092   4.602 -31.527  1.00  0.00     0.011 C 
ENDBRANCH  35  36
ENDBRANCH   1  35
TORSDOF 7
ENDMDL
MODEL 6
REMARK VINA RESULT:      -9.2      3.251      8.179
REMARK  7 active torsions:
REMARK  status: ('A' for Active; 'I' for Inactive)
REMARK    1  A    between atoms: C_2  and  C_3 
REMARK    2  A    between atoms: C_3  and  N_4 
REMARK    3  A    between atoms: C_8  and  C_9 
REMARK    4  A    between atoms: C_8  and  C_27 
REMARK    5  A    between atoms: N_12  and  C_14 
REMARK    6  A    between atoms: C_14  and  C_15 
REMARK    7  A    between atoms: C_27  and  C_28 
ROOT
HETATM    1  N   UNL     1      -6.778   0.501 -32.709  1.00  0.00    -0.268 N 
HETATM    2  C   UNL     1      -7.109   0.290 -31.407  1.00  0.00     0.326 C 
HETATM    3  O   UNL     1      -6.471  -0.307 -30.560  1.00  0.00    -0.247 OA
HETATM    4  N   UNL     1      -8.332   0.881 -31.173  1.00  0.00    -0.324 N 
HETATM    5  C   UNL     1      -9.006   1.277 -32.402  1.00  0.00     0.123 C 
HETATM    6  C   UNL     1      -7.782   1.175 -33.341  1.00  0.00     0.257 C 
HETATM    7  O   UNL     1      -7.751   1.586 -34.493  1.00  0.00    -0.270 OA
HETATM    8  H   UNL     1      -8.805   0.669 -30.299  1.00  0.00     0.165 HD
ENDROOT
BRANCH   5   9
HETATM    9  C   UNL     1      -9.665   2.687 -32.236  1.00  0.00     0.027 C 
HETATM   10  C   UNL     1      -9.085   3.843 -33.071  1.00  0.00     0.035 C 
HETATM   11  C   UNL     1      -7.837   4.516 -32.515  1.00  0.00     0.235 C 
HETATM   12  N   UNL     1      -7.968   4.844 -31.048  1.00  0.00    -0.067 N 
HETATM   13  H   UNL     1      -8.580   5.666 -30.984  1.00  0.00     0.280 HD
HETATM   14  C   UNL     1      -8.560   3.758 -30.190  1.00  0.00     0.235 C 
HETATM   15  C   UNL     1      -9.829   3.189 -30.791  1.00  0.00     0.035 C 
BRANCH  12  16
HETATM   16  C   UNL     1      -6.629   5.260 -30.444  1.00  0.00     0.273 C 
BRANCH  16  17
HETATM   17  C   UNL     1      -5.433   4.989 -31.310  1.00  0.00    -0.030 A 
HETATM   18  C   UNL     1      -4.898   5.992 -32.131  1.00  0.00     0.048 A 
HETATM   19  C   UNL     1      -3.784   5.722 -32.928  1.00  0.00     0.102 A 
HETATM   20  C   UNL     1      -3.216   4.447 -32.940  1.00  0.00     0.102 A 
HETATM   21  O   UNL     1      -3.303   6.764 -33.676  1.00  0.00    -0.346 OA
HETATM   22  O   UNL     1      -2.142   4.108 -33.717  1.00  0.00    -0.346 OA
HETATM   23  C   UNL     1      -3.734   3.448 -32.122  1.00  0.00     0.040 A 
HETATM   24  C   UNL     1      -1.882   5.094 -34.724  1.00  0.00     0.202 C 
HETATM   25  C   UNL     1      -1.972   6.495 -34.141  1.00  0.00     0.202 C 
HETATM   26  C   UNL     1      -4.837   3.715 -31.310  1.00  0.00     0.012 A 
ENDBRANCH  16  17
ENDBRANCH  12  16
ENDBRANCH   5   9
BRANCH   5  27
HETATM   27  C   UNL     1      -9.979   0.154 -32.878  1.00  0.00     0.080 C 
BRANCH  27  28
HETATM   28  C   UNL     1     -11.223   0.630 -33.592  1.00  0.00    -0.052 A 
HETATM   29  C   UNL     1     -11.156   1.599 -34.600  1.00  0.00     0.049 A 
HETATM   30  C   UNL     1     -12.318   2.020 -35.243  1.00  0.00     0.116 A 
HETATM   31  F   UNL     1     -12.234   2.955 -36.198  1.00  0.00    -0.206 F 
HETATM   32  C   UNL     1     -13.556   1.488 -34.909  1.00  0.00     0.042 A 
HETATM   33  C   UNL     1     -13.637   0.515 -33.916  1.00  0.00     0.003 A 
HETATM   34  C   UNL     1     -12.478   0.088 -33.262  1.00  0.00     0.007 A 
ENDBRANCH  27  28
ENDBRANCH   5  27
BRANCH   1  35
HETATM   35  C   UNL     1      -5.573  -0.012 -33.344  1.00  0.00     0.140 C 
BRANCH  35  36
HETATM   36  C   UNL     1      -5.597  -1.529 -33.598  1.00  0.00    -0.004 C 
HETATM   37  C   UNL     1      -4.193  -2.098 -33.810  1.00  0.00     0.011 C 
HETATM   38  C   UNL     1      -6.457  -1.832 -34.827  1.00  0.00     0.011 C 
ENDBRANCH  35  36
ENDBRANCH   1  35
TORSDOF 7
ENDMDL
MODEL 7
REMARK VINA RESULT:      -8.9      3.116      5.864
REMARK  7 active torsions:
REMARK  status: ('A' for Active; 'I' for Inactive)
REMARK    1  A    between atoms: C_2  and  C_3 
REMARK    2  A    between atoms: C_3  and  N_4 
REMARK    3  A    between atoms: C_8  and  C_9 
REMARK    4  A    between atoms: C_8  and  C_27 
REMARK    5  A    between atoms: N_12  and  C_14 
REMARK    6  A    between atoms: C_14  and  C_15 
REMARK    7  A    between atoms: C_27  and  C_28 
ROOT
HETATM    1  N   UNL     1      -5.981   1.182 -32.503  1.00  0.00    -0.268 N 
HETATM    2  C   UNL     1      -6.175   1.916 -33.631  1.00  0.00     0.326 C 
HETATM    3  O   UNL     1      -6.711   1.567 -34.667  1.00  0.00    -0.247 OA
HETATM    4  N   UNL     1      -5.654   3.174 -33.422  1.00  0.00    -0.324 N 
HETATM    5  C   UNL     1      -4.829   3.245 -32.224  1.00  0.00     0.123 C 
HETATM    6  C   UNL     1      -5.300   1.922 -31.580  1.00  0.00     0.257 C 
HETATM    7  O   UNL     1      -5.043   1.573 -30.435  1.00  0.00    -0.270 OA
HETATM    8  H   UNL     1      -5.561   3.792 -34.223  1.00  0.00     0.165 HD
ENDROOT
BRANCH   5   9
HETATM    9  C   UNL     1      -5.117   4.566 -31.436  1.00  0.00     0.027 C 
HETATM   10  C   UNL     1      -5.455   4.441 -29.940  1.00  0.00     0.035 C 
HETATM   11  C   UNL     1      -6.898   4.089 -29.602  1.00  0.00     0.235 C 
HETATM   12  N   UNL     1      -7.887   4.930 -30.371  1.00  0.00    -0.067 N 
HETATM   13  H   UNL     1      -7.888   5.858 -29.930  1.00  0.00     0.280 HD
HETATM   14  C   UNL     1      -7.587   5.113 -31.834  1.00  0.00     0.235 C 
HETATM   15  C   UNL     1      -6.146   5.518 -32.070  1.00  0.00     0.035 C 
BRANCH  12  16
HETATM   16  C   UNL     1      -9.309   4.391 -30.233  1.00  0.00     0.273 C 
BRANCH  16  17
HETATM   17  C   UNL     1      -9.794   3.582 -31.401  1.00  0.00    -0.030 A 
HETATM   18  C   UNL     1     -10.733   4.109 -32.300  1.00  0.00     0.048 A 
HETATM   19  C   UNL     1     -11.170   3.343 -33.382  1.00  0.00     0.102 A 
HETATM   20  C   UNL     1     -10.705   2.039 -33.558  1.00  0.00     0.102 A 
HETATM   21  O   UNL     1     -12.062   3.943 -34.231  1.00  0.00    -0.346 OA
HETATM   22  O   UNL     1     -11.114   1.225 -34.580  1.00  0.00    -0.346 OA
HETATM   23  C   UNL     1      -9.768   1.510 -32.677  1.00  0.00     0.040 A 
HETATM   24  C   UNL     1     -12.280   1.741 -35.236  1.00  0.00     0.202 C 
HETATM   25  C   UNL     1     -12.145   3.236 -35.477  1.00  0.00     0.202 C 
HETATM   26  C   UNL     1      -9.312   2.276 -31.603  1.00  0.00     0.012 A 
ENDBRANCH  16  17
ENDBRANCH  12  16
ENDBRANCH   5   9
BRANCH   5  27
HETATM   27  C   UNL     1      -3.328   3.013 -32.581  1.00  0.00     0.080 C 
BRANCH  27  28
HETATM   28  C   UNL     1      -2.531   4.260 -32.889  1.00  0.00    -0.052 A 
HETATM   29  C   UNL     1      -1.627   4.792 -31.962  1.00  0.00     0.049 A 
HETATM   30  C   UNL     1      -0.905   5.942 -32.271  1.00  0.00     0.116 A 
HETATM   31  F   UNL     1      -0.052   6.441 -31.366  1.00  0.00    -0.206 F 
HETATM   32  C   UNL     1      -1.055   6.577 -33.496  1.00  0.00     0.042 A 
HETATM   33  C   UNL     1      -1.943   6.052 -34.433  1.00  0.00     0.003 A 
HETATM   34  C   UNL     1      -2.675   4.900 -34.132  1.00  0.00     0.007 A 
ENDBRANCH  27  28
ENDBRANCH   5  27
BRANCH   1  35
HETATM   35  C   UNL     1      -6.358  -0.215 -32.356  1.00  0.00     0.140 C 
BRANCH  35  36
HETATM   36  C   UNL     1      -5.349  -1.204 -32.964  1.00  0.00    -0.004 C 
HETATM   37  C   UNL     1      -3.983  -0.558 -33.202  1.00  0.00     0.011 C 
HETATM   38  C   UNL     1      -5.891  -1.743 -34.290  1.00  0.00     0.011 C 
ENDBRANCH  35  36
ENDBRANCH   1  35
TORSDOF 7
ENDMDL
MODEL 8
REMARK VINA RESULT:      -8.9      2.688      5.429
REMARK  7 active torsions:
REMARK  status: ('A' for Active; 'I' for Inactive)
REMARK    1  A    between atoms: C_2  and  C_3 
REMARK    2  A    between atoms: C_3  and  N_4 
REMARK    3  A    between atoms: C_8  and  C_9 
REMARK    4  A    between atoms: C_8  and  C_27 
REMARK    5  A    between atoms: N_12  and  C_14 
REMARK    6  A    between atoms: C_14  and  C_15 
REMARK    7  A    between atoms: C_27  and  C_28 
ROOT
HETATM    1  N   UNL     1      -6.091   0.816 -32.466  1.00  0.00    -0.268 N 
HETATM    2  C   UNL     1      -6.040   1.844 -33.354  1.00  0.00     0.326 C 
HETATM    3  O   UNL     1      -6.319   1.824 -34.539  1.00  0.00    -0.247 OA
HETATM    4  N   UNL     1      -5.608   2.969 -32.687  1.00  0.00    -0.324 N 
HETATM    5  C   UNL     1      -5.078   2.665 -31.364  1.00  0.00     0.123 C 
HETATM    6  C   UNL     1      -5.654   1.236 -31.244  1.00  0.00     0.257 C 
HETATM    7  O   UNL     1      -5.657   0.569 -30.217  1.00  0.00    -0.270 OA
HETATM    8  H   UNL     1      -5.348   3.782 -33.238  1.00  0.00     0.165 HD
ENDROOT
BRANCH   5   9
HETATM    9  C   UNL     1      -5.567   3.724 -30.320  1.00  0.00     0.027 C 
HETATM   10  C   UNL     1      -6.969   3.530 -29.716  1.00  0.00     0.035 C 
HETATM   11  C   UNL     1      -8.139   4.025 -30.556  1.00  0.00     0.235 C 
HETATM   12  N   UNL     1      -7.907   5.414 -31.099  1.00  0.00    -0.067 N 
HETATM   13  H   UNL     1      -8.046   6.062 -30.314  1.00  0.00     0.280 HD
HETATM   14  C   UNL     1      -6.540   5.668 -31.673  1.00  0.00     0.235 C 
HETATM   15  C   UNL     1      -5.439   5.197 -30.745  1.00  0.00     0.035 C 
BRANCH  12  16
HETATM   16  C   UNL     1      -8.950   5.786 -32.151  1.00  0.00     0.273 C 
BRANCH  16  17
HETATM   17  C   UNL     1      -9.680   4.623 -32.758  1.00  0.00    -0.030 A 
HETATM   18  C   UNL     1     -10.972   4.284 -32.332  1.00  0.00     0.048 A 
HETATM   19  C   UNL     1     -11.636   3.201 -32.910  1.00  0.00     0.102 A 
HETATM   20  C   UNL     1     -11.009   2.428 -33.888  1.00  0.00     0.102 A 
HETATM   21  O   UNL     1     -12.907   2.956 -32.462  1.00  0.00    -0.346 OA
HETATM   22  O   UNL     1     -11.591   1.337 -34.475  1.00  0.00    -0.346 OA
HETATM   23  C   UNL     1      -9.730   2.761 -34.323  1.00  0.00     0.040 A 
HETATM   24  C   UNL     1     -12.755   0.905 -33.757  1.00  0.00     0.202 C 
HETATM   25  C   UNL     1     -13.617   2.095 -33.364  1.00  0.00     0.202 C 
HETATM   26  C   UNL     1      -9.066   3.853 -33.762  1.00  0.00     0.012 A 
ENDBRANCH  16  17
ENDBRANCH  12  16
ENDBRANCH   5   9
BRANCH   5  27
HETATM   27  C   UNL     1      -3.530   2.476 -31.426  1.00  0.00     0.080 C 
BRANCH  27  28
HETATM   28  C   UNL     1      -2.762   3.603 -32.078  1.00  0.00    -0.052 A 
HETATM   29  C   UNL     1      -2.772   3.781 -33.467  1.00  0.00     0.049 A 
HETATM   30  C   UNL     1      -2.056   4.828 -34.042  1.00  0.00     0.116 A 
HETATM   31  F   UNL     1      -2.071   4.975 -35.374  1.00  0.00    -0.206 F 
HETATM   32  C   UNL     1      -1.330   5.716 -33.261  1.00  0.00     0.042 A 
HETATM   33  C   UNL     1      -1.320   5.558 -31.877  1.00  0.00     0.003 A 
HETATM   34  C   UNL     1      -2.033   4.509 -31.289  1.00  0.00     0.007 A 
ENDBRANCH  27  28
ENDBRANCH   5  27
BRANCH   1  35
HETATM   35  C   UNL     1      -6.462  -0.548 -32.809  1.00  0.00     0.140 C 
BRANCH  35  36
HETATM   36  C   UNL     1      -5.525  -1.213 -33.833  1.00  0.00    -0.004 C 
HETATM   37  C   UNL     1      -6.222  -2.332 -34.609  1.00  0.00     0.011 C 
HETATM   38  C   UNL     1      -4.299  -1.783 -33.115  1.00  0.00     0.011 C 
ENDBRANCH  35  36
ENDBRANCH   1  35
TORSDOF 7
ENDMDL
MODEL 9
REMARK VINA RESULT:      -8.8      3.511      9.273
REMARK  7 active torsions:
REMARK  status: ('A' for Active; 'I' for Inactive)
REMARK    1  A    between atoms: C_2  and  C_3 
REMARK    2  A    between atoms: C_3  and  N_4 
REMARK    3  A    between atoms: C_8  and  C_9 
REMARK    4  A    between atoms: C_8  and  C_27 
REMARK    5  A    between atoms: N_12  and  C_14 
REMARK    6  A    between atoms: C_14  and  C_15 
REMARK    7  A    between atoms: C_27  and  C_28 
ROOT
HETATM    1  N   UNL     1      -8.559   2.816 -32.275  1.00  0.00    -0.268 N 
HETATM    2  C   UNL     1      -7.953   3.961 -32.688  1.00  0.00     0.326 C 
HETATM    3  O   UNL     1      -8.472   5.031 -32.945  1.00  0.00    -0.247 OA
HETATM    4  N   UNL     1      -6.599   3.723 -32.777  1.00  0.00    -0.324 N 
HETATM    5  C   UNL     1      -6.273   2.306 -32.693  1.00  0.00     0.123 C 
HETATM    6  C   UNL     1      -7.632   1.823 -32.139  1.00  0.00     0.257 C 
HETATM    7  O   UNL     1      -7.849   0.699 -31.705  1.00  0.00    -0.270 OA
HETATM    8  H   UNL     1      -6.020   4.421 -33.238  1.00  0.00     0.165 HD
ENDROOT
BRANCH   5   9
HETATM    9  C   UNL     1      -5.014   2.085 -31.790  1.00  0.00     0.027 C 
HETATM   10  C   UNL     1      -5.073   2.619 -30.348  1.00  0.00     0.035 C 
HETATM   11  C   UNL     1      -4.770   4.101 -30.164  1.00  0.00     0.235 C 
HETATM   12  N   UNL     1      -3.531   4.529 -30.911  1.00  0.00    -0.067 N 
HETATM   13  H   UNL     1      -2.729   4.180 -30.373  1.00  0.00     0.280 HD
HETATM   14  C   UNL     1      -3.407   4.008 -32.318  1.00  0.00     0.235 C 
HETATM   15  C   UNL     1      -3.666   2.517 -32.395  1.00  0.00     0.035 C 
BRANCH  12  16
HETATM   16  C   UNL     1      -3.394   6.049 -30.946  1.00  0.00     0.273 C 
BRANCH  16  17
HETATM   17  C   UNL     1      -2.167   6.589 -30.269  1.00  0.00    -0.030 A 
HETATM   18  C   UNL     1      -2.244   7.165 -28.993  1.00  0.00     0.048 A 
HETATM   19  C   UNL     1      -1.092   7.658 -28.379  1.00  0.00     0.102 A 
HETATM   20  C   UNL     1       0.136   7.615 -29.042  1.00  0.00     0.102 A 
HETATM   21  O   UNL     1      -1.246   8.174 -27.119  1.00  0.00    -0.346 OA
HETATM   22  O   UNL     1       1.297   8.107 -28.509  1.00  0.00    -0.346 OA
HETATM   23  C   UNL     1       0.224   7.039 -30.305  1.00  0.00     0.040 A 
HETATM   24  C   UNL     1       1.049   8.935 -27.366  1.00  0.00     0.202 C 
HETATM   25  C   UNL     1       0.018   8.293 -26.451  1.00  0.00     0.202 C 
HETATM   26  C   UNL     1      -0.920   6.527 -30.918  1.00  0.00     0.012 A 
ENDBRANCH  16  17
ENDBRANCH  12  16
ENDBRANCH   5   9
BRANCH   5  27
HETATM   27  C   UNL     1      -6.169   1.683 -34.120  1.00  0.00     0.080 C 
BRANCH  27  28
HETATM   28  C   UNL     1      -6.052   0.177 -34.166  1.00  0.00    -0.052 A 
HETATM   29  C   UNL     1      -4.945  -0.483 -33.620  1.00  0.00     0.049 A 
HETATM   30  C   UNL     1      -4.862  -1.872 -33.675  1.00  0.00     0.116 A 
HETATM   31  F   UNL     1      -3.789  -2.483 -33.155  1.00  0.00    -0.206 F 
HETATM   32  C   UNL     1      -5.869  -2.629 -34.258  1.00  0.00     0.042 A 
HETATM   33  C   UNL     1      -6.982  -1.987 -34.795  1.00  0.00     0.003 A 
HETATM   34  C   UNL     1      -7.074  -0.593 -34.748  1.00  0.00     0.007 A 
ENDBRANCH  27  28
ENDBRANCH   5  27
BRANCH   1  35
HETATM   35  C   UNL     1      -9.995   2.661 -32.105  1.00  0.00     0.140 C 
BRANCH  35  36
HETATM   36  C   UNL     1     -10.768   2.501 -33.425  1.00  0.00    -0.004 C 
HETATM   37  C   UNL     1     -12.254   2.825 -33.265  1.00  0.00     0.011 C 
HETATM   38  C   UNL     1     -10.616   1.068 -33.941  1.00  0.00     0.011 C 
ENDBRANCH  35  36
ENDBRANCH   1  35
TORSDOF 7
ENDMDL
MODEL 10
REMARK VINA RESULT:      -8.8      3.598      5.229
REMARK  7 active torsions:
REMARK  status: ('A' for Active; 'I' for Inactive)
REMARK    1  A    between atoms: C_2  and  C_3 
REMARK    2  A    between atoms: C_3  and  N_4 
REMARK    3  A    between atoms: C_8  and  C_9 
REMARK    4  A    between atoms: C_8  and  C_27 
REMARK    5  A    between atoms: N_12  and  C_14 
REMARK    6  A    between atoms: C_14  and  C_15 
REMARK    7  A    between atoms: C_27  and  C_28 
ROOT
HETATM    1  N   UNL     1      -2.919   5.369 -32.445  1.00  0.00    -0.268 N 
HETATM    2  C   UNL     1      -2.632   4.580 -31.375  1.00  0.00     0.326 C 
HETATM    3  O   UNL     1      -1.547   4.146 -31.035  1.00  0.00    -0.247 OA
HETATM    4  N   UNL     1      -3.805   4.330 -30.698  1.00  0.00    -0.324 N 
HETATM    5  C   UNL     1      -4.985   4.721 -31.458  1.00  0.00     0.123 C 
HETATM    6  C   UNL     1      -4.263   5.599 -32.506  1.00  0.00     0.257 C 
HETATM    7  O   UNL     1      -4.825   6.338 -33.304  1.00  0.00    -0.270 OA
HETATM    8  H   UNL     1      -3.797   3.616 -29.975  1.00  0.00     0.165 HD
ENDROOT
BRANCH   5   9
HETATM    9  C   UNL     1      -6.028   5.428 -30.530  1.00  0.00     0.027 C 
HETATM   10  C   UNL     1      -6.490   4.668 -29.274  1.00  0.00     0.035 C 
HETATM   11  C   UNL     1      -7.586   3.630 -29.479  1.00  0.00     0.235 C 
HETATM   12  N   UNL     1      -8.726   4.159 -30.313  1.00  0.00    -0.067 N 
HETATM   13  H   UNL     1      -9.270   4.782 -29.704  1.00  0.00     0.280 HD
HETATM   14  C   UNL     1      -8.330   4.939 -31.538  1.00  0.00     0.235 C 
HETATM   15  C   UNL     1      -7.281   5.986 -31.228  1.00  0.00     0.035 C 
BRANCH  12  16
HETATM   16  C   UNL     1      -9.676   3.041 -30.738  1.00  0.00     0.273 C 
BRANCH  16  17
HETATM   17  C   UNL     1      -9.220   2.242 -31.925  1.00  0.00    -0.030 A 
HETATM   18  C   UNL     1      -8.327   1.172 -31.771  1.00  0.00     0.048 A 
HETATM   19  C   UNL     1      -7.917   0.439 -32.886  1.00  0.00     0.102 A 
HETATM   20  C   UNL     1      -8.364   0.784 -34.162  1.00  0.00     0.102 A 
HETATM   21  O   UNL     1      -7.069  -0.611 -32.646  1.00  0.00    -0.346 OA
HETATM   22  O   UNL     1      -7.980   0.125 -35.299  1.00  0.00    -0.346 OA
HETATM   23  C   UNL     1      -9.257   1.838 -34.324  1.00  0.00     0.040 A 
HETATM   24  C   UNL     1      -6.850  -0.725 -35.064  1.00  0.00     0.202 C 
HETATM   25  C   UNL     1      -7.021  -1.503 -33.769  1.00  0.00     0.202 C 
HETATM   26  C   UNL     1      -9.685   2.565 -33.212  1.00  0.00     0.012 A 
ENDBRANCH  16  17
ENDBRANCH  12  16
ENDBRANCH   5   9
BRANCH   5  27
HETATM   27  C   UNL     1      -5.544   3.506 -32.261  1.00  0.00     0.080 C 
BRANCH  27  28
HETATM   28  C   UNL     1      -4.907   2.171 -31.950  1.00  0.00    -0.052 A 
HETATM   29  C   UNL     1      -4.127   1.498 -32.898  1.00  0.00     0.049 A 
HETATM   30  C   UNL     1      -3.552   0.269 -32.585  1.00  0.00     0.116 A 
HETATM   31  F   UNL     1      -2.817  -0.362 -33.510  1.00  0.00    -0.206 F 
HETATM   32  C   UNL     1      -3.728  -0.309 -31.335  1.00  0.00     0.042 A 
HETATM   33  C   UNL     1      -4.492   0.354 -30.378  1.00  0.00     0.003 A 
HETATM   34  C   UNL     1      -5.077   1.587 -30.682  1.00  0.00     0.007 A 
ENDBRANCH  27  28
ENDBRANCH   5  27
BRANCH   1  35
HETATM   35  C   UNL     1      -1.940   5.810 -33.427  1.00  0.00     0.140 C 
BRANCH  35  36
HETATM   36  C   UNL     1      -1.164   7.072 -33.013  1.00  0.00    -0.004 C 
HETATM   37  C   UNL     1      -0.021   6.754 -32.047  1.00  0.00     0.011 C 
HETATM   38  C   UNL     1      -2.118   8.072 -32.356  1.00  0.00     0.011 C 
ENDBRANCH  35  36
ENDBRANCH   1  35
TORSDOF 7
ENDMDL
