MODEL 1
REMARK VINA RESULT:      -9.5      0.000      0.000
REMARK  4 active torsions:
REMARK  status: ('A' for Active; 'I' for Inactive)
REMARK    1  A    between atoms: O_2  and  C_3 
REMARK    2  A    between atoms: C_3  and  C_4 
REMARK    3  A    between atoms: N_11  and  C_13 
REMARK    4  A    between atoms: C_13  and  C_14 
ROOT
HETATM    1  C   UNL     1      -5.482   1.273 -32.119  1.00  0.00     0.290 C 
HETATM    2  N   UNL     1      -6.701   1.685 -33.029  1.00  0.00    -0.047 N 
HETATM    3  H   UNL     1      -6.256   2.014 -33.896  1.00  0.00     0.279 HD
HETATM    4  H   UNL     1      -7.114   2.498 -32.555  1.00  0.00     0.279 HD
HETATM    5  C   UNL     1      -7.723   0.597 -33.384  1.00  0.00     0.172 C 
HETATM    6  C   UNL     1      -8.743   0.333 -32.260  1.00  0.00     0.073 C 
HETATM    7  C   UNL     1      -9.669   1.505 -31.969  1.00  0.00     0.238 C 
HETATM    8  N   UNL     1     -10.380   1.909 -33.239  1.00  0.00    -0.067 N 
HETATM    9  H   UNL     1     -11.003   1.133 -33.509  1.00  0.00     0.280 HD
HETATM   10  C   UNL     1      -9.451   2.222 -34.380  1.00  0.00     0.238 C 
HETATM   11  C   UNL     1      -8.495   1.064 -34.640  1.00  0.00     0.073 C 
HETATM   12  C   UNL     1      -6.940  -0.656 -33.661  1.00  0.00     0.053 A 
HETATM   13  C   UNL     1      -5.609  -0.891 -33.363  1.00  0.00    -0.018 A 
HETATM   14  C   UNL     1      -4.704   0.112 -32.744  1.00  0.00     0.085 C 
HETATM   15  N   UNL     1      -7.439  -1.811 -34.222  1.00  0.00    -0.356 N 
HETATM   16  H   UNL     1      -8.384  -1.988 -34.539  1.00  0.00     0.166 HD
HETATM   17  C   UNL     1      -6.451  -2.765 -34.306  1.00  0.00     0.043 A 
HETATM   18  C   UNL     1      -5.287  -2.213 -33.775  1.00  0.00    -0.001 A 
HETATM   19  C   UNL     1      -6.504  -4.069 -34.812  1.00  0.00     0.030 A 
HETATM   20  C   UNL     1      -5.330  -4.826 -34.774  1.00  0.00     0.002 A 
HETATM   21  C   UNL     1      -4.153  -4.300 -34.249  1.00  0.00     0.001 A 
HETATM   22  C   UNL     1      -4.116  -2.994 -33.747  1.00  0.00     0.014 A 
ENDROOT
BRANCH   1  23
HETATM   23  C   UNL     1      -5.923   1.110 -30.667  1.00  0.00     0.289 C 
HETATM   24  O   UNL     1      -5.892  -0.000 -30.137  1.00  0.00    -0.263 OA
BRANCH  23  25
HETATM   25  O   UNL     1      -6.378   2.250 -30.115  1.00  0.00    -0.325 OA
HETATM   26  C   UNL     1      -5.445   3.339 -30.096  1.00  0.00     0.213 C 
ENDBRANCH  23  25
ENDBRANCH   1  23
BRANCH   8  27
HETATM   27  C   UNL     1     -11.360   3.076 -33.014  1.00  0.00     0.273 C 
BRANCH  27  28
HETATM   28  C   UNL     1     -12.796   2.647 -32.927  1.00  0.00    -0.033 A 
HETATM   29  C   UNL     1     -13.684   3.321 -32.075  1.00  0.00     0.009 A 
HETATM   30  C   UNL     1     -15.014   2.913 -31.972  1.00  0.00     0.001 A 
HETATM   31  C   UNL     1     -15.470   1.830 -32.719  1.00  0.00     0.000 A 
HETATM   32  C   UNL     1     -14.601   1.159 -33.576  1.00  0.00     0.001 A 
HETATM   33  C   UNL     1     -13.270   1.563 -33.684  1.00  0.00     0.009 A 
ENDBRANCH  27  28
ENDBRANCH   8  27
TORSDOF 4
ENDMDL
MODEL 2
REMARK VINA RESULT:      -9.2      2.151      8.046
REMARK  4 active torsions:
REMARK  status: ('A' for Active; 'I' for Inactive)
REMARK    1  A    between atoms: O_2  and  C_3 
REMARK    2  A    between atoms: C_3  and  C_4 
REMARK    3  A    between atoms: N_11  and  C_13 
REMARK    4  A    between atoms: C_13  and  C_14 
ROOT
HETATM    1  C   UNL     1      -9.328   4.261 -32.640  1.00  0.00     0.290 C 
HETATM    2  N   UNL     1      -8.743   2.818 -32.395  1.00  0.00    -0.047 N 
HETATM    3  H   UNL     1      -8.817   2.697 -31.376  1.00  0.00     0.279 HD
HETATM    4  H   UNL     1      -7.747   2.901 -32.634  1.00  0.00     0.279 HD
HETATM    5  C   UNL     1      -9.444   1.641 -33.083  1.00  0.00     0.172 C 
HETATM    6  C   UNL     1      -9.042   1.475 -34.562  1.00  0.00     0.073 C 
HETATM    7  C   UNL     1      -7.584   1.098 -34.774  1.00  0.00     0.238 C 
HETATM    8  N   UNL     1      -7.275  -0.163 -34.001  1.00  0.00    -0.067 N 
HETATM    9  H   UNL     1      -7.817  -0.931 -34.427  1.00  0.00     0.280 HD
HETATM   10  C   UNL     1      -7.604  -0.072 -32.537  1.00  0.00     0.238 C 
HETATM   11  C   UNL     1      -9.054   0.350 -32.327  1.00  0.00     0.073 C 
HETATM   12  C   UNL     1     -10.921   1.902 -32.986  1.00  0.00     0.053 A 
HETATM   13  C   UNL     1     -11.537   3.091 -32.637  1.00  0.00    -0.018 A 
HETATM   14  C   UNL     1     -10.805   4.324 -32.243  1.00  0.00     0.085 C 
HETATM   15  N   UNL     1     -11.921   1.001 -33.281  1.00  0.00    -0.356 N 
HETATM   16  H   UNL     1     -11.819   0.041 -33.588  1.00  0.00     0.166 HD
HETATM   17  C   UNL     1     -13.155   1.584 -33.105  1.00  0.00     0.043 A 
HETATM   18  C   UNL     1     -12.944   2.899 -32.698  1.00  0.00    -0.001 A 
HETATM   19  C   UNL     1     -14.434   1.044 -33.277  1.00  0.00     0.030 A 
HETATM   20  C   UNL     1     -15.528   1.876 -33.022  1.00  0.00     0.002 A 
HETATM   21  C   UNL     1     -15.347   3.194 -32.613  1.00  0.00     0.001 A 
HETATM   22  C   UNL     1     -14.061   3.720 -32.446  1.00  0.00     0.014 A 
ENDROOT
BRANCH   1  23
HETATM   23  C   UNL     1      -8.964   4.763 -34.034  1.00  0.00     0.289 C 
HETATM   24  O   UNL     1      -7.797   5.052 -34.298  1.00  0.00    -0.263 OA
BRANCH  23  25
HETATM   25  O   UNL     1     -10.027   4.897 -34.848  1.00  0.00    -0.325 OA
HETATM   26  C   UNL     1     -10.214   6.206 -35.404  1.00  0.00     0.213 C 
ENDBRANCH  23  25
ENDBRANCH   1  23
BRANCH   8  27
HETATM   27  C   UNL     1      -5.818  -0.624 -34.194  1.00  0.00     0.273 C 
BRANCH  27  28
HETATM   28  C   UNL     1      -5.671  -2.111 -34.329  1.00  0.00    -0.033 A 
HETATM   29  C   UNL     1      -4.437  -2.725 -34.064  1.00  0.00     0.009 A 
HETATM   30  C   UNL     1      -4.286  -4.104 -34.210  1.00  0.00     0.001 A 
HETATM   31  C   UNL     1      -5.364  -4.883 -34.622  1.00  0.00     0.000 A 
HETATM   32  C   UNL     1      -6.597  -4.287 -34.879  1.00  0.00     0.001 A 
HETATM   33  C   UNL     1      -6.754  -2.908 -34.732  1.00  0.00     0.009 A 
ENDBRANCH  27  28
ENDBRANCH   8  27
TORSDOF 4
ENDMDL
MODEL 3
REMARK VINA RESULT:      -9.1      3.148      7.378
REMARK  4 active torsions:
REMARK  status: ('A' for Active; 'I' for Inactive)
REMARK    1  A    between atoms: O_2  and  C_3 
REMARK    2  A    between atoms: C_3  and  C_4 
REMARK    3  A    between atoms: N_11  and  C_13 
REMARK    4  A    between atoms: C_13  and  C_14 
ROOT
HETATM    1  C   UNL     1      -8.484   1.495 -32.303  1.00  0.00     0.290 C 
HETATM    2  N   UNL     1      -7.177   1.958 -31.555  1.00  0.00    -0.047 N 
HETATM    3  H   UNL     1      -7.192   1.415 -30.681  1.00  0.00     0.279 HD
HETATM    4  H   UNL     1      -7.349   2.943 -31.320  1.00  0.00     0.279 HD
HETATM    5  C   UNL     1      -5.834   1.720 -32.258  1.00  0.00     0.172 C 
HETATM    6  C   UNL     1      -5.513   2.783 -33.327  1.00  0.00     0.073 C 
HETATM    7  C   UNL     1      -5.297   4.182 -32.771  1.00  0.00     0.238 C 
HETATM    8  N   UNL     1      -4.207   4.144 -31.725  1.00  0.00    -0.067 N 
HETATM    9  H   UNL     1      -3.324   3.903 -32.202  1.00  0.00     0.280 HD
HETATM   10  C   UNL     1      -4.462   3.156 -30.621  1.00  0.00     0.238 C 
HETATM   11  C   UNL     1      -4.723   1.763 -31.183  1.00  0.00     0.073 C 
HETATM   12  C   UNL     1      -5.917   0.364 -32.900  1.00  0.00     0.053 A 
HETATM   13  C   UNL     1      -7.057  -0.396 -33.100  1.00  0.00    -0.018 A 
HETATM   14  C   UNL     1      -8.416   0.005 -32.649  1.00  0.00     0.085 C 
HETATM   15  N   UNL     1      -4.865  -0.334 -33.450  1.00  0.00    -0.356 N 
HETATM   16  H   UNL     1      -3.891  -0.056 -33.493  1.00  0.00     0.166 HD
HETATM   17  C   UNL     1      -5.306  -1.528 -33.972  1.00  0.00     0.043 A 
HETATM   18  C   UNL     1      -6.682  -1.595 -33.764  1.00  0.00    -0.001 A 
HETATM   19  C   UNL     1      -4.589  -2.548 -34.609  1.00  0.00     0.030 A 
HETATM   20  C   UNL     1      -5.304  -3.667 -35.043  1.00  0.00     0.002 A 
HETATM   21  C   UNL     1      -6.679  -3.762 -34.849  1.00  0.00     0.001 A 
HETATM   22  C   UNL     1      -7.381  -2.733 -34.209  1.00  0.00     0.014 A 
ENDROOT
BRANCH   1  23
HETATM   23  C   UNL     1      -8.825   2.454 -33.440  1.00  0.00     0.289 C 
HETATM   24  O   UNL     1      -8.965   2.026 -34.585  1.00  0.00    -0.263 OA
BRANCH  23  25
HETATM   25  O   UNL     1      -8.880   3.743 -33.053  1.00  0.00    -0.325 OA
HETATM   26  C   UNL     1      -8.855   4.705 -34.116  1.00  0.00     0.213 C 
ENDBRANCH  23  25
ENDBRANCH   1  23
BRANCH   8  27
HETATM   27  C   UNL     1      -3.912   5.536 -31.138  1.00  0.00     0.273 C 
BRANCH  27  28
HETATM   28  C   UNL     1      -2.450   5.871 -31.088  1.00  0.00    -0.033 A 
HETATM   29  C   UNL     1      -1.520   5.075 -31.777  1.00  0.00     0.009 A 
HETATM   30  C   UNL     1      -0.157   5.367 -31.716  1.00  0.00     0.001 A 
HETATM   31  C   UNL     1       0.291   6.454 -30.970  1.00  0.00     0.000 A 
HETATM   32  C   UNL     1      -0.623   7.257 -30.291  1.00  0.00     0.001 A 
HETATM   33  C   UNL     1      -1.988   6.971 -30.349  1.00  0.00     0.009 A 
ENDBRANCH  27  28
ENDBRANCH   8  27
TORSDOF 4
ENDMDL
MODEL 4
REMARK VINA RESULT:      -9.0      2.104      7.891
REMARK  4 active torsions:
REMARK  status: ('A' for Active; 'I' for Inactive)
REMARK    1  A    between atoms: O_2  and  C_3 
REMARK    2  A    between atoms: C_3  and  C_4 
REMARK    3  A    between atoms: N_11  and  C_13 
REMARK    4  A    between atoms: C_13  and  C_14 
ROOT
HETATM    1  C   UNL     1      -8.499   4.195 -32.189  1.00  0.00     0.290 C 
HETATM    2  N   UNL     1      -7.850   2.808 -31.817  1.00  0.00    -0.047 N 
HETATM    3  H   UNL     1      -8.133   2.662 -30.839  1.00  0.00     0.279 HD
HETATM    4  H   UNL     1      -6.838   2.985 -31.833  1.00  0.00     0.279 HD
HETATM    5  C   UNL     1      -8.272   1.582 -32.638  1.00  0.00     0.172 C 
HETATM    6  C   UNL     1      -7.543   1.480 -33.993  1.00  0.00     0.073 C 
HETATM    7  C   UNL     1      -6.045   1.242 -33.879  1.00  0.00     0.238 C 
HETATM    8  N   UNL     1      -5.796   0.001 -33.054  1.00  0.00    -0.067 N 
HETATM    9  H   UNL     1      -6.159  -0.806 -33.585  1.00  0.00     0.280 HD
HETATM   10  C   UNL     1      -6.443   0.036 -31.697  1.00  0.00     0.238 C 
HETATM   11  C   UNL     1      -7.937   0.320 -31.811  1.00  0.00     0.073 C 
HETATM   12  C   UNL     1      -9.752   1.706 -32.867  1.00  0.00     0.053 A 
HETATM   13  C   UNL     1     -10.537   2.827 -32.665  1.00  0.00    -0.018 A 
HETATM   14  C   UNL     1     -10.027   4.116 -32.125  1.00  0.00     0.085 C 
HETATM   15  N   UNL     1     -10.575   0.722 -33.371  1.00  0.00    -0.356 N 
HETATM   16  H   UNL     1     -10.320  -0.219 -33.645  1.00  0.00     0.166 HD
HETATM   17  C   UNL     1     -11.866   1.187 -33.471  1.00  0.00     0.043 A 
HETATM   18  C   UNL     1     -11.873   2.509 -33.032  1.00  0.00    -0.001 A 
HETATM   19  C   UNL     1     -13.022   0.535 -33.917  1.00  0.00     0.030 A 
HETATM   20  C   UNL     1     -14.217   1.258 -33.910  1.00  0.00     0.002 A 
HETATM   21  C   UNL     1     -14.254   2.580 -33.475  1.00  0.00     0.001 A 
HETATM   22  C   UNL     1     -13.089   3.219 -33.033  1.00  0.00     0.014 A 
ENDROOT
BRANCH   1  23
HETATM   23  C   UNL     1      -7.888   4.751 -33.471  1.00  0.00     0.289 C 
HETATM   24  O   UNL     1      -8.619   5.146 -34.380  1.00  0.00    -0.263 OA
BRANCH  23  25
HETATM   25  O   UNL     1      -6.543   4.692 -33.493  1.00  0.00    -0.325 OA
HETATM   26  C   UNL     1      -5.868   5.919 -33.186  1.00  0.00     0.213 C 
ENDBRANCH  23  25
ENDBRANCH   1  23
BRANCH   8  27
HETATM   27  C   UNL     1      -4.296  -0.321 -32.921  1.00  0.00     0.273 C 
BRANCH  27  28
HETATM   28  C   UNL     1      -3.987  -1.787 -32.997  1.00  0.00    -0.033 A 
HETATM   29  C   UNL     1      -4.424  -2.545 -34.094  1.00  0.00     0.009 A 
HETATM   30  C   UNL     1      -4.159  -3.914 -34.160  1.00  0.00     0.001 A 
HETATM   31  C   UNL     1      -3.456  -4.538 -33.133  1.00  0.00     0.000 A 
HETATM   32  C   UNL     1      -3.008  -3.794 -32.043  1.00  0.00     0.001 A 
HETATM   33  C   UNL     1      -3.268  -2.425 -31.973  1.00  0.00     0.009 A 
ENDBRANCH  27  28
ENDBRANCH   8  27
TORSDOF 4
ENDMDL
MODEL 5
REMARK VINA RESULT:      -8.7      2.798      5.302
REMARK  4 active torsions:
REMARK  status: ('A' for Active; 'I' for Inactive)
REMARK    1  A    between atoms: O_2  and  C_3 
REMARK    2  A    between atoms: C_3  and  C_4 
REMARK    3  A    between atoms: N_11  and  C_13 
REMARK    4  A    between atoms: C_13  and  C_14 
ROOT
HETATM    1  C   UNL     1      -4.132   0.488 -31.373  1.00  0.00     0.290 C 
HETATM    2  N   UNL     1      -5.647   0.912 -31.276  1.00  0.00    -0.047 N 
HETATM    3  H   UNL     1      -5.709   1.382 -30.363  1.00  0.00     0.279 HD
HETATM    4  H   UNL     1      -6.160   0.024 -31.213  1.00  0.00     0.279 HD
HETATM    5  C   UNL     1      -6.190   1.859 -32.354  1.00  0.00     0.172 C 
HETATM    6  C   UNL     1      -6.549   1.139 -33.669  1.00  0.00     0.073 C 
HETATM    7  C   UNL     1      -7.705   0.157 -33.547  1.00  0.00     0.238 C 
HETATM    8  N   UNL     1      -8.914   0.873 -32.994  1.00  0.00    -0.067 N 
HETATM    9  H   UNL     1      -9.219   1.563 -33.697  1.00  0.00     0.280 HD
HETATM   10  C   UNL     1      -8.658   1.573 -31.687  1.00  0.00     0.238 C 
HETATM   11  C   UNL     1      -7.471   2.523 -31.799  1.00  0.00     0.073 C 
HETATM   12  C   UNL     1      -5.117   2.879 -32.612  1.00  0.00     0.053 A 
HETATM   13  C   UNL     1      -3.794   2.819 -32.210  1.00  0.00    -0.018 A 
HETATM   14  C   UNL     1      -3.222   1.719 -31.389  1.00  0.00     0.085 C 
HETATM   15  N   UNL     1      -5.263   4.036 -33.346  1.00  0.00    -0.356 N 
HETATM   16  H   UNL     1      -6.100   4.379 -33.802  1.00  0.00     0.166 HD
HETATM   17  C   UNL     1      -4.071   4.721 -33.398  1.00  0.00     0.043 A 
HETATM   18  C   UNL     1      -3.129   3.979 -32.690  1.00  0.00    -0.001 A 
HETATM   19  C   UNL     1      -3.762   5.937 -34.018  1.00  0.00     0.030 A 
HETATM   20  C   UNL     1      -2.451   6.406 -33.907  1.00  0.00     0.002 A 
HETATM   21  C   UNL     1      -1.488   5.686 -33.205  1.00  0.00     0.001 A 
HETATM   22  C   UNL     1      -1.813   4.471 -32.590  1.00  0.00     0.014 A 
ENDROOT
BRANCH   1  23
HETATM   23  C   UNL     1      -3.928  -0.539 -32.482  1.00  0.00     0.289 C 
HETATM   24  O   UNL     1      -3.046  -0.368 -33.324  1.00  0.00    -0.263 OA
BRANCH  23  25
HETATM   25  O   UNL     1      -4.823  -1.545 -32.452  1.00  0.00    -0.325 OA
HETATM   26  C   UNL     1      -4.931  -2.309 -33.660  1.00  0.00     0.213 C 
ENDBRANCH  23  25
ENDBRANCH   1  23
BRANCH   8  27
HETATM   27  C   UNL     1     -10.137  -0.055 -32.871  1.00  0.00     0.273 C 
BRANCH  27  28
HETATM   28  C   UNL     1     -11.370   0.483 -33.536  1.00  0.00    -0.033 A 
HETATM   29  C   UNL     1     -12.580  -0.224 -33.457  1.00  0.00     0.009 A 
HETATM   30  C   UNL     1     -13.724   0.259 -34.093  1.00  0.00     0.001 A 
HETATM   31  C   UNL     1     -13.672   1.451 -34.811  1.00  0.00     0.000 A 
HETATM   32  C   UNL     1     -12.480   2.166 -34.888  1.00  0.00     0.001 A 
HETATM   33  C   UNL     1     -11.332   1.689 -34.253  1.00  0.00     0.009 A 
ENDBRANCH  27  28
ENDBRANCH   8  27
TORSDOF 4
ENDMDL
MODEL 6
REMARK VINA RESULT:      -8.7      3.986      8.114
REMARK  4 active torsions:
REMARK  status: ('A' for Active; 'I' for Inactive)
REMARK    1  A    between atoms: O_2  and  C_3 
REMARK    2  A    between atoms: C_3  and  C_4 
REMARK    3  A    between atoms: N_11  and  C_13 
REMARK    4  A    between atoms: C_13  and  C_14 
ROOT
HETATM    1  C   UNL     1      -5.992   6.001 -30.369  1.00  0.00     0.290 C 
HETATM    2  N   UNL     1      -5.926   4.934 -31.527  1.00  0.00    -0.047 N 
HETATM    3  H   UNL     1      -5.914   5.505 -32.383  1.00  0.00     0.279 HD
HETATM    4  H   UNL     1      -6.831   4.448 -31.482  1.00  0.00     0.279 HD
HETATM    5  C   UNL     1      -4.721   3.985 -31.552  1.00  0.00     0.172 C 
HETATM    6  C   UNL     1      -4.857   2.806 -30.569  1.00  0.00     0.073 C 
HETATM    7  C   UNL     1      -5.983   1.840 -30.905  1.00  0.00     0.238 C 
HETATM    8  N   UNL     1      -5.801   1.330 -32.316  1.00  0.00    -0.067 N 
HETATM    9  H   UNL     1      -4.942   0.759 -32.334  1.00  0.00     0.280 HD
HETATM   10  C   UNL     1      -5.698   2.420 -33.345  1.00  0.00     0.238 C 
HETATM   11  C   UNL     1      -4.598   3.412 -32.983  1.00  0.00     0.073 C 
HETATM   12  C   UNL     1      -3.517   4.808 -31.191  1.00  0.00     0.053 A 
HETATM   13  C   UNL     1      -3.509   6.079 -30.642  1.00  0.00    -0.018 A 
HETATM   14  C   UNL     1      -4.734   6.873 -30.360  1.00  0.00     0.085 C 
HETATM   15  N   UNL     1      -2.203   4.408 -31.302  1.00  0.00    -0.356 N 
HETATM   16  H   UNL     1      -1.852   3.524 -31.649  1.00  0.00     0.166 HD
HETATM   17  C   UNL     1      -1.363   5.404 -30.858  1.00  0.00     0.043 A 
HETATM   18  C   UNL     1      -2.157   6.468 -30.438  1.00  0.00    -0.001 A 
HETATM   19  C   UNL     1       0.035   5.437 -30.799  1.00  0.00     0.030 A 
HETATM   20  C   UNL     1       0.634   6.595 -30.297  1.00  0.00     0.002 A 
HETATM   21  C   UNL     1      -0.134   7.675 -29.871  1.00  0.00     0.001 A 
HETATM   22  C   UNL     1      -1.531   7.626 -29.937  1.00  0.00     0.014 A 
ENDROOT
BRANCH   1  23
HETATM   23  C   UNL     1      -6.389   5.344 -29.050  1.00  0.00     0.289 C 
HETATM   24  O   UNL     1      -5.589   5.309 -28.116  1.00  0.00    -0.263 OA
BRANCH  23  25
HETATM   25  O   UNL     1      -7.616   4.791 -29.076  1.00  0.00    -0.325 OA
HETATM   26  C   UNL     1      -8.693   5.699 -29.342  1.00  0.00     0.213 C 
ENDBRANCH  23  25
ENDBRANCH   1  23
BRANCH   8  27
HETATM   27  C   UNL     1      -6.892   0.320 -32.717  1.00  0.00     0.273 C 
BRANCH  27  28
HETATM   28  C   UNL     1      -6.358  -0.901 -33.407  1.00  0.00    -0.033 A 
HETATM   29  C   UNL     1      -7.233  -1.783 -34.060  1.00  0.00     0.009 A 
HETATM   30  C   UNL     1      -6.746  -2.931 -34.685  1.00  0.00     0.001 A 
HETATM   31  C   UNL     1      -5.382  -3.210 -34.664  1.00  0.00     0.000 A 
HETATM   32  C   UNL     1      -4.502  -2.337 -34.029  1.00  0.00     0.001 A 
HETATM   33  C   UNL     1      -4.983  -1.186 -33.404  1.00  0.00     0.009 A 
ENDBRANCH  27  28
ENDBRANCH   8  27
TORSDOF 4
ENDMDL
MODEL 7
REMARK VINA RESULT:      -8.6      5.076      9.291
REMARK  4 active torsions:
REMARK  status: ('A' for Active; 'I' for Inactive)
REMARK    1  A    between atoms: O_2  and  C_3 
REMARK    2  A    between atoms: C_3  and  C_4 
REMARK    3  A    between atoms: N_11  and  C_13 
REMARK    4  A    between atoms: C_13  and  C_14 
ROOT
HETATM    1  C   UNL     1      -4.889   5.420 -33.979  1.00  0.00     0.290 C 
HETATM    2  N   UNL     1      -5.001   5.828 -32.461  1.00  0.00    -0.047 N 
HETATM    3  H   UNL     1      -6.011   5.965 -32.320  1.00  0.00     0.279 HD
HETATM    4  H   UNL     1      -4.545   6.748 -32.408  1.00  0.00     0.279 HD
HETATM    5  C   UNL     1      -4.490   4.828 -31.416  1.00  0.00     0.172 C 
HETATM    6  C   UNL     1      -2.959   4.864 -31.240  1.00  0.00     0.073 C 
HETATM    7  C   UNL     1      -2.427   6.169 -30.665  1.00  0.00     0.238 C 
HETATM    8  N   UNL     1      -3.114   6.454 -29.350  1.00  0.00    -0.067 N 
HETATM    9  H   UNL     1      -2.823   5.725 -28.681  1.00  0.00     0.280 HD
HETATM   10  C   UNL     1      -4.615   6.474 -29.443  1.00  0.00     0.238 C 
HETATM   11  C   UNL     1      -5.142   5.184 -30.061  1.00  0.00     0.073 C 
HETATM   12  C   UNL     1      -4.913   3.464 -31.882  1.00  0.00     0.053 A 
HETATM   13  C   UNL     1      -5.388   3.120 -33.136  1.00  0.00    -0.018 A 
HETATM   14  C   UNL     1      -5.606   4.092 -34.240  1.00  0.00     0.085 C 
HETATM   15  N   UNL     1      -4.851   2.303 -31.143  1.00  0.00    -0.356 N 
HETATM   16  H   UNL     1      -4.531   2.193 -30.188  1.00  0.00     0.166 HD
HETATM   17  C   UNL     1      -5.297   1.237 -31.890  1.00  0.00     0.043 A 
HETATM   18  C   UNL     1      -5.643   1.722 -33.149  1.00  0.00    -0.001 A 
HETATM   19  C   UNL     1      -5.416  -0.114 -31.543  1.00  0.00     0.030 A 
HETATM   20  C   UNL     1      -5.907  -0.990 -32.514  1.00  0.00     0.002 A 
HETATM   21  C   UNL     1      -6.263  -0.534 -33.780  1.00  0.00     0.001 A 
HETATM   22  C   UNL     1      -6.137   0.820 -34.112  1.00  0.00     0.014 A 
ENDROOT
BRANCH   1  23
HETATM   23  C   UNL     1      -3.448   5.536 -34.466  1.00  0.00     0.289 C 
HETATM   24  O   UNL     1      -2.892   4.564 -34.977  1.00  0.00    -0.263 OA
BRANCH  23  25
HETATM   25  O   UNL     1      -2.893   6.737 -34.214  1.00  0.00    -0.325 OA
HETATM   26  C   UNL     1      -1.462   6.746 -34.123  1.00  0.00     0.213 C 
ENDBRANCH  23  25
ENDBRANCH   1  23
BRANCH   8  27
HETATM   27  C   UNL     1      -2.603   7.749 -28.693  1.00  0.00     0.273 C 
BRANCH  27  28
HETATM   28  C   UNL     1      -1.230   7.621 -28.100  1.00  0.00    -0.033 A 
HETATM   29  C   UNL     1      -1.029   6.850 -26.945  1.00  0.00     0.009 A 
HETATM   30  C   UNL     1       0.240   6.746 -26.375  1.00  0.00     0.001 A 
HETATM   31  C   UNL     1       1.320   7.408 -26.954  1.00  0.00     0.000 A 
HETATM   32  C   UNL     1       1.136   8.167 -28.107  1.00  0.00     0.001 A 
HETATM   33  C   UNL     1      -0.131   8.274 -28.682  1.00  0.00     0.009 A 
ENDBRANCH  27  28
ENDBRANCH   8  27
TORSDOF 4
ENDMDL
MODEL 8
REMARK VINA RESULT:      -8.4      1.480      2.145
REMARK  4 active torsions:
REMARK  status: ('A' for Active; 'I' for Inactive)
REMARK    1  A    between atoms: O_2  and  C_3 
REMARK    2  A    between atoms: C_3  and  C_4 
REMARK    3  A    between atoms: N_11  and  C_13 
REMARK    4  A    between atoms: C_13  and  C_14 
ROOT
HETATM    1  C   UNL     1      -5.102   1.350 -32.339  1.00  0.00     0.290 C 
HETATM    2  N   UNL     1      -6.423   1.856 -33.034  1.00  0.00    -0.047 N 
HETATM    3  H   UNL     1      -6.106   2.163 -33.963  1.00  0.00     0.279 HD
HETATM    4  H   UNL     1      -6.692   2.691 -32.498  1.00  0.00     0.279 HD
HETATM    5  C   UNL     1      -7.565   0.847 -33.212  1.00  0.00     0.172 C 
HETATM    6  C   UNL     1      -8.400   0.644 -31.933  1.00  0.00     0.073 C 
HETATM    7  C   UNL     1      -9.178   1.875 -31.493  1.00  0.00     0.238 C 
HETATM    8  N   UNL     1     -10.060   2.342 -32.628  1.00  0.00    -0.067 N 
HETATM    9  H   UNL     1     -10.774   1.614 -32.789  1.00  0.00     0.280 HD
HETATM   10  C   UNL     1      -9.314   2.601 -33.907  1.00  0.00     0.238 C 
HETATM   11  C   UNL     1      -8.500   1.380 -34.322  1.00  0.00     0.073 C 
HETATM   12  C   UNL     1      -6.930  -0.455 -33.615  1.00  0.00     0.053 A 
HETATM   13  C   UNL     1      -5.589  -0.787 -33.543  1.00  0.00    -0.018 A 
HETATM   14  C   UNL     1      -4.523   0.144 -33.084  1.00  0.00     0.085 C 
HETATM   15  N   UNL     1      -7.597  -1.566 -34.083  1.00  0.00    -0.356 N 
HETATM   16  H   UNL     1      -8.592  -1.672 -34.239  1.00  0.00     0.166 HD
HETATM   17  C   UNL     1      -6.707  -2.586 -34.330  1.00  0.00     0.043 A 
HETATM   18  C   UNL     1      -5.435  -2.123 -34.001  1.00  0.00    -0.001 A 
HETATM   19  C   UNL     1      -6.936  -3.877 -34.819  1.00  0.00     0.030 A 
HETATM   20  C   UNL     1      -5.829  -4.716 -34.976  1.00  0.00     0.002 A 
HETATM   21  C   UNL     1      -4.547  -4.280 -34.656  1.00  0.00     0.001 A 
HETATM   22  C   UNL     1      -4.334  -2.986 -34.168  1.00  0.00     0.014 A 
ENDROOT
BRANCH   1  23
HETATM   23  C   UNL     1      -5.306   1.202 -30.834  1.00  0.00     0.289 C 
HETATM   24  O   UNL     1      -4.932   0.179 -30.261  1.00  0.00    -0.263 OA
BRANCH  23  25
HETATM   25  O   UNL     1      -5.961   2.239 -30.279  1.00  0.00    -0.325 OA
HETATM   26  C   UNL     1      -5.193   3.439 -30.125  1.00  0.00     0.213 C 
ENDBRANCH  23  25
ENDBRANCH   1  23
BRANCH   8  27
HETATM   27  C   UNL     1     -10.903   3.571 -32.243  1.00  0.00     0.273 C 
BRANCH  27  28
HETATM   28  C   UNL     1     -11.389   4.360 -33.424  1.00  0.00    -0.033 A 
HETATM   29  C   UNL     1     -12.441   3.871 -34.215  1.00  0.00     0.009 A 
HETATM   30  C   UNL     1     -12.883   4.588 -35.327  1.00  0.00     0.001 A 
HETATM   31  C   UNL     1     -12.280   5.799 -35.660  1.00  0.00     0.000 A 
HETATM   32  C   UNL     1     -11.243   6.299 -34.878  1.00  0.00     0.001 A 
HETATM   33  C   UNL     1     -10.798   5.588 -33.763  1.00  0.00     0.009 A 
ENDBRANCH  27  28
ENDBRANCH   8  27
TORSDOF 4
ENDMDL
MODEL 9
REMARK VINA RESULT:      -8.1      3.909      7.202
REMARK  4 active torsions:
REMARK  status: ('A' for Active; 'I' for Inactive)
REMARK    1  A    between atoms: O_2  and  C_3 
REMARK    2  A    between atoms: C_3  and  C_4 
REMARK    3  A    between atoms: N_11  and  C_13 
REMARK    4  A    between atoms: C_13  and  C_14 
ROOT
HETATM    1  C   UNL     1      -4.688   5.187 -33.924  1.00  0.00     0.290 C 
HETATM    2  N   UNL     1      -4.630   3.653 -33.569  1.00  0.00    -0.047 N 
HETATM    3  H   UNL     1      -4.012   3.260 -34.292  1.00  0.00     0.279 HD
HETATM    4  H   UNL     1      -5.584   3.312 -33.746  1.00  0.00     0.279 HD
HETATM    5  C   UNL     1      -4.084   3.262 -32.190  1.00  0.00     0.172 C 
HETATM    6  C   UNL     1      -5.124   3.410 -31.062  1.00  0.00     0.073 C 
HETATM    7  C   UNL     1      -6.309   2.463 -31.175  1.00  0.00     0.238 C 
HETATM    8  N   UNL     1      -5.807   1.039 -31.243  1.00  0.00    -0.067 N 
HETATM    9  H   UNL     1      -5.370   0.818 -30.335  1.00  0.00     0.280 HD
HETATM   10  C   UNL     1      -4.814   0.799 -32.346  1.00  0.00     0.238 C 
HETATM   11  C   UNL     1      -3.649   1.779 -32.256  1.00  0.00     0.073 C 
HETATM   12  C   UNL     1      -2.911   4.161 -31.920  1.00  0.00     0.053 A 
HETATM   13  C   UNL     1      -2.567   5.313 -32.606  1.00  0.00    -0.018 A 
HETATM   14  C   UNL     1      -3.304   5.829 -33.789  1.00  0.00     0.085 C 
HETATM   15  N   UNL     1      -2.000   4.013 -30.897  1.00  0.00    -0.356 N 
HETATM   16  H   UNL     1      -1.970   3.284 -30.194  1.00  0.00     0.166 HD
HETATM   17  C   UNL     1      -1.073   5.029 -30.934  1.00  0.00     0.043 A 
HETATM   18  C   UNL     1      -1.405   5.862 -32.000  1.00  0.00    -0.001 A 
HETATM   19  C   UNL     1       0.027   5.270 -30.103  1.00  0.00     0.030 A 
HETATM   20  C   UNL     1       0.810   6.394 -30.376  1.00  0.00     0.002 A 
HETATM   21  C   UNL     1       0.504   7.244 -31.436  1.00  0.00     0.001 A 
HETATM   22  C   UNL     1      -0.601   6.989 -32.257  1.00  0.00     0.014 A 
ENDROOT
BRANCH   1  23
HETATM   23  C   UNL     1      -5.841   5.868 -33.192  1.00  0.00     0.289 C 
HETATM   24  O   UNL     1      -5.608   6.730 -32.345  1.00  0.00    -0.263 OA
BRANCH  23  25
HETATM   25  O   UNL     1      -7.050   5.382 -33.530  1.00  0.00    -0.325 OA
HETATM   26  C   UNL     1      -8.067   5.512 -32.528  1.00  0.00     0.213 C 
ENDBRANCH  23  25
ENDBRANCH   1  23
BRANCH   8  27
HETATM   27  C   UNL     1      -6.957   0.019 -31.329  1.00  0.00     0.273 C 
BRANCH  27  28
HETATM   28  C   UNL     1      -7.978   0.350 -32.378  1.00  0.00    -0.033 A 
HETATM   29  C   UNL     1      -9.265   0.765 -32.005  1.00  0.00     0.009 A 
HETATM   30  C   UNL     1     -10.226   1.052 -32.974  1.00  0.00     0.001 A 
HETATM   31  C   UNL     1      -9.911   0.929 -34.325  1.00  0.00     0.000 A 
HETATM   32  C   UNL     1      -8.633   0.527 -34.709  1.00  0.00     0.001 A 
HETATM   33  C   UNL     1      -7.668   0.241 -33.743  1.00  0.00     0.009 A 
ENDBRANCH  27  28
ENDBRANCH   8  27
TORSDOF 4
ENDMDL
MODEL 10
REMARK VINA RESULT:      -8.1      3.110      8.519
REMARK  4 active torsions:
REMARK  status: ('A' for Active; 'I' for Inactive)
REMARK    1  A    between atoms: O_2  and  C_3 
REMARK    2  A    between atoms: C_3  and  C_4 
REMARK    3  A    between atoms: N_11  and  C_13 
REMARK    4  A    between atoms: C_13  and  C_14 
ROOT
HETATM    1  C   UNL     1     -11.895   1.474 -35.007  1.00  0.00     0.290 C 
HETATM    2  N   UNL     1     -10.341   1.498 -34.748  1.00  0.00    -0.047 N 
HETATM    3  H   UNL     1      -9.939   1.577 -35.692  1.00  0.00     0.279 HD
HETATM    4  H   UNL     1     -10.126   0.560 -34.388  1.00  0.00     0.279 HD
HETATM    5  C   UNL     1      -9.782   2.632 -33.879  1.00  0.00     0.172 C 
HETATM    6  C   UNL     1      -9.959   2.381 -32.368  1.00  0.00     0.073 C 
HETATM    7  C   UNL     1      -9.164   1.199 -31.835  1.00  0.00     0.238 C 
HETATM    8  N   UNL     1      -7.702   1.386 -32.169  1.00  0.00    -0.067 N 
HETATM    9  H   UNL     1      -7.362   2.202 -31.638  1.00  0.00     0.280 HD
HETATM   10  C   UNL     1      -7.439   1.599 -33.634  1.00  0.00     0.238 C 
HETATM   11  C   UNL     1      -8.270   2.756 -34.177  1.00  0.00     0.073 C 
HETATM   12  C   UNL     1     -10.518   3.881 -34.274  1.00  0.00     0.053 A 
HETATM   13  C   UNL     1     -11.674   3.964 -35.032  1.00  0.00    -0.018 A 
HETATM   14  C   UNL     1     -12.363   2.791 -35.632  1.00  0.00     0.085 C 
HETATM   15  N   UNL     1     -10.187   5.165 -33.901  1.00  0.00    -0.356 N 
HETATM   16  H   UNL     1      -9.407   5.462 -33.328  1.00  0.00     0.166 HD
HETATM   17  C   UNL     1     -11.092   6.061 -34.423  1.00  0.00     0.043 A 
HETATM   18  C   UNL     1     -12.038   5.334 -35.140  1.00  0.00    -0.001 A 
HETATM   19  C   UNL     1     -11.139   7.455 -34.310  1.00  0.00     0.030 A 
HETATM   20  C   UNL     1     -12.185   8.121 -34.954  1.00  0.00     0.002 A 
HETATM   21  C   UNL     1     -13.145   7.421 -35.679  1.00  0.00     0.001 A 
HETATM   22  C   UNL     1     -13.084   6.026 -35.782  1.00  0.00     0.014 A 
ENDROOT
BRANCH   1  23
HETATM   23  C   UNL     1     -12.643   0.992 -33.768  1.00  0.00     0.289 C 
HETATM   24  O   UNL     1     -12.486  -0.160 -33.364  1.00  0.00    -0.263 OA
BRANCH  23  25
HETATM   25  O   UNL     1     -13.483   1.913 -33.258  1.00  0.00    -0.325 OA
HETATM   26  C   UNL     1     -14.837   1.476 -33.077  1.00  0.00     0.213 C 
ENDBRANCH  23  25
ENDBRANCH   1  23
BRANCH   8  27
HETATM   27  C   UNL     1      -6.829   0.237 -31.631  1.00  0.00     0.273 C 
BRANCH  27  28
HETATM   28  C   UNL     1      -6.372  -0.719 -32.694  1.00  0.00    -0.033 A 
HETATM   29  C   UNL     1      -5.002  -0.954 -32.890  1.00  0.00     0.009 A 
HETATM   30  C   UNL     1      -4.570  -1.824 -33.891  1.00  0.00     0.001 A 
HETATM   31  C   UNL     1      -5.499  -2.468 -34.704  1.00  0.00     0.000 A 
HETATM   32  C   UNL     1      -6.861  -2.251 -34.513  1.00  0.00     0.001 A 
HETATM   33  C   UNL     1      -7.300  -1.383 -33.512  1.00  0.00     0.009 A 
ENDBRANCH  27  28
ENDBRANCH   8  27
TORSDOF 4
ENDMDL
