MODEL 1
REMARK VINA RESULT:      -8.2      0.000      0.000
REMARK  3 active torsions:
REMARK  status: ('A' for Active; 'I' for Inactive)
REMARK    1  A    between atoms: C_8  and  C_9 
REMARK    2  A    between atoms: C_10  and  O_11 
REMARK    3  A    between atoms: C_24  and  N_25 
ROOT
HETATM    1  C   UNL     1     -12.258   0.465 -33.382  1.00  0.00     0.070 C 
HETATM    2  C   UNL     1     -12.060   1.580 -34.335  1.00  0.00     0.035 A 
HETATM    3  N   UNL     1     -12.727   1.647 -35.537  1.00  0.00    -0.280 N 
HETATM    4  H   UNL     1     -13.398   0.987 -35.917  1.00  0.00     0.189 HD
HETATM    5  N   UNL     1     -12.440   2.746 -36.261  1.00  0.00    -0.148 NA
HETATM    6  C   UNL     1     -11.527   3.350 -35.511  1.00  0.00     0.199 A 
HETATM    7  C   UNL     1     -11.240   2.692 -34.310  1.00  0.00     0.034 A 
HETATM    8  C   UNL     1     -10.260   3.270 -33.352  1.00  0.00     0.108 A 
HETATM    9  C   UNL     1      -9.736   4.617 -33.845  1.00  0.00     0.081 A 
HETATM   10  C   UNL     1      -8.880   5.336 -32.959  1.00  0.00     0.100 C 
HETATM   11  N   UNL     1      -8.220   5.936 -32.217  1.00  0.00    -0.191 NA
HETATM   12  C   UNL     1     -10.088   5.151 -35.043  1.00  0.00     0.140 A 
HETATM   13  O   UNL     1     -10.979   4.511 -35.914  1.00  0.00    -0.277 OA
ENDROOT
BRANCH   8  14
HETATM   14  C   UNL     1      -9.145   2.260 -33.092  1.00  0.00    -0.010 A 
HETATM   15  C   UNL     1      -8.629   1.935 -31.826  1.00  0.00     0.076 A 
HETATM   16  C   UNL     1      -7.637   0.958 -31.680  1.00  0.00     0.049 A 
HETATM   17  C   UNL     1      -7.192   0.212 -32.781  1.00  0.00    -0.023 A 
HETATM   18  C   UNL     1      -7.733   0.479 -34.054  1.00  0.00    -0.025 A 
HETATM   19  C   UNL     1      -6.232  -0.804 -32.640  1.00  0.00     0.012 A 
HETATM   20  C   UNL     1      -8.685   1.504 -34.195  1.00  0.00     0.023 A 
HETATM   21  C   UNL     1      -7.316  -0.290 -35.153  1.00  0.00     0.012 A 
HETATM   22  C   UNL     1      -6.373  -1.307 -34.996  1.00  0.00     0.001 A 
HETATM   23  C   UNL     1      -5.827  -1.561 -33.741  1.00  0.00     0.001 A 
BRANCH  15  24
HETATM   24  O   UNL     1      -9.046   2.638 -30.728  1.00  0.00    -0.355 OA
HETATM   25  C   UNL     1      -7.959   3.164 -29.969  1.00  0.00     0.210 C 
ENDBRANCH  15  24
ENDBRANCH   8  14
BRANCH  12  26
HETATM   26  N   UNL     1      -9.648   6.365 -35.532  1.00  0.00    -0.282 NA
HETATM   27  H   UNL     1     -10.182   6.748 -36.309  1.00  0.00     0.126 HD
HETATM   28  H   UNL     1      -8.644   6.359 -35.701  1.00  0.00     0.126 HD
ENDBRANCH  12  26
TORSDOF 3
ENDMDL
MODEL 2
REMARK VINA RESULT:      -8.1      4.429      6.184
REMARK  3 active torsions:
REMARK  status: ('A' for Active; 'I' for Inactive)
REMARK    1  A    between atoms: C_8  and  C_9 
REMARK    2  A    between atoms: C_10  and  O_11 
REMARK    3  A    between atoms: C_24  and  N_25 
ROOT
HETATM    1  C   UNL     1      -3.705  -0.462 -33.391  1.00  0.00     0.070 C 
HETATM    2  C   UNL     1      -5.170  -0.425 -33.182  1.00  0.00     0.035 A 
HETATM    3  N   UNL     1      -6.013  -1.364 -33.730  1.00  0.00    -0.280 N 
HETATM    4  H   UNL     1      -5.771  -2.154 -34.319  1.00  0.00     0.189 HD
HETATM    5  N   UNL     1      -7.310  -1.186 -33.412  1.00  0.00    -0.148 NA
HETATM    6  C   UNL     1      -7.275  -0.073 -32.689  1.00  0.00     0.199 A 
HETATM    7  C   UNL     1      -5.992   0.455 -32.505  1.00  0.00     0.034 A 
HETATM    8  C   UNL     1      -5.794   1.681 -31.688  1.00  0.00     0.108 A 
HETATM    9  C   UNL     1      -7.114   2.164 -31.090  1.00  0.00     0.081 A 
HETATM   10  C   UNL     1      -7.044   3.264 -30.184  1.00  0.00     0.100 C 
HETATM   11  N   UNL     1      -6.977   4.130 -29.415  1.00  0.00    -0.191 NA
HETATM   12  C   UNL     1      -8.305   1.565 -31.352  1.00  0.00     0.140 A 
HETATM   13  O   UNL     1      -8.409   0.441 -32.181  1.00  0.00    -0.277 OA
ENDROOT
BRANCH   8  14
HETATM   14  C   UNL     1      -5.101   2.748 -32.531  1.00  0.00    -0.010 A 
HETATM   15  C   UNL     1      -5.709   3.481 -33.565  1.00  0.00     0.076 A 
HETATM   16  C   UNL     1      -5.006   4.477 -34.254  1.00  0.00     0.049 A 
HETATM   17  C   UNL     1      -3.703   4.832 -33.877  1.00  0.00    -0.023 A 
HETATM   18  C   UNL     1      -3.088   4.150 -32.807  1.00  0.00    -0.025 A 
HETATM   19  C   UNL     1      -3.004   5.861 -34.529  1.00  0.00     0.012 A 
HETATM   20  C   UNL     1      -3.786   3.112 -32.164  1.00  0.00     0.023 A 
HETATM   21  C   UNL     1      -1.798   4.527 -32.403  1.00  0.00     0.012 A 
HETATM   22  C   UNL     1      -1.121   5.563 -33.050  1.00  0.00     0.001 A 
HETATM   23  C   UNL     1      -1.722   6.226 -34.116  1.00  0.00     0.001 A 
BRANCH  15  24
HETATM   24  O   UNL     1      -6.983   3.166 -33.955  1.00  0.00    -0.355 OA
HETATM   25  C   UNL     1      -7.863   4.287 -33.905  1.00  0.00     0.210 C 
ENDBRANCH  15  24
ENDBRANCH   8  14
BRANCH  12  26
HETATM   26  N   UNL     1      -9.522   1.957 -30.834  1.00  0.00    -0.282 NA
HETATM   27  H   UNL     1     -10.275   1.277 -30.910  1.00  0.00     0.126 HD
HETATM   28  H   UNL     1      -9.788   2.885 -31.161  1.00  0.00     0.126 HD
ENDBRANCH  12  26
TORSDOF 3
ENDMDL
MODEL 3
REMARK VINA RESULT:      -8.0      2.563      5.538
REMARK  3 active torsions:
REMARK  status: ('A' for Active; 'I' for Inactive)
REMARK    1  A    between atoms: C_8  and  C_9 
REMARK    2  A    between atoms: C_10  and  O_11 
REMARK    3  A    between atoms: C_24  and  N_25 
ROOT
HETATM    1  C   UNL     1      -7.276   0.272 -35.469  1.00  0.00     0.070 C 
HETATM    2  C   UNL     1      -6.995   0.256 -34.016  1.00  0.00     0.035 A 
HETATM    3  N   UNL     1      -6.416  -0.826 -33.391  1.00  0.00    -0.280 N 
HETATM    4  H   UNL     1      -6.126  -1.705 -33.806  1.00  0.00     0.189 HD
HETATM    5  N   UNL     1      -6.213  -0.651 -32.071  1.00  0.00    -0.148 NA
HETATM    6  C   UNL     1      -6.731   0.554 -31.862  1.00  0.00     0.199 A 
HETATM    7  C   UNL     1      -7.232   1.174 -33.011  1.00  0.00     0.034 A 
HETATM    8  C   UNL     1      -7.813   2.541 -32.935  1.00  0.00     0.108 A 
HETATM    9  C   UNL     1      -7.701   3.109 -31.522  1.00  0.00     0.081 A 
HETATM   10  C   UNL     1      -8.112   4.463 -31.340  1.00  0.00     0.100 C 
HETATM   11  N   UNL     1      -8.405   5.578 -31.207  1.00  0.00    -0.191 NA
HETATM   12  C   UNL     1      -7.197   2.399 -30.479  1.00  0.00     0.140 A 
HETATM   13  O   UNL     1      -6.720   1.090 -30.628  1.00  0.00    -0.277 OA
ENDROOT
BRANCH   8  14
HETATM   14  C   UNL     1      -9.249   2.514 -33.451  1.00  0.00    -0.010 A 
HETATM   15  C   UNL     1      -9.807   3.454 -34.334  1.00  0.00     0.076 A 
HETATM   16  C   UNL     1     -11.124   3.320 -34.793  1.00  0.00     0.049 A 
HETATM   17  C   UNL     1     -11.895   2.199 -34.454  1.00  0.00    -0.023 A 
HETATM   18  C   UNL     1     -11.340   1.213 -33.614  1.00  0.00    -0.025 A 
HETATM   19  C   UNL     1     -13.200   2.029 -34.946  1.00  0.00     0.012 A 
HETATM   20  C   UNL     1     -10.038   1.390 -33.114  1.00  0.00     0.023 A 
HETATM   21  C   UNL     1     -12.096   0.071 -33.302  1.00  0.00     0.012 A 
HETATM   22  C   UNL     1     -13.386  -0.092 -33.811  1.00  0.00     0.001 A 
HETATM   23  C   UNL     1     -13.940   0.889 -34.628  1.00  0.00     0.001 A 
BRANCH  15  24
HETATM   24  O   UNL     1      -9.081   4.557 -34.691  1.00  0.00    -0.355 OA
HETATM   25  C   UNL     1      -9.899   5.706 -34.905  1.00  0.00     0.210 C 
ENDBRANCH  15  24
ENDBRANCH   8  14
BRANCH  12  26
HETATM   26  N   UNL     1      -7.069   2.866 -29.187  1.00  0.00    -0.282 NA
HETATM   27  H   UNL     1      -6.953   3.872 -29.091  1.00  0.00     0.126 HD
HETATM   28  H   UNL     1      -6.380   2.332 -28.661  1.00  0.00     0.126 HD
ENDBRANCH  12  26
TORSDOF 3
ENDMDL
MODEL 4
REMARK VINA RESULT:      -7.9      3.041      4.495
REMARK  3 active torsions:
REMARK  status: ('A' for Active; 'I' for Inactive)
REMARK    1  A    between atoms: C_8  and  C_9 
REMARK    2  A    between atoms: C_10  and  O_11 
REMARK    3  A    between atoms: C_24  and  N_25 
ROOT
HETATM    1  C   UNL     1      -8.994   0.718 -31.408  1.00  0.00     0.070 C 
HETATM    2  C   UNL     1      -8.702   1.882 -32.276  1.00  0.00     0.035 A 
HETATM    3  N   UNL     1      -9.698   2.621 -32.872  1.00  0.00    -0.280 N 
HETATM    4  H   UNL     1     -10.701   2.481 -32.813  1.00  0.00     0.189 HD
HETATM    5  N   UNL     1      -9.246   3.657 -33.605  1.00  0.00    -0.148 NA
HETATM    6  C   UNL     1      -7.929   3.523 -33.503  1.00  0.00     0.199 A 
HETATM    7  C   UNL     1      -7.518   2.453 -32.701  1.00  0.00     0.034 A 
HETATM    8  C   UNL     1      -6.071   2.200 -32.468  1.00  0.00     0.108 A 
HETATM    9  C   UNL     1      -5.210   3.266 -33.141  1.00  0.00     0.081 A 
HETATM   10  C   UNL     1      -3.806   3.209 -32.893  1.00  0.00     0.100 C 
HETATM   11  N   UNL     1      -2.671   3.185 -32.652  1.00  0.00    -0.191 NA
HETATM   12  C   UNL     1      -5.732   4.261 -33.907  1.00  0.00     0.140 A 
HETATM   13  O   UNL     1      -7.110   4.393 -34.120  1.00  0.00    -0.277 OA
ENDROOT
BRANCH   8  14
HETATM   14  C   UNL     1      -5.722   0.784 -32.920  1.00  0.00    -0.010 A 
HETATM   15  C   UNL     1      -6.078   0.222 -34.158  1.00  0.00     0.076 A 
HETATM   16  C   UNL     1      -5.671  -1.072 -34.507  1.00  0.00     0.049 A 
HETATM   17  C   UNL     1      -4.825  -1.812 -33.669  1.00  0.00    -0.023 A 
HETATM   18  C   UNL     1      -4.409  -1.250 -32.445  1.00  0.00    -0.025 A 
HETATM   19  C   UNL     1      -4.372  -3.092 -34.029  1.00  0.00     0.012 A 
HETATM   20  C   UNL     1      -4.874   0.026 -32.082  1.00  0.00     0.023 A 
HETATM   21  C   UNL     1      -3.533  -1.974 -31.620  1.00  0.00     0.012 A 
HETATM   22  C   UNL     1      -3.077  -3.238 -31.997  1.00  0.00     0.001 A 
HETATM   23  C   UNL     1      -3.501  -3.800 -33.198  1.00  0.00     0.001 A 
BRANCH  15  24
HETATM   24  O   UNL     1      -6.896   0.920 -35.005  1.00  0.00    -0.355 OA
HETATM   25  C   UNL     1      -8.050   0.174 -35.389  1.00  0.00     0.210 C 
ENDBRANCH  15  24
ENDBRANCH   8  14
BRANCH  12  26
HETATM   26  N   UNL     1      -5.000   5.250 -34.531  1.00  0.00    -0.282 NA
HETATM   27  H   UNL     1      -4.313   5.724 -33.950  1.00  0.00     0.126 HD
HETATM   28  H   UNL     1      -5.600   5.892 -35.046  1.00  0.00     0.126 HD
ENDBRANCH  12  26
TORSDOF 3
ENDMDL
MODEL 5
REMARK VINA RESULT:      -7.8      2.888      5.562
REMARK  3 active torsions:
REMARK  status: ('A' for Active; 'I' for Inactive)
REMARK    1  A    between atoms: C_8  and  C_9 
REMARK    2  A    between atoms: C_10  and  O_11 
REMARK    3  A    between atoms: C_24  and  N_25 
ROOT
HETATM    1  C   UNL     1      -4.670   4.484 -34.968  1.00  0.00     0.070 C 
HETATM    2  C   UNL     1      -4.566   4.635 -33.499  1.00  0.00     0.035 A 
HETATM    3  N   UNL     1      -3.429   5.110 -32.888  1.00  0.00    -0.280 N 
HETATM    4  H   UNL     1      -2.559   5.399 -33.324  1.00  0.00     0.189 HD
HETATM    5  N   UNL     1      -3.526   5.204 -31.547  1.00  0.00    -0.148 NA
HETATM    6  C   UNL     1      -4.741   4.720 -31.317  1.00  0.00     0.199 A 
HETATM    7  C   UNL     1      -5.442   4.348 -32.469  1.00  0.00     0.034 A 
HETATM    8  C   UNL     1      -6.829   3.821 -32.368  1.00  0.00     0.108 A 
HETATM    9  C   UNL     1      -7.317   3.831 -30.921  1.00  0.00     0.081 A 
HETATM   10  C   UNL     1      -8.678   3.463 -30.701  1.00  0.00     0.100 C 
HETATM   11  N   UNL     1      -9.797   3.206 -30.532  1.00  0.00    -0.191 NA
HETATM   12  C   UNL     1      -6.532   4.212 -29.880  1.00  0.00     0.140 A 
HETATM   13  O   UNL     1      -5.212   4.645 -30.060  1.00  0.00    -0.277 OA
ENDROOT
BRANCH   8  14
HETATM   14  C   UNL     1      -6.894   2.435 -33.006  1.00  0.00    -0.010 A 
HETATM   15  C   UNL     1      -7.843   2.031 -33.961  1.00  0.00     0.076 A 
HETATM   16  C   UNL     1      -7.795   0.752 -34.528  1.00  0.00     0.049 A 
HETATM   17  C   UNL     1      -6.750  -0.133 -34.226  1.00  0.00    -0.023 A 
HETATM   18  C   UNL     1      -5.755   0.268 -33.312  1.00  0.00    -0.025 A 
HETATM   19  C   UNL     1      -6.665  -1.401 -34.824  1.00  0.00     0.012 A 
HETATM   20  C   UNL     1      -5.849   1.533 -32.706  1.00  0.00     0.023 A 
HETATM   21  C   UNL     1      -4.687  -0.601 -33.035  1.00  0.00     0.012 A 
HETATM   22  C   UNL     1      -4.606  -1.852 -33.648  1.00  0.00     0.001 A 
HETATM   23  C   UNL     1      -5.598  -2.254 -34.539  1.00  0.00     0.001 A 
BRANCH  15  24
HETATM   24  O   UNL     1      -8.873   2.872 -34.286  1.00  0.00    -0.355 OA
HETATM   25  C   UNL     1     -10.150   2.254 -34.140  1.00  0.00     0.210 C 
ENDBRANCH  15  24
ENDBRANCH   8  14
BRANCH  12  26
HETATM   26  N   UNL     1      -6.926   4.244 -28.558  1.00  0.00    -0.282 NA
HETATM   27  H   UNL     1      -7.617   3.549 -28.286  1.00  0.00     0.126 HD
HETATM   28  H   UNL     1      -7.172   5.187 -28.263  1.00  0.00     0.126 HD
ENDBRANCH  12  26
TORSDOF 3
ENDMDL
MODEL 6
REMARK VINA RESULT:      -7.7      3.053      4.182
REMARK  3 active torsions:
REMARK  status: ('A' for Active; 'I' for Inactive)
REMARK    1  A    between atoms: C_8  and  C_9 
REMARK    2  A    between atoms: C_10  and  O_11 
REMARK    3  A    between atoms: C_24  and  N_25 
ROOT
HETATM    1  C   UNL     1      -8.886   0.720 -31.432  1.00  0.00     0.070 C 
HETATM    2  C   UNL     1      -8.605   1.845 -32.351  1.00  0.00     0.035 A 
HETATM    3  N   UNL     1      -9.602   2.495 -33.043  1.00  0.00    -0.280 N 
HETATM    4  H   UNL     1     -10.599   2.305 -33.028  1.00  0.00     0.189 HD
HETATM    5  N   UNL     1      -9.162   3.510 -33.812  1.00  0.00    -0.148 NA
HETATM    6  C   UNL     1      -7.848   3.453 -33.633  1.00  0.00     0.199 A 
HETATM    7  C   UNL     1      -7.429   2.453 -32.748  1.00  0.00     0.034 A 
HETATM    8  C   UNL     1      -5.987   2.292 -32.424  1.00  0.00     0.108 A 
HETATM    9  C   UNL     1      -5.144   3.362 -33.114  1.00  0.00     0.081 A 
HETATM   10  C   UNL     1      -3.755   3.394 -32.789  1.00  0.00     0.100 C 
HETATM   11  N   UNL     1      -2.636   3.444 -32.488  1.00  0.00    -0.191 NA
HETATM   12  C   UNL     1      -5.672   4.282 -33.964  1.00  0.00     0.140 A 
HETATM   13  O   UNL     1      -7.041   4.328 -34.258  1.00  0.00    -0.277 OA
ENDROOT
BRANCH   8  14
HETATM   14  C   UNL     1      -5.543   0.873 -32.771  1.00  0.00    -0.010 A 
HETATM   15  C   UNL     1      -4.618   0.114 -32.035  1.00  0.00     0.076 A 
HETATM   16  C   UNL     1      -4.307  -1.201 -32.403  1.00  0.00     0.049 A 
HETATM   17  C   UNL     1      -4.973  -1.829 -33.465  1.00  0.00    -0.023 A 
HETATM   18  C   UNL     1      -5.946  -1.108 -34.187  1.00  0.00    -0.025 A 
HETATM   19  C   UNL     1      -4.705  -3.163 -33.814  1.00  0.00     0.012 A 
HETATM   20  C   UNL     1      -6.204   0.230 -33.843  1.00  0.00     0.023 A 
HETATM   21  C   UNL     1      -6.641  -1.745 -35.228  1.00  0.00     0.012 A 
HETATM   22  C   UNL     1      -6.376  -3.076 -35.554  1.00  0.00     0.001 A 
HETATM   23  C   UNL     1      -5.404  -3.783 -34.851  1.00  0.00     0.001 A 
BRANCH  15  24
HETATM   24  O   UNL     1      -3.954   0.692 -30.987  1.00  0.00    -0.355 OA
HETATM   25  C   UNL     1      -2.601   0.252 -30.886  1.00  0.00     0.210 C 
ENDBRANCH  15  24
ENDBRANCH   8  14
BRANCH  12  26
HETATM   26  N   UNL     1      -4.957   5.271 -34.607  1.00  0.00    -0.282 NA
HETATM   27  H   UNL     1      -5.498   5.889 -35.206  1.00  0.00     0.126 HD
HETATM   28  H   UNL     1      -4.127   4.897 -35.065  1.00  0.00     0.126 HD
ENDBRANCH  12  26
TORSDOF 3
ENDMDL
MODEL 7
REMARK VINA RESULT:      -7.7     16.067     18.184
REMARK  3 active torsions:
REMARK  status: ('A' for Active; 'I' for Inactive)
REMARK    1  A    between atoms: C_8  and  C_9 
REMARK    2  A    between atoms: C_10  and  O_11 
REMARK    3  A    between atoms: C_24  and  N_25 
ROOT
HETATM    1  C   UNL     1      -6.800 -16.209 -35.718  1.00  0.00     0.070 C 
HETATM    2  C   UNL     1      -5.967 -14.988 -35.784  1.00  0.00     0.035 A 
HETATM    3  N   UNL     1      -5.706 -14.216 -34.674  1.00  0.00    -0.280 N 
HETATM    4  H   UNL     1      -6.029 -14.361 -33.723  1.00  0.00     0.189 HD
HETATM    5  N   UNL     1      -4.909 -13.158 -34.919  1.00  0.00    -0.148 NA
HETATM    6  C   UNL     1      -4.715 -13.246 -36.229  1.00  0.00     0.199 A 
HETATM    7  C   UNL     1      -5.336 -14.346 -36.832  1.00  0.00     0.034 A 
HETATM    8  C   UNL     1      -5.178 -14.592 -38.290  1.00  0.00     0.108 A 
HETATM    9  C   UNL     1      -4.246 -13.563 -38.925  1.00  0.00     0.081 A 
HETATM   10  C   UNL     1      -3.914 -13.759 -40.299  1.00  0.00     0.100 C 
HETATM   11  N   UNL     1      -3.612 -13.947 -41.403  1.00  0.00    -0.191 NA
HETATM   12  C   UNL     1      -3.707 -12.528 -38.229  1.00  0.00     0.140 A 
HETATM   13  O   UNL     1      -3.953 -12.338 -36.863  1.00  0.00    -0.277 OA
ENDROOT
BRANCH   8  14
HETATM   14  C   UNL     1      -6.554 -14.633 -38.951  1.00  0.00    -0.010 A 
HETATM   15  C   UNL     1      -7.229 -15.803 -39.336  1.00  0.00     0.076 A 
HETATM   16  C   UNL     1      -8.513 -15.746 -39.893  1.00  0.00     0.049 A 
HETATM   17  C   UNL     1      -9.198 -14.528 -40.002  1.00  0.00    -0.023 A 
HETATM   18  C   UNL     1      -8.565 -13.344 -39.571  1.00  0.00    -0.025 A 
HETATM   19  C   UNL     1     -10.504 -14.462 -40.514  1.00  0.00     0.012 A 
HETATM   20  C   UNL     1      -7.253 -13.411 -39.070  1.00  0.00     0.023 A 
HETATM   21  C   UNL     1      -9.261 -12.127 -39.645  1.00  0.00     0.012 A 
HETATM   22  C   UNL     1     -10.565 -12.078 -40.142  1.00  0.00     0.001 A 
HETATM   23  C   UNL     1     -11.184 -13.245 -40.581  1.00  0.00     0.001 A 
BRANCH  15  24
HETATM   24  O   UNL     1      -6.594 -17.012 -39.237  1.00  0.00    -0.355 OA
HETATM   25  C   UNL     1      -6.035 -17.440 -40.478  1.00  0.00     0.210 C 
ENDBRANCH  15  24
ENDBRANCH   8  14
BRANCH  12  26
HETATM   26  N   UNL     1      -2.857 -11.576 -38.753  1.00  0.00    -0.282 NA
HETATM   27  H   UNL     1      -2.981 -11.368 -39.741  1.00  0.00     0.126 HD
HETATM   28  H   UNL     1      -1.887 -11.760 -38.503  1.00  0.00     0.126 HD
ENDBRANCH  12  26
TORSDOF 3
ENDMDL
MODEL 8
REMARK VINA RESULT:      -7.6      2.878      4.746
REMARK  3 active torsions:
REMARK  status: ('A' for Active; 'I' for Inactive)
REMARK    1  A    between atoms: C_8  and  C_9 
REMARK    2  A    between atoms: C_10  and  O_11 
REMARK    3  A    between atoms: C_24  and  N_25 
ROOT
HETATM    1  C   UNL     1      -5.039   3.977 -34.568  1.00  0.00     0.070 C 
HETATM    2  C   UNL     1      -5.921   4.239 -33.408  1.00  0.00     0.035 A 
HETATM    3  N   UNL     1      -5.801   5.372 -32.636  1.00  0.00    -0.280 N 
HETATM    4  H   UNL     1      -5.137   6.132 -32.740  1.00  0.00     0.189 HD
HETATM    5  N   UNL     1      -6.705   5.453 -31.640  1.00  0.00    -0.148 NA
HETATM    6  C   UNL     1      -7.368   4.310 -31.765  1.00  0.00     0.199 A 
HETATM    7  C   UNL     1      -6.942   3.509 -32.831  1.00  0.00     0.034 A 
HETATM    8  C   UNL     1      -7.616   2.214 -33.114  1.00  0.00     0.108 A 
HETATM    9  C   UNL     1      -8.788   1.983 -32.163  1.00  0.00     0.081 A 
HETATM   10  C   UNL     1      -9.595   0.832 -32.407  1.00  0.00     0.100 C 
HETATM   11  N   UNL     1     -10.275  -0.080 -32.636  1.00  0.00    -0.191 NA
HETATM   12  C   UNL     1      -9.099   2.839 -31.155  1.00  0.00     0.140 A 
HETATM   13  O   UNL     1      -8.374   4.015 -30.923  1.00  0.00    -0.277 OA
ENDROOT
BRANCH   8  14
HETATM   14  C   UNL     1      -6.588   1.086 -33.073  1.00  0.00    -0.010 A 
HETATM   15  C   UNL     1      -5.640   0.895 -32.053  1.00  0.00     0.076 A 
HETATM   16  C   UNL     1      -4.766  -0.199 -32.075  1.00  0.00     0.049 A 
HETATM   17  C   UNL     1      -4.868  -1.184 -33.068  1.00  0.00    -0.023 A 
HETATM   18  C   UNL     1      -5.847  -1.045 -34.073  1.00  0.00    -0.025 A 
HETATM   19  C   UNL     1      -4.030  -2.310 -33.075  1.00  0.00     0.012 A 
HETATM   20  C   UNL     1      -6.678   0.089 -34.071  1.00  0.00     0.023 A 
HETATM   21  C   UNL     1      -5.977  -2.047 -35.049  1.00  0.00     0.012 A 
HETATM   22  C   UNL     1      -5.147  -3.169 -35.034  1.00  0.00     0.001 A 
HETATM   23  C   UNL     1      -4.170  -3.298 -34.051  1.00  0.00     0.001 A 
BRANCH  15  24
HETATM   24  O   UNL     1      -5.517   1.832 -31.063  1.00  0.00    -0.355 OA
HETATM   25  C   UNL     1      -5.945   1.346 -29.792  1.00  0.00     0.210 C 
ENDBRANCH  15  24
ENDBRANCH   8  14
BRANCH  12  26
HETATM   26  N   UNL     1     -10.149   2.679 -30.273  1.00  0.00    -0.282 NA
HETATM   27  H   UNL     1     -10.146   3.299 -29.466  1.00  0.00     0.126 HD
HETATM   28  H   UNL     1     -10.285   1.701 -30.025  1.00  0.00     0.126 HD
ENDBRANCH  12  26
TORSDOF 3
ENDMDL
MODEL 9
REMARK VINA RESULT:      -7.4      2.091      3.814
REMARK  3 active torsions:
REMARK  status: ('A' for Active; 'I' for Inactive)
REMARK    1  A    between atoms: C_8  and  C_9 
REMARK    2  A    between atoms: C_10  and  O_11 
REMARK    3  A    between atoms: C_24  and  N_25 
ROOT
HETATM    1  C   UNL     1     -10.128   5.070 -35.459  1.00  0.00     0.070 C 
HETATM    2  C   UNL     1     -11.289   4.981 -34.546  1.00  0.00     0.035 A 
HETATM    3  N   UNL     1     -11.900   6.098 -34.023  1.00  0.00    -0.280 N 
HETATM    4  H   UNL     1     -11.655   7.072 -34.173  1.00  0.00     0.189 HD
HETATM    5  N   UNL     1     -12.957   5.825 -33.234  1.00  0.00    -0.148 NA
HETATM    6  C   UNL     1     -12.967   4.497 -33.223  1.00  0.00     0.199 A 
HETATM    7  C   UNL     1     -11.971   3.906 -34.008  1.00  0.00     0.034 A 
HETATM    8  C   UNL     1     -11.881   2.426 -34.120  1.00  0.00     0.108 A 
HETATM    9  C   UNL     1     -13.013   1.746 -33.353  1.00  0.00     0.081 A 
HETATM   10  C   UNL     1     -13.114   0.329 -33.479  1.00  0.00     0.100 C 
HETATM   11  N   UNL     1     -13.218  -0.819 -33.621  1.00  0.00    -0.191 NA
HETATM   12  C   UNL     1     -13.923   2.436 -32.616  1.00  0.00     0.140 A 
HETATM   13  O   UNL     1     -13.901   3.833 -32.520  1.00  0.00    -0.277 OA
ENDROOT
BRANCH   8  14
HETATM   14  C   UNL     1     -10.498   1.964 -33.668  1.00  0.00    -0.010 A 
HETATM   15  C   UNL     1      -9.961   2.163 -32.385  1.00  0.00     0.076 A 
HETATM   16  C   UNL     1      -8.699   1.660 -32.045  1.00  0.00     0.049 A 
HETATM   17  C   UNL     1      -7.971   0.870 -32.946  1.00  0.00    -0.023 A 
HETATM   18  C   UNL     1      -8.511   0.609 -34.221  1.00  0.00    -0.025 A 
HETATM   19  C   UNL     1      -6.725   0.320 -32.600  1.00  0.00     0.012 A 
HETATM   20  C   UNL     1      -9.753   1.170 -34.568  1.00  0.00     0.023 A 
HETATM   21  C   UNL     1      -7.802  -0.212 -35.113  1.00  0.00     0.012 A 
HETATM   22  C   UNL     1      -6.572  -0.764 -34.751  1.00  0.00     0.001 A 
HETATM   23  C   UNL     1      -6.031  -0.494 -33.497  1.00  0.00     0.001 A 
BRANCH  15  24
HETATM   24  O   UNL     1     -10.647   2.923 -31.476  1.00  0.00    -0.355 OA
HETATM   25  C   UNL     1      -9.783   3.687 -30.637  1.00  0.00     0.210 C 
ENDBRANCH  15  24
ENDBRANCH   8  14
BRANCH  12  26
HETATM   26  N   UNL     1     -14.966   1.871 -31.910  1.00  0.00    -0.282 NA
HETATM   27  H   UNL     1     -15.456   2.494 -31.272  1.00  0.00     0.126 HD
HETATM   28  H   UNL     1     -14.693   0.990 -31.478  1.00  0.00     0.126 HD
ENDBRANCH  12  26
TORSDOF 3
ENDMDL
MODEL 10
REMARK VINA RESULT:      -7.4      4.522      6.999
REMARK  3 active torsions:
REMARK  status: ('A' for Active; 'I' for Inactive)
REMARK    1  A    between atoms: C_8  and  C_9 
REMARK    2  A    between atoms: C_10  and  O_11 
REMARK    3  A    between atoms: C_24  and  N_25 
ROOT
HETATM    1  C   UNL     1      -2.711   5.220 -35.011  1.00  0.00     0.070 C 
HETATM    2  C   UNL     1      -2.421   5.544 -33.596  1.00  0.00     0.035 A 
HETATM    3  N   UNL     1      -1.143   5.780 -33.143  1.00  0.00    -0.280 N 
HETATM    4  H   UNL     1      -0.279   5.762 -33.675  1.00  0.00     0.189 HD
HETATM    5  N   UNL     1      -1.075   6.084 -31.833  1.00  0.00    -0.148 NA
HETATM    6  C   UNL     1      -2.342   5.979 -31.451  1.00  0.00     0.199 A 
HETATM    7  C   UNL     1      -3.230   5.649 -32.480  1.00  0.00     0.034 A 
HETATM    8  C   UNL     1      -4.687   5.530 -32.207  1.00  0.00     0.108 A 
HETATM    9  C   UNL     1      -5.005   5.874 -30.754  1.00  0.00     0.081 A 
HETATM   10  C   UNL     1      -6.384   5.917 -30.391  1.00  0.00     0.100 C 
HETATM   11  N   UNL     1      -7.508   5.994 -30.113  1.00  0.00    -0.191 NA
HETATM   12  C   UNL     1      -4.045   6.174 -29.840  1.00  0.00     0.140 A 
HETATM   13  O   UNL     1      -2.684   6.210 -30.171  1.00  0.00    -0.277 OA
ENDROOT
BRANCH   8  14
HETATM   14  C   UNL     1      -5.167   4.137 -32.606  1.00  0.00    -0.010 A 
HETATM   15  C   UNL     1      -6.103   3.865 -33.619  1.00  0.00     0.076 A 
HETATM   16  C   UNL     1      -6.448   2.549 -33.948  1.00  0.00     0.049 A 
HETATM   17  C   UNL     1      -5.807   1.461 -33.338  1.00  0.00    -0.023 A 
HETATM   18  C   UNL     1      -4.825   1.706 -32.357  1.00  0.00    -0.025 A 
HETATM   19  C   UNL     1      -6.110   0.136 -33.693  1.00  0.00     0.012 A 
HETATM   20  C   UNL     1      -4.532   3.032 -31.995  1.00  0.00     0.023 A 
HETATM   21  C   UNL     1      -4.155   0.620 -31.770  1.00  0.00     0.012 A 
HETATM   22  C   UNL     1      -4.455  -0.691 -32.143  1.00  0.00     0.001 A 
HETATM   23  C   UNL     1      -5.436  -0.933 -33.101  1.00  0.00     0.001 A 
BRANCH  15  24
HETATM   24  O   UNL     1      -6.743   4.903 -34.241  1.00  0.00    -0.355 OA
HETATM   25  C   UNL     1      -8.093   5.051 -33.808  1.00  0.00     0.210 C 
ENDBRANCH  15  24
ENDBRANCH   8  14
BRANCH  12  26
HETATM   26  N   UNL     1      -4.279   6.496 -28.519  1.00  0.00    -0.282 NA
HETATM   27  H   UNL     1      -3.668   6.049 -27.840  1.00  0.00     0.126 HD
HETATM   28  H   UNL     1      -5.266   6.414 -28.282  1.00  0.00     0.126 HD
ENDBRANCH  12  26
TORSDOF 3
ENDMDL
