MODEL 1
REMARK VINA RESULT:      -7.4      0.000      0.000
REMARK  6 active torsions:
REMARK  status: ('A' for Active; 'I' for Inactive)
REMARK    1  A    between atoms: O_2  and  C_3 
REMARK    2  A    between atoms: C_3  and  C_4 
REMARK    3  A    between atoms: C_4  and  N_5 
REMARK       I    between atoms: N_5  and  C_6 
REMARK    4  A    between atoms: C_6  and  C_7 
REMARK    5  A    between atoms: C_12  and  C_13 
REMARK    6  A    between atoms: C_20  and  C_21 
ROOT
HETATM    1  C   UNL     1     -10.158   1.203 -33.253  1.00  0.00     0.165 A 
HETATM    2  N   UNL     1      -9.199   0.261 -33.447  1.00  0.00    -0.163 NA
HETATM    3  N   UNL     1      -8.184   0.666 -32.662  1.00  0.00    -0.238 N 
HETATM    4  C   UNL     1      -8.458   1.788 -31.931  1.00  0.00     0.141 A 
HETATM    5  N   UNL     1      -7.558   2.301 -31.058  1.00  0.00    -0.365 N 
HETATM    6  C   UNL     1      -6.183   1.819 -30.993  1.00  0.00     0.118 C 
HETATM    7  C   UNL     1      -6.140   0.318 -31.332  1.00  0.00     0.066 C 
HETATM    8  C   UNL     1      -6.940  -0.077 -32.589  1.00  0.00     0.221 C 
HETATM    9  C   UNL     1      -9.723   2.161 -32.303  1.00  0.00     0.092 A 
HETATM   10 BR   UNL     1     -10.668   3.653 -31.676  1.00  0.00    -0.044 Br
HETATM   11  H   UNL     1      -7.719   3.217 -30.638  1.00  0.00     0.162 HD
ENDROOT
BRANCH   1  12
HETATM   12  C   UNL     1     -11.429   1.144 -33.993  1.00  0.00     0.273 C 
HETATM   13  N   UNL     1     -12.399   0.400 -33.355  1.00  0.00    -0.353 N 
HETATM   14  H   UNL     1     -12.081  -0.131 -32.547  1.00  0.00     0.162 HD
HETATM   15  O   UNL     1     -11.615   1.675 -35.085  1.00  0.00    -0.266 OA
BRANCH  13  16
HETATM   16  C   UNL     1     -13.644   0.037 -33.999  1.00  0.00     0.149 C 
BRANCH  16  17
HETATM   17  C   UNL     1     -14.725   1.106 -33.820  1.00  0.00     0.186 C 
BRANCH  17  18
HETATM   18  O   UNL     1     -14.462   1.841 -32.619  1.00  0.00    -0.394 OA
HETATM   19  C   UNL     1     -15.666   2.203 -31.957  1.00  0.00     0.201 C 
ENDBRANCH  17  18
ENDBRANCH  16  17
ENDBRANCH  13  16
ENDBRANCH   1  12
BRANCH   8  20
HETATM   20  C   UNL     1      -6.163   0.065 -33.880  1.00  0.00     0.409 C 
HETATM   21  F   UNL     1      -6.370   1.230 -34.518  1.00  0.00    -0.169 F 
HETATM   22  F   UNL     1      -4.830  -0.027 -33.634  1.00  0.00    -0.169 F 
HETATM   23  F   UNL     1      -6.450  -0.931 -34.752  1.00  0.00    -0.169 F 
ENDBRANCH   8  20
BRANCH   6  24
HETATM   24  C   UNL     1      -5.208   2.684 -31.773  1.00  0.00    -0.035 A 
HETATM   25  C   UNL     1      -3.827   2.444 -31.640  1.00  0.00     0.009 A 
HETATM   26  C   UNL     1      -2.892   3.221 -32.328  1.00  0.00     0.001 A 
HETATM   27  C   UNL     1      -3.317   4.253 -33.159  1.00  0.00     0.000 A 
HETATM   28  C   UNL     1      -4.677   4.512 -33.297  1.00  0.00     0.001 A 
HETATM   29  C   UNL     1      -5.614   3.739 -32.606  1.00  0.00     0.009 A 
ENDBRANCH   6  24
TORSDOF 6
ENDMDL
MODEL 2
REMARK VINA RESULT:      -7.3      4.231      7.294
REMARK  6 active torsions:
REMARK  status: ('A' for Active; 'I' for Inactive)
REMARK    1  A    between atoms: O_2  and  C_3 
REMARK    2  A    between atoms: C_3  and  C_4 
REMARK    3  A    between atoms: C_4  and  N_5 
REMARK       I    between atoms: N_5  and  C_6 
REMARK    4  A    between atoms: C_6  and  C_7 
REMARK    5  A    between atoms: C_12  and  C_13 
REMARK    6  A    between atoms: C_20  and  C_21 
ROOT
HETATM    1  C   UNL     1      -5.359   4.116 -32.622  1.00  0.00     0.165 A 
HETATM    2  N   UNL     1      -6.632   3.770 -32.943  1.00  0.00    -0.163 NA
HETATM    3  N   UNL     1      -6.720   2.479 -32.576  1.00  0.00    -0.238 N 
HETATM    4  C   UNL     1      -5.588   1.990 -31.985  1.00  0.00     0.141 A 
HETATM    5  N   UNL     1      -5.527   0.720 -31.517  1.00  0.00    -0.365 N 
HETATM    6  C   UNL     1      -6.573  -0.257 -31.794  1.00  0.00     0.118 C 
HETATM    7  C   UNL     1      -7.937   0.451 -31.886  1.00  0.00     0.066 C 
HETATM    8  C   UNL     1      -7.940   1.718 -32.763  1.00  0.00     0.221 C 
HETATM    9  C   UNL     1      -4.690   3.025 -32.012  1.00  0.00     0.092 A 
HETATM   10 BR   UNL     1      -2.929   2.980 -31.376  1.00  0.00    -0.044 Br
HETATM   11  H   UNL     1      -4.633   0.328 -31.219  1.00  0.00     0.162 HD
ENDROOT
BRANCH   1  12
HETATM   12  C   UNL     1      -4.847   5.463 -32.925  1.00  0.00     0.273 C 
HETATM   13  N   UNL     1      -4.533   6.195 -31.799  1.00  0.00    -0.353 N 
HETATM   14  H   UNL     1      -4.828   5.784 -30.916  1.00  0.00     0.162 HD
HETATM   15  O   UNL     1      -4.733   5.915 -34.061  1.00  0.00    -0.266 OA
BRANCH  13  16
HETATM   16  C   UNL     1      -4.217   7.606 -31.858  1.00  0.00     0.149 C 
BRANCH  16  17
HETATM   17  C   UNL     1      -2.750   7.888 -31.525  1.00  0.00     0.186 C 
BRANCH  17  18
HETATM   18  O   UNL     1      -2.085   8.359 -32.702  1.00  0.00    -0.394 OA
HETATM   19  C   UNL     1      -1.437   7.300 -33.393  1.00  0.00     0.201 C 
ENDBRANCH  17  18
ENDBRANCH  16  17
ENDBRANCH  13  16
ENDBRANCH   1  12
BRANCH   8  20
HETATM   20  C   UNL     1      -8.172   1.445 -34.234  1.00  0.00     0.409 C 
HETATM   21  F   UNL     1      -7.043   1.262 -34.941  1.00  0.00    -0.169 F 
HETATM   22  F   UNL     1      -8.928   0.326 -34.387  1.00  0.00    -0.169 F 
HETATM   23  F   UNL     1      -8.864   2.446 -34.829  1.00  0.00    -0.169 F 
ENDBRANCH   8  20
BRANCH   6  24
HETATM   24  C   UNL     1      -6.243  -1.175 -32.958  1.00  0.00    -0.035 A 
HETATM   25  C   UNL     1      -4.900  -1.321 -33.352  1.00  0.00     0.009 A 
HETATM   26  C   UNL     1      -4.549  -2.145 -34.424  1.00  0.00     0.001 A 
HETATM   27  C   UNL     1      -5.533  -2.836 -35.125  1.00  0.00     0.000 A 
HETATM   28  C   UNL     1      -6.868  -2.698 -34.757  1.00  0.00     0.001 A 
HETATM   29  C   UNL     1      -7.221  -1.871 -33.688  1.00  0.00     0.009 A 
ENDBRANCH   6  24
TORSDOF 6
ENDMDL
MODEL 3
REMARK VINA RESULT:      -7.1      5.173      8.224
REMARK  6 active torsions:
REMARK  status: ('A' for Active; 'I' for Inactive)
REMARK    1  A    between atoms: O_2  and  C_3 
REMARK    2  A    between atoms: C_3  and  C_4 
REMARK    3  A    between atoms: C_4  and  N_5 
REMARK       I    between atoms: N_5  and  C_6 
REMARK    4  A    between atoms: C_6  and  C_7 
REMARK    5  A    between atoms: C_12  and  C_13 
REMARK    6  A    between atoms: C_20  and  C_21 
ROOT
HETATM    1  C   UNL     1      -3.908   4.719 -31.181  1.00  0.00     0.165 A 
HETATM    2  N   UNL     1      -4.713   3.972 -30.383  1.00  0.00    -0.163 NA
HETATM    3  N   UNL     1      -4.641   2.738 -30.913  1.00  0.00    -0.238 N 
HETATM    4  C   UNL     1      -3.790   2.638 -31.978  1.00  0.00     0.141 A 
HETATM    5  N   UNL     1      -3.570   1.454 -32.599  1.00  0.00    -0.365 N 
HETATM    6  C   UNL     1      -4.369   0.269 -32.310  1.00  0.00     0.118 C 
HETATM    7  C   UNL     1      -4.804   0.281 -30.833  1.00  0.00     0.066 C 
HETATM    8  C   UNL     1      -5.381   1.625 -30.348  1.00  0.00     0.221 C 
HETATM    9  C   UNL     1      -3.312   3.906 -32.178  1.00  0.00     0.092 A 
HETATM   10 BR   UNL     1      -2.117   4.441 -33.518  1.00  0.00    -0.044 Br
HETATM   11  H   UNL     1      -3.053   1.427 -33.479  1.00  0.00     0.162 HD
ENDROOT
BRANCH   1  12
HETATM   12  C   UNL     1      -3.761   6.166 -30.957  1.00  0.00     0.273 C 
HETATM   13  N   UNL     1      -3.062   6.474 -29.809  1.00  0.00    -0.353 N 
HETATM   14  H   UNL     1      -2.868   5.689 -29.193  1.00  0.00     0.162 HD
HETATM   15  O   UNL     1      -4.234   7.028 -31.695  1.00  0.00    -0.266 OA
BRANCH  13  16
HETATM   16  C   UNL     1      -2.984   7.823 -29.290  1.00  0.00     0.149 C 
BRANCH  16  17
HETATM   17  C   UNL     1      -1.609   8.456 -29.518  1.00  0.00     0.186 C 
BRANCH  17  18
HETATM   18  O   UNL     1      -0.671   7.429 -29.856  1.00  0.00    -0.394 OA
HETATM   19  C   UNL     1       0.491   7.497 -29.040  1.00  0.00     0.201 C 
ENDBRANCH  17  18
ENDBRANCH  16  17
ENDBRANCH  13  16
ENDBRANCH   1  12
BRANCH   8  20
HETATM   20  C   UNL     1      -6.863   1.787 -30.611  1.00  0.00     0.409 C 
HETATM   21  F   UNL     1      -7.520   0.624 -30.769  1.00  0.00    -0.169 F 
HETATM   22  F   UNL     1      -7.451   2.443 -29.577  1.00  0.00    -0.169 F 
HETATM   23  F   UNL     1      -7.099   2.538 -31.712  1.00  0.00    -0.169 F 
ENDBRANCH   8  20
BRANCH   6  24
HETATM   24  C   UNL     1      -5.490   0.044 -33.310  1.00  0.00    -0.035 A 
HETATM   25  C   UNL     1      -6.027  -1.249 -33.452  1.00  0.00     0.009 A 
HETATM   26  C   UNL     1      -7.051  -1.507 -34.368  1.00  0.00     0.001 A 
HETATM   27  C   UNL     1      -7.555  -0.480 -35.159  1.00  0.00     0.000 A 
HETATM   28  C   UNL     1      -7.032   0.803 -35.040  1.00  0.00     0.001 A 
HETATM   29  C   UNL     1      -6.005   1.062 -34.129  1.00  0.00     0.009 A 
ENDBRANCH   6  24
TORSDOF 6
ENDMDL
MODEL 4
REMARK VINA RESULT:      -6.9      2.673      4.316
REMARK  6 active torsions:
REMARK  status: ('A' for Active; 'I' for Inactive)
REMARK    1  A    between atoms: O_2  and  C_3 
REMARK    2  A    between atoms: C_3  and  C_4 
REMARK    3  A    between atoms: C_4  and  N_5 
REMARK       I    between atoms: N_5  and  C_6 
REMARK    4  A    between atoms: C_6  and  C_7 
REMARK    5  A    between atoms: C_12  and  C_13 
REMARK    6  A    between atoms: C_20  and  C_21 
ROOT
HETATM    1  C   UNL     1      -8.622   3.575 -31.184  1.00  0.00     0.165 A 
HETATM    2  N   UNL     1      -7.653   2.999 -30.426  1.00  0.00    -0.163 NA
HETATM    3  N   UNL     1      -6.783   2.512 -31.329  1.00  0.00    -0.238 N 
HETATM    4  C   UNL     1      -7.111   2.791 -32.626  1.00  0.00     0.141 A 
HETATM    5  N   UNL     1      -6.315   2.410 -33.655  1.00  0.00    -0.365 N 
HETATM    6  C   UNL     1      -5.182   1.512 -33.464  1.00  0.00     0.118 C 
HETATM    7  C   UNL     1      -4.564   1.741 -32.073  1.00  0.00     0.066 C 
HETATM    8  C   UNL     1      -5.587   1.799 -30.921  1.00  0.00     0.221 C 
HETATM    9  C   UNL     1      -8.301   3.468 -32.560  1.00  0.00     0.092 A 
HETATM   10 BR   UNL     1      -9.295   4.105 -34.015  1.00  0.00    -0.044 Br
HETATM   11  H   UNL     1      -6.648   2.493 -34.616  1.00  0.00     0.162 HD
ENDROOT
BRANCH   1  12
HETATM   12  C   UNL     1      -9.805   4.185 -30.554  1.00  0.00     0.273 C 
HETATM   13  N   UNL     1     -10.978   3.514 -30.829  1.00  0.00    -0.353 N 
HETATM   14  H   UNL     1     -10.910   2.788 -31.538  1.00  0.00     0.162 HD
HETATM   15  O   UNL     1      -9.770   5.207 -29.872  1.00  0.00    -0.266 OA
BRANCH  13  16
HETATM   16  C   UNL     1     -12.276   4.057 -30.489  1.00  0.00     0.149 C 
BRANCH  16  17
HETATM   17  C   UNL     1     -13.247   4.029 -31.672  1.00  0.00     0.186 C 
BRANCH  17  18
HETATM   18  O   UNL     1     -12.730   3.155 -32.681  1.00  0.00    -0.394 OA
HETATM   19  C   UNL     1     -13.695   2.189 -33.077  1.00  0.00     0.201 C 
ENDBRANCH  17  18
ENDBRANCH  16  17
ENDBRANCH  13  16
ENDBRANCH   1  12
BRANCH   8  20
HETATM   20  C   UNL     1      -5.948   0.444 -30.353  1.00  0.00     0.409 C 
HETATM   21  F   UNL     1      -7.070  -0.086 -30.871  1.00  0.00    -0.169 F 
HETATM   22  F   UNL     1      -4.942  -0.441 -30.583  1.00  0.00    -0.169 F 
HETATM   23  F   UNL     1      -6.105   0.487 -29.009  1.00  0.00    -0.169 F 
ENDBRANCH   8  20
BRANCH   6  24
HETATM   24  C   UNL     1      -5.501   0.065 -33.798  1.00  0.00    -0.035 A 
HETATM   25  C   UNL     1      -6.799  -0.265 -34.229  1.00  0.00     0.009 A 
HETATM   26  C   UNL     1      -7.143  -1.584 -34.536  1.00  0.00     0.001 A 
HETATM   27  C   UNL     1      -6.198  -2.597 -34.416  1.00  0.00     0.000 A 
HETATM   28  C   UNL     1      -4.911  -2.293 -33.984  1.00  0.00     0.001 A 
HETATM   29  C   UNL     1      -4.567  -0.975 -33.672  1.00  0.00     0.009 A 
ENDBRANCH   6  24
TORSDOF 6
ENDMDL
MODEL 5
REMARK VINA RESULT:      -6.9      4.621      8.301
REMARK  6 active torsions:
REMARK  status: ('A' for Active; 'I' for Inactive)
REMARK    1  A    between atoms: O_2  and  C_3 
REMARK    2  A    between atoms: C_3  and  C_4 
REMARK    3  A    between atoms: C_4  and  N_5 
REMARK       I    between atoms: N_5  and  C_6 
REMARK    4  A    between atoms: C_6  and  C_7 
REMARK    5  A    between atoms: C_12  and  C_13 
REMARK    6  A    between atoms: C_20  and  C_21 
ROOT
HETATM    1  C   UNL     1      -3.889   3.886 -31.651  1.00  0.00     0.165 A 
HETATM    2  N   UNL     1      -4.091   2.737 -30.955  1.00  0.00    -0.163 NA
HETATM    3  N   UNL     1      -4.811   1.972 -31.794  1.00  0.00    -0.238 N 
HETATM    4  C   UNL     1      -5.038   2.544 -33.015  1.00  0.00     0.141 A 
HETATM    5  N   UNL     1      -5.710   1.887 -33.991  1.00  0.00    -0.365 N 
HETATM    6  C   UNL     1      -6.403   0.630 -33.740  1.00  0.00     0.118 C 
HETATM    7  C   UNL     1      -5.651  -0.175 -32.664  1.00  0.00     0.066 C 
HETATM    8  C   UNL     1      -5.251   0.642 -31.419  1.00  0.00     0.221 C 
HETATM    9  C   UNL     1      -4.461   3.786 -32.944  1.00  0.00     0.092 A 
HETATM   10 BR   UNL     1      -4.454   5.083 -34.296  1.00  0.00    -0.044 Br
HETATM   11  H   UNL     1      -5.999   2.383 -34.835  1.00  0.00     0.162 HD
ENDROOT
BRANCH   1  12
HETATM   12  C   UNL     1      -3.172   5.018 -31.041  1.00  0.00     0.273 C 
HETATM   13  N   UNL     1      -1.801   4.885 -31.085  1.00  0.00    -0.353 N 
HETATM   14  H   UNL     1      -1.460   3.976 -31.388  1.00  0.00     0.162 HD
HETATM   15  O   UNL     1      -3.728   5.979 -30.514  1.00  0.00    -0.266 OA
BRANCH  13  16
HETATM   16  C   UNL     1      -0.915   5.773 -30.362  1.00  0.00     0.149 C 
BRANCH  16  17
HETATM   17  C   UNL     1       0.401   5.092 -29.974  1.00  0.00     0.186 C 
BRANCH  17  18
HETATM   18  O   UNL     1       0.720   5.429 -28.619  1.00  0.00    -0.394 OA
HETATM   19  C   UNL     1      -0.182   6.394 -28.096  1.00  0.00     0.201 C 
ENDBRANCH  17  18
ENDBRANCH  16  17
ENDBRANCH  13  16
ENDBRANCH   1  12
BRANCH   8  20
HETATM   20  C   UNL     1      -6.333   0.720 -30.364  1.00  0.00     0.409 C 
HETATM   21  F   UNL     1      -7.162   1.769 -30.509  1.00  0.00    -0.169 F 
HETATM   22  F   UNL     1      -7.096  -0.404 -30.393  1.00  0.00    -0.169 F 
HETATM   23  F   UNL     1      -5.814   0.785 -29.115  1.00  0.00    -0.169 F 
ENDBRANCH   8  20
BRANCH   6  24
HETATM   24  C   UNL     1      -7.891   0.805 -33.491  1.00  0.00    -0.035 A 
HETATM   25  C   UNL     1      -8.456   2.088 -33.614  1.00  0.00     0.009 A 
HETATM   26  C   UNL     1      -9.818   2.301 -33.383  1.00  0.00     0.001 A 
HETATM   27  C   UNL     1     -10.639   1.237 -33.023  1.00  0.00     0.000 A 
HETATM   28  C   UNL     1     -10.098  -0.037 -32.887  1.00  0.00     0.001 A 
HETATM   29  C   UNL     1      -8.736  -0.251 -33.113  1.00  0.00     0.009 A 
ENDBRANCH   6  24
TORSDOF 6
ENDMDL
MODEL 6
REMARK VINA RESULT:      -6.9      1.794      2.480
REMARK  6 active torsions:
REMARK  status: ('A' for Active; 'I' for Inactive)
REMARK    1  A    between atoms: O_2  and  C_3 
REMARK    2  A    between atoms: C_3  and  C_4 
REMARK    3  A    between atoms: C_4  and  N_5 
REMARK       I    between atoms: N_5  and  C_6 
REMARK    4  A    between atoms: C_6  and  C_7 
REMARK    5  A    between atoms: C_12  and  C_13 
REMARK    6  A    between atoms: C_20  and  C_21 
ROOT
HETATM    1  C   UNL     1     -10.121   1.548 -33.273  1.00  0.00     0.165 A 
HETATM    2  N   UNL     1      -9.200   0.599 -33.582  1.00  0.00    -0.163 NA
HETATM    3  N   UNL     1      -8.246   0.758 -32.647  1.00  0.00    -0.238 N 
HETATM    4  C   UNL     1      -8.529   1.721 -31.719  1.00  0.00     0.141 A 
HETATM    5  N   UNL     1      -7.691   1.975 -30.685  1.00  0.00    -0.365 N 
HETATM    6  C   UNL     1      -6.357   1.392 -30.610  1.00  0.00     0.118 C 
HETATM    7  C   UNL     1      -6.361  -0.006 -31.256  1.00  0.00     0.066 C 
HETATM    8  C   UNL     1      -7.056  -0.072 -32.630  1.00  0.00     0.221 C 
HETATM    9  C   UNL     1      -9.731   2.254 -32.108  1.00  0.00     0.092 A 
HETATM   10 BR   UNL     1     -10.650   3.648 -31.258  1.00  0.00    -0.044 Br
HETATM   11  H   UNL     1      -7.843   2.793 -30.094  1.00  0.00     0.162 HD
ENDROOT
BRANCH   1  12
HETATM   12  C   UNL     1     -11.317   1.735 -34.112  1.00  0.00     0.273 C 
HETATM   13  N   UNL     1     -11.135   2.651 -35.126  1.00  0.00    -0.353 N 
HETATM   14  H   UNL     1     -10.271   3.185 -35.082  1.00  0.00     0.162 HD
HETATM   15  O   UNL     1     -12.386   1.162 -33.921  1.00  0.00    -0.266 OA
BRANCH  13  16
HETATM   16  C   UNL     1     -12.234   3.141 -35.931  1.00  0.00     0.149 C 
BRANCH  16  17
HETATM   17  C   UNL     1     -12.597   4.591 -35.600  1.00  0.00     0.186 C 
BRANCH  17  18
HETATM   18  O   UNL     1     -11.520   5.188 -34.870  1.00  0.00    -0.394 OA
HETATM   19  C   UNL     1     -11.354   6.557 -35.214  1.00  0.00     0.201 C 
ENDBRANCH  17  18
ENDBRANCH  16  17
ENDBRANCH  13  16
ENDBRANCH   1  12
BRANCH   8  20
HETATM   20  C   UNL     1      -6.151   0.277 -33.791  1.00  0.00     0.409 C 
HETATM   21  F   UNL     1      -4.850   0.017 -33.568  1.00  0.00    -0.169 F 
HETATM   22  F   UNL     1      -6.517  -0.424 -34.896  1.00  0.00    -0.169 F 
HETATM   23  F   UNL     1      -6.248   1.584 -34.130  1.00  0.00    -0.169 F 
ENDBRANCH   8  20
BRANCH   6  24
HETATM   24  C   UNL     1      -5.266   2.327 -31.103  1.00  0.00    -0.035 A 
HETATM   25  C   UNL     1      -5.621   3.613 -31.550  1.00  0.00     0.009 A 
HETATM   26  C   UNL     1      -4.653   4.503 -32.023  1.00  0.00     0.001 A 
HETATM   27  C   UNL     1      -3.315   4.125 -32.061  1.00  0.00     0.000 A 
HETATM   28  C   UNL     1      -2.945   2.854 -31.632  1.00  0.00     0.001 A 
HETATM   29  C   UNL     1      -3.912   1.961 -31.162  1.00  0.00     0.009 A 
ENDBRANCH   6  24
TORSDOF 6
ENDMDL
MODEL 7
REMARK VINA RESULT:      -6.9     16.539     19.108
REMARK  6 active torsions:
REMARK  status: ('A' for Active; 'I' for Inactive)
REMARK    1  A    between atoms: O_2  and  C_3 
REMARK    2  A    between atoms: C_3  and  C_4 
REMARK    3  A    between atoms: C_4  and  N_5 
REMARK       I    between atoms: N_5  and  C_6 
REMARK    4  A    between atoms: C_6  and  C_7 
REMARK    5  A    between atoms: C_12  and  C_13 
REMARK    6  A    between atoms: C_20  and  C_21 
ROOT
HETATM    1  C   UNL     1      -2.648 -14.613 -38.503  1.00  0.00     0.165 A 
HETATM    2  N   UNL     1      -2.927 -14.150 -39.749  1.00  0.00    -0.163 NA
HETATM    3  N   UNL     1      -4.061 -13.446 -39.587  1.00  0.00    -0.238 N 
HETATM    4  C   UNL     1      -4.498 -13.383 -38.293  1.00  0.00     0.141 A 
HETATM    5  N   UNL     1      -5.602 -12.675 -37.953  1.00  0.00    -0.365 N 
HETATM    6  C   UNL     1      -6.499 -12.113 -38.956  1.00  0.00     0.118 C 
HETATM    7  C   UNL     1      -5.697 -11.711 -40.207  1.00  0.00     0.066 C 
HETATM    8  C   UNL     1      -4.708 -12.784 -40.704  1.00  0.00     0.221 C 
HETATM    9  C   UNL     1      -3.608 -14.138 -37.575  1.00  0.00     0.092 A 
HETATM   10 BR   UNL     1      -3.674 -14.474 -35.733  1.00  0.00    -0.044 Br
HETATM   11  H   UNL     1      -5.996 -12.763 -37.016  1.00  0.00     0.162 HD
ENDROOT
BRANCH   1  12
HETATM   12  C   UNL     1      -1.488 -15.489 -38.269  1.00  0.00     0.273 C 
HETATM   13  N   UNL     1      -0.365 -14.811 -37.845  1.00  0.00    -0.353 N 
HETATM   14  H   UNL     1      -0.426 -13.797 -37.891  1.00  0.00     0.162 HD
HETATM   15  O   UNL     1      -1.497 -16.704 -38.456  1.00  0.00    -0.266 OA
BRANCH  13  16
HETATM   16  C   UNL     1       0.934 -15.443 -37.761  1.00  0.00     0.149 C 
BRANCH  16  17
HETATM   17  C   UNL     1       1.869 -15.007 -38.891  1.00  0.00     0.186 C 
BRANCH  17  18
HETATM   18  O   UNL     1       2.683 -16.118 -39.281  1.00  0.00    -0.394 OA
HETATM   19  C   UNL     1       2.231 -17.328 -38.687  1.00  0.00     0.201 C 
ENDBRANCH  17  18
ENDBRANCH  16  17
ENDBRANCH  13  16
ENDBRANCH   1  12
BRANCH   8  20
HETATM   20  C   UNL     1      -5.328 -13.803 -41.635  1.00  0.00     0.409 C 
HETATM   21  F   UNL     1      -5.698 -14.945 -41.028  1.00  0.00    -0.169 F 
HETATM   22  F   UNL     1      -6.436 -13.284 -42.225  1.00  0.00    -0.169 F 
HETATM   23  F   UNL     1      -4.490 -14.136 -42.646  1.00  0.00    -0.169 F 
ENDBRANCH   8  20
BRANCH   6  24
HETATM   24  C   UNL     1      -7.718 -12.980 -39.222  1.00  0.00    -0.035 A 
HETATM   25  C   UNL     1      -8.759 -12.466 -40.017  1.00  0.00     0.009 A 
HETATM   26  C   UNL     1      -9.904 -13.221 -40.281  1.00  0.00     0.001 A 
HETATM   27  C   UNL     1     -10.033 -14.502 -39.753  1.00  0.00     0.000 A 
HETATM   28  C   UNL     1      -9.018 -15.025 -38.957  1.00  0.00     0.001 A 
HETATM   29  C   UNL     1      -7.874 -14.269 -38.689  1.00  0.00     0.009 A 
ENDBRANCH   6  24
TORSDOF 6
ENDMDL
MODEL 8
REMARK VINA RESULT:      -6.7      4.101      6.059
REMARK  6 active torsions:
REMARK  status: ('A' for Active; 'I' for Inactive)
REMARK    1  A    between atoms: O_2  and  C_3 
REMARK    2  A    between atoms: C_3  and  C_4 
REMARK    3  A    between atoms: C_4  and  N_5 
REMARK       I    between atoms: N_5  and  C_6 
REMARK    4  A    between atoms: C_6  and  C_7 
REMARK    5  A    between atoms: C_12  and  C_13 
REMARK    6  A    between atoms: C_20  and  C_21 
ROOT
HETATM    1  C   UNL     1      -5.676   2.916 -32.003  1.00  0.00     0.165 A 
HETATM    2  N   UNL     1      -5.797   4.255 -32.193  1.00  0.00    -0.163 NA
HETATM    3  N   UNL     1      -4.568   4.640 -32.579  1.00  0.00    -0.238 N 
HETATM    4  C   UNL     1      -3.674   3.612 -32.701  1.00  0.00     0.141 A 
HETATM    5  N   UNL     1      -2.404   3.825 -33.123  1.00  0.00    -0.365 N 
HETATM    6  C   UNL     1      -1.855   5.167 -33.275  1.00  0.00     0.118 C 
HETATM    7  C   UNL     1      -2.969   6.141 -33.701  1.00  0.00     0.066 C 
HETATM    8  C   UNL     1      -4.267   6.027 -32.878  1.00  0.00     0.221 C 
HETATM    9  C   UNL     1      -4.363   2.489 -32.323  1.00  0.00     0.092 A 
HETATM   10 BR   UNL     1      -3.680   0.746 -32.243  1.00  0.00    -0.044 Br
HETATM   11  H   UNL     1      -1.714   3.076 -33.063  1.00  0.00     0.162 HD
ENDROOT
BRANCH   1  12
HETATM   12  C   UNL     1      -6.814   2.120 -31.515  1.00  0.00     0.273 C 
HETATM   13  N   UNL     1      -7.944   2.244 -32.295  1.00  0.00    -0.353 N 
HETATM   14  H   UNL     1      -7.904   2.969 -33.008  1.00  0.00     0.162 HD
HETATM   15  O   UNL     1      -6.785   1.430 -30.498  1.00  0.00    -0.266 OA
BRANCH  13  16
HETATM   16  C   UNL     1      -9.229   1.721 -31.884  1.00  0.00     0.149 C 
BRANCH  16  17
HETATM   17  C   UNL     1      -9.577   0.409 -32.593  1.00  0.00     0.186 C 
BRANCH  17  18
HETATM   18  O   UNL     1      -9.863   0.682 -33.969  1.00  0.00    -0.394 OA
HETATM   19  C   UNL     1     -11.057   1.440 -34.112  1.00  0.00     0.201 C 
ENDBRANCH  17  18
ENDBRANCH  16  17
ENDBRANCH  13  16
ENDBRANCH   1  12
BRANCH   8  20
HETATM   20  C   UNL     1      -4.262   6.852 -31.609  1.00  0.00     0.409 C 
HETATM   21  F   UNL     1      -3.820   6.188 -30.526  1.00  0.00    -0.169 F 
HETATM   22  F   UNL     1      -3.467   7.943 -31.764  1.00  0.00    -0.169 F 
HETATM   23  F   UNL     1      -5.495   7.328 -31.315  1.00  0.00    -0.169 F 
ENDBRANCH   8  20
BRANCH   6  24
HETATM   24  C   UNL     1      -1.029   5.615 -32.082  1.00  0.00    -0.035 A 
HETATM   25  C   UNL     1      -0.423   6.885 -32.110  1.00  0.00     0.009 A 
HETATM   26  C   UNL     1       0.355   7.336 -31.041  1.00  0.00     0.001 A 
HETATM   27  C   UNL     1       0.547   6.526 -29.926  1.00  0.00     0.000 A 
HETATM   28  C   UNL     1      -0.036   5.263 -29.882  1.00  0.00     0.001 A 
HETATM   29  C   UNL     1      -0.812   4.809 -30.953  1.00  0.00     0.009 A 
ENDBRANCH   6  24
TORSDOF 6
ENDMDL
MODEL 9
REMARK VINA RESULT:      -6.7     16.280     17.830
REMARK  6 active torsions:
REMARK  status: ('A' for Active; 'I' for Inactive)
REMARK    1  A    between atoms: O_2  and  C_3 
REMARK    2  A    between atoms: C_3  and  C_4 
REMARK    3  A    between atoms: C_4  and  N_5 
REMARK       I    between atoms: N_5  and  C_6 
REMARK    4  A    between atoms: C_6  and  C_7 
REMARK    5  A    between atoms: C_12  and  C_13 
REMARK    6  A    between atoms: C_20  and  C_21 
ROOT
HETATM    1  C   UNL     1      -5.762 -14.048 -39.231  1.00  0.00     0.165 A 
HETATM    2  N   UNL     1      -5.136 -13.625 -38.102  1.00  0.00    -0.163 NA
HETATM    3  N   UNL     1      -3.863 -13.431 -38.490  1.00  0.00    -0.238 N 
HETATM    4  C   UNL     1      -3.647 -13.652 -39.822  1.00  0.00     0.141 A 
HETATM    5  N   UNL     1      -2.429 -13.458 -40.383  1.00  0.00    -0.365 N 
HETATM    6  C   UNL     1      -1.240 -13.204 -39.578  1.00  0.00     0.118 C 
HETATM    7  C   UNL     1      -1.624 -12.419 -38.311  1.00  0.00     0.066 C 
HETATM    8  C   UNL     1      -2.847 -12.980 -37.559  1.00  0.00     0.221 C 
HETATM    9  C   UNL     1      -4.856 -14.062 -40.321  1.00  0.00     0.092 A 
HETATM   10 BR   UNL     1      -5.214 -14.552 -42.093  1.00  0.00    -0.044 Br
HETATM   11  H   UNL     1      -2.250 -13.771 -41.338  1.00  0.00     0.162 HD
ENDROOT
BRANCH   1  12
HETATM   12  C   UNL     1      -7.185 -14.424 -39.205  1.00  0.00     0.273 C 
HETATM   13  N   UNL     1      -8.035 -13.344 -39.098  1.00  0.00    -0.353 N 
HETATM   14  H   UNL     1      -7.586 -12.453 -38.901  1.00  0.00     0.162 HD
HETATM   15  O   UNL     1      -7.590 -15.583 -39.246  1.00  0.00    -0.266 OA
BRANCH  13  16
HETATM   16  C   UNL     1      -9.452 -13.498 -38.844  1.00  0.00     0.149 C 
BRANCH  16  17
HETATM   17  C   UNL     1     -10.311 -12.764 -39.877  1.00  0.00     0.186 C 
BRANCH  17  18
HETATM   18  O   UNL     1     -11.356 -13.637 -40.323  1.00  0.00    -0.394 OA
HETATM   19  C   UNL     1     -10.835 -14.746 -41.042  1.00  0.00     0.201 C 
ENDBRANCH  17  18
ENDBRANCH  16  17
ENDBRANCH  13  16
ENDBRANCH   1  12
BRANCH   8  20
HETATM   20  C   UNL     1      -2.509 -14.076 -36.572  1.00  0.00     0.409 C 
HETATM   21  F   UNL     1      -3.298 -14.094 -35.483  1.00  0.00    -0.169 F 
HETATM   22  F   UNL     1      -2.620 -15.292 -37.169  1.00  0.00    -0.169 F 
HETATM   23  F   UNL     1      -1.229 -13.988 -36.142  1.00  0.00    -0.169 F 
ENDBRANCH   8  20
BRANCH   6  24
HETATM   24  C   UNL     1      -0.403 -14.449 -39.336  1.00  0.00    -0.035 A 
HETATM   25  C   UNL     1       0.814 -14.327 -38.641  1.00  0.00     0.009 A 
HETATM   26  C   UNL     1       1.623 -15.442 -38.404  1.00  0.00     0.001 A 
HETATM   27  C   UNL     1       1.232 -16.697 -38.859  1.00  0.00     0.000 A 
HETATM   28  C   UNL     1       0.037 -16.837 -39.557  1.00  0.00     0.001 A 
HETATM   29  C   UNL     1      -0.771 -15.723 -39.798  1.00  0.00     0.009 A 
ENDBRANCH   6  24
TORSDOF 6
ENDMDL
MODEL 10
REMARK VINA RESULT:      -6.6      3.862      5.741
REMARK  6 active torsions:
REMARK  status: ('A' for Active; 'I' for Inactive)
REMARK    1  A    between atoms: O_2  and  C_3 
REMARK    2  A    between atoms: C_3  and  C_4 
REMARK    3  A    between atoms: C_4  and  N_5 
REMARK       I    between atoms: N_5  and  C_6 
REMARK    4  A    between atoms: C_6  and  C_7 
REMARK    5  A    between atoms: C_12  and  C_13 
REMARK    6  A    between atoms: C_20  and  C_21 
ROOT
HETATM    1  C   UNL     1      -6.807   0.307 -33.232  1.00  0.00     0.165 A 
HETATM    2  N   UNL     1      -5.679   0.920 -32.787  1.00  0.00    -0.163 NA
HETATM    3  N   UNL     1      -6.112   1.706 -31.785  1.00  0.00    -0.238 N 
HETATM    4  C   UNL     1      -7.449   1.591 -31.524  1.00  0.00     0.141 A 
HETATM    5  N   UNL     1      -8.035   2.282 -30.517  1.00  0.00    -0.365 N 
HETATM    6  C   UNL     1      -7.332   3.332 -29.788  1.00  0.00     0.118 C 
HETATM    7  C   UNL     1      -5.832   2.993 -29.703  1.00  0.00     0.066 C 
HETATM    8  C   UNL     1      -5.201   2.552 -31.038  1.00  0.00     0.221 C 
HETATM    9  C   UNL     1      -7.923   0.702 -32.453  1.00  0.00     0.092 A 
HETATM   10 BR   UNL     1      -9.701   0.142 -32.644  1.00  0.00    -0.044 Br
HETATM   11  H   UNL     1      -9.052   2.301 -30.434  1.00  0.00     0.162 HD
ENDROOT
BRANCH   1  12
HETATM   12  C   UNL     1      -6.759  -0.611 -34.383  1.00  0.00     0.273 C 
HETATM   13  N   UNL     1      -6.193  -1.832 -34.085  1.00  0.00    -0.353 N 
HETATM   14  H   UNL     1      -5.750  -1.896 -33.172  1.00  0.00     0.162 HD
HETATM   15  O   UNL     1      -7.155  -0.321 -35.509  1.00  0.00    -0.266 OA
BRANCH  13  16
HETATM   16  C   UNL     1      -5.856  -2.798 -35.109  1.00  0.00     0.149 C 
BRANCH  16  17
HETATM   17  C   UNL     1      -6.657  -4.096 -34.971  1.00  0.00     0.186 C 
BRANCH  17  18
HETATM   18  O   UNL     1      -5.769  -5.211 -35.110  1.00  0.00    -0.394 OA
HETATM   19  C   UNL     1      -4.674  -5.118 -34.209  1.00  0.00     0.201 C 
ENDBRANCH  17  18
ENDBRANCH  16  17
ENDBRANCH  13  16
ENDBRANCH   1  12
BRANCH   8  20
HETATM   20  C   UNL     1      -4.720   3.701 -31.898  1.00  0.00     0.409 C 
HETATM   21  F   UNL     1      -5.627   4.130 -32.794  1.00  0.00    -0.169 F 
HETATM   22  F   UNL     1      -4.393   4.763 -31.117  1.00  0.00    -0.169 F 
HETATM   23  F   UNL     1      -3.597   3.381 -32.583  1.00  0.00    -0.169 F 
ENDBRANCH   8  20
BRANCH   6  24
HETATM   24  C   UNL     1      -7.650   4.728 -30.294  1.00  0.00    -0.035 A 
HETATM   25  C   UNL     1      -7.087   5.837 -29.635  1.00  0.00     0.009 A 
HETATM   26  C   UNL     1      -7.359   7.141 -30.057  1.00  0.00     0.001 A 
HETATM   27  C   UNL     1      -8.201   7.362 -31.142  1.00  0.00     0.000 A 
HETATM   28  C   UNL     1      -8.776   6.279 -31.802  1.00  0.00     0.001 A 
HETATM   29  C   UNL     1      -8.507   4.975 -31.379  1.00  0.00     0.009 A 
ENDBRANCH   6  24
TORSDOF 6
ENDMDL
