MODEL 1
REMARK VINA RESULT:      -7.3      0.000      0.000
REMARK  10 active torsions:
REMARK  status: ('A' for Active; 'I' for Inactive)
REMARK    1  A    between atoms: C_2  and  C_3 
REMARK    2  A    between atoms: C_3  and  N_4 
REMARK    3  A    between atoms: C_7  and  C_8 
REMARK       I    between atoms: C_8  and  N_9 
REMARK    4  A    between atoms: N_9  and  C_10 
REMARK    5  A    between atoms: C_10  and  C_11 
REMARK    6  A    between atoms: C_11  and  O_12 
REMARK    7  A    between atoms: C_11  and  C_13 
REMARK    8  A    between atoms: C_13  and  O_14 
REMARK    9  A    between atoms: O_14  and  C_15 
REMARK   10  A    between atoms: C_23  and  C_24 
ROOT
HETATM    1  C   UNL     1      -7.909   3.710 -32.285  1.00  0.00     0.255 C 
HETATM    2  N   UNL     1      -8.473   2.725 -33.055  1.00  0.00    -0.354 N 
HETATM    3  O   UNL     1      -8.479   4.214 -31.323  1.00  0.00    -0.268 OA
HETATM    4  H   UNL     1      -7.918   2.300 -33.787  1.00  0.00     0.162 HD
ENDROOT
BRANCH   2   5
HETATM    5  C   UNL     1      -9.679   2.033 -32.637  1.00  0.00     0.156 C 
BRANCH   5   6
HETATM    6  C   UNL     1      -9.420   0.560 -32.317  1.00  0.00     0.160 C 
BRANCH   6   7
HETATM    7  O   UNL     1      -8.754   0.468 -31.046  1.00  0.00    -0.392 OA
HETATM    8  H   UNL     1      -9.192  -0.266 -30.573  1.00  0.00     0.210 HD
ENDBRANCH   6   7
BRANCH   6   9
HETATM    9  C   UNL     1      -8.564  -0.119 -33.390  1.00  0.00     0.209 C 
BRANCH   9  10
HETATM   10  O   UNL     1      -7.191   0.074 -33.027  1.00  0.00    -0.349 OA
BRANCH  10  11
HETATM   11  C   UNL     1      -6.302  -0.868 -33.465  1.00  0.00     0.069 A 
HETATM   12  C   UNL     1      -6.886  -1.975 -34.090  1.00  0.00     0.043 A 
HETATM   13  C   UNL     1      -6.099  -3.022 -34.586  1.00  0.00    -0.059 A 
HETATM   14  C   UNL     1      -6.728  -4.211 -35.249  1.00  0.00     0.048 C 
HETATM   15  C   UNL     1      -4.711  -2.961 -34.427  1.00  0.00     0.007 A 
HETATM   16  C   UNL     1      -4.123  -1.862 -33.802  1.00  0.00     0.003 A 
HETATM   17  C   UNL     1      -4.915  -0.815 -33.325  1.00  0.00     0.037 A 
ENDBRANCH  10  11
ENDBRANCH   9  10
ENDBRANCH   6   9
ENDBRANCH   5   6
ENDBRANCH   2   5
BRANCH   1  18
HETATM   18  C   UNL     1      -6.621   4.182 -32.742  1.00  0.00     0.075 A 
HETATM   19  C   UNL     1      -6.457   5.051 -33.843  1.00  0.00     0.158 A 
HETATM   20  N   UNL     1      -5.197   5.428 -34.025  1.00  0.00    -0.183 NA
HETATM   21  N   UNL     1      -4.542   4.875 -32.984  1.00  0.00    -0.268 N 
HETATM   22  C   UNL     1      -5.343   4.052 -32.209  1.00  0.00     0.052 A 
BRANCH  21  23
HETATM   23  C   UNL     1      -3.139   5.242 -32.771  1.00  0.00     0.106 C 
HETATM   24  C   UNL     1      -2.938   6.761 -32.760  1.00  0.00     0.034 C 
BRANCH  23  25
HETATM   25  C   UNL     1      -2.180   4.498 -33.719  1.00  0.00     0.022 C 
HETATM   26  C   UNL     1      -1.374   5.373 -34.671  1.00  0.00     0.007 C 
ENDBRANCH  23  25
ENDBRANCH  21  23
BRANCH  22  27
HETATM   27  C   UNL     1      -4.854   3.282 -30.977  1.00  0.00     0.038 A 
HETATM   28  C   UNL     1      -5.287   1.858 -30.718  1.00  0.00     0.011 A 
HETATM   29  C   UNL     1      -3.877   2.139 -31.117  1.00  0.00     0.011 A 
ENDBRANCH  22  27
ENDBRANCH   1  18
TORSDOF 10
ENDMDL
MODEL 2
REMARK VINA RESULT:      -7.2      1.534      2.403
REMARK  10 active torsions:
REMARK  status: ('A' for Active; 'I' for Inactive)
REMARK    1  A    between atoms: C_2  and  C_3 
REMARK    2  A    between atoms: C_3  and  N_4 
REMARK    3  A    between atoms: C_7  and  C_8 
REMARK       I    between atoms: C_8  and  N_9 
REMARK    4  A    between atoms: N_9  and  C_10 
REMARK    5  A    between atoms: C_10  and  C_11 
REMARK    6  A    between atoms: C_11  and  O_12 
REMARK    7  A    between atoms: C_11  and  C_13 
REMARK    8  A    between atoms: C_13  and  O_14 
REMARK    9  A    between atoms: O_14  and  C_15 
REMARK   10  A    between atoms: C_23  and  C_24 
ROOT
HETATM    1  C   UNL     1      -6.498   2.694 -30.680  1.00  0.00     0.255 C 
HETATM    2  N   UNL     1      -7.211   2.149 -31.717  1.00  0.00    -0.354 N 
HETATM    3  O   UNL     1      -6.985   2.910 -29.576  1.00  0.00    -0.268 OA
HETATM    4  H   UNL     1      -6.728   1.926 -32.578  1.00  0.00     0.162 HD
ENDROOT
BRANCH   2   5
HETATM    5  C   UNL     1      -8.520   1.556 -31.507  1.00  0.00     0.156 C 
BRANCH   5   6
HETATM    6  C   UNL     1      -9.167   1.103 -32.816  1.00  0.00     0.160 C 
BRANCH   6   7
HETATM    7  O   UNL     1     -10.571   0.888 -32.594  1.00  0.00    -0.392 OA
HETATM    8  H   UNL     1     -10.881   0.364 -33.358  1.00  0.00     0.210 HD
ENDBRANCH   6   7
BRANCH   6   9
HETATM    9  C   UNL     1      -8.536  -0.186 -33.353  1.00  0.00     0.209 C 
BRANCH   9  10
HETATM   10  O   UNL     1      -7.257   0.160 -33.899  1.00  0.00    -0.349 OA
BRANCH  10  11
HETATM   11  C   UNL     1      -6.341  -0.850 -34.002  1.00  0.00     0.069 A 
HETATM   12  C   UNL     1      -6.840  -2.037 -34.548  1.00  0.00     0.043 A 
HETATM   13  C   UNL     1      -6.016  -3.159 -34.710  1.00  0.00    -0.059 A 
HETATM   14  C   UNL     1      -6.555  -4.433 -35.288  1.00  0.00     0.048 C 
HETATM   15  C   UNL     1      -4.683  -3.087 -34.293  1.00  0.00     0.007 A 
HETATM   16  C   UNL     1      -4.180  -1.908 -33.746  1.00  0.00     0.003 A 
HETATM   17  C   UNL     1      -5.005  -0.789 -33.603  1.00  0.00     0.037 A 
ENDBRANCH  10  11
ENDBRANCH   9  10
ENDBRANCH   6   9
ENDBRANCH   5   6
ENDBRANCH   2   5
BRANCH   1  18
HETATM   18  C   UNL     1      -5.145   3.085 -31.007  1.00  0.00     0.075 A 
HETATM   19  C   UNL     1      -4.084   2.165 -31.157  1.00  0.00     0.158 A 
HETATM   20  N   UNL     1      -2.951   2.736 -31.549  1.00  0.00    -0.183 NA
HETATM   21  N   UNL     1      -3.292   4.026 -31.745  1.00  0.00    -0.268 N 
HETATM   22  C   UNL     1      -4.594   4.311 -31.367  1.00  0.00     0.052 A 
BRANCH  21  23
HETATM   23  C   UNL     1      -2.308   4.920 -32.362  1.00  0.00     0.106 C 
HETATM   24  C   UNL     1      -2.075   4.585 -33.839  1.00  0.00     0.034 C 
BRANCH  23  25
HETATM   25  C   UNL     1      -1.010   5.031 -31.541  1.00  0.00     0.022 C 
HETATM   26  C   UNL     1      -0.280   6.365 -31.628  1.00  0.00     0.007 C 
ENDBRANCH  23  25
ENDBRANCH  21  23
BRANCH  22  27
HETATM   27  C   UNL     1      -5.238   5.699 -31.462  1.00  0.00     0.038 A 
HETATM   28  C   UNL     1      -5.733   6.246 -32.780  1.00  0.00     0.011 A 
HETATM   29  C   UNL     1      -6.716   5.849 -31.731  1.00  0.00     0.011 A 
ENDBRANCH  22  27
ENDBRANCH   1  18
TORSDOF 10
ENDMDL
MODEL 3
REMARK VINA RESULT:      -7.2      1.954      3.145
REMARK  10 active torsions:
REMARK  status: ('A' for Active; 'I' for Inactive)
REMARK    1  A    between atoms: C_2  and  C_3 
REMARK    2  A    between atoms: C_3  and  N_4 
REMARK    3  A    between atoms: C_7  and  C_8 
REMARK       I    between atoms: C_8  and  N_9 
REMARK    4  A    between atoms: N_9  and  C_10 
REMARK    5  A    between atoms: C_10  and  C_11 
REMARK    6  A    between atoms: C_11  and  O_12 
REMARK    7  A    between atoms: C_11  and  C_13 
REMARK    8  A    between atoms: C_13  and  O_14 
REMARK    9  A    between atoms: O_14  and  C_15 
REMARK   10  A    between atoms: C_23  and  C_24 
ROOT
HETATM    1  C   UNL     1      -5.461   3.340 -31.385  1.00  0.00     0.255 C 
HETATM    2  N   UNL     1      -5.859   2.455 -32.354  1.00  0.00    -0.354 N 
HETATM    3  O   UNL     1      -6.159   3.632 -30.421  1.00  0.00    -0.268 OA
HETATM    4  H   UNL     1      -5.204   2.201 -33.082  1.00  0.00     0.162 HD
ENDROOT
BRANCH   2   5
HETATM    5  C   UNL     1      -7.027   1.611 -32.177  1.00  0.00     0.156 C 
BRANCH   5   6
HETATM    6  C   UNL     1      -6.685   0.283 -31.501  1.00  0.00     0.160 C 
BRANCH   6   7
HETATM    7  O   UNL     1      -6.701   0.466 -30.075  1.00  0.00    -0.392 OA
HETATM    8  H   UNL     1      -5.785   0.705 -29.831  1.00  0.00     0.210 HD
ENDBRANCH   6   7
BRANCH   6   9
HETATM    9  C   UNL     1      -5.312  -0.243 -31.930  1.00  0.00     0.209 C 
BRANCH   9  10
HETATM   10  O   UNL     1      -5.340  -0.401 -33.354  1.00  0.00    -0.349 OA
BRANCH  10  11
HETATM   11  C   UNL     1      -5.546  -1.668 -33.827  1.00  0.00     0.069 A 
HETATM   12  C   UNL     1      -4.458  -2.532 -33.671  1.00  0.00     0.043 A 
HETATM   13  C   UNL     1      -4.522  -3.860 -34.112  1.00  0.00    -0.059 A 
HETATM   14  C   UNL     1      -3.351  -4.783 -33.951  1.00  0.00     0.048 C 
HETATM   15  C   UNL     1      -5.689  -4.311 -34.739  1.00  0.00     0.007 A 
HETATM   16  C   UNL     1      -6.776  -3.453 -34.900  1.00  0.00     0.003 A 
HETATM   17  C   UNL     1      -6.708  -2.135 -34.442  1.00  0.00     0.037 A 
ENDBRANCH  10  11
ENDBRANCH   9  10
ENDBRANCH   6   9
ENDBRANCH   5   6
ENDBRANCH   2   5
BRANCH   1  18
HETATM   18  C   UNL     1      -4.187   3.981 -31.627  1.00  0.00     0.075 A 
HETATM   19  C   UNL     1      -2.966   3.276 -31.716  1.00  0.00     0.158 A 
HETATM   20  N   UNL     1      -1.939   4.055 -32.037  1.00  0.00    -0.183 NA
HETATM   21  N   UNL     1      -2.503   5.262 -32.247  1.00  0.00    -0.268 N 
HETATM   22  C   UNL     1      -3.855   5.293 -31.947  1.00  0.00     0.052 A 
BRANCH  21  23
HETATM   23  C   UNL     1      -1.668   6.332 -32.798  1.00  0.00     0.106 C 
HETATM   24  C   UNL     1      -1.293   6.073 -34.261  1.00  0.00     0.034 C 
BRANCH  23  25
HETATM   25  C   UNL     1      -0.461   6.667 -31.902  1.00  0.00     0.022 C 
HETATM   26  C   UNL     1      -0.789   7.091 -30.476  1.00  0.00     0.007 C 
ENDBRANCH  23  25
ENDBRANCH  21  23
BRANCH  22  27
HETATM   27  C   UNL     1      -4.739   6.539 -32.076  1.00  0.00     0.038 A 
HETATM   28  C   UNL     1      -5.532   7.063 -30.902  1.00  0.00     0.011 A 
HETATM   29  C   UNL     1      -4.355   7.832 -31.399  1.00  0.00     0.011 A 
ENDBRANCH  22  27
ENDBRANCH   1  18
TORSDOF 10
ENDMDL
MODEL 4
REMARK VINA RESULT:      -7.1      3.173      6.631
REMARK  10 active torsions:
REMARK  status: ('A' for Active; 'I' for Inactive)
REMARK    1  A    between atoms: C_2  and  C_3 
REMARK    2  A    between atoms: C_3  and  N_4 
REMARK    3  A    between atoms: C_7  and  C_8 
REMARK       I    between atoms: C_8  and  N_9 
REMARK    4  A    between atoms: N_9  and  C_10 
REMARK    5  A    between atoms: C_10  and  C_11 
REMARK    6  A    between atoms: C_11  and  O_12 
REMARK    7  A    between atoms: C_11  and  C_13 
REMARK    8  A    between atoms: C_13  and  O_14 
REMARK    9  A    between atoms: O_14  and  C_15 
REMARK   10  A    between atoms: C_23  and  C_24 
ROOT
HETATM    1  C   UNL     1      -5.766   1.318 -32.116  1.00  0.00     0.255 C 
HETATM    2  N   UNL     1      -6.912   1.194 -31.373  1.00  0.00    -0.354 N 
HETATM    3  O   UNL     1      -5.251   2.400 -32.374  1.00  0.00    -0.268 OA
HETATM    4  H   UNL     1      -7.241   0.268 -31.133  1.00  0.00     0.162 HD
ENDROOT
BRANCH   2   5
HETATM    5  C   UNL     1      -7.455   2.314 -30.626  1.00  0.00     0.156 C 
BRANCH   5   6
HETATM    6  C   UNL     1      -8.837   2.732 -31.131  1.00  0.00     0.160 C 
BRANCH   6   7
HETATM    7  O   UNL     1      -9.769   2.685 -30.037  1.00  0.00    -0.392 OA
HETATM    8  H   UNL     1      -9.272   2.304 -29.286  1.00  0.00     0.210 HD
ENDBRANCH   6   7
BRANCH   6   9
HETATM    9  C   UNL     1      -9.335   1.824 -32.260  1.00  0.00     0.209 C 
BRANCH   9  10
HETATM   10  O   UNL     1      -9.696   2.669 -33.360  1.00  0.00    -0.349 OA
BRANCH  10  11
HETATM   11  C   UNL     1     -10.894   2.408 -33.966  1.00  0.00     0.069 A 
HETATM   12  C   UNL     1     -11.519   1.232 -33.539  1.00  0.00     0.043 A 
HETATM   13  C   UNL     1     -12.750   0.834 -34.076  1.00  0.00    -0.059 A 
HETATM   14  C   UNL     1     -13.415  -0.432 -33.622  1.00  0.00     0.048 C 
HETATM   15  C   UNL     1     -13.342   1.619 -35.071  1.00  0.00     0.007 A 
HETATM   16  C   UNL     1     -12.722   2.790 -35.503  1.00  0.00     0.003 A 
HETATM   17  C   UNL     1     -11.502   3.187 -34.950  1.00  0.00     0.037 A 
ENDBRANCH  10  11
ENDBRANCH   9  10
ENDBRANCH   6   9
ENDBRANCH   5   6
ENDBRANCH   2   5
BRANCH   1  18
HETATM   18  C   UNL     1      -5.252   0.080 -32.658  1.00  0.00     0.075 A 
HETATM   19  C   UNL     1      -4.403  -0.791 -31.940  1.00  0.00     0.158 A 
HETATM   20  N   UNL     1      -4.130  -1.911 -32.598  1.00  0.00    -0.183 NA
HETATM   21  N   UNL     1      -4.876  -1.817 -33.718  1.00  0.00    -0.268 N 
HETATM   22  C   UNL     1      -5.525  -0.599 -33.841  1.00  0.00     0.052 A 
BRANCH  21  23
HETATM   23  C   UNL     1      -4.954  -2.983 -34.601  1.00  0.00     0.106 C 
HETATM   24  C   UNL     1      -6.365  -3.580 -34.642  1.00  0.00     0.034 C 
BRANCH  23  25
HETATM   25  C   UNL     1      -3.853  -4.021 -34.315  1.00  0.00     0.022 C 
HETATM   26  C   UNL     1      -4.330  -5.376 -33.809  1.00  0.00     0.007 C 
ENDBRANCH  23  25
ENDBRANCH  21  23
BRANCH  22  27
HETATM   27  C   UNL     1      -6.423  -0.215 -35.023  1.00  0.00     0.038 A 
HETATM   28  C   UNL     1      -7.926  -0.173 -34.886  1.00  0.00     0.011 A 
HETATM   29  C   UNL     1      -7.164   1.101 -35.035  1.00  0.00     0.011 A 
ENDBRANCH  22  27
ENDBRANCH   1  18
TORSDOF 10
ENDMDL
MODEL 5
REMARK VINA RESULT:      -7.0      2.767      7.600
REMARK  10 active torsions:
REMARK  status: ('A' for Active; 'I' for Inactive)
REMARK    1  A    between atoms: C_2  and  C_3 
REMARK    2  A    between atoms: C_3  and  N_4 
REMARK    3  A    between atoms: C_7  and  C_8 
REMARK       I    between atoms: C_8  and  N_9 
REMARK    4  A    between atoms: N_9  and  C_10 
REMARK    5  A    between atoms: C_10  and  C_11 
REMARK    6  A    between atoms: C_11  and  O_12 
REMARK    7  A    between atoms: C_11  and  C_13 
REMARK    8  A    between atoms: C_13  and  O_14 
REMARK    9  A    between atoms: O_14  and  C_15 
REMARK   10  A    between atoms: C_23  and  C_24 
ROOT
HETATM    1  C   UNL     1      -6.101   1.644 -32.050  1.00  0.00     0.255 C 
HETATM    2  N   UNL     1      -5.375   2.769 -32.342  1.00  0.00    -0.354 N 
HETATM    3  O   UNL     1      -7.088   1.657 -31.322  1.00  0.00    -0.268 OA
HETATM    4  H   UNL     1      -4.617   2.702 -33.010  1.00  0.00     0.162 HD
ENDROOT
BRANCH   2   5
HETATM    5  C   UNL     1      -5.867   4.095 -32.016  1.00  0.00     0.156 C 
BRANCH   5   6
HETATM    6  C   UNL     1      -5.580   5.110 -33.123  1.00  0.00     0.160 C 
BRANCH   6   7
HETATM    7  O   UNL     1      -6.362   4.772 -34.281  1.00  0.00    -0.392 OA
HETATM    8  H   UNL     1      -5.904   4.014 -34.695  1.00  0.00     0.210 HD
ENDBRANCH   6   7
BRANCH   6   9
HETATM    9  C   UNL     1      -4.096   5.139 -33.504  1.00  0.00     0.209 C 
BRANCH   9  10
HETATM   10  O   UNL     1      -3.349   4.757 -32.342  1.00  0.00    -0.349 OA
BRANCH  10  11
HETATM   11  C   UNL     1      -2.215   5.474 -32.079  1.00  0.00     0.069 A 
HETATM   12  C   UNL     1      -1.327   4.856 -31.193  1.00  0.00     0.043 A 
HETATM   13  C   UNL     1      -0.125   5.474 -30.827  1.00  0.00    -0.059 A 
HETATM   14  C   UNL     1       0.823   4.813 -29.871  1.00  0.00     0.048 C 
HETATM   15  C   UNL     1       0.170   6.741 -31.343  1.00  0.00     0.007 A 
HETATM   16  C   UNL     1      -0.712   7.363 -32.224  1.00  0.00     0.003 A 
HETATM   17  C   UNL     1      -1.901   6.731 -32.596  1.00  0.00     0.037 A 
ENDBRANCH  10  11
ENDBRANCH   9  10
ENDBRANCH   6   9
ENDBRANCH   5   6
ENDBRANCH   2   5
BRANCH   1  18
HETATM   18  C   UNL     1      -5.567   0.413 -32.590  1.00  0.00     0.075 A 
HETATM   19  C   UNL     1      -4.732  -0.459 -31.859  1.00  0.00     0.158 A 
HETATM   20  N   UNL     1      -4.437  -1.573 -32.520  1.00  0.00    -0.183 NA
HETATM   21  N   UNL     1      -5.156  -1.472 -33.656  1.00  0.00    -0.268 N 
HETATM   22  C   UNL     1      -5.809  -0.257 -33.785  1.00  0.00     0.052 A 
BRANCH  21  23
HETATM   23  C   UNL     1      -5.207  -2.631 -34.551  1.00  0.00     0.106 C 
HETATM   24  C   UNL     1      -6.613  -3.234 -34.632  1.00  0.00     0.034 C 
BRANCH  23  25
HETATM   25  C   UNL     1      -4.107  -3.666 -34.247  1.00  0.00     0.022 C 
HETATM   26  C   UNL     1      -4.568  -5.114 -34.139  1.00  0.00     0.007 C 
ENDBRANCH  23  25
ENDBRANCH  21  23
BRANCH  22  27
HETATM   27  C   UNL     1      -6.679   0.134 -34.984  1.00  0.00     0.038 A 
HETATM   28  C   UNL     1      -8.186   0.070 -34.915  1.00  0.00     0.011 A 
HETATM   29  C   UNL     1      -7.506   1.397 -34.961  1.00  0.00     0.011 A 
ENDBRANCH  22  27
ENDBRANCH   1  18
TORSDOF 10
ENDMDL
MODEL 6
REMARK VINA RESULT:      -6.9      3.245      4.882
REMARK  10 active torsions:
REMARK  status: ('A' for Active; 'I' for Inactive)
REMARK    1  A    between atoms: C_2  and  C_3 
REMARK    2  A    between atoms: C_3  and  N_4 
REMARK    3  A    between atoms: C_7  and  C_8 
REMARK       I    between atoms: C_8  and  N_9 
REMARK    4  A    between atoms: N_9  and  C_10 
REMARK    5  A    between atoms: C_10  and  C_11 
REMARK    6  A    between atoms: C_11  and  O_12 
REMARK    7  A    between atoms: C_11  and  C_13 
REMARK    8  A    between atoms: C_13  and  O_14 
REMARK    9  A    between atoms: O_14  and  C_15 
REMARK   10  A    between atoms: C_23  and  C_24 
ROOT
HETATM    1  C   UNL     1      -2.756   4.202 -31.802  1.00  0.00     0.255 C 
HETATM    2  N   UNL     1      -3.334   3.089 -31.249  1.00  0.00    -0.354 N 
HETATM    3  O   UNL     1      -2.064   4.163 -32.813  1.00  0.00    -0.268 OA
HETATM    4  H   UNL     1      -3.956   3.203 -30.458  1.00  0.00     0.162 HD
ENDROOT
BRANCH   2   5
HETATM    5  C   UNL     1      -3.378   1.825 -31.961  1.00  0.00     0.156 C 
BRANCH   5   6
HETATM    6  C   UNL     1      -3.578   0.636 -31.020  1.00  0.00     0.160 C 
BRANCH   6   7
HETATM    7  O   UNL     1      -2.371  -0.146 -30.992  1.00  0.00    -0.392 OA
HETATM    8  H   UNL     1      -2.270  -0.438 -30.065  1.00  0.00     0.210 HD
ENDBRANCH   6   7
BRANCH   6   9
HETATM    9  C   UNL     1      -4.747  -0.252 -31.457  1.00  0.00     0.209 C 
BRANCH   9  10
HETATM   10  O   UNL     1      -4.788  -0.231 -32.889  1.00  0.00    -0.349 OA
BRANCH  10  11
HETATM   11  C   UNL     1      -5.158  -1.392 -33.510  1.00  0.00     0.069 A 
HETATM   12  C   UNL     1      -4.206  -2.414 -33.448  1.00  0.00     0.043 A 
HETATM   13  C   UNL     1      -4.445  -3.660 -34.044  1.00  0.00    -0.059 A 
HETATM   14  C   UNL     1      -3.419  -4.752 -33.984  1.00  0.00     0.048 C 
HETATM   15  C   UNL     1      -5.648  -3.864 -34.728  1.00  0.00     0.007 A 
HETATM   16  C   UNL     1      -6.599  -2.848 -34.795  1.00  0.00     0.003 A 
HETATM   17  C   UNL     1      -6.358  -1.615 -34.185  1.00  0.00     0.037 A 
ENDBRANCH  10  11
ENDBRANCH   9  10
ENDBRANCH   6   9
ENDBRANCH   5   6
ENDBRANCH   2   5
BRANCH   1  18
HETATM   18  C   UNL     1      -2.943   5.425 -31.053  1.00  0.00     0.075 A 
HETATM   19  C   UNL     1      -4.209   6.007 -30.816  1.00  0.00     0.158 A 
HETATM   20  N   UNL     1      -4.152   7.074 -30.028  1.00  0.00    -0.183 NA
HETATM   21  N   UNL     1      -2.853   7.142 -29.672  1.00  0.00    -0.268 N 
HETATM   22  C   UNL     1      -2.059   6.208 -30.317  1.00  0.00     0.052 A 
BRANCH  21  23
HETATM   23  C   UNL     1      -2.463   8.113 -28.646  1.00  0.00     0.106 C 
HETATM   24  C   UNL     1      -2.991   7.728 -27.260  1.00  0.00     0.034 C 
BRANCH  23  25
HETATM   25  C   UNL     1      -2.786   9.564 -29.049  1.00  0.00     0.022 C 
HETATM   26  C   UNL     1      -2.283  10.003 -30.418  1.00  0.00     0.007 C 
ENDBRANCH  23  25
ENDBRANCH  21  23
BRANCH  22  27
HETATM   27  C   UNL     1      -0.545   6.073 -30.116  1.00  0.00     0.038 A 
HETATM   28  C   UNL     1       0.430   6.493 -31.191  1.00  0.00     0.011 A 
HETATM   29  C   UNL     1       0.322   7.296 -29.939  1.00  0.00     0.011 A 
ENDBRANCH  22  27
ENDBRANCH   1  18
TORSDOF 10
ENDMDL
MODEL 7
REMARK VINA RESULT:      -6.9      2.632      7.306
REMARK  10 active torsions:
REMARK  status: ('A' for Active; 'I' for Inactive)
REMARK    1  A    between atoms: C_2  and  C_3 
REMARK    2  A    between atoms: C_3  and  N_4 
REMARK    3  A    between atoms: C_7  and  C_8 
REMARK       I    between atoms: C_8  and  N_9 
REMARK    4  A    between atoms: N_9  and  C_10 
REMARK    5  A    between atoms: C_10  and  C_11 
REMARK    6  A    between atoms: C_11  and  O_12 
REMARK    7  A    between atoms: C_11  and  C_13 
REMARK    8  A    between atoms: C_13  and  O_14 
REMARK    9  A    between atoms: O_14  and  C_15 
REMARK   10  A    between atoms: C_23  and  C_24 
ROOT
HETATM    1  C   UNL     1      -6.984   2.587 -33.192  1.00  0.00     0.255 C 
HETATM    2  N   UNL     1      -5.840   3.327 -33.341  1.00  0.00    -0.354 N 
HETATM    3  O   UNL     1      -7.986   3.012 -32.629  1.00  0.00    -0.268 OA
HETATM    4  H   UNL     1      -5.076   2.943 -33.883  1.00  0.00     0.162 HD
ENDROOT
BRANCH   2   5
HETATM    5  C   UNL     1      -5.818   4.752 -33.066  1.00  0.00     0.156 C 
BRANCH   5   6
HETATM    6  C   UNL     1      -5.403   5.059 -31.627  1.00  0.00     0.160 C 
BRANCH   6   7
HETATM    7  O   UNL     1      -5.282   6.484 -31.469  1.00  0.00    -0.392 OA
HETATM    8  H   UNL     1      -5.252   6.638 -30.504  1.00  0.00     0.210 HD
ENDBRANCH   6   7
BRANCH   6   9
HETATM    9  C   UNL     1      -4.074   4.393 -31.258  1.00  0.00     0.209 C 
BRANCH   9  10
HETATM   10  O   UNL     1      -3.173   4.601 -32.353  1.00  0.00    -0.349 OA
BRANCH  10  11
HETATM   11  C   UNL     1      -2.050   5.336 -32.092  1.00  0.00     0.069 A 
HETATM   12  C   UNL     1      -1.212   4.792 -31.113  1.00  0.00     0.043 A 
HETATM   13  C   UNL     1      -0.026   5.438 -30.739  1.00  0.00    -0.059 A 
HETATM   14  C   UNL     1       0.867   4.857 -29.684  1.00  0.00     0.048 C 
HETATM   15  C   UNL     1       0.302   6.656 -31.342  1.00  0.00     0.007 A 
HETATM   16  C   UNL     1      -0.531   7.205 -32.316  1.00  0.00     0.003 A 
HETATM   17  C   UNL     1      -1.703   6.546 -32.694  1.00  0.00     0.037 A 
ENDBRANCH  10  11
ENDBRANCH   9  10
ENDBRANCH   6   9
ENDBRANCH   5   6
ENDBRANCH   2   5
BRANCH   1  18
HETATM   18  C   UNL     1      -6.898   1.224 -33.670  1.00  0.00     0.075 A 
HETATM   19  C   UNL     1      -7.043   0.865 -35.028  1.00  0.00     0.158 A 
HETATM   20  N   UNL     1      -6.833  -0.427 -35.249  1.00  0.00    -0.183 NA
HETATM   21  N   UNL     1      -6.460  -0.904 -34.044  1.00  0.00    -0.268 N 
HETATM   22  C   UNL     1      -6.547   0.039 -33.033  1.00  0.00     0.052 A 
BRANCH  21  23
HETATM   23  C   UNL     1      -5.973  -2.284 -33.963  1.00  0.00     0.106 C 
HETATM   24  C   UNL     1      -4.462  -2.374 -34.199  1.00  0.00     0.034 C 
BRANCH  23  25
HETATM   25  C   UNL     1      -6.793  -3.256 -34.832  1.00  0.00     0.022 C 
HETATM   26  C   UNL     1      -6.210  -4.653 -34.999  1.00  0.00     0.007 C 
ENDBRANCH  23  25
ENDBRANCH  21  23
BRANCH  22  27
HETATM   27  C   UNL     1      -6.203  -0.236 -31.565  1.00  0.00     0.038 A 
HETATM   28  C   UNL     1      -4.789  -0.101 -31.051  1.00  0.00     0.011 A 
HETATM   29  C   UNL     1      -5.822   0.892 -30.636  1.00  0.00     0.011 A 
ENDBRANCH  22  27
ENDBRANCH   1  18
TORSDOF 10
ENDMDL
MODEL 8
REMARK VINA RESULT:      -6.9      1.671      2.290
REMARK  10 active torsions:
REMARK  status: ('A' for Active; 'I' for Inactive)
REMARK    1  A    between atoms: C_2  and  C_3 
REMARK    2  A    between atoms: C_3  and  N_4 
REMARK    3  A    between atoms: C_7  and  C_8 
REMARK       I    between atoms: C_8  and  N_9 
REMARK    4  A    between atoms: N_9  and  C_10 
REMARK    5  A    between atoms: C_10  and  C_11 
REMARK    6  A    between atoms: C_11  and  O_12 
REMARK    7  A    between atoms: C_11  and  C_13 
REMARK    8  A    between atoms: C_13  and  O_14 
REMARK    9  A    between atoms: O_14  and  C_15 
REMARK   10  A    between atoms: C_23  and  C_24 
ROOT
HETATM    1  C   UNL     1      -6.094   4.400 -30.423  1.00  0.00     0.255 C 
HETATM    2  N   UNL     1      -7.092   3.848 -31.183  1.00  0.00    -0.354 N 
HETATM    3  O   UNL     1      -6.071   4.331 -29.199  1.00  0.00    -0.268 OA
HETATM    4  H   UNL     1      -7.009   3.875 -32.192  1.00  0.00     0.162 HD
ENDROOT
BRANCH   2   5
HETATM    5  C   UNL     1      -8.058   2.927 -30.613  1.00  0.00     0.156 C 
BRANCH   5   6
HETATM    6  C   UNL     1      -8.555   1.902 -31.633  1.00  0.00     0.160 C 
BRANCH   6   7
HETATM    7  O   UNL     1      -9.152   0.797 -30.933  1.00  0.00    -0.392 OA
HETATM    8  H   UNL     1      -8.688   0.749 -30.075  1.00  0.00     0.210 HD
ENDBRANCH   6   7
BRANCH   6   9
HETATM    9  C   UNL     1      -7.423   1.385 -32.527  1.00  0.00     0.209 C 
BRANCH   9  10
HETATM   10  O   UNL     1      -7.844   0.125 -33.064  1.00  0.00    -0.349 OA
BRANCH  10  11
HETATM   11  C   UNL     1      -6.856  -0.743 -33.438  1.00  0.00     0.069 A 
HETATM   12  C   UNL     1      -5.685  -0.658 -32.676  1.00  0.00     0.043 A 
HETATM   13  C   UNL     1      -4.586  -1.483 -32.947  1.00  0.00    -0.059 A 
HETATM   14  C   UNL     1      -3.330  -1.384 -32.135  1.00  0.00     0.048 C 
HETATM   15  C   UNL     1      -4.663  -2.386 -34.013  1.00  0.00     0.007 A 
HETATM   16  C   UNL     1      -5.825  -2.474 -34.777  1.00  0.00     0.003 A 
HETATM   17  C   UNL     1      -6.922  -1.658 -34.489  1.00  0.00     0.037 A 
ENDBRANCH  10  11
ENDBRANCH   9  10
ENDBRANCH   6   9
ENDBRANCH   5   6
ENDBRANCH   2   5
BRANCH   1  18
HETATM   18  C   UNL     1      -5.107   5.155 -31.163  1.00  0.00     0.075 A 
HETATM   19  C   UNL     1      -5.227   6.536 -31.436  1.00  0.00     0.158 A 
HETATM   20  N   UNL     1      -4.161   7.040 -32.046  1.00  0.00    -0.183 NA
HETATM   21  N   UNL     1      -3.298   6.005 -32.095  1.00  0.00    -0.268 N 
HETATM   22  C   UNL     1      -3.843   4.817 -31.635  1.00  0.00     0.052 A 
BRANCH  21  23
HETATM   23  C   UNL     1      -1.930   6.261 -32.553  1.00  0.00     0.106 C 
HETATM   24  C   UNL     1      -1.265   7.397 -31.769  1.00  0.00     0.034 C 
BRANCH  23  25
HETATM   25  C   UNL     1      -1.837   6.428 -34.081  1.00  0.00     0.022 C 
HETATM   26  C   UNL     1      -1.573   5.155 -34.875  1.00  0.00     0.007 C 
ENDBRANCH  23  25
ENDBRANCH  21  23
BRANCH  22  27
HETATM   27  C   UNL     1      -3.093   3.481 -31.596  1.00  0.00     0.038 A 
HETATM   28  C   UNL     1      -3.766   2.216 -31.120  1.00  0.00     0.011 A 
HETATM   29  C   UNL     1      -3.433   2.374 -32.565  1.00  0.00     0.011 A 
ENDBRANCH  22  27
ENDBRANCH   1  18
TORSDOF 10
ENDMDL
MODEL 9
REMARK VINA RESULT:      -6.8      2.711      6.627
REMARK  10 active torsions:
REMARK  status: ('A' for Active; 'I' for Inactive)
REMARK    1  A    between atoms: C_2  and  C_3 
REMARK    2  A    between atoms: C_3  and  N_4 
REMARK    3  A    between atoms: C_7  and  C_8 
REMARK       I    between atoms: C_8  and  N_9 
REMARK    4  A    between atoms: N_9  and  C_10 
REMARK    5  A    between atoms: C_10  and  C_11 
REMARK    6  A    between atoms: C_11  and  O_12 
REMARK    7  A    between atoms: C_11  and  C_13 
REMARK    8  A    between atoms: C_13  and  O_14 
REMARK    9  A    between atoms: O_14  and  C_15 
REMARK   10  A    between atoms: C_23  and  C_24 
ROOT
HETATM    1  C   UNL     1      -6.683   1.061 -32.545  1.00  0.00     0.255 C 
HETATM    2  N   UNL     1      -6.260   2.102 -33.330  1.00  0.00    -0.354 N 
HETATM    3  O   UNL     1      -7.086   1.212 -31.397  1.00  0.00    -0.268 OA
HETATM    4  H   UNL     1      -6.012   1.918 -34.294  1.00  0.00     0.162 HD
ENDROOT
BRANCH   2   5
HETATM    5  C   UNL     1      -6.497   3.483 -32.950  1.00  0.00     0.156 C 
BRANCH   5   6
HETATM    6  C   UNL     1      -7.489   4.180 -33.882  1.00  0.00     0.160 C 
BRANCH   6   7
HETATM    7  O   UNL     1      -7.193   5.586 -33.912  1.00  0.00    -0.392 OA
HETATM    8  H   UNL     1      -6.528   5.699 -34.619  1.00  0.00     0.210 HD
ENDBRANCH   6   7
BRANCH   6   9
HETATM    9  C   UNL     1      -8.939   3.975 -33.434  1.00  0.00     0.209 C 
BRANCH   9  10
HETATM   10  O   UNL     1      -9.307   2.633 -33.775  1.00  0.00    -0.349 OA
BRANCH  10  11
HETATM   11  C   UNL     1     -10.591   2.440 -34.205  1.00  0.00     0.069 A 
HETATM   12  C   UNL     1     -11.195   1.272 -33.729  1.00  0.00     0.043 A 
HETATM   13  C   UNL     1     -12.507   0.940 -34.089  1.00  0.00    -0.059 A 
HETATM   14  C   UNL     1     -13.151  -0.317 -33.584  1.00  0.00     0.048 C 
HETATM   15  C   UNL     1     -13.206   1.785 -34.958  1.00  0.00     0.007 A 
HETATM   16  C   UNL     1     -12.608   2.948 -35.438  1.00  0.00     0.003 A 
HETATM   17  C   UNL     1     -11.305   3.279 -35.060  1.00  0.00     0.037 A 
ENDBRANCH  10  11
ENDBRANCH   9  10
ENDBRANCH   6   9
ENDBRANCH   5   6
ENDBRANCH   2   5
BRANCH   1  18
HETATM   18  C   UNL     1      -6.534  -0.251 -33.135  1.00  0.00     0.075 A 
HETATM   19  C   UNL     1      -7.498  -0.835 -33.985  1.00  0.00     0.158 A 
HETATM   20  N   UNL     1      -7.111  -2.003 -34.486  1.00  0.00    -0.183 NA
HETATM   21  N   UNL     1      -5.849  -2.145 -34.032  1.00  0.00    -0.268 N 
HETATM   22  C   UNL     1      -5.469  -1.145 -33.152  1.00  0.00     0.052 A 
BRANCH  21  23
HETATM   23  C   UNL     1      -5.046  -3.257 -34.548  1.00  0.00     0.106 C 
HETATM   24  C   UNL     1      -5.918  -4.369 -35.139  1.00  0.00     0.034 C 
BRANCH  23  25
HETATM   25  C   UNL     1      -4.008  -3.762 -33.529  1.00  0.00     0.022 C 
HETATM   26  C   UNL     1      -3.277  -5.045 -33.905  1.00  0.00     0.007 C 
ENDBRANCH  23  25
ENDBRANCH  21  23
BRANCH  22  27
HETATM   27  C   UNL     1      -4.097  -1.069 -32.471  1.00  0.00     0.038 A 
HETATM   28  C   UNL     1      -3.118   0.033 -32.799  1.00  0.00     0.011 A 
HETATM   29  C   UNL     1      -3.791   0.016 -31.468  1.00  0.00     0.011 A 
ENDBRANCH  22  27
ENDBRANCH   1  18
TORSDOF 10
ENDMDL
MODEL 10
REMARK VINA RESULT:      -6.7      2.028      2.750
REMARK  10 active torsions:
REMARK  status: ('A' for Active; 'I' for Inactive)
REMARK    1  A    between atoms: C_2  and  C_3 
REMARK    2  A    between atoms: C_3  and  N_4 
REMARK    3  A    between atoms: C_7  and  C_8 
REMARK       I    between atoms: C_8  and  N_9 
REMARK    4  A    between atoms: N_9  and  C_10 
REMARK    5  A    between atoms: C_10  and  C_11 
REMARK    6  A    between atoms: C_11  and  O_12 
REMARK    7  A    between atoms: C_11  and  C_13 
REMARK    8  A    between atoms: C_13  and  O_14 
REMARK    9  A    between atoms: O_14  and  C_15 
REMARK   10  A    between atoms: C_23  and  C_24 
ROOT
HETATM    1  C   UNL     1      -5.673   4.322 -31.546  1.00  0.00     0.255 C 
HETATM    2  N   UNL     1      -6.155   3.263 -30.821  1.00  0.00    -0.354 N 
HETATM    3  O   UNL     1      -6.400   5.155 -32.076  1.00  0.00    -0.268 OA
HETATM    4  H   UNL     1      -5.498   2.656 -30.347  1.00  0.00     0.162 HD
ENDROOT
BRANCH   2   5
HETATM    5  C   UNL     1      -7.547   3.193 -30.416  1.00  0.00     0.156 C 
BRANCH   5   6
HETATM    6  C   UNL     1      -8.340   2.176 -31.237  1.00  0.00     0.160 C 
BRANCH   6   7
HETATM    7  O   UNL     1      -9.557   1.859 -30.540  1.00  0.00    -0.392 OA
HETATM    8  H   UNL     1      -9.940   2.719 -30.278  1.00  0.00     0.210 HD
ENDBRANCH   6   7
BRANCH   6   9
HETATM    9  C   UNL     1      -7.544   0.889 -31.480  1.00  0.00     0.209 C 
BRANCH   9  10
HETATM   10  O   UNL     1      -7.153   0.883 -32.859  1.00  0.00    -0.349 OA
BRANCH  10  11
HETATM   11  C   UNL     1      -6.279  -0.096 -33.244  1.00  0.00     0.069 A 
HETATM   12  C   UNL     1      -6.879  -1.221 -33.816  1.00  0.00     0.043 A 
HETATM   13  C   UNL     1      -6.108  -2.306 -34.254  1.00  0.00    -0.059 A 
HETATM   14  C   UNL     1      -6.755  -3.515 -34.861  1.00  0.00     0.048 C 
HETATM   15  C   UNL     1      -4.720  -2.262 -34.089  1.00  0.00     0.007 A 
HETATM   16  C   UNL     1      -4.116  -1.144 -33.516  1.00  0.00     0.003 A 
HETATM   17  C   UNL     1      -4.892  -0.060 -33.097  1.00  0.00     0.037 A 
ENDBRANCH  10  11
ENDBRANCH   9  10
ENDBRANCH   6   9
ENDBRANCH   5   6
ENDBRANCH   2   5
BRANCH   1  18
HETATM   18  C   UNL     1      -4.237   4.340 -31.724  1.00  0.00     0.075 A 
HETATM   19  C   UNL     1      -3.553   3.487 -32.617  1.00  0.00     0.158 A 
HETATM   20  N   UNL     1      -2.251   3.742 -32.685  1.00  0.00    -0.183 NA
HETATM   21  N   UNL     1      -2.094   4.826 -31.899  1.00  0.00    -0.268 N 
HETATM   22  C   UNL     1      -3.253   5.193 -31.235  1.00  0.00     0.052 A 
BRANCH  21  23
HETATM   23  C   UNL     1      -0.789   5.493 -31.887  1.00  0.00     0.106 C 
HETATM   24  C   UNL     1      -0.079   5.342 -30.538  1.00  0.00     0.034 C 
BRANCH  23  25
HETATM   25  C   UNL     1      -0.860   6.947 -32.389  1.00  0.00     0.022 C 
HETATM   26  C   UNL     1      -1.603   7.163 -33.701  1.00  0.00     0.007 C 
ENDBRANCH  23  25
ENDBRANCH  21  23
BRANCH  22  27
HETATM   27  C   UNL     1      -3.356   6.375 -30.265  1.00  0.00     0.038 A 
HETATM   28  C   UNL     1      -4.100   7.635 -30.638  1.00  0.00     0.011 A 
HETATM   29  C   UNL     1      -4.668   6.722 -29.604  1.00  0.00     0.011 A 
ENDBRANCH  22  27
ENDBRANCH   1  18
TORSDOF 10
ENDMDL
