MODEL 1
REMARK VINA RESULT:      -7.4      0.000      0.000
REMARK  2 active torsions:
REMARK  status: ('A' for Active; 'I' for Inactive)
REMARK    1  A    between atoms: C_3  and  N_4 
REMARK       I    between atoms: N_4  and  C_5 
REMARK       I    between atoms: C_5  and  N_6 
REMARK    2  A    between atoms: N_6  and  C_7 
ROOT
HETATM    1  N   UNL     1      -7.639  -0.861 -33.114  1.00  0.00    -0.307 N 
HETATM    2  C   UNL     1      -8.411   0.050 -33.794  1.00  0.00     0.321 C 
HETATM    3  N   UNL     1      -9.411   0.540 -32.971  1.00  0.00    -0.338 N 
HETATM    4  O   UNL     1      -8.319   0.384 -34.968  1.00  0.00    -0.247 OA
HETATM    5  H   UNL     1      -8.154  -1.355 -32.398  1.00  0.00     0.170 HD
HETATM    6  H   UNL     1      -9.188   0.540 -31.983  1.00  0.00     0.164 HD
ENDROOT
BRANCH   3   7
HETATM    7  C   UNL     1     -10.429   1.481 -33.437  1.00  0.00     0.090 C 
HETATM    8  C   UNL     1     -11.796   0.798 -33.616  1.00  0.00     0.058 C 
HETATM    9  C   UNL     1     -12.985   1.753 -33.735  1.00  0.00     0.190 C 
HETATM   10  N   UNL     1     -12.905   2.729 -32.586  1.00  0.00    -0.066 N 
HETATM   11  C   UNL     1     -13.077   2.506 -35.068  1.00  0.00     0.033 C 
HETATM   12  H   UNL     1     -12.744   2.160 -31.737  1.00  0.00     0.280 HD
HETATM   13  C   UNL     1     -14.192   3.455 -32.294  1.00  0.00     0.270 C 
HETATM   14  C   UNL     1     -11.699   3.625 -32.719  1.00  0.00     0.190 C 
HETATM   15  C   UNL     1     -10.453   2.751 -32.568  1.00  0.00     0.058 C 
HETATM   16  C   UNL     1     -11.767   4.420 -34.028  1.00  0.00     0.033 C 
HETATM   17  C   UNL     1     -12.015   3.580 -35.275  1.00  0.00     0.004 C 
ENDBRANCH   3   7
BRANCH   1  18
HETATM   18  C   UNL     1      -6.489  -1.533 -33.597  1.00  0.00     0.059 A 
HETATM   19  C   UNL     1      -5.160  -1.269 -33.241  1.00  0.00    -0.032 A 
HETATM   20  C   UNL     1      -4.729  -0.258 -32.220  1.00  0.00     0.050 C 
HETATM   21  C   UNL     1      -4.145  -2.027 -33.857  1.00  0.00     0.028 A 
HETATM   22  C   UNL     1      -4.482  -3.039 -34.741  1.00  0.00     0.117 A 
HETATM   23  N   UNL     1      -5.751  -3.354 -35.055  1.00  0.00    -0.271 NA
HETATM   24  C   UNL     1      -6.714  -2.602 -34.475  1.00  0.00     0.146 A 
ENDBRANCH   1  18
TORSDOF 2
ENDMDL
MODEL 2
REMARK VINA RESULT:      -7.3      1.443      2.165
REMARK  2 active torsions:
REMARK  status: ('A' for Active; 'I' for Inactive)
REMARK    1  A    between atoms: C_3  and  N_4 
REMARK       I    between atoms: N_4  and  C_5 
REMARK       I    between atoms: C_5  and  N_6 
REMARK    2  A    between atoms: N_6  and  C_7 
ROOT
HETATM    1  N   UNL     1      -6.986  -0.201 -31.931  1.00  0.00    -0.307 N 
HETATM    2  C   UNL     1      -7.704   0.652 -32.734  1.00  0.00     0.321 C 
HETATM    3  N   UNL     1      -9.029   0.688 -32.332  1.00  0.00    -0.338 N 
HETATM    4  O   UNL     1      -7.309   1.276 -33.710  1.00  0.00    -0.247 OA
HETATM    5  H   UNL     1      -7.546  -0.958 -31.563  1.00  0.00     0.170 HD
HETATM    6  H   UNL     1      -9.181   0.495 -31.349  1.00  0.00     0.164 HD
ENDROOT
BRANCH   3   7
HETATM    7  C   UNL     1     -10.050   1.461 -33.038  1.00  0.00     0.090 C 
HETATM    8  C   UNL     1     -11.262   0.593 -33.416  1.00  0.00     0.058 C 
HETATM    9  C   UNL     1     -12.517   1.372 -33.813  1.00  0.00     0.190 C 
HETATM   10  N   UNL     1     -12.778   2.399 -32.738  1.00  0.00    -0.066 N 
HETATM   11  C   UNL     1     -12.449   2.047 -35.188  1.00  0.00     0.033 C 
HETATM   12  H   UNL     1     -12.711   1.893 -31.837  1.00  0.00     0.280 HD
HETATM   13  C   UNL     1     -14.177   2.955 -32.733  1.00  0.00     0.270 C 
HETATM   14  C   UNL     1     -11.690   3.443 -32.710  1.00  0.00     0.190 C 
HETATM   15  C   UNL     1     -10.396   2.754 -32.276  1.00  0.00     0.058 C 
HETATM   16  C   UNL     1     -11.609   4.164 -34.059  1.00  0.00     0.033 C 
HETATM   17  C   UNL     1     -11.509   3.245 -35.271  1.00  0.00     0.004 C 
ENDBRANCH   3   7
BRANCH   1  18
HETATM   18  C   UNL     1      -5.595  -0.458 -31.991  1.00  0.00     0.059 A 
HETATM   19  C   UNL     1      -4.937  -1.261 -32.932  1.00  0.00    -0.032 A 
HETATM   20  C   UNL     1      -5.599  -1.941 -34.094  1.00  0.00     0.050 C 
HETATM   21  C   UNL     1      -3.543  -1.422 -32.809  1.00  0.00     0.028 A 
HETATM   22  C   UNL     1      -2.858  -0.746 -31.812  1.00  0.00     0.117 A 
HETATM   23  N   UNL     1      -3.454   0.078 -30.932  1.00  0.00    -0.271 NA
HETATM   24  C   UNL     1      -4.796   0.203 -31.048  1.00  0.00     0.146 A 
ENDBRANCH   1  18
TORSDOF 2
ENDMDL
MODEL 3
REMARK VINA RESULT:      -7.2      2.044      3.148
REMARK  2 active torsions:
REMARK  status: ('A' for Active; 'I' for Inactive)
REMARK    1  A    between atoms: C_3  and  N_4 
REMARK       I    between atoms: N_4  and  C_5 
REMARK       I    between atoms: C_5  and  N_6 
REMARK    2  A    between atoms: N_6  and  C_7 
ROOT
HETATM    1  N   UNL     1      -6.006  -1.733 -34.940  1.00  0.00    -0.307 N 
HETATM    2  C   UNL     1      -6.792  -0.869 -34.215  1.00  0.00     0.321 C 
HETATM    3  N   UNL     1      -7.405   0.043 -35.057  1.00  0.00    -0.338 N 
HETATM    4  O   UNL     1      -6.931  -0.821 -33.000  1.00  0.00    -0.247 OA
HETATM    5  H   UNL     1      -5.632  -1.312 -35.780  1.00  0.00     0.170 HD
HETATM    6  H   UNL     1      -7.566  -0.289 -36.000  1.00  0.00     0.164 HD
ENDROOT
BRANCH   3   7
HETATM    7  C   UNL     1      -8.255   1.127 -34.566  1.00  0.00     0.090 C 
HETATM    8  C   UNL     1      -9.432   0.595 -33.731  1.00  0.00     0.058 C 
HETATM    9  C   UNL     1     -10.147   1.644 -32.878  1.00  0.00     0.190 C 
HETATM   10  N   UNL     1      -9.096   2.392 -32.095  1.00  0.00    -0.066 N 
HETATM   11  C   UNL     1     -11.023   2.626 -33.666  1.00  0.00     0.033 C 
HETATM   12  H   UNL     1      -8.485   1.670 -31.674  1.00  0.00     0.280 HD
HETATM   13  C   UNL     1      -9.626   3.151 -30.907  1.00  0.00     0.270 C 
HETATM   14  C   UNL     1      -8.211   3.202 -33.010  1.00  0.00     0.190 C 
HETATM   15  C   UNL     1      -7.419   2.222 -33.877  1.00  0.00     0.058 C 
HETATM   16  C   UNL     1      -9.046   4.218 -33.795  1.00  0.00     0.033 C 
HETATM   17  C   UNL     1     -10.257   3.635 -34.514  1.00  0.00     0.004 C 
ENDBRANCH   3   7
BRANCH   1  18
HETATM   18  C   UNL     1      -5.269  -2.835 -34.442  1.00  0.00     0.059 A 
HETATM   19  C   UNL     1      -5.487  -4.186 -34.743  1.00  0.00    -0.032 A 
HETATM   20  C   UNL     1      -6.514  -4.695 -35.712  1.00  0.00     0.050 C 
HETATM   21  C   UNL     1      -4.665  -5.145 -34.121  1.00  0.00     0.028 A 
HETATM   22  C   UNL     1      -3.638  -4.735 -33.287  1.00  0.00     0.117 A 
HETATM   23  N   UNL     1      -3.368  -3.444 -33.027  1.00  0.00    -0.271 NA
HETATM   24  C   UNL     1      -4.181  -2.535 -33.611  1.00  0.00     0.146 A 
ENDBRANCH   1  18
TORSDOF 2
ENDMDL
MODEL 4
REMARK VINA RESULT:      -7.1      1.922      2.920
REMARK  2 active torsions:
REMARK  status: ('A' for Active; 'I' for Inactive)
REMARK    1  A    between atoms: C_3  and  N_4 
REMARK       I    between atoms: N_4  and  C_5 
REMARK       I    between atoms: C_5  and  N_6 
REMARK    2  A    between atoms: N_6  and  C_7 
ROOT
HETATM    1  N   UNL     1      -6.725  -1.325 -34.967  1.00  0.00    -0.307 N 
HETATM    2  C   UNL     1      -7.325  -0.503 -34.043  1.00  0.00     0.321 C 
HETATM    3  N   UNL     1      -8.008   0.518 -34.682  1.00  0.00    -0.338 N 
HETATM    4  O   UNL     1      -7.261  -0.573 -32.823  1.00  0.00    -0.247 OA
HETATM    5  H   UNL     1      -6.468  -0.840 -35.816  1.00  0.00     0.170 HD
HETATM    6  H   UNL     1      -8.342   0.291 -35.611  1.00  0.00     0.164 HD
ENDROOT
BRANCH   3   7
HETATM    7  C   UNL     1      -8.695   1.586 -33.957  1.00  0.00     0.090 C 
HETATM    8  C   UNL     1      -7.888   2.895 -33.971  1.00  0.00     0.058 C 
HETATM    9  C   UNL     1      -8.674   4.145 -33.573  1.00  0.00     0.190 C 
HETATM   10  N   UNL     1      -9.942   4.168 -34.391  1.00  0.00    -0.066 N 
HETATM   11  C   UNL     1      -9.003   4.250 -32.079  1.00  0.00     0.033 C 
HETATM   12  H   UNL     1      -9.655   3.992 -35.370  1.00  0.00     0.280 HD
HETATM   13  C   UNL     1     -10.621   5.511 -34.452  1.00  0.00     0.270 C 
HETATM   14  C   UNL     1     -10.852   3.025 -34.015  1.00  0.00     0.190 C 
HETATM   15  C   UNL     1     -10.156   1.725 -34.422  1.00  0.00     0.058 C 
HETATM   16  C   UNL     1     -11.229   3.111 -32.533  1.00  0.00     0.033 C 
HETATM   17  C   UNL     1     -10.050   3.261 -31.579  1.00  0.00     0.004 C 
ENDBRANCH   3   7
BRANCH   1  18
HETATM   18  C   UNL     1      -5.989  -2.506 -34.705  1.00  0.00     0.059 A 
HETATM   19  C   UNL     1      -4.719  -2.582 -34.118  1.00  0.00    -0.032 A 
HETATM   20  C   UNL     1      -3.941  -1.409 -33.599  1.00  0.00     0.050 C 
HETATM   21  C   UNL     1      -4.132  -3.853 -33.968  1.00  0.00     0.028 A 
HETATM   22  C   UNL     1      -4.837  -4.986 -34.342  1.00  0.00     0.117 A 
HETATM   23  N   UNL     1      -6.081  -4.947 -34.852  1.00  0.00    -0.271 NA
HETATM   24  C   UNL     1      -6.622  -3.718 -35.014  1.00  0.00     0.146 A 
ENDBRANCH   1  18
TORSDOF 2
ENDMDL
MODEL 5
REMARK VINA RESULT:      -7.1     14.619     16.399
REMARK  2 active torsions:
REMARK  status: ('A' for Active; 'I' for Inactive)
REMARK    1  A    between atoms: C_3  and  N_4 
REMARK       I    between atoms: N_4  and  C_5 
REMARK       I    between atoms: C_5  and  N_6 
REMARK    2  A    between atoms: N_6  and  C_7 
ROOT
HETATM    1  N   UNL     1      -2.393 -13.375 -39.608  1.00  0.00    -0.307 N 
HETATM    2  C   UNL     1      -3.621 -13.951 -39.384  1.00  0.00     0.321 C 
HETATM    3  N   UNL     1      -4.633 -13.090 -39.772  1.00  0.00    -0.338 N 
HETATM    4  O   UNL     1      -3.858 -15.037 -38.870  1.00  0.00    -0.247 OA
HETATM    5  H   UNL     1      -2.414 -12.367 -39.537  1.00  0.00     0.170 HD
HETATM    6  H   UNL     1      -4.383 -12.445 -40.512  1.00  0.00     0.164 HD
ENDROOT
BRANCH   3   7
HETATM    7  C   UNL     1      -6.051 -13.404 -39.596  1.00  0.00     0.090 C 
HETATM    8  C   UNL     1      -6.731 -12.435 -38.614  1.00  0.00     0.058 C 
HETATM    9  C   UNL     1      -8.260 -12.444 -38.650  1.00  0.00     0.190 C 
HETATM   10  N   UNL     1      -8.685 -12.296 -40.091  1.00  0.00    -0.066 N 
HETATM   11  C   UNL     1      -8.911 -13.686 -38.028  1.00  0.00     0.033 C 
HETATM   12  H   UNL     1      -8.135 -11.507 -40.472  1.00  0.00     0.280 HD
HETATM   13  C   UNL     1     -10.114 -11.860 -40.278  1.00  0.00     0.270 C 
HETATM   14  C   UNL     1      -8.290 -13.507 -40.900  1.00  0.00     0.190 C 
HETATM   15  C   UNL     1      -6.762 -13.551 -40.953  1.00  0.00     0.058 C 
HETATM   16  C   UNL     1      -8.946 -14.767 -40.327  1.00  0.00     0.033 C 
HETATM   17  C   UNL     1      -8.745 -14.970 -38.830  1.00  0.00     0.004 C 
ENDBRANCH   3   7
BRANCH   1  18
HETATM   18  C   UNL     1      -1.124 -13.965 -39.394  1.00  0.00     0.059 A 
HETATM   19  C   UNL     1      -0.535 -14.245 -38.154  1.00  0.00    -0.032 A 
HETATM   20  C   UNL     1      -1.190 -14.025 -36.822  1.00  0.00     0.050 C 
HETATM   21  C   UNL     1       0.756 -14.807 -38.145  1.00  0.00     0.028 A 
HETATM   22  C   UNL     1       1.379 -15.121 -39.342  1.00  0.00     0.117 A 
HETATM   23  N   UNL     1       0.814 -14.918 -40.545  1.00  0.00    -0.271 NA
HETATM   24  C   UNL     1      -0.415 -14.355 -40.539  1.00  0.00     0.146 A 
ENDBRANCH   1  18
TORSDOF 2
ENDMDL
MODEL 6
REMARK VINA RESULT:      -7.0      4.359      5.430
REMARK  2 active torsions:
REMARK  status: ('A' for Active; 'I' for Inactive)
REMARK    1  A    between atoms: C_3  and  N_4 
REMARK       I    between atoms: N_4  and  C_5 
REMARK       I    between atoms: C_5  and  N_6 
REMARK    2  A    between atoms: N_6  and  C_7 
ROOT
HETATM    1  N   UNL     1      -4.320  -1.120 -33.578  1.00  0.00    -0.307 N 
HETATM    2  C   UNL     1      -5.103  -0.349 -32.752  1.00  0.00     0.321 C 
HETATM    3  N   UNL     1      -4.761   0.987 -32.878  1.00  0.00    -0.338 N 
HETATM    4  O   UNL     1      -5.955  -0.726 -31.958  1.00  0.00    -0.247 OA
HETATM    5  H   UNL     1      -3.402  -0.723 -33.731  1.00  0.00     0.170 HD
HETATM    6  H   UNL     1      -4.378   1.246 -33.779  1.00  0.00     0.164 HD
ENDROOT
BRANCH   3   7
HETATM    7  C   UNL     1      -5.381   2.042 -32.076  1.00  0.00     0.090 C 
HETATM    8  C   UNL     1      -4.329   2.915 -31.372  1.00  0.00     0.058 C 
HETATM    9  C   UNL     1      -4.852   4.244 -30.825  1.00  0.00     0.190 C 
HETATM   10  N   UNL     1      -5.610   4.930 -31.936  1.00  0.00    -0.066 N 
HETATM   11  C   UNL     1      -5.733   4.125 -29.575  1.00  0.00     0.033 C 
HETATM   12  H   UNL     1      -4.998   4.885 -32.770  1.00  0.00     0.280 HD
HETATM   13  C   UNL     1      -5.823   6.406 -31.727  1.00  0.00     0.270 C 
HETATM   14  C   UNL     1      -6.858   4.162 -32.295  1.00  0.00     0.190 C 
HETATM   15  C   UNL     1      -6.424   2.824 -32.896  1.00  0.00     0.058 C 
HETATM   16  C   UNL     1      -7.781   4.047 -31.078  1.00  0.00     0.033 C 
HETATM   17  C   UNL     1      -7.111   3.521 -29.814  1.00  0.00     0.004 C 
ENDBRANCH   3   7
BRANCH   1  18
HETATM   18  C   UNL     1      -4.408  -2.520 -33.772  1.00  0.00     0.059 A 
HETATM   19  C   UNL     1      -3.742  -3.506 -33.033  1.00  0.00    -0.032 A 
HETATM   20  C   UNL     1      -2.859  -3.243 -31.848  1.00  0.00     0.050 C 
HETATM   21  C   UNL     1      -3.933  -4.852 -33.398  1.00  0.00     0.028 A 
HETATM   22  C   UNL     1      -4.808  -5.169 -34.425  1.00  0.00     0.117 A 
HETATM   23  N   UNL     1      -5.507  -4.247 -35.112  1.00  0.00    -0.271 NA
HETATM   24  C   UNL     1      -5.293  -2.958 -34.766  1.00  0.00     0.146 A 
ENDBRANCH   1  18
TORSDOF 2
ENDMDL
MODEL 7
REMARK VINA RESULT:      -7.0      5.691      7.856
REMARK  2 active torsions:
REMARK  status: ('A' for Active; 'I' for Inactive)
REMARK    1  A    between atoms: C_3  and  N_4 
REMARK       I    between atoms: N_4  and  C_5 
REMARK       I    between atoms: C_5  and  N_6 
REMARK    2  A    between atoms: N_6  and  C_7 
ROOT
HETATM    1  N   UNL     1      -3.350   5.299 -31.792  1.00  0.00    -0.307 N 
HETATM    2  C   UNL     1      -3.566   3.979 -32.107  1.00  0.00     0.321 C 
HETATM    3  N   UNL     1      -4.884   3.785 -32.485  1.00  0.00    -0.338 N 
HETATM    4  O   UNL     1      -2.772   3.050 -32.034  1.00  0.00    -0.247 OA
HETATM    5  H   UNL     1      -4.175   5.756 -31.429  1.00  0.00     0.170 HD
HETATM    6  H   UNL     1      -5.333   4.596 -32.894  1.00  0.00     0.164 HD
ENDROOT
BRANCH   3   7
HETATM    7  C   UNL     1      -5.427   2.468 -32.817  1.00  0.00     0.090 C 
HETATM    8  C   UNL     1      -5.966   1.744 -31.572  1.00  0.00     0.058 C 
HETATM    9  C   UNL     1      -6.875   0.548 -31.862  1.00  0.00     0.190 C 
HETATM   10  N   UNL     1      -7.928   1.001 -32.844  1.00  0.00    -0.066 N 
HETATM   11  C   UNL     1      -6.152  -0.696 -32.393  1.00  0.00     0.033 C 
HETATM   12  H   UNL     1      -8.301   1.893 -32.473  1.00  0.00     0.280 HD
HETATM   13  C   UNL     1      -9.139   0.108 -32.915  1.00  0.00     0.270 C 
HETATM   14  C   UNL     1      -7.316   1.332 -34.182  1.00  0.00     0.190 C 
HETATM   15  C   UNL     1      -6.417   2.555 -33.992  1.00  0.00     0.058 C 
HETATM   16  C   UNL     1      -6.608   0.103 -34.762  1.00  0.00     0.033 C 
HETATM   17  C   UNL     1      -5.623  -0.574 -33.817  1.00  0.00     0.004 C 
ENDBRANCH   3   7
BRANCH   1  18
HETATM   18  C   UNL     1      -2.121   5.896 -31.419  1.00  0.00     0.059 A 
HETATM   19  C   UNL     1      -1.093   6.293 -32.284  1.00  0.00    -0.032 A 
HETATM   20  C   UNL     1      -1.150   6.214 -33.781  1.00  0.00     0.050 C 
HETATM   21  C   UNL     1       0.074   6.842 -31.719  1.00  0.00     0.028 A 
HETATM   22  C   UNL     1       0.154   7.028 -30.348  1.00  0.00     0.117 A 
HETATM   23  N   UNL     1      -0.841   6.712 -29.500  1.00  0.00    -0.271 NA
HETATM   24  C   UNL     1      -1.945   6.163 -30.055  1.00  0.00     0.146 A 
ENDBRANCH   1  18
TORSDOF 2
ENDMDL
MODEL 8
REMARK VINA RESULT:      -6.9      6.274      8.800
REMARK  2 active torsions:
REMARK  status: ('A' for Active; 'I' for Inactive)
REMARK    1  A    between atoms: C_3  and  N_4 
REMARK       I    between atoms: N_4  and  C_5 
REMARK       I    between atoms: C_5  and  N_6 
REMARK    2  A    between atoms: N_6  and  C_7 
ROOT
HETATM    1  N   UNL     1      -4.340   1.886 -31.765  1.00  0.00    -0.307 N 
HETATM    2  C   UNL     1      -3.519   2.922 -32.143  1.00  0.00     0.321 C 
HETATM    3  N   UNL     1      -3.362   3.815 -31.097  1.00  0.00    -0.338 N 
HETATM    4  O   UNL     1      -3.014   3.117 -33.241  1.00  0.00    -0.247 OA
HETATM    5  H   UNL     1      -5.023   2.159 -31.071  1.00  0.00     0.170 HD
HETATM    6  H   UNL     1      -3.454   3.409 -30.173  1.00  0.00     0.164 HD
ENDROOT
BRANCH   3   7
HETATM    7  C   UNL     1      -2.592   5.052 -31.221  1.00  0.00     0.090 C 
HETATM    8  C   UNL     1      -3.273   6.222 -30.490  1.00  0.00     0.058 C 
HETATM    9  C   UNL     1      -2.380   7.440 -30.247  1.00  0.00     0.190 C 
HETATM   10  N   UNL     1      -1.100   6.952 -29.616  1.00  0.00    -0.066 N 
HETATM   11  C   UNL     1      -2.073   8.273 -31.498  1.00  0.00     0.033 C 
HETATM   12  H   UNL     1      -1.383   6.320 -28.846  1.00  0.00     0.280 HD
HETATM   13  C   UNL     1      -0.297   8.022 -28.924  1.00  0.00     0.270 C 
HETATM   14  C   UNL     1      -0.310   6.102 -30.579  1.00  0.00     0.190 C 
HETATM   15  C   UNL     1      -1.116   4.830 -30.846  1.00  0.00     0.058 C 
HETATM   16  C   UNL     1       0.045   6.908 -31.833  1.00  0.00     0.033 C 
HETATM   17  C   UNL     1      -1.134   7.609 -32.498  1.00  0.00     0.004 C 
ENDBRANCH   3   7
BRANCH   1  18
HETATM   18  C   UNL     1      -4.690   0.751 -32.537  1.00  0.00     0.059 A 
HETATM   19  C   UNL     1      -3.994  -0.464 -32.594  1.00  0.00    -0.032 A 
HETATM   20  C   UNL     1      -2.778  -0.796 -31.780  1.00  0.00     0.050 C 
HETATM   21  C   UNL     1      -4.483  -1.469 -33.450  1.00  0.00     0.028 A 
HETATM   22  C   UNL     1      -5.655  -1.259 -34.160  1.00  0.00     0.117 A 
HETATM   23  N   UNL     1      -6.375  -0.126 -34.079  1.00  0.00    -0.271 NA
HETATM   24  C   UNL     1      -5.880   0.839 -33.272  1.00  0.00     0.146 A 
ENDBRANCH   1  18
TORSDOF 2
ENDMDL
MODEL 9
REMARK VINA RESULT:      -6.8      5.567      8.512
REMARK  2 active torsions:
REMARK  status: ('A' for Active; 'I' for Inactive)
REMARK    1  A    between atoms: C_3  and  N_4 
REMARK       I    between atoms: N_4  and  C_5 
REMARK       I    between atoms: C_5  and  N_6 
REMARK    2  A    between atoms: N_6  and  C_7 
ROOT
HETATM    1  N   UNL     1      -6.406   2.522 -31.699  1.00  0.00    -0.307 N 
HETATM    2  C   UNL     1      -5.594   3.370 -32.413  1.00  0.00     0.321 C 
HETATM    3  N   UNL     1      -4.590   3.870 -31.601  1.00  0.00    -0.338 N 
HETATM    4  O   UNL     1      -5.715   3.719 -33.580  1.00  0.00    -0.247 OA
HETATM    5  H   UNL     1      -6.460   2.763 -30.718  1.00  0.00     0.170 HD
HETATM    6  H   UNL     1      -4.324   3.266 -30.833  1.00  0.00     0.164 HD
ENDROOT
BRANCH   3   7
HETATM    7  C   UNL     1      -3.609   4.849 -32.067  1.00  0.00     0.090 C 
HETATM    8  C   UNL     1      -3.415   5.988 -31.052  1.00  0.00     0.058 C 
HETATM    9  C   UNL     1      -2.164   6.842 -31.270  1.00  0.00     0.190 C 
HETATM   10  N   UNL     1      -0.989   5.906 -31.410  1.00  0.00    -0.066 N 
HETATM   11  C   UNL     1      -2.233   7.793 -32.471  1.00  0.00     0.033 C 
HETATM   12  H   UNL     1      -1.063   5.234 -30.625  1.00  0.00     0.280 HD
HETATM   13  C   UNL     1       0.354   6.554 -31.201  1.00  0.00     0.270 C 
HETATM   14  C   UNL     1      -1.098   5.084 -32.670  1.00  0.00     0.190 C 
HETATM   15  C   UNL     1      -2.308   4.161 -32.520  1.00  0.00     0.058 C 
HETATM   16  C   UNL     1      -1.139   5.998 -33.899  1.00  0.00     0.033 C 
HETATM   17  C   UNL     1      -2.176   7.112 -33.834  1.00  0.00     0.004 C 
ENDBRANCH   3   7
BRANCH   1  18
HETATM   18  C   UNL     1      -7.502   1.774 -32.194  1.00  0.00     0.059 A 
HETATM   19  C   UNL     1      -7.477   0.436 -32.610  1.00  0.00    -0.032 A 
HETATM   20  C   UNL     1      -6.278  -0.464 -32.536  1.00  0.00     0.050 C 
HETATM   21  C   UNL     1      -8.668  -0.128 -33.105  1.00  0.00     0.028 A 
HETATM   22  C   UNL     1      -9.833   0.623 -33.113  1.00  0.00     0.117 A 
HETATM   23  N   UNL     1      -9.901   1.888 -32.664  1.00  0.00    -0.271 NA
HETATM   24  C   UNL     1      -8.743   2.424 -32.215  1.00  0.00     0.146 A 
ENDBRANCH   1  18
TORSDOF 2
ENDMDL
MODEL 10
REMARK VINA RESULT:      -6.8      4.520      6.411
REMARK  2 active torsions:
REMARK  status: ('A' for Active; 'I' for Inactive)
REMARK    1  A    between atoms: C_3  and  N_4 
REMARK       I    between atoms: N_4  and  C_5 
REMARK       I    between atoms: C_5  and  N_6 
REMARK    2  A    between atoms: N_6  and  C_7 
ROOT
HETATM    1  N   UNL     1      -5.173  -0.078 -32.349  1.00  0.00    -0.307 N 
HETATM    2  C   UNL     1      -5.219   1.267 -32.628  1.00  0.00     0.321 C 
HETATM    3  N   UNL     1      -4.835   2.000 -31.518  1.00  0.00    -0.338 N 
HETATM    4  O   UNL     1      -5.587   1.808 -33.663  1.00  0.00    -0.247 OA
HETATM    5  H   UNL     1      -5.351  -0.283 -31.376  1.00  0.00     0.170 HD
HETATM    6  H   UNL     1      -4.195   1.523 -30.893  1.00  0.00     0.164 HD
ENDROOT
BRANCH   3   7
HETATM    7  C   UNL     1      -4.844   3.463 -31.492  1.00  0.00     0.090 C 
HETATM    8  C   UNL     1      -5.475   4.005 -30.199  1.00  0.00     0.058 C 
HETATM    9  C   UNL     1      -5.197   5.483 -29.914  1.00  0.00     0.190 C 
HETATM   10  N   UNL     1      -3.709   5.701 -30.038  1.00  0.00    -0.066 N 
HETATM   11  C   UNL     1      -5.956   6.466 -30.813  1.00  0.00     0.033 C 
HETATM   12  H   UNL     1      -3.262   4.945 -29.490  1.00  0.00     0.280 HD
HETATM   13  C   UNL     1      -3.207   6.962 -29.386  1.00  0.00     0.270 C 
HETATM   14  C   UNL     1      -3.249   5.507 -31.462  1.00  0.00     0.190 C 
HETATM   15  C   UNL     1      -3.452   4.034 -31.819  1.00  0.00     0.058 C 
HETATM   16  C   UNL     1      -3.963   6.495 -32.391  1.00  0.00     0.033 C 
HETATM   17  C   UNL     1      -5.482   6.512 -32.261  1.00  0.00     0.004 C 
ENDBRANCH   3   7
BRANCH   1  18
HETATM   18  C   UNL     1      -5.438  -1.142 -33.245  1.00  0.00     0.059 A 
HETATM   19  C   UNL     1      -6.686  -1.489 -33.780  1.00  0.00    -0.032 A 
HETATM   20  C   UNL     1      -7.962  -0.736 -33.542  1.00  0.00     0.050 C 
HETATM   21  C   UNL     1      -6.755  -2.606 -34.634  1.00  0.00     0.028 A 
HETATM   22  C   UNL     1      -5.596  -3.290 -34.968  1.00  0.00     0.117 A 
HETATM   23  N   UNL     1      -4.378  -2.944 -34.517  1.00  0.00    -0.271 NA
HETATM   24  C   UNL     1      -4.331  -1.884 -33.678  1.00  0.00     0.146 A 
ENDBRANCH   1  18
TORSDOF 2
ENDMDL
