MODEL 1
REMARK VINA RESULT:      -9.6      0.000      0.000
REMARK  6 active torsions:
REMARK  status: ('A' for Active; 'I' for Inactive)
REMARK    1  A    between atoms: C_2  and  C_3 
REMARK    2  A    between atoms: C_6  and  N_7 
REMARK    3  A    between atoms: C_8  and  C_10 
REMARK    4  A    between atoms: C_8  and  O_9 
REMARK       I    between atoms: C_10  and  N_11 
REMARK    5  A    between atoms: N_11  and  C_12 
REMARK    6  A    between atoms: C_12  and  C_13 
ROOT
HETATM    1  N   UNL     1      -8.985   2.377 -31.820  1.00  0.00    -0.254 N 
HETATM    2  C   UNL     1      -9.679   1.398 -32.680  1.00  0.00     0.256 C 
HETATM    3  C   UNL     1     -11.035   1.869 -33.182  1.00  0.00     0.034 A 
HETATM    4  C   UNL     1     -11.661   2.918 -32.524  1.00  0.00     0.048 A 
HETATM    5  N   UNL     1     -11.004   3.537 -31.476  1.00  0.00    -0.308 N 
HETATM    6  C   UNL     1      -9.714   3.315 -31.102  1.00  0.00     0.330 C 
HETATM    7  O   UNL     1      -9.283   4.006 -30.176  1.00  0.00    -0.246 OA
HETATM    8  C   UNL     1     -11.722   1.245 -34.239  1.00  0.00     0.015 A 
HETATM    9  C   UNL     1     -12.985   1.693 -34.636  1.00  0.00     0.001 A 
HETATM   10  C   UNL     1     -13.591   2.750 -33.963  1.00  0.00     0.002 A 
HETATM   11  C   UNL     1     -12.933   3.359 -32.896  1.00  0.00     0.030 A 
HETATM   12  H   UNL     1     -11.467   4.262 -30.944  1.00  0.00     0.170 HD
ENDROOT
BRANCH   2  13
HETATM   13  C   UNL     1      -8.790   1.023 -33.944  1.00  0.00     0.279 C 
HETATM   14  N   UNL     1      -8.228  -0.237 -33.953  1.00  0.00    -0.352 N 
HETATM   15  H   UNL     1      -8.589  -0.921 -33.297  1.00  0.00     0.162 HD
HETATM   16  O   UNL     1      -8.550   1.869 -34.811  1.00  0.00    -0.268 OA
BRANCH  14  17
HETATM   17  C   UNL     1      -7.506  -0.728 -35.103  1.00  0.00     0.161 C 
BRANCH  17  18
HETATM   18  C   UNL     1      -6.363  -1.626 -34.705  1.00  0.00    -0.038 A 
HETATM   19  C   UNL     1      -6.425  -3.009 -34.952  1.00  0.00     0.048 A 
HETATM   20  C   UNL     1      -5.384  -3.798 -34.513  1.00  0.00     0.105 A 
HETATM   21  C   UNL     1      -4.308  -3.269 -33.839  1.00  0.00     0.105 A 
HETATM   22  O   UNL     1      -5.290  -5.146 -34.665  1.00  0.00    -0.323 OA
HETATM   23  O   UNL     1      -3.403  -4.218 -33.483  1.00  0.00    -0.323 OA
HETATM   24  C   UNL     1      -4.213  -1.922 -33.571  1.00  0.00     0.040 A 
HETATM   25  C   UNL     1      -4.036  -5.406 -34.002  1.00  0.00     0.352 A 
HETATM   26  C   UNL     1      -5.254  -1.096 -34.006  1.00  0.00     0.012 A 
ENDBRANCH  17  18
ENDBRANCH  14  17
ENDBRANCH   2  13
BRANCH   2  27
HETATM   27  O   UNL     1      -9.944   0.232 -31.897  1.00  0.00    -0.359 OA
HETATM   28  H   UNL     1      -9.507  -0.496 -32.377  1.00  0.00     0.213 HD
ENDBRANCH   2  27
BRANCH   1  29
HETATM   29  C   UNL     1      -7.570   2.236 -31.564  1.00  0.00     0.043 A 
HETATM   30  C   UNL     1      -7.050   1.223 -30.747  1.00  0.00     0.030 A 
HETATM   31  C   UNL     1      -5.669   1.032 -30.614  1.00  0.00     0.009 A 
HETATM   32  C   UNL     1      -4.768   1.857 -31.291  1.00  0.00    -0.058 A 
HETATM   33  C   UNL     1      -5.272   2.888 -32.087  1.00  0.00     0.009 A 
HETATM   34  C   UNL     1      -6.652   3.075 -32.217  1.00  0.00     0.030 A 
BRANCH  32  35
HETATM   35  C   UNL     1      -3.284   1.618 -31.195  1.00  0.00     0.034 C 
HETATM   36  C   UNL     1      -2.966   0.135 -31.070  1.00  0.00     0.010 C 
ENDBRANCH  32  35
ENDBRANCH   1  29
TORSDOF 6
ENDMDL
MODEL 2
REMARK VINA RESULT:      -9.5      2.574      3.896
REMARK  6 active torsions:
REMARK  status: ('A' for Active; 'I' for Inactive)
REMARK    1  A    between atoms: C_2  and  C_3 
REMARK    2  A    between atoms: C_6  and  N_7 
REMARK    3  A    between atoms: C_8  and  C_10 
REMARK    4  A    between atoms: C_8  and  O_9 
REMARK       I    between atoms: C_10  and  N_11 
REMARK    5  A    between atoms: N_11  and  C_12 
REMARK    6  A    between atoms: C_12  and  C_13 
ROOT
HETATM    1  N   UNL     1      -5.952   3.440 -32.581  1.00  0.00    -0.254 N 
HETATM    2  C   UNL     1      -6.564   2.410 -31.718  1.00  0.00     0.256 C 
HETATM    3  C   UNL     1      -7.779   1.733 -32.331  1.00  0.00     0.034 A 
HETATM    4  C   UNL     1      -8.426   2.357 -33.388  1.00  0.00     0.048 A 
HETATM    5  N   UNL     1      -7.909   3.539 -33.886  1.00  0.00    -0.308 N 
HETATM    6  C   UNL     1      -6.718   4.098 -33.533  1.00  0.00     0.330 C 
HETATM    7  O   UNL     1      -6.397   5.129 -34.128  1.00  0.00    -0.246 OA
HETATM    8  C   UNL     1      -8.326   0.537 -31.832  1.00  0.00     0.015 A 
HETATM    9  C   UNL     1      -9.469  -0.024 -32.408  1.00  0.00     0.001 A 
HETATM   10  C   UNL     1     -10.098   0.619 -33.471  1.00  0.00     0.002 A 
HETATM   11  C   UNL     1      -9.583   1.819 -33.957  1.00  0.00     0.030 A 
HETATM   12  H   UNL     1      -8.398   4.042 -34.614  1.00  0.00     0.170 HD
ENDROOT
BRANCH   2  13
HETATM   13  C   UNL     1      -5.508   1.282 -31.345  1.00  0.00     0.279 C 
HETATM   14  N   UNL     1      -5.023   0.520 -32.387  1.00  0.00    -0.352 N 
HETATM   15  H   UNL     1      -5.175   0.858 -33.331  1.00  0.00     0.162 HD
HETATM   16  O   UNL     1      -5.228   1.055 -30.163  1.00  0.00    -0.268 OA
BRANCH  14  17
HETATM   17  C   UNL     1      -3.971  -0.448 -32.183  1.00  0.00     0.161 C 
BRANCH  17  18
HETATM   18  C   UNL     1      -4.240  -1.733 -32.923  1.00  0.00    -0.038 A 
HETATM   19  C   UNL     1      -5.343  -1.838 -33.790  1.00  0.00     0.048 A 
HETATM   20  C   UNL     1      -5.585  -3.052 -34.395  1.00  0.00     0.105 A 
HETATM   21  C   UNL     1      -4.789  -4.148 -34.163  1.00  0.00     0.105 A 
HETATM   22  O   UNL     1      -6.606  -3.324 -35.252  1.00  0.00    -0.323 OA
HETATM   23  O   UNL     1      -5.208  -5.247 -34.845  1.00  0.00    -0.323 OA
HETATM   24  C   UNL     1      -3.704  -4.090 -33.317  1.00  0.00     0.040 A 
HETATM   25  C   UNL     1      -6.365  -4.719 -35.526  1.00  0.00     0.352 A 
HETATM   26  C   UNL     1      -3.433  -2.870 -32.689  1.00  0.00     0.012 A 
ENDBRANCH  17  18
ENDBRANCH  14  17
ENDBRANCH   2  13
BRANCH   2  27
HETATM   27  O   UNL     1      -7.040   3.054 -30.534  1.00  0.00    -0.359 OA
HETATM   28  H   UNL     1      -6.857   2.421 -29.814  1.00  0.00     0.213 HD
ENDBRANCH   2  27
BRANCH   1  29
HETATM   29  C   UNL     1      -4.613   3.908 -32.306  1.00  0.00     0.043 A 
HETATM   30  C   UNL     1      -3.512   3.547 -33.094  1.00  0.00     0.030 A 
HETATM   31  C   UNL     1      -2.248   4.110 -32.882  1.00  0.00     0.009 A 
HETATM   32  C   UNL     1      -2.049   5.049 -31.866  1.00  0.00    -0.058 A 
HETATM   33  C   UNL     1      -3.130   5.398 -31.056  1.00  0.00     0.009 A 
HETATM   34  C   UNL     1      -4.391   4.832 -31.271  1.00  0.00     0.030 A 
BRANCH  32  35
HETATM   35  C   UNL     1      -0.704   5.699 -31.673  1.00  0.00     0.034 C 
HETATM   36  C   UNL     1      -0.734   7.168 -32.071  1.00  0.00     0.010 C 
ENDBRANCH  32  35
ENDBRANCH   1  29
TORSDOF 6
ENDMDL
MODEL 3
REMARK VINA RESULT:      -9.3      3.460      7.015
REMARK  6 active torsions:
REMARK  status: ('A' for Active; 'I' for Inactive)
REMARK    1  A    between atoms: C_2  and  C_3 
REMARK    2  A    between atoms: C_6  and  N_7 
REMARK    3  A    between atoms: C_8  and  C_10 
REMARK    4  A    between atoms: C_8  and  O_9 
REMARK       I    between atoms: C_10  and  N_11 
REMARK    5  A    between atoms: N_11  and  C_12 
REMARK    6  A    between atoms: C_12  and  C_13 
ROOT
HETATM    1  N   UNL     1      -7.620   1.680 -32.452  1.00  0.00    -0.254 N 
HETATM    2  C   UNL     1      -7.365   3.058 -32.917  1.00  0.00     0.256 C 
HETATM    3  C   UNL     1      -7.705   4.128 -31.893  1.00  0.00     0.034 A 
HETATM    4  C   UNL     1      -8.547   3.799 -30.840  1.00  0.00     0.048 A 
HETATM    5  N   UNL     1      -8.997   2.495 -30.726  1.00  0.00    -0.308 N 
HETATM    6  C   UNL     1      -8.575   1.439 -31.475  1.00  0.00     0.330 C 
HETATM    7  O   UNL     1      -9.050   0.338 -31.189  1.00  0.00    -0.246 OA
HETATM    8  C   UNL     1      -7.266   5.461 -31.998  1.00  0.00     0.015 A 
HETATM    9  C   UNL     1      -7.641   6.416 -31.049  1.00  0.00     0.001 A 
HETATM   10  C   UNL     1      -8.483   6.060 -29.999  1.00  0.00     0.002 A 
HETATM   11  C   UNL     1      -8.948   4.750 -29.899  1.00  0.00     0.030 A 
HETATM   12  H   UNL     1      -9.659   2.248 -30.003  1.00  0.00     0.170 HD
ENDROOT
BRANCH   2  13
HETATM   13  C   UNL     1      -5.841   3.243 -33.333  1.00  0.00     0.279 C 
HETATM   14  N   UNL     1      -4.910   3.177 -32.318  1.00  0.00    -0.352 N 
HETATM   15  H   UNL     1      -5.207   2.792 -31.427  1.00  0.00     0.162 HD
HETATM   16  O   UNL     1      -5.542   3.528 -34.498  1.00  0.00    -0.268 OA
BRANCH  14  17
HETATM   17  C   UNL     1      -3.493   3.208 -32.595  1.00  0.00     0.161 C 
BRANCH  17  18
HETATM   18  C   UNL     1      -2.960   4.618 -32.634  1.00  0.00    -0.038 A 
HETATM   19  C   UNL     1      -3.205   5.501 -31.567  1.00  0.00     0.048 A 
HETATM   20  C   UNL     1      -2.753   6.798 -31.676  1.00  0.00     0.105 A 
HETATM   21  C   UNL     1      -2.087   7.241 -32.794  1.00  0.00     0.105 A 
HETATM   22  O   UNL     1      -2.909   7.775 -30.742  1.00  0.00    -0.323 OA
HETATM   23  O   UNL     1      -1.741   8.553 -32.705  1.00  0.00    -0.323 OA
HETATM   24  C   UNL     1      -1.834   6.411 -33.863  1.00  0.00     0.040 A 
HETATM   25  C   UNL     1      -2.273   8.886 -31.405  1.00  0.00     0.352 A 
HETATM   26  C   UNL     1      -2.280   5.088 -33.780  1.00  0.00     0.012 A 
ENDBRANCH  17  18
ENDBRANCH  14  17
ENDBRANCH   2  13
BRANCH   2  27
HETATM   27  O   UNL     1      -8.218   3.311 -34.035  1.00  0.00    -0.359 OA
HETATM   28  H   UNL     1      -8.739   2.493 -34.142  1.00  0.00     0.213 HD
ENDBRANCH   2  27
BRANCH   1  29
HETATM   29  C   UNL     1      -7.026   0.563 -33.149  1.00  0.00     0.043 A 
HETATM   30  C   UNL     1      -5.928  -0.145 -32.640  1.00  0.00     0.030 A 
HETATM   31  C   UNL     1      -5.449  -1.299 -33.273  1.00  0.00     0.009 A 
HETATM   32  C   UNL     1      -6.053  -1.773 -34.440  1.00  0.00    -0.058 A 
HETATM   33  C   UNL     1      -7.129  -1.063 -34.974  1.00  0.00     0.009 A 
HETATM   34  C   UNL     1      -7.604   0.089 -34.338  1.00  0.00     0.030 A 
BRANCH  32  35
HETATM   35  C   UNL     1      -5.576  -3.046 -35.090  1.00  0.00     0.034 C 
HETATM   36  C   UNL     1      -6.648  -4.125 -35.053  1.00  0.00     0.010 C 
ENDBRANCH  32  35
ENDBRANCH   1  29
TORSDOF 6
ENDMDL
MODEL 4
REMARK VINA RESULT:      -9.1      2.179      4.446
REMARK  6 active torsions:
REMARK  status: ('A' for Active; 'I' for Inactive)
REMARK    1  A    between atoms: C_2  and  C_3 
REMARK    2  A    between atoms: C_6  and  N_7 
REMARK    3  A    between atoms: C_8  and  C_10 
REMARK    4  A    between atoms: C_8  and  O_9 
REMARK       I    between atoms: C_10  and  N_11 
REMARK    5  A    between atoms: N_11  and  C_12 
REMARK    6  A    between atoms: C_12  and  C_13 
ROOT
HETATM    1  N   UNL     1     -10.149   1.718 -33.605  1.00  0.00    -0.254 N 
HETATM    2  C   UNL     1     -10.084   3.159 -33.920  1.00  0.00     0.256 C 
HETATM    3  C   UNL     1     -11.231   3.971 -33.340  1.00  0.00     0.034 A 
HETATM    4  C   UNL     1     -12.382   3.306 -32.942  1.00  0.00     0.048 A 
HETATM    5  N   UNL     1     -12.422   1.926 -33.029  1.00  0.00    -0.308 N 
HETATM    6  C   UNL     1     -11.371   1.117 -33.338  1.00  0.00     0.330 C 
HETATM    7  O   UNL     1     -11.586  -0.097 -33.311  1.00  0.00    -0.246 OA
HETATM    8  C   UNL     1     -11.213   5.375 -33.254  1.00  0.00     0.015 A 
HETATM    9  C   UNL     1     -12.311   6.076 -32.749  1.00  0.00     0.001 A 
HETATM   10  C   UNL     1     -13.453   5.386 -32.351  1.00  0.00     0.002 A 
HETATM   11  C   UNL     1     -13.495   3.998 -32.458  1.00  0.00     0.030 A 
HETATM   12  H   UNL     1     -13.272   1.427 -32.802  1.00  0.00     0.170 HD
ENDROOT
BRANCH   2  13
HETATM   13  C   UNL     1      -8.721   3.793 -33.399  1.00  0.00     0.279 C 
HETATM   14  N   UNL     1      -8.471   3.695 -32.047  1.00  0.00    -0.352 N 
HETATM   15  H   UNL     1      -9.029   3.041 -31.508  1.00  0.00     0.162 HD
HETATM   16  O   UNL     1      -7.990   4.420 -34.172  1.00  0.00    -0.268 OA
BRANCH  14  17
HETATM   17  C   UNL     1      -7.212   4.124 -31.484  1.00  0.00     0.161 C 
BRANCH  17  18
HETATM   18  C   UNL     1      -6.291   2.961 -31.220  1.00  0.00    -0.038 A 
HETATM   19  C   UNL     1      -5.311   2.601 -32.161  1.00  0.00     0.048 A 
HETATM   20  C   UNL     1      -4.535   1.491 -31.905  1.00  0.00     0.105 A 
HETATM   21  C   UNL     1      -4.704   0.735 -30.770  1.00  0.00     0.105 A 
HETATM   22  O   UNL     1      -3.551   1.006 -32.710  1.00  0.00    -0.323 OA
HETATM   23  O   UNL     1      -3.850  -0.320 -30.717  1.00  0.00    -0.323 OA
HETATM   24  C   UNL     1      -5.657   1.049 -29.827  1.00  0.00     0.040 A 
HETATM   25  C   UNL     1      -3.128  -0.147 -31.954  1.00  0.00     0.352 A 
HETATM   26  C   UNL     1      -6.459   2.171 -30.059  1.00  0.00     0.012 A 
ENDBRANCH  17  18
ENDBRANCH  14  17
ENDBRANCH   2  13
BRANCH   2  27
HETATM   27  O   UNL     1     -10.188   3.306 -35.338  1.00  0.00    -0.359 OA
HETATM   28  H   UNL     1      -9.799   4.180 -35.529  1.00  0.00     0.213 HD
ENDBRANCH   2  27
BRANCH   1  29
HETATM   29  C   UNL     1      -8.977   0.891 -33.770  1.00  0.00     0.043 A 
HETATM   30  C   UNL     1      -8.360   0.236 -32.694  1.00  0.00     0.030 A 
HETATM   31  C   UNL     1      -7.301  -0.658 -32.896  1.00  0.00     0.009 A 
HETATM   32  C   UNL     1      -6.823  -0.915 -34.183  1.00  0.00    -0.058 A 
HETATM   33  C   UNL     1      -7.409  -0.249 -35.261  1.00  0.00     0.009 A 
HETATM   34  C   UNL     1      -8.467   0.642 -35.054  1.00  0.00     0.030 A 
BRANCH  32  35
HETATM   35  C   UNL     1      -5.723  -1.919 -34.409  1.00  0.00     0.034 C 
HETATM   36  C   UNL     1      -6.282  -3.279 -34.801  1.00  0.00     0.010 C 
ENDBRANCH  32  35
ENDBRANCH   1  29
TORSDOF 6
ENDMDL
MODEL 5
REMARK VINA RESULT:      -9.1      2.501      6.956
REMARK  6 active torsions:
REMARK  status: ('A' for Active; 'I' for Inactive)
REMARK    1  A    between atoms: C_2  and  C_3 
REMARK    2  A    between atoms: C_6  and  N_7 
REMARK    3  A    between atoms: C_8  and  C_10 
REMARK    4  A    between atoms: C_8  and  O_9 
REMARK       I    between atoms: C_10  and  N_11 
REMARK    5  A    between atoms: N_11  and  C_12 
REMARK    6  A    between atoms: C_12  and  C_13 
ROOT
HETATM    1  N   UNL     1      -6.663   1.861 -32.481  1.00  0.00    -0.254 N 
HETATM    2  C   UNL     1      -7.850   1.886 -31.603  1.00  0.00     0.256 C 
HETATM    3  C   UNL     1      -8.372   3.283 -31.309  1.00  0.00     0.034 A 
HETATM    4  C   UNL     1      -7.531   4.366 -31.523  1.00  0.00     0.048 A 
HETATM    5  N   UNL     1      -6.272   4.142 -32.052  1.00  0.00    -0.308 N 
HETATM    6  C   UNL     1      -5.810   2.955 -32.532  1.00  0.00     0.330 C 
HETATM    7  O   UNL     1      -4.678   2.963 -33.019  1.00  0.00    -0.246 OA
HETATM    8  C   UNL     1      -9.644   3.529 -30.761  1.00  0.00     0.015 A 
HETATM    9  C   UNL     1     -10.060   4.831 -30.472  1.00  0.00     0.001 A 
HETATM   10  C   UNL     1      -9.200   5.903 -30.700  1.00  0.00     0.002 A 
HETATM   11  C   UNL     1      -7.927   5.670 -31.216  1.00  0.00     0.030 A 
HETATM   12  H   UNL     1      -5.622   4.909 -32.158  1.00  0.00     0.170 HD
ENDROOT
BRANCH   2  13
HETATM   13  C   UNL     1      -9.040   1.039 -32.234  1.00  0.00     0.279 C 
HETATM   14  N   UNL     1      -9.679   1.589 -33.325  1.00  0.00    -0.352 N 
HETATM   15  H   UNL     1      -9.225   2.362 -33.801  1.00  0.00     0.162 HD
HETATM   16  O   UNL     1      -9.415  -0.007 -31.695  1.00  0.00    -0.268 OA
BRANCH  14  17
HETATM   17  C   UNL     1     -10.688   0.856 -34.052  1.00  0.00     0.161 C 
BRANCH  17  18
HETATM   18  C   UNL     1     -12.079   1.307 -33.690  1.00  0.00    -0.038 A 
HETATM   19  C   UNL     1     -12.289   2.568 -33.103  1.00  0.00     0.048 A 
HETATM   20  C   UNL     1     -13.571   2.910 -32.730  1.00  0.00     0.105 A 
HETATM   21  C   UNL     1     -14.630   2.053 -32.909  1.00  0.00     0.105 A 
HETATM   22  O   UNL     1     -13.943   4.082 -32.148  1.00  0.00    -0.323 OA
HETATM   23  O   UNL     1     -15.802   2.577 -32.462  1.00  0.00    -0.323 OA
HETATM   24  C   UNL     1     -14.467   0.808 -33.473  1.00  0.00     0.040 A 
HETATM   25  C   UNL     1     -15.357   3.860 -31.973  1.00  0.00     0.352 A 
HETATM   26  C   UNL     1     -13.177   0.433 -33.862  1.00  0.00     0.012 A 
ENDBRANCH  17  18
ENDBRANCH  14  17
ENDBRANCH   2  13
BRANCH   2  27
HETATM   27  O   UNL     1      -7.473   1.342 -30.336  1.00  0.00    -0.359 OA
HETATM   28  H   UNL     1      -8.312   1.061 -29.925  1.00  0.00     0.213 HD
ENDBRANCH   2  27
BRANCH   1  29
HETATM   29  C   UNL     1      -6.273   0.632 -33.132  1.00  0.00     0.043 A 
HETATM   30  C   UNL     1      -5.453  -0.322 -32.512  1.00  0.00     0.030 A 
HETATM   31  C   UNL     1      -5.191  -1.559 -33.114  1.00  0.00     0.009 A 
HETATM   32  C   UNL     1      -5.738  -1.873 -34.361  1.00  0.00    -0.058 A 
HETATM   33  C   UNL     1      -6.535  -0.923 -35.002  1.00  0.00     0.009 A 
HETATM   34  C   UNL     1      -6.794   0.311 -34.397  1.00  0.00     0.030 A 
BRANCH  32  35
HETATM   35  C   UNL     1      -5.505  -3.224 -34.984  1.00  0.00     0.034 C 
HETATM   36  C   UNL     1      -6.798  -4.021 -35.086  1.00  0.00     0.010 C 
ENDBRANCH  32  35
ENDBRANCH   1  29
TORSDOF 6
ENDMDL
MODEL 6
REMARK VINA RESULT:      -9.0      3.156      7.919
REMARK  6 active torsions:
REMARK  status: ('A' for Active; 'I' for Inactive)
REMARK    1  A    between atoms: C_2  and  C_3 
REMARK    2  A    between atoms: C_6  and  N_7 
REMARK    3  A    between atoms: C_8  and  C_10 
REMARK    4  A    between atoms: C_8  and  O_9 
REMARK       I    between atoms: C_10  and  N_11 
REMARK    5  A    between atoms: N_11  and  C_12 
REMARK    6  A    between atoms: C_12  and  C_13 
ROOT
HETATM    1  N   UNL     1      -7.392  -0.087 -33.001  1.00  0.00    -0.254 N 
HETATM    2  C   UNL     1      -6.652   0.410 -31.824  1.00  0.00     0.256 C 
HETATM    3  C   UNL     1      -5.179   0.035 -31.818  1.00  0.00     0.034 A 
HETATM    4  C   UNL     1      -4.753  -1.007 -32.629  1.00  0.00     0.048 A 
HETATM    5  N   UNL     1      -5.670  -1.626 -33.459  1.00  0.00    -0.308 N 
HETATM    6  C   UNL     1      -6.951  -1.216 -33.676  1.00  0.00     0.330 C 
HETATM    7  O   UNL     1      -7.603  -1.865 -34.498  1.00  0.00    -0.246 OA
HETATM    8  C   UNL     1      -4.234   0.646 -30.973  1.00  0.00     0.015 A 
HETATM    9  C   UNL     1      -2.898   0.236 -30.978  1.00  0.00     0.001 A 
HETATM   10  C   UNL     1      -2.494  -0.809 -31.804  1.00  0.00     0.002 A 
HETATM   11  C   UNL     1      -3.426  -1.441 -32.625  1.00  0.00     0.030 A 
HETATM   12  H   UNL     1      -5.395  -2.426 -34.013  1.00  0.00     0.170 HD
ENDROOT
BRANCH   2  13
HETATM   13  C   UNL     1      -6.757   1.993 -31.716  1.00  0.00     0.279 C 
HETATM   14  N   UNL     1      -6.151   2.723 -32.717  1.00  0.00    -0.352 N 
HETATM   15  H   UNL     1      -5.885   2.234 -33.565  1.00  0.00     0.162 HD
HETATM   16  O   UNL     1      -7.275   2.518 -30.725  1.00  0.00    -0.268 OA
BRANCH  14  17
HETATM   17  C   UNL     1      -6.288   4.159 -32.787  1.00  0.00     0.161 C 
BRANCH  17  18
HETATM   18  C   UNL     1      -5.014   4.822 -33.244  1.00  0.00    -0.038 A 
HETATM   19  C   UNL     1      -4.231   5.561 -32.340  1.00  0.00     0.048 A 
HETATM   20  C   UNL     1      -3.110   6.203 -32.819  1.00  0.00     0.105 A 
HETATM   21  C   UNL     1      -2.753   6.143 -34.145  1.00  0.00     0.105 A 
HETATM   22  O   UNL     1      -2.252   6.959 -32.084  1.00  0.00    -0.323 OA
HETATM   23  O   UNL     1      -1.625   6.855 -34.411  1.00  0.00    -0.323 OA
HETATM   24  C   UNL     1      -3.496   5.437 -35.065  1.00  0.00     0.040 A 
HETATM   25  C   UNL     1      -1.318   7.376 -33.101  1.00  0.00     0.352 A 
HETATM   26  C   UNL     1      -4.639   4.774 -34.607  1.00  0.00     0.012 A 
ENDBRANCH  17  18
ENDBRANCH  14  17
ENDBRANCH   2  13
BRANCH   2  27
HETATM   27  O   UNL     1      -7.210  -0.204 -30.661  1.00  0.00    -0.359 OA
HETATM   28  H   UNL     1      -8.155   0.036 -30.680  1.00  0.00     0.213 HD
ENDBRANCH   2  27
BRANCH   1  29
HETATM   29  C   UNL     1      -8.682   0.474 -33.331  1.00  0.00     0.043 A 
HETATM   30  C   UNL     1      -8.834   1.517 -34.255  1.00  0.00     0.030 A 
HETATM   31  C   UNL     1     -10.103   1.960 -34.651  1.00  0.00     0.009 A 
HETATM   32  C   UNL     1     -11.257   1.374 -34.124  1.00  0.00    -0.058 A 
HETATM   33  C   UNL     1     -11.120   0.353 -33.183  1.00  0.00     0.009 A 
HETATM   34  C   UNL     1      -9.851  -0.086 -32.791  1.00  0.00     0.030 A 
BRANCH  32  35
HETATM   35  C   UNL     1     -12.621   1.810 -34.590  1.00  0.00     0.034 C 
HETATM   36  C   UNL     1     -12.528   2.763 -35.773  1.00  0.00     0.010 C 
ENDBRANCH  32  35
ENDBRANCH   1  29
TORSDOF 6
ENDMDL
MODEL 7
REMARK VINA RESULT:      -8.6      1.094      1.855
REMARK  6 active torsions:
REMARK  status: ('A' for Active; 'I' for Inactive)
REMARK    1  A    between atoms: C_2  and  C_3 
REMARK    2  A    between atoms: C_6  and  N_7 
REMARK    3  A    between atoms: C_8  and  C_10 
REMARK    4  A    between atoms: C_8  and  O_9 
REMARK       I    between atoms: C_10  and  N_11 
REMARK    5  A    between atoms: N_11  and  C_12 
REMARK    6  A    between atoms: C_12  and  C_13 
ROOT
HETATM    1  N   UNL     1      -8.664   2.805 -32.194  1.00  0.00    -0.254 N 
HETATM    2  C   UNL     1      -9.351   1.596 -32.693  1.00  0.00     0.256 C 
HETATM    3  C   UNL     1     -10.792   1.835 -33.113  1.00  0.00     0.034 A 
HETATM    4  C   UNL     1     -11.440   2.972 -32.654  1.00  0.00     0.048 A 
HETATM    5  N   UNL     1     -10.736   3.878 -31.882  1.00  0.00    -0.308 N 
HETATM    6  C   UNL     1      -9.396   3.844 -31.637  1.00  0.00     0.330 C 
HETATM    7  O   UNL     1      -8.936   4.773 -30.971  1.00  0.00    -0.246 OA
HETATM    8  C   UNL     1     -11.528   0.919 -33.888  1.00  0.00     0.015 A 
HETATM    9  C   UNL     1     -12.864   1.168 -34.214  1.00  0.00     0.001 A 
HETATM   10  C   UNL     1     -13.491   2.319 -33.745  1.00  0.00     0.002 A 
HETATM   11  C   UNL     1     -12.782   3.220 -32.953  1.00  0.00     0.030 A 
HETATM   12  H   UNL     1     -11.205   4.682 -31.487  1.00  0.00     0.170 HD
ENDROOT
BRANCH   2  13
HETATM   13  C   UNL     1      -8.574   0.973 -33.933  1.00  0.00     0.279 C 
HETATM   14  N   UNL     1      -7.882  -0.198 -33.704  1.00  0.00    -0.352 N 
HETATM   15  H   UNL     1      -8.089  -0.711 -32.854  1.00  0.00     0.162 HD
HETATM   16  O   UNL     1      -8.527   1.579 -35.008  1.00  0.00    -0.268 OA
BRANCH  14  17
HETATM   17  C   UNL     1      -7.244  -0.915 -34.782  1.00  0.00     0.161 C 
BRANCH  17  18
HETATM   18  C   UNL     1      -6.181  -1.856 -34.278  1.00  0.00    -0.038 A 
HETATM   19  C   UNL     1      -5.340  -1.477 -33.216  1.00  0.00     0.048 A 
HETATM   20  C   UNL     1      -4.341  -2.345 -32.832  1.00  0.00     0.105 A 
HETATM   21  C   UNL     1      -4.146  -3.551 -33.464  1.00  0.00     0.105 A 
HETATM   22  O   UNL     1      -3.443  -2.132 -31.833  1.00  0.00    -0.323 OA
HETATM   23  O   UNL     1      -3.102  -4.247 -32.942  1.00  0.00    -0.323 OA
HETATM   24  C   UNL     1      -4.942  -3.956 -34.512  1.00  0.00     0.040 A 
HETATM   25  C   UNL     1      -2.656  -3.337 -31.914  1.00  0.00     0.352 A 
HETATM   26  C   UNL     1      -5.966  -3.096 -34.923  1.00  0.00     0.012 A 
ENDBRANCH  17  18
ENDBRANCH  14  17
ENDBRANCH   2  13
BRANCH   2  27
HETATM   27  O   UNL     1      -9.414   0.652 -31.622  1.00  0.00    -0.359 OA
HETATM   28  H   UNL     1      -9.179   1.163 -30.824  1.00  0.00     0.213 HD
ENDBRANCH   2  27
BRANCH   1  29
HETATM   29  C   UNL     1      -7.223   2.827 -32.099  1.00  0.00     0.043 A 
HETATM   30  C   UNL     1      -6.418   3.521 -33.014  1.00  0.00     0.030 A 
HETATM   31  C   UNL     1      -5.034   3.630 -32.830  1.00  0.00     0.009 A 
HETATM   32  C   UNL     1      -4.415   3.039 -31.726  1.00  0.00    -0.058 A 
HETATM   33  C   UNL     1      -5.199   2.322 -30.822  1.00  0.00     0.009 A 
HETATM   34  C   UNL     1      -6.581   2.216 -31.009  1.00  0.00     0.030 A 
BRANCH  32  35
HETATM   35  C   UNL     1      -2.935   3.203 -31.495  1.00  0.00     0.034 C 
HETATM   36  C   UNL     1      -2.449   4.572 -31.951  1.00  0.00     0.010 C 
ENDBRANCH  32  35
ENDBRANCH   1  29
TORSDOF 6
ENDMDL
MODEL 8
REMARK VINA RESULT:      -8.5      2.325      7.363
REMARK  6 active torsions:
REMARK  status: ('A' for Active; 'I' for Inactive)
REMARK    1  A    between atoms: C_2  and  C_3 
REMARK    2  A    between atoms: C_6  and  N_7 
REMARK    3  A    between atoms: C_8  and  C_10 
REMARK    4  A    between atoms: C_8  and  O_9 
REMARK       I    between atoms: C_10  and  N_11 
REMARK    5  A    between atoms: N_11  and  C_12 
REMARK    6  A    between atoms: C_12  and  C_13 
ROOT
HETATM    1  N   UNL     1      -5.295   0.362 -33.043  1.00  0.00    -0.254 N 
HETATM    2  C   UNL     1      -6.365  -0.288 -33.827  1.00  0.00     0.256 C 
HETATM    3  C   UNL     1      -6.120  -1.763 -34.101  1.00  0.00     0.034 A 
HETATM    4  C   UNL     1      -4.831  -2.260 -33.970  1.00  0.00     0.048 A 
HETATM    5  N   UNL     1      -3.828  -1.411 -33.536  1.00  0.00    -0.308 N 
HETATM    6  C   UNL     1      -4.003  -0.142 -33.074  1.00  0.00     0.330 C 
HETATM    7  O   UNL     1      -2.993   0.442 -32.677  1.00  0.00    -0.246 OA
HETATM    8  C   UNL     1      -7.124  -2.638 -34.553  1.00  0.00     0.015 A 
HETATM    9  C   UNL     1      -6.837  -3.978 -34.829  1.00  0.00     0.001 A 
HETATM   10  C   UNL     1      -5.536  -4.454 -34.686  1.00  0.00     0.002 A 
HETATM   11  C   UNL     1      -4.526  -3.590 -34.266  1.00  0.00     0.030 A 
HETATM   12  H   UNL     1      -2.871  -1.736 -33.493  1.00  0.00     0.170 HD
ENDROOT
BRANCH   2  13
HETATM   13  C   UNL     1      -7.769  -0.151 -33.093  1.00  0.00     0.279 C 
HETATM   14  N   UNL     1      -8.811   0.357 -33.840  1.00  0.00    -0.352 N 
HETATM   15  H   UNL     1      -8.697   0.394 -34.847  1.00  0.00     0.162 HD
HETATM   16  O   UNL     1      -7.870  -0.402 -31.887  1.00  0.00    -0.268 OA
BRANCH  14  17
HETATM   17  C   UNL     1     -10.154   0.410 -33.315  1.00  0.00     0.161 C 
BRANCH  17  18
HETATM   18  C   UNL     1     -10.951   1.535 -33.925  1.00  0.00    -0.038 A 
HETATM   19  C   UNL     1     -10.347   2.779 -34.178  1.00  0.00     0.048 A 
HETATM   20  C   UNL     1     -11.131   3.797 -34.677  1.00  0.00     0.105 A 
HETATM   21  C   UNL     1     -12.473   3.625 -34.919  1.00  0.00     0.105 A 
HETATM   22  O   UNL     1     -10.708   5.055 -34.971  1.00  0.00    -0.323 OA
HETATM   23  O   UNL     1     -13.063   4.753 -35.395  1.00  0.00    -0.323 OA
HETATM   24  C   UNL     1     -13.105   2.425 -34.678  1.00  0.00     0.040 A 
HETATM   25  C   UNL     1     -11.940   5.658 -35.417  1.00  0.00     0.352 A 
HETATM   26  C   UNL     1     -12.333   1.373 -34.172  1.00  0.00     0.012 A 
ENDBRANCH  17  18
ENDBRANCH  14  17
ENDBRANCH   2  13
BRANCH   2  27
HETATM   27  O   UNL     1      -6.413   0.338 -35.110  1.00  0.00    -0.359 OA
HETATM   28  H   UNL     1      -6.507   1.291 -34.920  1.00  0.00     0.213 HD
ENDBRANCH   2  27
BRANCH   1  29
HETATM   29  C   UNL     1      -5.541   1.634 -32.405  1.00  0.00     0.043 A 
HETATM   30  C   UNL     1      -5.899   2.781 -33.126  1.00  0.00     0.030 A 
HETATM   31  C   UNL     1      -6.253   3.970 -32.476  1.00  0.00     0.009 A 
HETATM   32  C   UNL     1      -6.250   4.045 -31.080  1.00  0.00    -0.058 A 
HETATM   33  C   UNL     1      -5.869   2.919 -30.350  1.00  0.00     0.009 A 
HETATM   34  C   UNL     1      -5.517   1.734 -31.004  1.00  0.00     0.030 A 
BRANCH  32  35
HETATM   35  C   UNL     1      -6.685   5.304 -30.377  1.00  0.00     0.034 C 
HETATM   36  C   UNL     1      -7.583   4.996 -29.188  1.00  0.00     0.010 C 
ENDBRANCH  32  35
ENDBRANCH   1  29
TORSDOF 6
ENDMDL
MODEL 9
REMARK VINA RESULT:      -8.5      2.396      7.433
REMARK  6 active torsions:
REMARK  status: ('A' for Active; 'I' for Inactive)
REMARK    1  A    between atoms: C_2  and  C_3 
REMARK    2  A    between atoms: C_6  and  N_7 
REMARK    3  A    between atoms: C_8  and  C_10 
REMARK    4  A    between atoms: C_8  and  O_9 
REMARK       I    between atoms: C_10  and  N_11 
REMARK    5  A    between atoms: N_11  and  C_12 
REMARK    6  A    between atoms: C_12  and  C_13 
ROOT
HETATM    1  N   UNL     1      -6.414   1.632 -32.443  1.00  0.00    -0.254 N 
HETATM    2  C   UNL     1      -6.909   0.909 -33.632  1.00  0.00     0.256 C 
HETATM    3  C   UNL     1      -6.217  -0.422 -33.876  1.00  0.00     0.034 A 
HETATM    4  C   UNL     1      -4.993  -0.658 -33.268  1.00  0.00     0.048 A 
HETATM    5  N   UNL     1      -4.475   0.298 -32.413  1.00  0.00    -0.308 N 
HETATM    6  C   UNL     1      -5.124   1.415 -31.981  1.00  0.00     0.330 C 
HETATM    7  O   UNL     1      -4.520   2.124 -31.173  1.00  0.00    -0.246 OA
HETATM    8  C   UNL     1      -6.723  -1.402 -34.750  1.00  0.00     0.015 A 
HETATM    9  C   UNL     1      -6.026  -2.594 -34.971  1.00  0.00     0.001 A 
HETATM   10  C   UNL     1      -4.802  -2.809 -34.344  1.00  0.00     0.002 A 
HETATM   11  C   UNL     1      -4.276  -1.835 -33.499  1.00  0.00     0.030 A 
HETATM   12  H   UNL     1      -3.558   0.174 -32.007  1.00  0.00     0.170 HD
ENDROOT
BRANCH   2  13
HETATM   13  C   UNL     1      -8.472   0.637 -33.521  1.00  0.00     0.279 C 
HETATM   14  N   UNL     1      -9.285   1.337 -34.387  1.00  0.00    -0.352 N 
HETATM   15  H   UNL     1      -8.848   1.793 -35.182  1.00  0.00     0.162 HD
HETATM   16  O   UNL     1      -8.917  -0.093 -32.629  1.00  0.00    -0.268 OA
BRANCH  14  17
HETATM   17  C   UNL     1     -10.704   1.080 -34.459  1.00  0.00     0.161 C 
BRANCH  17  18
HETATM   18  C   UNL     1     -11.495   2.067 -33.640  1.00  0.00    -0.038 A 
HETATM   19  C   UNL     1     -12.881   1.903 -33.471  1.00  0.00     0.048 A 
HETATM   20  C   UNL     1     -13.572   2.866 -32.767  1.00  0.00     0.105 A 
HETATM   21  C   UNL     1     -12.944   3.972 -32.245  1.00  0.00     0.105 A 
HETATM   22  O   UNL     1     -14.909   2.862 -32.518  1.00  0.00    -0.323 OA
HETATM   23  O   UNL     1     -13.806   4.802 -31.602  1.00  0.00    -0.323 OA
HETATM   24  C   UNL     1     -11.590   4.174 -32.395  1.00  0.00     0.040 A 
HETATM   25  C   UNL     1     -15.051   4.097 -31.787  1.00  0.00     0.352 A 
HETATM   26  C   UNL     1     -10.862   3.212 -33.103  1.00  0.00     0.012 A 
ENDBRANCH  17  18
ENDBRANCH  14  17
ENDBRANCH   2  13
BRANCH   2  27
HETATM   27  O   UNL     1      -6.625   1.707 -34.783  1.00  0.00    -0.359 OA
HETATM   28  H   UNL     1      -6.577   1.071 -35.522  1.00  0.00     0.213 HD
ENDBRANCH   2  27
BRANCH   1  29
HETATM   29  C   UNL     1      -7.194   2.710 -31.880  1.00  0.00     0.043 A 
HETATM   30  C   UNL     1      -7.916   2.573 -30.686  1.00  0.00     0.030 A 
HETATM   31  C   UNL     1      -8.562   3.667 -30.096  1.00  0.00     0.009 A 
HETATM   32  C   UNL     1      -8.510   4.930 -30.691  1.00  0.00    -0.058 A 
HETATM   33  C   UNL     1      -7.817   5.075 -31.894  1.00  0.00     0.009 A 
HETATM   34  C   UNL     1      -7.173   3.980 -32.480  1.00  0.00     0.030 A 
BRANCH  32  35
HETATM   35  C   UNL     1      -9.155   6.119 -30.029  1.00  0.00     0.034 C 
HETATM   36  C   UNL     1      -8.614   6.336 -28.623  1.00  0.00     0.010 C 
ENDBRANCH  32  35
ENDBRANCH   1  29
TORSDOF 6
ENDMDL
MODEL 10
REMARK VINA RESULT:      -8.5      3.945      7.169
REMARK  6 active torsions:
REMARK  status: ('A' for Active; 'I' for Inactive)
REMARK    1  A    between atoms: C_2  and  C_3 
REMARK    2  A    between atoms: C_6  and  N_7 
REMARK    3  A    between atoms: C_8  and  C_10 
REMARK    4  A    between atoms: C_8  and  O_9 
REMARK       I    between atoms: C_10  and  N_11 
REMARK    5  A    between atoms: N_11  and  C_12 
REMARK    6  A    between atoms: C_12  and  C_13 
ROOT
HETATM    1  N   UNL     1      -7.358   3.324 -32.620  1.00  0.00    -0.254 N 
HETATM    2  C   UNL     1      -6.858   2.077 -32.008  1.00  0.00     0.256 C 
HETATM    3  C   UNL     1      -6.878   0.879 -32.943  1.00  0.00     0.034 A 
HETATM    4  C   UNL     1      -7.679   0.932 -34.075  1.00  0.00     0.048 A 
HETATM    5  N   UNL     1      -8.382   2.093 -34.344  1.00  0.00    -0.308 N 
HETATM    6  C   UNL     1      -8.257   3.272 -33.675  1.00  0.00     0.330 C 
HETATM    7  O   UNL     1      -8.928   4.217 -34.097  1.00  0.00    -0.246 OA
HETATM    8  C   UNL     1      -6.179  -0.313 -32.681  1.00  0.00     0.015 A 
HETATM    9  C   UNL     1      -6.263  -1.400 -33.555  1.00  0.00     0.001 A 
HETATM   10  C   UNL     1      -7.070  -1.322 -34.687  1.00  0.00     0.002 A 
HETATM   11  C   UNL     1      -7.790  -0.157 -34.944  1.00  0.00     0.030 A 
HETATM   12  H   UNL     1      -9.018   2.131 -35.129  1.00  0.00     0.170 HD
ENDROOT
BRANCH   2  13
HETATM   13  C   UNL     1      -5.370   2.262 -31.478  1.00  0.00     0.279 C 
HETATM   14  N   UNL     1      -4.400   2.498 -32.428  1.00  0.00    -0.352 N 
HETATM   15  H   UNL     1      -4.703   2.770 -33.358  1.00  0.00     0.162 HD
HETATM   16  O   UNL     1      -5.109   2.099 -30.281  1.00  0.00    -0.268 OA
BRANCH  14  17
HETATM   17  C   UNL     1      -3.039   2.803 -32.052  1.00  0.00     0.161 C 
BRANCH  17  18
HETATM   18  C   UNL     1      -2.682   4.236 -32.355  1.00  0.00    -0.038 A 
HETATM   19  C   UNL     1      -2.626   5.189 -31.322  1.00  0.00     0.048 A 
HETATM   20  C   UNL     1      -2.358   6.499 -31.656  1.00  0.00     0.105 A 
HETATM   21  C   UNL     1      -2.158   6.887 -32.959  1.00  0.00     0.105 A 
HETATM   22  O   UNL     1      -2.274   7.539 -30.785  1.00  0.00    -0.323 OA
HETATM   23  O   UNL     1      -1.922   8.221 -33.072  1.00  0.00    -0.323 OA
HETATM   24  C   UNL     1      -2.211   5.987 -34.000  1.00  0.00     0.040 A 
HETATM   25  C   UNL     1      -2.007   8.630 -31.690  1.00  0.00     0.352 A 
HETATM   26  C   UNL     1      -2.480   4.650 -33.691  1.00  0.00     0.012 A 
ENDBRANCH  17  18
ENDBRANCH  14  17
ENDBRANCH   2  13
BRANCH   2  27
HETATM   27  O   UNL     1      -7.730   1.735 -30.928  1.00  0.00    -0.359 OA
HETATM   28  H   UNL     1      -7.362   2.199 -30.153  1.00  0.00     0.213 HD
ENDBRANCH   2  27
BRANCH   1  29
HETATM   29  C   UNL     1      -7.074   4.597 -31.997  1.00  0.00     0.043 A 
HETATM   30  C   UNL     1      -7.493   4.908 -30.696  1.00  0.00     0.030 A 
HETATM   31  C   UNL     1      -7.100   6.098 -30.069  1.00  0.00     0.009 A 
HETATM   32  C   UNL     1      -6.281   7.014 -30.733  1.00  0.00    -0.058 A 
HETATM   33  C   UNL     1      -5.879   6.730 -32.040  1.00  0.00     0.009 A 
HETATM   34  C   UNL     1      -6.274   5.541 -32.661  1.00  0.00     0.030 A 
BRANCH  32  35
HETATM   35  C   UNL     1      -5.810   8.267 -30.042  1.00  0.00     0.034 C 
HETATM   36  C   UNL     1      -6.855   8.792 -29.068  1.00  0.00     0.010 C 
ENDBRANCH  32  35
ENDBRANCH   1  29
TORSDOF 6
ENDMDL
