MODEL 1
REMARK VINA RESULT:      -9.1      0.000      0.000
REMARK  5 active torsions:
REMARK  status: ('A' for Active; 'I' for Inactive)
REMARK    1  A    between atoms: C_2  and  C_3 
REMARK    2  A    between atoms: N_12  and  N_13 
REMARK       I    between atoms: N_13  and  C_14 
REMARK    3  A    between atoms: C_14  and  C_15 
REMARK    4  A    between atoms: C_15  and  N_16 
REMARK       I    between atoms: N_16  and  C_17 
REMARK    5  A    between atoms: C_17  and  C_18 
ROOT
HETATM    1  N   UNL     1      -5.186   4.380 -32.396  1.00  0.00    -0.255 N 
HETATM    2  C   UNL     1      -5.857   4.252 -33.599  1.00  0.00     0.254 C 
HETATM    3  O   UNL     1      -5.607   4.903 -34.610  1.00  0.00    -0.270 OA
HETATM    4  H   UNL     1      -5.080   3.528 -31.835  1.00  0.00     0.191 HD
ENDROOT
BRANCH   1   5
HETATM    5  N   UNL     1      -4.128   5.274 -32.347  1.00  0.00    -0.167 N 
HETATM    6  C   UNL     1      -4.249   6.580 -31.962  1.00  0.00     0.345 C 
HETATM    7  N   UNL     1      -2.994   7.154 -32.024  1.00  0.00    -0.319 N 
HETATM    8  O   UNL     1      -5.258   7.177 -31.625  1.00  0.00    -0.245 OA
HETATM    9  C   UNL     1      -1.955   6.175 -32.300  1.00  0.00     0.141 C 
HETATM   10  H   UNL     1      -2.838   8.069 -31.625  1.00  0.00     0.166 HD
HETATM   11  C   UNL     1      -1.202   6.526 -33.589  1.00  0.00     0.055 C 
HETATM   12  C   UNL     1      -2.822   4.926 -32.595  1.00  0.00     0.279 C 
HETATM   13  O   UNL     1      -2.408   3.839 -32.985  1.00  0.00    -0.268 OA
BRANCH   9  14
HETATM   14  C   UNL     1      -1.039   6.058 -31.085  1.00  0.00    -0.021 A 
HETATM   15  C   UNL     1      -1.258   6.874 -29.956  1.00  0.00     0.010 A 
HETATM   16  C   UNL     1      -0.456   6.769 -28.817  1.00  0.00     0.001 A 
HETATM   17  C   UNL     1       0.577   5.840 -28.776  1.00  0.00     0.000 A 
HETATM   18  C   UNL     1       0.804   5.013 -29.872  1.00  0.00     0.001 A 
HETATM   19  C   UNL     1       0.003   5.117 -31.014  1.00  0.00     0.010 A 
ENDBRANCH   9  14
ENDBRANCH   1   5
BRANCH   2  20
HETATM   20  C   UNL     1      -6.932   3.168 -33.567  1.00  0.00     0.227 C 
BRANCH  20  21
HETATM   21  N   UNL     1      -6.355   1.843 -33.437  1.00  0.00    -0.348 N 
HETATM   22  C   UNL     1      -6.776   0.813 -34.252  1.00  0.00     0.252 C 
HETATM   23  O   UNL     1      -7.718   0.959 -35.027  1.00  0.00    -0.268 OA
HETATM   24  H   UNL     1      -5.535   1.753 -32.856  1.00  0.00     0.163 HD
BRANCH  22  25
HETATM   25  C   UNL     1      -6.029  -0.478 -34.182  1.00  0.00     0.033 A 
HETATM   26  C   UNL     1      -6.519  -1.671 -34.728  1.00  0.00     0.036 A 
HETATM   27  C   UNL     1      -5.780  -2.850 -34.590  1.00  0.00     0.012 A 
HETATM   28 BR   UNL     1      -6.457  -4.464 -35.307  1.00  0.00    -0.051 Br
HETATM   29  C   UNL     1      -4.552  -2.852 -33.932  1.00  0.00     0.019 A 
HETATM   30  C   UNL     1      -4.049  -1.663 -33.408  1.00  0.00     0.002 A 
HETATM   31  C   UNL     1      -4.785  -0.480 -33.533  1.00  0.00     0.017 A 
ENDBRANCH  22  25
ENDBRANCH  20  21
ENDBRANCH   2  20
TORSDOF 5
ENDMDL
MODEL 2
REMARK VINA RESULT:      -9.1      3.802      9.410
REMARK  5 active torsions:
REMARK  status: ('A' for Active; 'I' for Inactive)
REMARK    1  A    between atoms: C_2  and  C_3 
REMARK    2  A    between atoms: N_12  and  N_13 
REMARK       I    between atoms: N_13  and  C_14 
REMARK    3  A    between atoms: C_14  and  C_15 
REMARK    4  A    between atoms: C_15  and  N_16 
REMARK       I    between atoms: N_16  and  C_17 
REMARK    5  A    between atoms: C_17  and  C_18 
ROOT
HETATM    1  N   UNL     1      -3.283   2.844 -32.700  1.00  0.00    -0.255 N 
HETATM    2  C   UNL     1      -3.160   3.835 -31.743  1.00  0.00     0.254 C 
HETATM    3  O   UNL     1      -3.975   4.047 -30.847  1.00  0.00    -0.270 OA
HETATM    4  H   UNL     1      -2.414   2.412 -33.030  1.00  0.00     0.191 HD
ENDROOT
BRANCH   1   5
HETATM    5  N   UNL     1      -4.383   2.004 -32.611  1.00  0.00    -0.167 N 
HETATM    6  C   UNL     1      -5.585   2.253 -33.209  1.00  0.00     0.345 C 
HETATM    7  N   UNL     1      -6.429   1.199 -32.914  1.00  0.00    -0.319 N 
HETATM    8  O   UNL     1      -5.908   3.218 -33.882  1.00  0.00    -0.245 OA
HETATM    9  C   UNL     1      -5.737   0.117 -32.232  1.00  0.00     0.141 C 
HETATM   10  H   UNL     1      -7.312   1.111 -33.395  1.00  0.00     0.166 HD
HETATM   11  C   UNL     1      -6.369  -0.158 -30.862  1.00  0.00     0.055 C 
HETATM   12  C   UNL     1      -4.359   0.781 -31.983  1.00  0.00     0.279 C 
HETATM   13  O   UNL     1      -3.435   0.299 -31.338  1.00  0.00    -0.268 OA
BRANCH   9  14
HETATM   14  C   UNL     1      -5.711  -1.112 -33.137  1.00  0.00    -0.021 A 
HETATM   15  C   UNL     1      -6.902  -1.572 -33.736  1.00  0.00     0.010 A 
HETATM   16  C   UNL     1      -6.906  -2.675 -34.592  1.00  0.00     0.001 A 
HETATM   17  C   UNL     1      -5.718  -3.338 -34.879  1.00  0.00     0.000 A 
HETATM   18  C   UNL     1      -4.527  -2.895 -34.311  1.00  0.00     0.001 A 
HETATM   19  C   UNL     1      -4.521  -1.791 -33.453  1.00  0.00     0.010 A 
ENDBRANCH   9  14
ENDBRANCH   1   5
BRANCH   2  20
HETATM   20  C   UNL     1      -1.864   4.631 -31.876  1.00  0.00     0.227 C 
BRANCH  20  21
HETATM   21  N   UNL     1      -1.631   5.477 -30.720  1.00  0.00    -0.348 N 
HETATM   22  C   UNL     1      -0.379   5.550 -30.148  1.00  0.00     0.252 C 
HETATM   23  O   UNL     1       0.539   4.827 -30.527  1.00  0.00    -0.268 OA
HETATM   24  H   UNL     1      -2.365   6.121 -30.466  1.00  0.00     0.163 HD
BRANCH  22  25
HETATM   25  C   UNL     1      -0.166   6.561 -29.068  1.00  0.00     0.033 A 
HETATM   26  C   UNL     1      -0.869   7.771 -29.010  1.00  0.00     0.036 A 
HETATM   27  C   UNL     1      -0.589   8.685 -27.990  1.00  0.00     0.012 A 
HETATM   28 BR   UNL     1      -1.522  10.329 -27.929  1.00  0.00    -0.051 Br
HETATM   29  C   UNL     1       0.368   8.402 -27.018  1.00  0.00     0.019 A 
HETATM   30  C   UNL     1       1.053   7.189 -27.059  1.00  0.00     0.002 A 
HETATM   31  C   UNL     1       0.786   6.272 -28.080  1.00  0.00     0.017 A 
ENDBRANCH  22  25
ENDBRANCH  20  21
ENDBRANCH   2  20
TORSDOF 5
ENDMDL
MODEL 3
REMARK VINA RESULT:      -8.9      4.056      9.186
REMARK  5 active torsions:
REMARK  status: ('A' for Active; 'I' for Inactive)
REMARK    1  A    between atoms: C_2  and  C_3 
REMARK    2  A    between atoms: N_12  and  N_13 
REMARK       I    between atoms: N_13  and  C_14 
REMARK    3  A    between atoms: C_14  and  C_15 
REMARK    4  A    between atoms: C_15  and  N_16 
REMARK       I    between atoms: N_16  and  C_17 
REMARK    5  A    between atoms: C_17  and  C_18 
ROOT
HETATM    1  N   UNL     1      -2.750   3.908 -31.278  1.00  0.00    -0.255 N 
HETATM    2  C   UNL     1      -2.302   4.280 -32.533  1.00  0.00     0.254 C 
HETATM    3  O   UNL     1      -2.839   3.957 -33.590  1.00  0.00    -0.270 OA
HETATM    4  H   UNL     1      -2.609   4.583 -30.520  1.00  0.00     0.191 HD
ENDROOT
BRANCH   1   5
HETATM    5  N   UNL     1      -3.912   3.155 -31.213  1.00  0.00    -0.167 N 
HETATM    6  C   UNL     1      -5.170   3.690 -31.203  1.00  0.00     0.345 C 
HETATM    7  N   UNL     1      -6.071   2.645 -31.145  1.00  0.00    -0.319 N 
HETATM    8  O   UNL     1      -5.489   4.867 -31.228  1.00  0.00    -0.245 OA
HETATM    9  C   UNL     1      -5.422   1.351 -31.287  1.00  0.00     0.141 C 
HETATM   10  H   UNL     1      -7.055   2.819 -31.293  1.00  0.00     0.166 HD
HETATM   11  C   UNL     1      -5.684   0.471 -30.059  1.00  0.00     0.055 C 
HETATM   12  C   UNL     1      -3.934   1.781 -31.241  1.00  0.00     0.279 C 
HETATM   13  O   UNL     1      -2.968   1.026 -31.223  1.00  0.00    -0.268 OA
BRANCH   9  14
HETATM   14  C   UNL     1      -5.871   0.704 -32.594  1.00  0.00    -0.021 A 
HETATM   15  C   UNL     1      -5.829  -0.698 -32.737  1.00  0.00     0.010 A 
HETATM   16  C   UNL     1      -6.261  -1.322 -33.910  1.00  0.00     0.001 A 
HETATM   17  C   UNL     1      -6.754  -0.559 -34.963  1.00  0.00     0.000 A 
HETATM   18  C   UNL     1      -6.817   0.826 -34.841  1.00  0.00     0.001 A 
HETATM   19  C   UNL     1      -6.384   1.452 -33.668  1.00  0.00     0.010 A 
ENDBRANCH   9  14
ENDBRANCH   1   5
BRANCH   2  20
HETATM   20  C   UNL     1      -1.077   5.190 -32.480  1.00  0.00     0.227 C 
BRANCH  20  21
HETATM   21  N   UNL     1      -1.135   6.105 -31.355  1.00  0.00    -0.348 N 
HETATM   22  C   UNL     1      -0.076   6.203 -30.478  1.00  0.00     0.252 C 
HETATM   23  O   UNL     1       0.889   5.447 -30.557  1.00  0.00    -0.268 OA
HETATM   24  H   UNL     1      -1.893   6.772 -31.343  1.00  0.00     0.163 HD
BRANCH  22  25
HETATM   25  C   UNL     1      -0.129   7.278 -29.442  1.00  0.00     0.033 A 
HETATM   26  C   UNL     1       0.828   7.404 -28.427  1.00  0.00     0.036 A 
HETATM   27  C   UNL     1       0.692   8.414 -27.470  1.00  0.00     0.012 A 
HETATM   28 BR   UNL     1       1.972   8.566 -26.086  1.00  0.00    -0.051 Br
HETATM   29  C   UNL     1      -0.374   9.310 -27.521  1.00  0.00     0.019 A 
HETATM   30  C   UNL     1      -1.316   9.202 -28.543  1.00  0.00     0.002 A 
HETATM   31  C   UNL     1      -1.193   8.191 -29.500  1.00  0.00     0.017 A 
ENDBRANCH  22  25
ENDBRANCH  20  21
ENDBRANCH   2  20
TORSDOF 5
ENDMDL
MODEL 4
REMARK VINA RESULT:      -8.8      3.492      8.571
REMARK  5 active torsions:
REMARK  status: ('A' for Active; 'I' for Inactive)
REMARK    1  A    between atoms: C_2  and  C_3 
REMARK    2  A    between atoms: N_12  and  N_13 
REMARK       I    between atoms: N_13  and  C_14 
REMARK    3  A    between atoms: C_14  and  C_15 
REMARK    4  A    between atoms: C_15  and  N_16 
REMARK       I    between atoms: N_16  and  C_17 
REMARK    5  A    between atoms: C_17  and  C_18 
ROOT
HETATM    1  N   UNL     1      -5.756   3.045 -31.542  1.00  0.00    -0.255 N 
HETATM    2  C   UNL     1      -6.605   3.958 -30.942  1.00  0.00     0.254 C 
HETATM    3  O   UNL     1      -7.806   4.057 -31.183  1.00  0.00    -0.270 OA
HETATM    4  H   UNL     1      -4.989   2.682 -30.965  1.00  0.00     0.191 HD
ENDROOT
BRANCH   1   5
HETATM    5  N   UNL     1      -6.313   2.153 -32.444  1.00  0.00    -0.167 N 
HETATM    6  C   UNL     1      -6.350   2.354 -33.795  1.00  0.00     0.345 C 
HETATM    7  N   UNL     1      -6.962   1.256 -34.367  1.00  0.00    -0.319 N 
HETATM    8  O   UNL     1      -5.939   3.314 -34.426  1.00  0.00    -0.245 OA
HETATM    9  C   UNL     1      -7.205   0.197 -33.401  1.00  0.00     0.141 C 
HETATM   10  H   UNL     1      -6.943   1.133 -35.370  1.00  0.00     0.166 HD
HETATM   11  C   UNL     1      -8.701  -0.131 -33.314  1.00  0.00     0.055 C 
HETATM   12  C   UNL     1      -6.812   0.922 -32.090  1.00  0.00     0.279 C 
HETATM   13  O   UNL     1      -6.937   0.474 -30.955  1.00  0.00    -0.268 OA
BRANCH   9  14
HETATM   14  C   UNL     1      -6.346  -1.014 -33.756  1.00  0.00    -0.021 A 
HETATM   15  C   UNL     1      -6.887  -2.058 -34.535  1.00  0.00     0.010 A 
HETATM   16  C   UNL     1      -6.117  -3.164 -34.902  1.00  0.00     0.001 A 
HETATM   17  C   UNL     1      -4.787  -3.248 -34.507  1.00  0.00     0.000 A 
HETATM   18  C   UNL     1      -4.226  -2.225 -33.749  1.00  0.00     0.001 A 
HETATM   19  C   UNL     1      -4.996  -1.116 -33.380  1.00  0.00     0.010 A 
ENDBRANCH   9  14
ENDBRANCH   1   5
BRANCH   2  20
HETATM   20  C   UNL     1      -5.906   4.820 -29.893  1.00  0.00     0.227 C 
BRANCH  20  21
HETATM   21  N   UNL     1      -4.478   4.909 -30.135  1.00  0.00    -0.348 N 
HETATM   22  C   UNL     1      -3.900   6.111 -30.483  1.00  0.00     0.252 C 
HETATM   23  O   UNL     1      -4.586   7.106 -30.704  1.00  0.00    -0.268 OA
HETATM   24  H   UNL     1      -3.917   4.110 -29.877  1.00  0.00     0.163 HD
BRANCH  22  25
HETATM   25  C   UNL     1      -2.409   6.171 -30.555  1.00  0.00     0.033 A 
HETATM   26  C   UNL     1      -1.630   6.863 -29.620  1.00  0.00     0.036 A 
HETATM   27  C   UNL     1      -0.241   6.905 -29.773  1.00  0.00     0.012 A 
HETATM   28 BR   UNL     1       0.806   7.863 -28.523  1.00  0.00    -0.051 Br
HETATM   29  C   UNL     1       0.382   6.254 -30.836  1.00  0.00     0.019 A 
HETATM   30  C   UNL     1      -0.388   5.544 -31.755  1.00  0.00     0.002 A 
HETATM   31  C   UNL     1      -1.778   5.502 -31.615  1.00  0.00     0.017 A 
ENDBRANCH  22  25
ENDBRANCH  20  21
ENDBRANCH   2  20
TORSDOF 5
ENDMDL
MODEL 5
REMARK VINA RESULT:      -8.8      1.478      2.011
REMARK  5 active torsions:
REMARK  status: ('A' for Active; 'I' for Inactive)
REMARK    1  A    between atoms: C_2  and  C_3 
REMARK    2  A    between atoms: N_12  and  N_13 
REMARK       I    between atoms: N_13  and  C_14 
REMARK    3  A    between atoms: C_14  and  C_15 
REMARK    4  A    between atoms: C_15  and  N_16 
REMARK       I    between atoms: N_16  and  C_17 
REMARK    5  A    between atoms: C_17  and  C_18 
ROOT
HETATM    1  N   UNL     1      -5.459   3.623 -32.226  1.00  0.00    -0.255 N 
HETATM    2  C   UNL     1      -6.204   3.042 -33.237  1.00  0.00     0.254 C 
HETATM    3  O   UNL     1      -6.079   3.300 -34.432  1.00  0.00    -0.270 OA
HETATM    4  H   UNL     1      -5.246   3.033 -31.414  1.00  0.00     0.191 HD
ENDROOT
BRANCH   1   5
HETATM    5  N   UNL     1      -4.474   4.525 -32.596  1.00  0.00    -0.167 N 
HETATM    6  C   UNL     1      -4.711   5.841 -32.881  1.00  0.00     0.345 C 
HETATM    7  N   UNL     1      -3.501   6.428 -33.194  1.00  0.00    -0.319 N 
HETATM    8  O   UNL     1      -5.778   6.433 -32.882  1.00  0.00    -0.245 OA
HETATM    9  C   UNL     1      -2.379   5.533 -32.958  1.00  0.00     0.141 C 
HETATM   10  H   UNL     1      -3.434   7.433 -33.277  1.00  0.00     0.166 HD
HETATM   11  C   UNL     1      -1.586   5.298 -34.249  1.00  0.00     0.055 C 
HETATM   12  C   UNL     1      -3.135   4.220 -32.632  1.00  0.00     0.279 C 
HETATM   13  O   UNL     1      -2.622   3.121 -32.452  1.00  0.00    -0.268 OA
BRANCH   9  14
HETATM   14  C   UNL     1      -1.523   6.088 -31.822  1.00  0.00    -0.021 A 
HETATM   15  C   UNL     1      -0.133   6.245 -31.999  1.00  0.00     0.010 A 
HETATM   16  C   UNL     1       0.672   6.779 -30.990  1.00  0.00     0.001 A 
HETATM   17  C   UNL     1       0.105   7.177 -29.784  1.00  0.00     0.000 A 
HETATM   18  C   UNL     1      -1.267   7.045 -29.591  1.00  0.00     0.001 A 
HETATM   19  C   UNL     1      -2.075   6.510 -30.600  1.00  0.00     0.010 A 
ENDBRANCH   9  14
ENDBRANCH   1   5
BRANCH   2  20
HETATM   20  C   UNL     1      -7.185   1.991 -32.723  1.00  0.00     0.227 C 
BRANCH  20  21
HETATM   21  N   UNL     1      -6.992   0.710 -33.376  1.00  0.00    -0.348 N 
HETATM   22  C   UNL     1      -5.874  -0.051 -33.108  1.00  0.00     0.252 C 
HETATM   23  O   UNL     1      -4.966   0.378 -32.400  1.00  0.00    -0.268 OA
HETATM   24  H   UNL     1      -7.774   0.334 -33.892  1.00  0.00     0.163 HD
BRANCH  22  25
HETATM   25  C   UNL     1      -5.816  -1.429 -33.684  1.00  0.00     0.033 A 
HETATM   26  C   UNL     1      -4.744  -2.302 -33.461  1.00  0.00     0.036 A 
HETATM   27  C   UNL     1      -4.743  -3.563 -34.064  1.00  0.00     0.012 A 
HETATM   28 BR   UNL     1      -3.281  -4.730 -33.781  1.00  0.00    -0.051 Br
HETATM   29  C   UNL     1      -5.802  -3.971 -34.871  1.00  0.00     0.019 A 
HETATM   30  C   UNL     1      -6.882  -3.115 -35.076  1.00  0.00     0.002 A 
HETATM   31  C   UNL     1      -6.889  -1.849 -34.484  1.00  0.00     0.017 A 
ENDBRANCH  22  25
ENDBRANCH  20  21
ENDBRANCH   2  20
TORSDOF 5
ENDMDL
MODEL 6
REMARK VINA RESULT:      -8.8      3.380      8.557
REMARK  5 active torsions:
REMARK  status: ('A' for Active; 'I' for Inactive)
REMARK    1  A    between atoms: C_2  and  C_3 
REMARK    2  A    between atoms: N_12  and  N_13 
REMARK       I    between atoms: N_13  and  C_14 
REMARK    3  A    between atoms: C_14  and  C_15 
REMARK    4  A    between atoms: C_15  and  N_16 
REMARK       I    between atoms: N_16  and  C_17 
REMARK    5  A    between atoms: C_17  and  C_18 
ROOT
HETATM    1  N   UNL     1      -5.704   3.534 -33.558  1.00  0.00    -0.255 N 
HETATM    2  C   UNL     1      -5.880   4.606 -32.701  1.00  0.00     0.254 C 
HETATM    3  O   UNL     1      -6.508   4.560 -31.646  1.00  0.00    -0.270 OA
HETATM    4  H   UNL     1      -4.816   3.495 -34.070  1.00  0.00     0.191 HD
ENDROOT
BRANCH   1   5
HETATM    5  N   UNL     1      -6.237   2.315 -33.173  1.00  0.00    -0.167 N 
HETATM    6  C   UNL     1      -7.526   1.932 -33.417  1.00  0.00     0.345 C 
HETATM    7  N   UNL     1      -7.692   0.661 -32.904  1.00  0.00    -0.319 N 
HETATM    8  O   UNL     1      -8.409   2.566 -33.973  1.00  0.00    -0.245 OA
HETATM    9  C   UNL     1      -6.439   0.087 -32.441  1.00  0.00     0.141 C 
HETATM   10  H   UNL     1      -8.525   0.133 -33.123  1.00  0.00     0.166 HD
HETATM   11  C   UNL     1      -6.516  -0.267 -30.951  1.00  0.00     0.055 C 
HETATM   12  C   UNL     1      -5.504   1.315 -32.579  1.00  0.00     0.279 C 
HETATM   13  O   UNL     1      -4.335   1.373 -32.214  1.00  0.00    -0.268 OA
BRANCH   9  14
HETATM   14  C   UNL     1      -6.077  -1.107 -33.322  1.00  0.00    -0.021 A 
HETATM   15  C   UNL     1      -4.740  -1.549 -33.395  1.00  0.00     0.010 A 
HETATM   16  C   UNL     1      -4.382  -2.656 -34.168  1.00  0.00     0.001 A 
HETATM   17  C   UNL     1      -5.354  -3.352 -34.878  1.00  0.00     0.000 A 
HETATM   18  C   UNL     1      -6.683  -2.944 -34.811  1.00  0.00     0.001 A 
HETATM   19  C   UNL     1      -7.043  -1.835 -34.038  1.00  0.00     0.010 A 
ENDBRANCH   9  14
ENDBRANCH   1   5
BRANCH   2  20
HETATM   20  C   UNL     1      -5.164   5.869 -33.176  1.00  0.00     0.227 C 
BRANCH  20  21
HETATM   21  N   UNL     1      -4.090   6.248 -32.277  1.00  0.00    -0.348 N 
HETATM   22  C   UNL     1      -2.891   5.569 -32.293  1.00  0.00     0.252 C 
HETATM   23  O   UNL     1      -2.739   4.563 -32.982  1.00  0.00    -0.268 OA
HETATM   24  H   UNL     1      -4.197   7.117 -31.774  1.00  0.00     0.163 HD
BRANCH  22  25
HETATM   25  C   UNL     1      -1.773   6.111 -31.465  1.00  0.00     0.033 A 
HETATM   26  C   UNL     1      -1.960   7.092 -30.483  1.00  0.00     0.036 A 
HETATM   27  C   UNL     1      -0.859   7.579 -29.772  1.00  0.00     0.012 A 
HETATM   28 BR   UNL     1      -1.113   8.922 -28.465  1.00  0.00    -0.051 Br
HETATM   29  C   UNL     1       0.422   7.089 -30.015  1.00  0.00     0.019 A 
HETATM   30  C   UNL     1       0.610   6.096 -30.975  1.00  0.00     0.002 A 
HETATM   31  C   UNL     1      -0.484   5.609 -31.696  1.00  0.00     0.017 A 
ENDBRANCH  22  25
ENDBRANCH  20  21
ENDBRANCH   2  20
TORSDOF 5
ENDMDL
MODEL 7
REMARK VINA RESULT:      -8.6      2.421      3.651
REMARK  5 active torsions:
REMARK  status: ('A' for Active; 'I' for Inactive)
REMARK    1  A    between atoms: C_2  and  C_3 
REMARK    2  A    between atoms: N_12  and  N_13 
REMARK       I    between atoms: N_13  and  C_14 
REMARK    3  A    between atoms: C_14  and  C_15 
REMARK    4  A    between atoms: C_15  and  N_16 
REMARK       I    between atoms: N_16  and  C_17 
REMARK    5  A    between atoms: C_17  and  C_18 
ROOT
HETATM    1  N   UNL     1      -6.025   2.038 -32.991  1.00  0.00    -0.255 N 
HETATM    2  C   UNL     1      -7.149   1.606 -32.310  1.00  0.00     0.254 C 
HETATM    3  O   UNL     1      -7.391   1.858 -31.131  1.00  0.00    -0.270 OA
HETATM    4  H   UNL     1      -6.142   2.243 -33.989  1.00  0.00     0.191 HD
ENDROOT
BRANCH   1   5
HETATM    5  N   UNL     1      -5.135   2.849 -32.304  1.00  0.00    -0.167 N 
HETATM    6  C   UNL     1      -4.052   2.383 -31.613  1.00  0.00     0.345 C 
HETATM    7  N   UNL     1      -3.395   3.472 -31.075  1.00  0.00    -0.319 N 
HETATM    8  O   UNL     1      -3.695   1.226 -31.462  1.00  0.00    -0.245 OA
HETATM    9  C   UNL     1      -3.946   4.733 -31.546  1.00  0.00     0.141 C 
HETATM   10  H   UNL     1      -2.480   3.357 -30.664  1.00  0.00     0.166 HD
HETATM   11  C   UNL     1      -4.449   5.582 -30.372  1.00  0.00     0.055 C 
HETATM   12  C   UNL     1      -5.190   4.222 -32.315  1.00  0.00     0.279 C 
HETATM   13  O   UNL     1      -6.058   4.923 -32.825  1.00  0.00    -0.268 OA
BRANCH   9  14
HETATM   14  C   UNL     1      -2.903   5.450 -32.400  1.00  0.00    -0.021 A 
HETATM   15  C   UNL     1      -2.322   4.790 -33.502  1.00  0.00     0.010 A 
HETATM   16  C   UNL     1      -1.388   5.429 -34.321  1.00  0.00     0.001 A 
HETATM   17  C   UNL     1      -1.020   6.745 -34.062  1.00  0.00     0.000 A 
HETATM   18  C   UNL     1      -1.590   7.421 -32.987  1.00  0.00     0.001 A 
HETATM   19  C   UNL     1      -2.525   6.783 -32.166  1.00  0.00     0.010 A 
ENDBRANCH   9  14
ENDBRANCH   1   5
BRANCH   2  20
HETATM   20  C   UNL     1      -8.108   0.808 -33.191  1.00  0.00     0.227 C 
BRANCH  20  21
HETATM   21  N   UNL     1      -7.659  -0.560 -33.372  1.00  0.00    -0.348 N 
HETATM   22  C   UNL     1      -6.909  -0.910 -34.474  1.00  0.00     0.252 C 
HETATM   23  O   UNL     1      -6.695  -0.108 -35.380  1.00  0.00    -0.268 OA
HETATM   24  H   UNL     1      -7.772  -1.189 -32.590  1.00  0.00     0.163 HD
BRANCH  22  25
HETATM   25  C   UNL     1      -6.339  -2.290 -34.518  1.00  0.00     0.033 A 
HETATM   26  C   UNL     1      -5.177  -2.656 -33.827  1.00  0.00     0.036 A 
HETATM   27  C   UNL     1      -4.683  -3.958 -33.945  1.00  0.00     0.012 A 
HETATM   28 BR   UNL     1      -3.099  -4.441 -33.030  1.00  0.00    -0.051 Br
HETATM   29  C   UNL     1      -5.340  -4.904 -34.728  1.00  0.00     0.019 A 
HETATM   30  C   UNL     1      -6.510  -4.551 -35.399  1.00  0.00     0.002 A 
HETATM   31  C   UNL     1      -7.007  -3.250 -35.293  1.00  0.00     0.017 A 
ENDBRANCH  22  25
ENDBRANCH  20  21
ENDBRANCH   2  20
TORSDOF 5
ENDMDL
MODEL 8
REMARK VINA RESULT:      -8.6      2.426      3.255
REMARK  5 active torsions:
REMARK  status: ('A' for Active; 'I' for Inactive)
REMARK    1  A    between atoms: C_2  and  C_3 
REMARK    2  A    between atoms: N_12  and  N_13 
REMARK       I    between atoms: N_13  and  C_14 
REMARK    3  A    between atoms: C_14  and  C_15 
REMARK    4  A    between atoms: C_15  and  N_16 
REMARK       I    between atoms: N_16  and  C_17 
REMARK    5  A    between atoms: C_17  and  C_18 
ROOT
HETATM    1  N   UNL     1      -6.909   2.737 -32.014  1.00  0.00    -0.255 N 
HETATM    2  C   UNL     1      -8.178   2.694 -31.466  1.00  0.00     0.254 C 
HETATM    3  O   UNL     1      -8.668   3.580 -30.769  1.00  0.00    -0.270 OA
HETATM    4  H   UNL     1      -6.786   2.286 -32.927  1.00  0.00     0.191 HD
ENDROOT
BRANCH   1   5
HETATM    5  N   UNL     1      -6.159   3.882 -31.797  1.00  0.00    -0.167 N 
HETATM    6  C   UNL     1      -5.360   4.078 -30.706  1.00  0.00     0.345 C 
HETATM    7  N   UNL     1      -4.763   5.316 -30.837  1.00  0.00    -0.319 N 
HETATM    8  O   UNL     1      -5.182   3.330 -29.758  1.00  0.00    -0.245 OA
HETATM    9  C   UNL     1      -5.029   5.919 -32.134  1.00  0.00     0.141 C 
HETATM   10  H   UNL     1      -4.011   5.582 -30.218  1.00  0.00     0.166 HD
HETATM   11  C   UNL     1      -5.739   7.269 -31.975  1.00  0.00     0.055 C 
HETATM   12  C   UNL     1      -6.063   4.914 -32.701  1.00  0.00     0.279 C 
HETATM   13  O   UNL     1      -6.681   5.034 -33.753  1.00  0.00    -0.268 OA
BRANCH   9  14
HETATM   14  C   UNL     1      -3.723   6.018 -32.919  1.00  0.00    -0.021 A 
HETATM   15  C   UNL     1      -2.860   7.114 -32.715  1.00  0.00     0.010 A 
HETATM   16  C   UNL     1      -1.644   7.218 -33.395  1.00  0.00     0.001 A 
HETATM   17  C   UNL     1      -1.260   6.224 -34.288  1.00  0.00     0.000 A 
HETATM   18  C   UNL     1      -2.089   5.126 -34.497  1.00  0.00     0.001 A 
HETATM   19  C   UNL     1      -3.306   5.021 -33.817  1.00  0.00     0.010 A 
ENDBRANCH   9  14
ENDBRANCH   1   5
BRANCH   2  20
HETATM   20  C   UNL     1      -8.950   1.435 -31.854  1.00  0.00     0.227 C 
BRANCH  20  21
HETATM   21  N   UNL     1      -8.060   0.350 -32.221  1.00  0.00    -0.348 N 
HETATM   22  C   UNL     1      -7.710   0.146 -33.538  1.00  0.00     0.252 C 
HETATM   23  O   UNL     1      -8.224   0.801 -34.442  1.00  0.00    -0.268 OA
HETATM   24  H   UNL     1      -7.585  -0.130 -31.470  1.00  0.00     0.163 HD
BRANCH  22  25
HETATM   25  C   UNL     1      -6.663  -0.879 -33.830  1.00  0.00     0.033 A 
HETATM   26  C   UNL     1      -6.949  -2.104 -34.445  1.00  0.00     0.036 A 
HETATM   27  C   UNL     1      -5.922  -3.030 -34.652  1.00  0.00     0.012 A 
HETATM   28 BR   UNL     1      -6.317  -4.694 -35.461  1.00  0.00    -0.051 Br
HETATM   29  C   UNL     1      -4.613  -2.744 -34.270  1.00  0.00     0.019 A 
HETATM   30  C   UNL     1      -4.320  -1.517 -33.679  1.00  0.00     0.002 A 
HETATM   31  C   UNL     1      -5.341  -0.588 -33.461  1.00  0.00     0.017 A 
ENDBRANCH  22  25
ENDBRANCH  20  21
ENDBRANCH   2  20
TORSDOF 5
ENDMDL
MODEL 9
REMARK VINA RESULT:      -8.5      1.469      1.902
REMARK  5 active torsions:
REMARK  status: ('A' for Active; 'I' for Inactive)
REMARK    1  A    between atoms: C_2  and  C_3 
REMARK    2  A    between atoms: N_12  and  N_13 
REMARK       I    between atoms: N_13  and  C_14 
REMARK    3  A    between atoms: C_14  and  C_15 
REMARK    4  A    between atoms: C_15  and  N_16 
REMARK       I    between atoms: N_16  and  C_17 
REMARK    5  A    between atoms: C_17  and  C_18 
ROOT
HETATM    1  N   UNL     1      -5.787   3.591 -32.431  1.00  0.00    -0.255 N 
HETATM    2  C   UNL     1      -7.139   3.759 -32.671  1.00  0.00     0.254 C 
HETATM    3  O   UNL     1      -7.815   4.690 -32.238  1.00  0.00    -0.270 OA
HETATM    4  H   UNL     1      -5.236   3.164 -33.183  1.00  0.00     0.191 HD
ENDROOT
BRANCH   1   5
HETATM    5  N   UNL     1      -5.144   4.568 -31.688  1.00  0.00    -0.167 N 
HETATM    6  C   UNL     1      -5.034   4.543 -30.326  1.00  0.00     0.345 C 
HETATM    7  N   UNL     1      -4.324   5.663 -29.941  1.00  0.00    -0.319 N 
HETATM    8  O   UNL     1      -5.473   3.711 -29.548  1.00  0.00    -0.245 OA
HETATM    9  C   UNL     1      -3.788   6.393 -31.079  1.00  0.00     0.141 C 
HETATM   10  H   UNL     1      -3.993   5.749 -28.990  1.00  0.00     0.166 HD
HETATM   11  C   UNL     1      -4.318   7.832 -31.104  1.00  0.00     0.055 C 
HETATM   12  C   UNL     1      -4.468   5.628 -32.243  1.00  0.00     0.279 C 
HETATM   13  O   UNL     1      -4.412   5.929 -33.430  1.00  0.00    -0.268 OA
BRANCH   9  14
HETATM   14  C   UNL     1      -2.264   6.316 -31.054  1.00  0.00    -0.021 A 
HETATM   15  C   UNL     1      -1.518   7.322 -30.406  1.00  0.00     0.010 A 
HETATM   16  C   UNL     1      -0.124   7.263 -30.340  1.00  0.00     0.001 A 
HETATM   17  C   UNL     1       0.556   6.194 -30.912  1.00  0.00     0.000 A 
HETATM   18  C   UNL     1      -0.159   5.182 -31.546  1.00  0.00     0.001 A 
HETATM   19  C   UNL     1      -1.555   5.239 -31.614  1.00  0.00     0.010 A 
ENDBRANCH   9  14
ENDBRANCH   1   5
BRANCH   2  20
HETATM   20  C   UNL     1      -7.719   2.681 -33.584  1.00  0.00     0.227 C 
BRANCH  20  21
HETATM   21  N   UNL     1      -7.007   1.424 -33.452  1.00  0.00    -0.348 N 
HETATM   22  C   UNL     1      -7.085   0.468 -34.442  1.00  0.00     0.252 C 
HETATM   23  O   UNL     1      -7.840   0.605 -35.401  1.00  0.00    -0.268 OA
HETATM   24  H   UNL     1      -6.334   1.354 -32.703  1.00  0.00     0.163 HD
BRANCH  22  25
HETATM   25  C   UNL     1      -6.200  -0.730 -34.323  1.00  0.00     0.033 A 
HETATM   26  C   UNL     1      -6.551  -1.988 -34.827  1.00  0.00     0.036 A 
HETATM   27  C   UNL     1      -5.687  -3.071 -34.645  1.00  0.00     0.012 A 
HETATM   28 BR   UNL     1      -6.177  -4.776 -35.305  1.00  0.00    -0.051 Br
HETATM   29  C   UNL     1      -4.471  -2.914 -33.984  1.00  0.00     0.019 A 
HETATM   30  C   UNL     1      -4.107  -1.658 -33.502  1.00  0.00     0.002 A 
HETATM   31  C   UNL     1      -4.968  -0.570 -33.671  1.00  0.00     0.017 A 
ENDBRANCH  22  25
ENDBRANCH  20  21
ENDBRANCH   2  20
TORSDOF 5
ENDMDL
MODEL 10
REMARK VINA RESULT:      -8.1      4.725      9.596
REMARK  5 active torsions:
REMARK  status: ('A' for Active; 'I' for Inactive)
REMARK    1  A    between atoms: C_2  and  C_3 
REMARK    2  A    between atoms: N_12  and  N_13 
REMARK       I    between atoms: N_13  and  C_14 
REMARK    3  A    between atoms: C_14  and  C_15 
REMARK    4  A    between atoms: C_15  and  N_16 
REMARK       I    between atoms: N_16  and  C_17 
REMARK    5  A    between atoms: C_17  and  C_18 
ROOT
HETATM    1  N   UNL     1      -7.996   2.061 -32.368  1.00  0.00    -0.255 N 
HETATM    2  C   UNL     1      -6.769   2.556 -32.771  1.00  0.00     0.254 C 
HETATM    3  O   UNL     1      -6.527   2.996 -33.893  1.00  0.00    -0.270 OA
HETATM    4  H   UNL     1      -8.255   2.213 -31.388  1.00  0.00     0.191 HD
ENDROOT
BRANCH   1   5
HETATM    5  N   UNL     1      -9.035   2.109 -33.285  1.00  0.00    -0.167 N 
HETATM    6  C   UNL     1      -9.247   1.166 -34.250  1.00  0.00     0.345 C 
HETATM    7  N   UNL     1     -10.372   1.536 -34.961  1.00  0.00    -0.319 N 
HETATM    8  O   UNL     1      -8.586   0.168 -34.488  1.00  0.00    -0.245 OA
HETATM    9  C   UNL     1     -11.049   2.676 -34.363  1.00  0.00     0.141 C 
HETATM   10  H   UNL     1     -10.793   0.889 -35.613  1.00  0.00     0.166 HD
HETATM   11  C   UNL     1     -11.130   3.844 -35.352  1.00  0.00     0.055 C 
HETATM   12  C   UNL     1     -10.023   3.065 -33.269  1.00  0.00     0.279 C 
HETATM   13  O   UNL     1     -10.088   4.048 -32.539  1.00  0.00    -0.268 OA
BRANCH   9  14
HETATM   14  C   UNL     1     -12.415   2.234 -33.844  1.00  0.00    -0.021 A 
HETATM   15  C   UNL     1     -13.116   3.044 -32.926  1.00  0.00     0.010 A 
HETATM   16  C   UNL     1     -14.380   2.682 -32.457  1.00  0.00     0.001 A 
HETATM   17  C   UNL     1     -14.978   1.507 -32.901  1.00  0.00     0.000 A 
HETATM   18  C   UNL     1     -14.312   0.698 -33.817  1.00  0.00     0.001 A 
HETATM   19  C   UNL     1     -13.046   1.059 -34.288  1.00  0.00     0.010 A 
ENDBRANCH   9  14
ENDBRANCH   1   5
BRANCH   2  20
HETATM   20  C   UNL     1      -5.730   2.549 -31.652  1.00  0.00     0.227 C 
BRANCH  20  21
HETATM   21  N   UNL     1      -4.720   3.572 -31.848  1.00  0.00    -0.348 N 
HETATM   22  C   UNL     1      -3.381   3.245 -31.841  1.00  0.00     0.252 C 
HETATM   23  O   UNL     1      -3.004   2.110 -31.561  1.00  0.00    -0.268 OA
HETATM   24  H   UNL     1      -5.039   4.480 -32.153  1.00  0.00     0.163 HD
BRANCH  22  25
HETATM   25  C   UNL     1      -2.403   4.311 -32.214  1.00  0.00     0.033 A 
HETATM   26  C   UNL     1      -1.614   4.982 -31.272  1.00  0.00     0.036 A 
HETATM   27  C   UNL     1      -0.747   5.995 -31.692  1.00  0.00     0.012 A 
HETATM   28 BR   UNL     1       0.299   6.917 -30.413  1.00  0.00    -0.051 Br
HETATM   29  C   UNL     1      -0.644   6.336 -33.038  1.00  0.00     0.019 A 
HETATM   30  C   UNL     1      -1.410   5.654 -33.982  1.00  0.00     0.002 A 
HETATM   31  C   UNL     1      -2.285   4.645 -33.571  1.00  0.00     0.017 A 
ENDBRANCH  22  25
ENDBRANCH  20  21
ENDBRANCH   2  20
TORSDOF 5
ENDMDL
