MODEL 1
REMARK VINA RESULT:      -8.9      0.000      0.000
REMARK  7 active torsions:
REMARK  status: ('A' for Active; 'I' for Inactive)
REMARK    1  A    between atoms: O_2  and  C_3 
REMARK    2  A    between atoms: C_6  and  N_7 
REMARK    3  A    between atoms: N_7  and  C_8 
REMARK    4  A    between atoms: C_8  and  C_9 
REMARK       I    between atoms: C_9  and  N_10 
REMARK    5  A    between atoms: N_10  and  N_11 
REMARK       I    between atoms: N_11  and  C_12 
REMARK    6  A    between atoms: C_12  and  C_13 
REMARK    7  A    between atoms: N_15  and  C_16 
ROOT
HETATM    1  N   UNL     1      -3.609   3.625 -31.660  1.00  0.00    -0.263 N 
HETATM    2  C   UNL     1      -3.384   2.267 -31.532  1.00  0.00     0.273 C 
HETATM    3  O   UNL     1      -2.514   1.814 -30.788  1.00  0.00    -0.266 OA
HETATM    4  H   UNL     1      -4.037   3.985 -32.512  1.00  0.00     0.190 HD
ENDROOT
BRANCH   1   5
HETATM    5  N   UNL     1      -2.688   4.498 -31.045  1.00  0.00    -0.266 N 
HETATM    6  C   UNL     1      -1.654   4.977 -31.833  1.00  0.00     0.253 C 
HETATM    7  O   UNL     1      -1.597   4.768 -33.047  1.00  0.00    -0.270 OA
HETATM    8  H   UNL     1      -2.545   4.346 -30.047  1.00  0.00     0.190 HD
BRANCH   6   9
HETATM    9  C   UNL     1      -0.611   5.794 -31.061  1.00  0.00     0.224 C 
BRANCH   9  10
HETATM   10  N   UNL     1      -1.064   5.992 -29.686  1.00  0.00    -0.381 N 
HETATM   11  H   UNL     1      -2.068   6.161 -29.630  1.00  0.00     0.160 HD
BRANCH  10  12
HETATM   12  C   UNL     1      -0.309   6.698 -28.759  1.00  0.00     0.028 A 
HETATM   13  C   UNL     1      -0.284   6.244 -27.433  1.00  0.00     0.032 A 
HETATM   14  C   UNL     1       0.547   6.827 -26.466  1.00  0.00     0.039 A 
HETATM   15  C   UNL     1       1.399   7.870 -26.819  1.00  0.00     0.068 A 
HETATM   16  C   UNL     1       1.390   8.329 -28.135  1.00  0.00     0.039 A 
HETATM   17  C   UNL     1       0.557   7.742 -29.096  1.00  0.00     0.032 A 
BRANCH  15  18
HETATM   18  O   UNL     1       2.276   8.509 -25.989  1.00  0.00    -0.356 OA
HETATM   19  C   UNL     1       1.720   9.155 -24.851  1.00  0.00     0.210 C 
ENDBRANCH  15  18
ENDBRANCH  10  12
ENDBRANCH   9  10
ENDBRANCH   6   9
ENDBRANCH   1   5
BRANCH   2  20
HETATM   20  C   UNL     1      -4.243   1.425 -32.339  1.00  0.00     0.070 A 
HETATM   21  C   UNL     1      -4.073   0.073 -32.566  1.00  0.00     0.137 A 
HETATM   22  N   UNL     1      -5.116  -0.354 -33.356  1.00  0.00    -0.244 N 
HETATM   23  N   UNL     1      -5.963   0.668 -33.638  1.00  0.00    -0.179 NA
HETATM   24  C   UNL     1      -5.430   1.729 -33.032  1.00  0.00     0.157 A 
BRANCH  22  25
HETATM   25  C   UNL     1      -5.362  -1.662 -33.856  1.00  0.00     0.059 A 
HETATM   26  C   UNL     1      -4.355  -2.638 -33.751  1.00  0.00     0.055 A 
HETATM   27  C   UNL     1      -4.580  -3.922 -34.244  1.00  0.00     0.036 A 
HETATM   28 CL   UNL     1      -3.339  -5.109 -34.132  1.00  0.00    -0.084 Cl
HETATM   29  C   UNL     1      -5.799  -4.253 -34.831  1.00  0.00     0.024 A 
HETATM   30  C   UNL     1      -6.803  -3.291 -34.930  1.00  0.00     0.004 A 
HETATM   31  C   UNL     1      -6.588  -1.997 -34.449  1.00  0.00     0.031 A 
ENDBRANCH  22  25
ENDBRANCH   2  20
TORSDOF 7
ENDMDL
MODEL 2
REMARK VINA RESULT:      -8.8      1.838      2.582
REMARK  7 active torsions:
REMARK  status: ('A' for Active; 'I' for Inactive)
REMARK    1  A    between atoms: O_2  and  C_3 
REMARK    2  A    between atoms: C_6  and  N_7 
REMARK    3  A    between atoms: N_7  and  C_8 
REMARK    4  A    between atoms: C_8  and  C_9 
REMARK       I    between atoms: C_9  and  N_10 
REMARK    5  A    between atoms: N_10  and  N_11 
REMARK       I    between atoms: N_11  and  C_12 
REMARK    6  A    between atoms: C_12  and  C_13 
REMARK    7  A    between atoms: N_15  and  C_16 
ROOT
HETATM    1  N   UNL     1      -3.788   3.764 -33.031  1.00  0.00    -0.263 N 
HETATM    2  C   UNL     1      -3.455   2.727 -32.179  1.00  0.00     0.273 C 
HETATM    3  O   UNL     1      -2.633   2.861 -31.273  1.00  0.00    -0.266 OA
HETATM    4  H   UNL     1      -4.153   3.555 -33.959  1.00  0.00     0.190 HD
ENDROOT
BRANCH   1   5
HETATM    5  N   UNL     1      -3.023   4.946 -32.947  1.00  0.00    -0.266 N 
HETATM    6  C   UNL     1      -3.079   5.808 -34.030  1.00  0.00     0.253 C 
HETATM    7  O   UNL     1      -3.853   5.635 -34.973  1.00  0.00    -0.270 OA
HETATM    8  H   UNL     1      -2.171   4.873 -32.392  1.00  0.00     0.190 HD
BRANCH   6   9
HETATM    9  C   UNL     1      -2.107   6.991 -33.934  1.00  0.00     0.224 C 
BRANCH   9  10
HETATM   10  N   UNL     1      -0.922   6.590 -33.179  1.00  0.00    -0.381 N 
HETATM   11  H   UNL     1      -0.689   5.607 -33.319  1.00  0.00     0.160 HD
BRANCH  10  12
HETATM   12  C   UNL     1      -0.673   7.065 -31.898  1.00  0.00     0.028 A 
HETATM   13  C   UNL     1      -1.632   7.889 -31.294  1.00  0.00     0.032 A 
HETATM   14  C   UNL     1      -1.514   8.309 -29.962  1.00  0.00     0.039 A 
HETATM   15  C   UNL     1      -0.434   7.884 -29.192  1.00  0.00     0.068 A 
HETATM   16  C   UNL     1       0.525   7.059 -29.777  1.00  0.00     0.039 A 
HETATM   17  C   UNL     1       0.401   6.644 -31.109  1.00  0.00     0.032 A 
BRANCH  15  18
HETATM   18  O   UNL     1      -0.210   8.193 -27.880  1.00  0.00    -0.356 OA
HETATM   19  C   UNL     1       1.097   7.939 -27.381  1.00  0.00     0.210 C 
ENDBRANCH  15  18
ENDBRANCH  10  12
ENDBRANCH   9  10
ENDBRANCH   6   9
ENDBRANCH   1   5
BRANCH   2  20
HETATM   20  C   UNL     1      -4.141   1.478 -32.438  1.00  0.00     0.070 A 
HETATM   21  C   UNL     1      -3.542   0.273 -32.752  1.00  0.00     0.137 A 
HETATM   22  N   UNL     1      -4.538  -0.667 -32.891  1.00  0.00    -0.244 N 
HETATM   23  N   UNL     1      -5.759  -0.119 -32.666  1.00  0.00    -0.179 NA
HETATM   24  C   UNL     1      -5.512   1.164 -32.402  1.00  0.00     0.157 A 
BRANCH  22  25
HETATM   25  C   UNL     1      -4.407  -2.044 -33.220  1.00  0.00     0.059 A 
HETATM   26  C   UNL     1      -5.246  -2.600 -34.200  1.00  0.00     0.055 A 
HETATM   27  C   UNL     1      -5.133  -3.950 -34.526  1.00  0.00     0.036 A 
HETATM   28 CL   UNL     1      -6.175  -4.633 -35.714  1.00  0.00    -0.084 Cl
HETATM   29  C   UNL     1      -4.187  -4.755 -33.896  1.00  0.00     0.024 A 
HETATM   30  C   UNL     1      -3.346  -4.206 -32.927  1.00  0.00     0.004 A 
HETATM   31  C   UNL     1      -3.456  -2.856 -32.584  1.00  0.00     0.031 A 
ENDBRANCH  22  25
ENDBRANCH   2  20
TORSDOF 7
ENDMDL
MODEL 3
REMARK VINA RESULT:      -8.7      1.685      2.445
REMARK  7 active torsions:
REMARK  status: ('A' for Active; 'I' for Inactive)
REMARK    1  A    between atoms: O_2  and  C_3 
REMARK    2  A    between atoms: C_6  and  N_7 
REMARK    3  A    between atoms: N_7  and  C_8 
REMARK    4  A    between atoms: C_8  and  C_9 
REMARK       I    between atoms: C_9  and  N_10 
REMARK    5  A    between atoms: N_10  and  N_11 
REMARK       I    between atoms: N_11  and  C_12 
REMARK    6  A    between atoms: C_12  and  C_13 
REMARK    7  A    between atoms: N_15  and  C_16 
ROOT
HETATM    1  N   UNL     1      -4.637   3.859 -33.236  1.00  0.00    -0.263 N 
HETATM    2  C   UNL     1      -4.425   2.722 -32.478  1.00  0.00     0.273 C 
HETATM    3  O   UNL     1      -3.626   2.698 -31.542  1.00  0.00    -0.266 OA
HETATM    4  H   UNL     1      -4.986   3.770 -34.189  1.00  0.00     0.190 HD
ENDROOT
BRANCH   1   5
HETATM    5  N   UNL     1      -3.776   4.955 -33.020  1.00  0.00    -0.266 N 
HETATM    6  C   UNL     1      -3.380   5.672 -34.136  1.00  0.00     0.253 C 
HETATM    7  O   UNL     1      -3.848   5.462 -35.257  1.00  0.00    -0.270 OA
HETATM    8  H   UNL     1      -3.151   4.865 -32.219  1.00  0.00     0.190 HD
BRANCH   6   9
HETATM    9  C   UNL     1      -2.328   6.749 -33.843  1.00  0.00     0.224 C 
BRANCH   9  10
HETATM   10  N   UNL     1      -1.096   6.116 -33.376  1.00  0.00    -0.381 N 
HETATM   11  H   UNL     1      -0.941   5.206 -33.809  1.00  0.00     0.160 HD
BRANCH  10  12
HETATM   12  C   UNL     1      -0.684   6.202 -32.053  1.00  0.00     0.028 A 
HETATM   13  C   UNL     1      -1.085   7.313 -31.299  1.00  0.00     0.032 A 
HETATM   14  C   UNL     1      -0.813   7.415 -29.928  1.00  0.00     0.039 A 
HETATM   15  C   UNL     1      -0.152   6.381 -29.271  1.00  0.00     0.068 A 
HETATM   16  C   UNL     1       0.249   5.266 -30.006  1.00  0.00     0.039 A 
HETATM   17  C   UNL     1      -0.025   5.172 -31.376  1.00  0.00     0.032 A 
BRANCH  15  18
HETATM   18  O   UNL     1       0.152   6.337 -27.940  1.00  0.00    -0.356 OA
HETATM   19  C   UNL     1       1.072   7.311 -27.464  1.00  0.00     0.210 C 
ENDBRANCH  15  18
ENDBRANCH  10  12
ENDBRANCH   9  10
ENDBRANCH   6   9
ENDBRANCH   1   5
BRANCH   2  20
HETATM   20  C   UNL     1      -5.207   1.569 -32.874  1.00  0.00     0.070 A 
HETATM   21  C   UNL     1      -4.704   0.336 -33.244  1.00  0.00     0.137 A 
HETATM   22  N   UNL     1      -5.773  -0.489 -33.514  1.00  0.00    -0.244 N 
HETATM   23  N   UNL     1      -6.949   0.160 -33.320  1.00  0.00    -0.179 NA
HETATM   24  C   UNL     1      -6.600   1.390 -32.944  1.00  0.00     0.157 A 
BRANCH  22  25
HETATM   25  C   UNL     1      -5.750  -1.845 -33.940  1.00  0.00     0.059 A 
HETATM   26  C   UNL     1      -4.588  -2.609 -33.738  1.00  0.00     0.055 A 
HETATM   27  C   UNL     1      -4.549  -3.938 -34.158  1.00  0.00     0.036 A 
HETATM   28 CL   UNL     1      -3.118  -4.866 -33.927  1.00  0.00    -0.084 Cl
HETATM   29  C   UNL     1      -5.658  -4.521 -34.767  1.00  0.00     0.024 A 
HETATM   30  C   UNL     1      -6.816  -3.770 -34.962  1.00  0.00     0.004 A 
HETATM   31  C   UNL     1      -6.865  -2.433 -34.555  1.00  0.00     0.031 A 
ENDBRANCH  22  25
ENDBRANCH   2  20
TORSDOF 7
ENDMDL
MODEL 4
REMARK VINA RESULT:      -8.5      4.355     10.945
REMARK  7 active torsions:
REMARK  status: ('A' for Active; 'I' for Inactive)
REMARK    1  A    between atoms: O_2  and  C_3 
REMARK    2  A    between atoms: C_6  and  N_7 
REMARK    3  A    between atoms: N_7  and  C_8 
REMARK    4  A    between atoms: C_8  and  C_9 
REMARK       I    between atoms: C_9  and  N_10 
REMARK    5  A    between atoms: N_10  and  N_11 
REMARK       I    between atoms: N_11  and  C_12 
REMARK    6  A    between atoms: C_12  and  C_13 
REMARK    7  A    between atoms: N_15  and  C_16 
ROOT
HETATM    1  N   UNL     1      -4.939   4.943 -33.527  1.00  0.00    -0.263 N 
HETATM    2  C   UNL     1      -3.955   5.470 -34.344  1.00  0.00     0.273 C 
HETATM    3  O   UNL     1      -3.938   5.274 -35.559  1.00  0.00    -0.266 OA
HETATM    4  H   UNL     1      -4.744   4.793 -32.539  1.00  0.00     0.190 HD
ENDROOT
BRANCH   1   5
HETATM    5  N   UNL     1      -5.834   4.017 -34.101  1.00  0.00    -0.266 N 
HETATM    6  C   UNL     1      -6.188   2.923 -33.328  1.00  0.00     0.253 C 
HETATM    7  O   UNL     1      -5.852   2.813 -32.147  1.00  0.00    -0.270 OA
HETATM    8  H   UNL     1      -5.781   3.932 -35.116  1.00  0.00     0.190 HD
BRANCH   6   9
HETATM    9  C   UNL     1      -7.039   1.886 -34.071  1.00  0.00     0.224 C 
BRANCH   9  10
HETATM   10  N   UNL     1      -7.057   0.635 -33.316  1.00  0.00    -0.381 N 
HETATM   11  H   UNL     1      -7.072   0.793 -32.308  1.00  0.00     0.160 HD
BRANCH  10  12
HETATM   12  C   UNL     1      -6.322  -0.474 -33.714  1.00  0.00     0.028 A 
HETATM   13  C   UNL     1      -5.034  -0.643 -33.189  1.00  0.00     0.032 A 
HETATM   14  C   UNL     1      -4.276  -1.794 -33.445  1.00  0.00     0.039 A 
HETATM   15  C   UNL     1      -4.811  -2.822 -34.217  1.00  0.00     0.068 A 
HETATM   16  C   UNL     1      -6.094  -2.671 -34.741  1.00  0.00     0.039 A 
HETATM   17  C   UNL     1      -6.845  -1.517 -34.482  1.00  0.00     0.032 A 
BRANCH  15  18
HETATM   18  O   UNL     1      -4.197  -4.004 -34.521  1.00  0.00    -0.356 OA
HETATM   19  C   UNL     1      -3.493  -4.645 -33.465  1.00  0.00     0.210 C 
ENDBRANCH  15  18
ENDBRANCH  10  12
ENDBRANCH   9  10
ENDBRANCH   6   9
ENDBRANCH   1   5
BRANCH   2  20
HETATM   20  C   UNL     1      -2.952   6.261 -33.662  1.00  0.00     0.070 A 
HETATM   21  C   UNL     1      -2.750   6.311 -32.296  1.00  0.00     0.137 A 
HETATM   22  N   UNL     1      -1.686   7.152 -32.060  1.00  0.00    -0.244 N 
HETATM   23  N   UNL     1      -1.183   7.638 -33.223  1.00  0.00    -0.179 NA
HETATM   24  C   UNL     1      -1.950   7.105 -34.174  1.00  0.00     0.157 A 
BRANCH  22  25
HETATM   25  C   UNL     1      -1.117   7.520 -30.810  1.00  0.00     0.059 A 
HETATM   26  C   UNL     1      -1.774   8.470 -30.009  1.00  0.00     0.055 A 
HETATM   27  C   UNL     1      -1.224   8.846 -28.785  1.00  0.00     0.036 A 
HETATM   28 CL   UNL     1      -2.021  10.023 -27.815  1.00  0.00    -0.084 Cl
HETATM   29  C   UNL     1      -0.032   8.280 -28.340  1.00  0.00     0.024 A 
HETATM   30  C   UNL     1       0.620   7.331 -29.127  1.00  0.00     0.004 A 
HETATM   31  C   UNL     1       0.084   6.952 -30.362  1.00  0.00     0.031 A 
ENDBRANCH  22  25
ENDBRANCH   2  20
TORSDOF 7
ENDMDL
MODEL 5
REMARK VINA RESULT:      -8.2      3.941     11.340
REMARK  7 active torsions:
REMARK  status: ('A' for Active; 'I' for Inactive)
REMARK    1  A    between atoms: O_2  and  C_3 
REMARK    2  A    between atoms: C_6  and  N_7 
REMARK    3  A    between atoms: N_7  and  C_8 
REMARK    4  A    between atoms: C_8  and  C_9 
REMARK       I    between atoms: C_9  and  N_10 
REMARK    5  A    between atoms: N_10  and  N_11 
REMARK       I    between atoms: N_11  and  C_12 
REMARK    6  A    between atoms: C_12  and  C_13 
REMARK    7  A    between atoms: N_15  and  C_16 
ROOT
HETATM    1  N   UNL     1      -3.478   3.889 -31.069  1.00  0.00    -0.263 N 
HETATM    2  C   UNL     1      -2.537   4.354 -31.969  1.00  0.00     0.273 C 
HETATM    3  O   UNL     1      -2.455   3.917 -33.116  1.00  0.00    -0.266 OA
HETATM    4  H   UNL     1      -3.301   3.970 -30.069  1.00  0.00     0.190 HD
ENDROOT
BRANCH   1   5
HETATM    5  N   UNL     1      -4.236   2.761 -31.446  1.00  0.00    -0.266 N 
HETATM    6  C   UNL     1      -5.594   2.954 -31.643  1.00  0.00     0.253 C 
HETATM    7  O   UNL     1      -6.111   4.073 -31.623  1.00  0.00    -0.270 OA
HETATM    8  H   UNL     1      -3.890   1.868 -31.097  1.00  0.00     0.190 HD
BRANCH   6   9
HETATM    9  C   UNL     1      -6.375   1.660 -31.900  1.00  0.00     0.224 C 
BRANCH   9  10
HETATM   10  N   UNL     1      -6.335   1.339 -33.325  1.00  0.00    -0.381 N 
HETATM   11  H   UNL     1      -7.058   1.829 -33.852  1.00  0.00     0.160 HD
BRANCH  10  12
HETATM   12  C   UNL     1      -6.062   0.056 -33.781  1.00  0.00     0.028 A 
HETATM   13  C   UNL     1      -4.822  -0.515 -33.461  1.00  0.00     0.032 A 
HETATM   14  C   UNL     1      -4.516  -1.845 -33.779  1.00  0.00     0.039 A 
HETATM   15  C   UNL     1      -5.467  -2.648 -34.403  1.00  0.00     0.068 A 
HETATM   16  C   UNL     1      -6.707  -2.097 -34.721  1.00  0.00     0.039 A 
HETATM   17  C   UNL     1      -7.005  -0.766 -34.402  1.00  0.00     0.032 A 
BRANCH  15  18
HETATM   18  O   UNL     1      -5.313  -3.962 -34.742  1.00  0.00    -0.356 OA
HETATM   19  C   UNL     1      -6.431  -4.596 -35.352  1.00  0.00     0.210 C 
ENDBRANCH  15  18
ENDBRANCH  10  12
ENDBRANCH   9  10
ENDBRANCH   6   9
ENDBRANCH   1   5
BRANCH   2  20
HETATM   20  C   UNL     1      -1.659   5.386 -31.456  1.00  0.00     0.070 A 
HETATM   21  C   UNL     1      -1.866   6.133 -30.312  1.00  0.00     0.137 A 
HETATM   22  N   UNL     1      -0.790   6.978 -30.163  1.00  0.00    -0.244 N 
HETATM   23  N   UNL     1       0.113   6.797 -31.160  1.00  0.00    -0.179 NA
HETATM   24  C   UNL     1      -0.418   5.849 -31.931  1.00  0.00     0.157 A 
BRANCH  22  25
HETATM   25  C   UNL     1      -0.563   7.939 -29.140  1.00  0.00     0.059 A 
HETATM   26  C   UNL     1       0.586   7.830 -28.337  1.00  0.00     0.055 A 
HETATM   27  C   UNL     1       0.816   8.761 -27.326  1.00  0.00     0.036 A 
HETATM   28 CL   UNL     1       2.215   8.615 -26.333  1.00  0.00    -0.084 Cl
HETATM   29  C   UNL     1      -0.077   9.807 -27.108  1.00  0.00     0.024 A 
HETATM   30  C   UNL     1      -1.215   9.924 -27.905  1.00  0.00     0.004 A 
HETATM   31  C   UNL     1      -1.463   8.992 -28.918  1.00  0.00     0.031 A 
ENDBRANCH  22  25
ENDBRANCH   2  20
TORSDOF 7
ENDMDL
MODEL 6
REMARK VINA RESULT:      -8.1      1.584      1.988
REMARK  7 active torsions:
REMARK  status: ('A' for Active; 'I' for Inactive)
REMARK    1  A    between atoms: O_2  and  C_3 
REMARK    2  A    between atoms: C_6  and  N_7 
REMARK    3  A    between atoms: N_7  and  C_8 
REMARK    4  A    between atoms: C_8  and  C_9 
REMARK       I    between atoms: C_9  and  N_10 
REMARK    5  A    between atoms: N_10  and  N_11 
REMARK       I    between atoms: N_11  and  C_12 
REMARK    6  A    between atoms: C_12  and  C_13 
REMARK    7  A    between atoms: N_15  and  C_16 
ROOT
HETATM    1  N   UNL     1      -4.310   3.465 -33.212  1.00  0.00    -0.263 N 
HETATM    2  C   UNL     1      -4.862   2.543 -32.341  1.00  0.00     0.273 C 
HETATM    3  O   UNL     1      -4.798   2.675 -31.119  1.00  0.00    -0.266 OA
HETATM    4  H   UNL     1      -4.043   3.173 -34.151  1.00  0.00     0.190 HD
ENDROOT
BRANCH   1   5
HETATM    5  N   UNL     1      -3.506   4.482 -32.657  1.00  0.00    -0.266 N 
HETATM    6  C   UNL     1      -3.821   5.788 -32.999  1.00  0.00     0.253 C 
HETATM    7  O   UNL     1      -4.828   6.076 -33.649  1.00  0.00    -0.270 OA
HETATM    8  H   UNL     1      -2.539   4.220 -32.471  1.00  0.00     0.190 HD
BRANCH   6   9
HETATM    9  C   UNL     1      -2.815   6.825 -32.484  1.00  0.00     0.224 C 
BRANCH   9  10
HETATM   10  N   UNL     1      -2.976   6.989 -31.041  1.00  0.00    -0.381 N 
HETATM   11  H   UNL     1      -3.828   7.497 -30.803  1.00  0.00     0.160 HD
BRANCH  10  12
HETATM   12  C   UNL     1      -1.898   7.252 -30.207  1.00  0.00     0.028 A 
HETATM   13  C   UNL     1      -0.656   6.682 -30.523  1.00  0.00     0.032 A 
HETATM   14  C   UNL     1       0.505   6.995 -29.803  1.00  0.00     0.039 A 
HETATM   15  C   UNL     1       0.452   7.916 -28.761  1.00  0.00     0.068 A 
HETATM   16  C   UNL     1      -0.774   8.497 -28.440  1.00  0.00     0.039 A 
HETATM   17  C   UNL     1      -1.932   8.179 -29.162  1.00  0.00     0.032 A 
BRANCH  15  18
HETATM   18  O   UNL     1       1.507   8.332 -27.999  1.00  0.00    -0.356 OA
HETATM   19  C   UNL     1       1.589   7.799 -26.683  1.00  0.00     0.210 C 
ENDBRANCH  15  18
ENDBRANCH  10  12
ENDBRANCH   9  10
ENDBRANCH   6   9
ENDBRANCH   1   5
BRANCH   2  20
HETATM   20  C   UNL     1      -5.514   1.416 -32.977  1.00  0.00     0.070 A 
HETATM   21  C   UNL     1      -4.988   0.146 -33.112  1.00  0.00     0.137 A 
HETATM   22  N   UNL     1      -5.930  -0.634 -33.743  1.00  0.00    -0.244 N 
HETATM   23  N   UNL     1      -7.053   0.081 -34.010  1.00  0.00    -0.179 NA
HETATM   24  C   UNL     1      -6.792   1.306 -33.554  1.00  0.00     0.157 A 
BRANCH  22  25
HETATM   25  C   UNL     1      -5.837  -2.005 -34.105  1.00  0.00     0.059 A 
HETATM   26  C   UNL     1      -4.636  -2.697 -33.873  1.00  0.00     0.055 A 
HETATM   27  C   UNL     1      -4.528  -4.040 -34.230  1.00  0.00     0.036 A 
HETATM   28 CL   UNL     1      -3.050  -4.880 -33.961  1.00  0.00    -0.084 Cl
HETATM   29  C   UNL     1      -5.605  -4.709 -34.807  1.00  0.00     0.024 A 
HETATM   30  C   UNL     1      -6.801  -4.029 -35.033  1.00  0.00     0.004 A 
HETATM   31  C   UNL     1      -6.920  -2.679 -34.688  1.00  0.00     0.031 A 
ENDBRANCH  22  25
ENDBRANCH   2  20
TORSDOF 7
ENDMDL
MODEL 7
REMARK VINA RESULT:      -7.9      6.291      9.816
REMARK  7 active torsions:
REMARK  status: ('A' for Active; 'I' for Inactive)
REMARK    1  A    between atoms: O_2  and  C_3 
REMARK    2  A    between atoms: C_6  and  N_7 
REMARK    3  A    between atoms: N_7  and  C_8 
REMARK    4  A    between atoms: C_8  and  C_9 
REMARK       I    between atoms: C_9  and  N_10 
REMARK    5  A    between atoms: N_10  and  N_11 
REMARK       I    between atoms: N_11  and  C_12 
REMARK    6  A    between atoms: C_12  and  C_13 
REMARK    7  A    between atoms: N_15  and  C_16 
ROOT
HETATM    1  N   UNL     1      -7.653   3.142 -32.266  1.00  0.00    -0.263 N 
HETATM    2  C   UNL     1      -6.725   2.962 -33.275  1.00  0.00     0.273 C 
HETATM    3  O   UNL     1      -6.497   3.829 -34.118  1.00  0.00    -0.266 OA
HETATM    4  H   UNL     1      -8.091   2.330 -31.835  1.00  0.00     0.190 HD
ENDROOT
BRANCH   1   5
HETATM    5  N   UNL     1      -8.471   4.290 -32.332  1.00  0.00    -0.266 N 
HETATM    6  C   UNL     1      -9.578   4.320 -31.500  1.00  0.00     0.253 C 
HETATM    7  O   UNL     1      -9.785   3.458 -30.644  1.00  0.00    -0.270 OA
HETATM    8  H   UNL     1      -8.498   4.753 -33.240  1.00  0.00     0.190 HD
BRANCH   6   9
HETATM    9  C   UNL     1     -10.499   5.524 -31.735  1.00  0.00     0.224 C 
BRANCH   9  10
HETATM   10  N   UNL     1     -11.078   5.443 -33.074  1.00  0.00    -0.381 N 
HETATM   11  H   UNL     1     -11.507   6.322 -33.363  1.00  0.00     0.160 HD
BRANCH  10  12
HETATM   12  C   UNL     1     -11.739   4.306 -33.521  1.00  0.00     0.028 A 
HETATM   13  C   UNL     1     -12.826   3.830 -32.774  1.00  0.00     0.032 A 
HETATM   14  C   UNL     1     -13.619   2.764 -33.220  1.00  0.00     0.039 A 
HETATM   15  C   UNL     1     -13.354   2.165 -34.448  1.00  0.00     0.068 A 
HETATM   16  C   UNL     1     -12.280   2.631 -35.205  1.00  0.00     0.039 A 
HETATM   17  C   UNL     1     -11.491   3.697 -34.753  1.00  0.00     0.032 A 
BRANCH  15  18
HETATM   18  O   UNL     1     -14.059   1.141 -35.013  1.00  0.00    -0.356 OA
HETATM   19  C   UNL     1     -15.222   0.710 -34.319  1.00  0.00     0.210 C 
ENDBRANCH  15  18
ENDBRANCH  10  12
ENDBRANCH   9  10
ENDBRANCH   6   9
ENDBRANCH   1   5
BRANCH   2  20
HETATM   20  C   UNL     1      -6.051   1.680 -33.265  1.00  0.00     0.070 A 
HETATM   21  C   UNL     1      -6.524   0.511 -33.828  1.00  0.00     0.137 A 
HETATM   22  N   UNL     1      -5.575  -0.466 -33.626  1.00  0.00    -0.244 N 
HETATM   23  N   UNL     1      -4.499   0.031 -32.965  1.00  0.00    -0.179 NA
HETATM   24  C   UNL     1      -4.795   1.312 -32.748  1.00  0.00     0.157 A 
BRANCH  22  25
HETATM   25  C   UNL     1      -5.622  -1.832 -34.020  1.00  0.00     0.059 A 
HETATM   26  C   UNL     1      -4.490  -2.641 -33.827  1.00  0.00     0.055 A 
HETATM   27  C   UNL     1      -4.520  -3.980 -34.216  1.00  0.00     0.036 A 
HETATM   28 CL   UNL     1      -3.126  -4.965 -33.996  1.00  0.00    -0.084 Cl
HETATM   29  C   UNL     1      -5.667  -4.527 -34.785  1.00  0.00     0.024 A 
HETATM   30  C   UNL     1      -6.796  -3.730 -34.972  1.00  0.00     0.004 A 
HETATM   31  C   UNL     1      -6.776  -2.383 -34.595  1.00  0.00     0.031 A 
ENDBRANCH  22  25
ENDBRANCH   2  20
TORSDOF 7
ENDMDL
MODEL 8
REMARK VINA RESULT:      -7.8      7.711     11.701
REMARK  7 active torsions:
REMARK  status: ('A' for Active; 'I' for Inactive)
REMARK    1  A    between atoms: O_2  and  C_3 
REMARK    2  A    between atoms: C_6  and  N_7 
REMARK    3  A    between atoms: N_7  and  C_8 
REMARK    4  A    between atoms: C_8  and  C_9 
REMARK       I    between atoms: C_9  and  N_10 
REMARK    5  A    between atoms: N_10  and  N_11 
REMARK       I    between atoms: N_11  and  C_12 
REMARK    6  A    between atoms: C_12  and  C_13 
REMARK    7  A    between atoms: N_15  and  C_16 
ROOT
HETATM    1  N   UNL     1     -10.890   0.798 -32.993  1.00  0.00    -0.263 N 
HETATM    2  C   UNL     1      -9.842   1.697 -32.923  1.00  0.00     0.273 C 
HETATM    3  O   UNL     1     -10.017   2.913 -32.991  1.00  0.00    -0.266 OA
HETATM    4  H   UNL     1     -10.715  -0.155 -33.308  1.00  0.00     0.190 HD
ENDROOT
BRANCH   1   5
HETATM    5  N   UNL     1     -12.163   1.307 -33.325  1.00  0.00    -0.266 N 
HETATM    6  C   UNL     1     -13.176   0.383 -33.525  1.00  0.00     0.253 C 
HETATM    7  O   UNL     1     -13.027  -0.820 -33.301  1.00  0.00    -0.270 OA
HETATM    8  H   UNL     1     -12.158   2.184 -33.844  1.00  0.00     0.190 HD
BRANCH   6   9
HETATM    9  C   UNL     1     -14.487   0.999 -34.030  1.00  0.00     0.224 C 
BRANCH   9  10
HETATM   10  N   UNL     1     -15.438   1.101 -32.925  1.00  0.00    -0.381 N 
HETATM   11  H   UNL     1     -16.187   0.412 -32.995  1.00  0.00     0.160 HD
BRANCH  10  12
HETATM   12  C   UNL     1     -15.831   2.328 -32.407  1.00  0.00     0.028 A 
HETATM   13  C   UNL     1     -14.867   3.336 -32.275  1.00  0.00     0.032 A 
HETATM   14  C   UNL     1     -15.205   4.636 -31.875  1.00  0.00     0.039 A 
HETATM   15  C   UNL     1     -16.535   4.963 -31.625  1.00  0.00     0.068 A 
HETATM   16  C   UNL     1     -17.507   3.973 -31.759  1.00  0.00     0.039 A 
HETATM   17  C   UNL     1     -17.162   2.675 -32.158  1.00  0.00     0.032 A 
BRANCH  15  18
HETATM   18  O   UNL     1     -17.007   6.191 -31.258  1.00  0.00    -0.356 OA
HETATM   19  C   UNL     1     -17.652   6.273 -29.993  1.00  0.00     0.210 C 
ENDBRANCH  15  18
ENDBRANCH  10  12
ENDBRANCH   9  10
ENDBRANCH   6   9
ENDBRANCH   1   5
BRANCH   2  20
HETATM   20  C   UNL     1      -8.532   1.098 -32.771  1.00  0.00     0.070 A 
HETATM   21  C   UNL     1      -8.078  -0.036 -33.417  1.00  0.00     0.137 A 
HETATM   22  N   UNL     1      -6.778  -0.252 -33.022  1.00  0.00    -0.244 N 
HETATM   23  N   UNL     1      -6.367   0.708 -32.154  1.00  0.00    -0.179 NA
HETATM   24  C   UNL     1      -7.424   1.506 -32.006  1.00  0.00     0.157 A 
BRANCH  22  25
HETATM   25  C   UNL     1      -5.903  -1.302 -33.413  1.00  0.00     0.059 A 
HETATM   26  C   UNL     1      -4.845  -1.668 -32.564  1.00  0.00     0.055 A 
HETATM   27  C   UNL     1      -3.975  -2.690 -32.940  1.00  0.00     0.036 A 
HETATM   28 CL   UNL     1      -2.668  -3.124 -31.907  1.00  0.00    -0.084 Cl
HETATM   29  C   UNL     1      -4.151  -3.363 -34.147  1.00  0.00     0.024 A 
HETATM   30  C   UNL     1      -5.205  -3.009 -34.989  1.00  0.00     0.004 A 
HETATM   31  C   UNL     1      -6.078  -1.979 -34.629  1.00  0.00     0.031 A 
ENDBRANCH  22  25
ENDBRANCH   2  20
TORSDOF 7
ENDMDL
MODEL 9
REMARK VINA RESULT:      -7.7      4.334      5.366
REMARK  7 active torsions:
REMARK  status: ('A' for Active; 'I' for Inactive)
REMARK    1  A    between atoms: O_2  and  C_3 
REMARK    2  A    between atoms: C_6  and  N_7 
REMARK    3  A    between atoms: N_7  and  C_8 
REMARK    4  A    between atoms: C_8  and  C_9 
REMARK       I    between atoms: C_9  and  N_10 
REMARK    5  A    between atoms: N_10  and  N_11 
REMARK       I    between atoms: N_11  and  C_12 
REMARK    6  A    between atoms: C_12  and  C_13 
REMARK    7  A    between atoms: N_15  and  C_16 
ROOT
HETATM    1  N   UNL     1      -5.677   4.722 -33.858  1.00  0.00    -0.263 N 
HETATM    2  C   UNL     1      -5.940   3.577 -33.128  1.00  0.00     0.273 C 
HETATM    3  O   UNL     1      -5.263   3.252 -32.153  1.00  0.00    -0.266 OA
HETATM    4  H   UNL     1      -5.975   4.777 -34.831  1.00  0.00     0.190 HD
ENDROOT
BRANCH   1   5
HETATM    5  N   UNL     1      -4.490   5.424 -33.562  1.00  0.00    -0.266 N 
HETATM    6  C   UNL     1      -3.585   5.592 -34.597  1.00  0.00     0.253 C 
HETATM    7  O   UNL     1      -3.841   5.268 -35.758  1.00  0.00    -0.270 OA
HETATM    8  H   UNL     1      -4.161   5.335 -32.601  1.00  0.00     0.190 HD
BRANCH   6   9
HETATM    9  C   UNL     1      -2.258   6.228 -34.164  1.00  0.00     0.224 C 
BRANCH   9  10
HETATM   10  N   UNL     1      -2.478   7.072 -32.992  1.00  0.00    -0.381 N 
HETATM   11  H   UNL     1      -2.714   8.032 -33.246  1.00  0.00     0.160 HD
BRANCH  10  12
HETATM   12  C   UNL     1      -1.702   6.955 -31.847  1.00  0.00     0.028 A 
HETATM   13  C   UNL     1      -0.313   6.827 -31.992  1.00  0.00     0.032 A 
HETATM   14  C   UNL     1       0.549   6.825 -30.887  1.00  0.00     0.039 A 
HETATM   15  C   UNL     1       0.035   6.981 -29.603  1.00  0.00     0.068 A 
HETATM   16  C   UNL     1      -1.344   7.116 -29.443  1.00  0.00     0.039 A 
HETATM   17  C   UNL     1      -2.200   7.116 -30.551  1.00  0.00     0.032 A 
BRANCH  15  18
HETATM   18  O   UNL     1       0.759   7.025 -28.445  1.00  0.00    -0.356 OA
HETATM   19  C   UNL     1       1.255   8.299 -28.053  1.00  0.00     0.210 C 
ENDBRANCH  15  18
ENDBRANCH  10  12
ENDBRANCH   9  10
ENDBRANCH   6   9
ENDBRANCH   1   5
BRANCH   2  20
HETATM   20  C   UNL     1      -7.063   2.794 -33.602  1.00  0.00     0.070 A 
HETATM   21  C   UNL     1      -8.390   3.180 -33.573  1.00  0.00     0.137 A 
HETATM   22  N   UNL     1      -9.132   2.169 -34.141  1.00  0.00    -0.244 N 
HETATM   23  N   UNL     1      -8.334   1.150 -34.550  1.00  0.00    -0.179 NA
HETATM   24  C   UNL     1      -7.101   1.530 -34.218  1.00  0.00     0.157 A 
BRANCH  22  25
HETATM   25  C   UNL     1     -10.541   2.110 -34.323  1.00  0.00     0.059 A 
HETATM   26  C   UNL     1     -11.245   0.979 -33.875  1.00  0.00     0.055 A 
HETATM   27  C   UNL     1     -12.625   0.905 -34.055  1.00  0.00     0.036 A 
HETATM   28 CL   UNL     1     -13.482  -0.490 -33.522  1.00  0.00    -0.084 Cl
HETATM   29  C   UNL     1     -13.318   1.947 -34.665  1.00  0.00     0.024 A 
HETATM   30  C   UNL     1     -12.625   3.075 -35.104  1.00  0.00     0.004 A 
HETATM   31  C   UNL     1     -11.240   3.159 -34.939  1.00  0.00     0.031 A 
ENDBRANCH  22  25
ENDBRANCH   2  20
TORSDOF 7
ENDMDL
MODEL 10
REMARK VINA RESULT:      -7.6      5.895      8.993
REMARK  7 active torsions:
REMARK  status: ('A' for Active; 'I' for Inactive)
REMARK    1  A    between atoms: O_2  and  C_3 
REMARK    2  A    between atoms: C_6  and  N_7 
REMARK    3  A    between atoms: N_7  and  C_8 
REMARK    4  A    between atoms: C_8  and  C_9 
REMARK       I    between atoms: C_9  and  N_10 
REMARK    5  A    between atoms: N_10  and  N_11 
REMARK       I    between atoms: N_11  and  C_12 
REMARK    6  A    between atoms: C_12  and  C_13 
REMARK    7  A    between atoms: N_15  and  C_16 
ROOT
HETATM    1  N   UNL     1      -7.763   0.178 -35.190  1.00  0.00    -0.263 N 
HETATM    2  C   UNL     1      -7.773   1.342 -34.444  1.00  0.00     0.273 C 
HETATM    3  O   UNL     1      -6.742   1.845 -34.000  1.00  0.00    -0.266 OA
HETATM    4  H   UNL     1      -8.597  -0.406 -35.222  1.00  0.00     0.190 HD
ENDROOT
BRANCH   1   5
HETATM    5  N   UNL     1      -6.544  -0.526 -35.280  1.00  0.00    -0.266 N 
HETATM    6  C   UNL     1      -6.446  -1.706 -34.562  1.00  0.00     0.253 C 
HETATM    7  O   UNL     1      -7.407  -2.203 -33.972  1.00  0.00    -0.270 OA
HETATM    8  H   UNL     1      -5.718   0.053 -35.433  1.00  0.00     0.190 HD
BRANCH   6   9
HETATM    9  C   UNL     1      -5.046  -2.334 -34.587  1.00  0.00     0.224 C 
BRANCH   9  10
HETATM   10  N   UNL     1      -4.451  -2.254 -33.255  1.00  0.00    -0.381 N 
HETATM   11  H   UNL     1      -4.654  -3.079 -32.691  1.00  0.00     0.160 HD
BRANCH  10  12
HETATM   12  C   UNL     1      -4.408  -1.064 -32.540  1.00  0.00     0.028 A 
HETATM   13  C   UNL     1      -3.472  -0.092 -32.918  1.00  0.00     0.032 A 
HETATM   14  C   UNL     1      -3.446   1.179 -32.328  1.00  0.00     0.039 A 
HETATM   15  C   UNL     1      -4.386   1.515 -31.357  1.00  0.00     0.068 A 
HETATM   16  C   UNL     1      -5.328   0.561 -30.975  1.00  0.00     0.039 A 
HETATM   17  C   UNL     1      -5.347  -0.708 -31.568  1.00  0.00     0.032 A 
BRANCH  15  18
HETATM   18  O   UNL     1      -4.493   2.720 -30.723  1.00  0.00    -0.356 OA
HETATM   19  C   UNL     1      -3.898   3.836 -31.372  1.00  0.00     0.210 C 
ENDBRANCH  15  18
ENDBRANCH  10  12
ENDBRANCH   9  10
ENDBRANCH   6   9
ENDBRANCH   1   5
BRANCH   2  20
HETATM   20  C   UNL     1      -9.085   1.917 -34.225  1.00  0.00     0.070 A 
HETATM   21  C   UNL     1     -10.272   1.216 -34.136  1.00  0.00     0.137 A 
HETATM   22  N   UNL     1     -11.278   2.125 -33.895  1.00  0.00    -0.244 N 
HETATM   23  N   UNL     1     -10.784   3.386 -33.811  1.00  0.00    -0.179 NA
HETATM   24  C   UNL     1      -9.474   3.252 -34.016  1.00  0.00     0.157 A 
BRANCH  22  25
HETATM   25  C   UNL     1     -12.669   1.875 -33.738  1.00  0.00     0.059 A 
HETATM   26  C   UNL     1     -13.440   2.750 -32.953  1.00  0.00     0.055 A 
HETATM   27  C   UNL     1     -14.803   2.511 -32.784  1.00  0.00     0.036 A 
HETATM   28 CL   UNL     1     -15.741   3.574 -31.807  1.00  0.00    -0.084 Cl
HETATM   29  C   UNL     1     -15.413   1.419 -33.395  1.00  0.00     0.024 A 
HETATM   30  C   UNL     1     -14.654   0.552 -34.181  1.00  0.00     0.004 A 
HETATM   31  C   UNL     1     -13.284   0.773 -34.351  1.00  0.00     0.031 A 
ENDBRANCH  22  25
ENDBRANCH   2  20
TORSDOF 7
ENDMDL
