MODEL 1
REMARK VINA RESULT:     -10.3      0.000      0.000
REMARK  2 active torsions:
REMARK  status: ('A' for Active; 'I' for Inactive)
REMARK    1  A    between atoms: O_1  and  C_2 
REMARK    2  A    between atoms: C_24  and  C_25 
ROOT
HETATM    1  C   UNL     1      -4.652   5.246 -31.895  1.00  0.00     0.066 A 
HETATM    2  C   UNL     1      -3.391   4.962 -31.389  1.00  0.00     0.039 A 
HETATM    3  C   UNL     1      -2.873   3.667 -31.472  1.00  0.00     0.033 A 
HETATM    4  C   UNL     1      -3.665   2.679 -32.075  1.00  0.00     0.044 A 
HETATM    5  N   UNL     1      -3.379   1.332 -32.277  1.00  0.00    -0.353 N 
HETATM    6  H   UNL     1      -2.520   0.886 -31.995  1.00  0.00     0.166 HD
HETATM    7  C   UNL     1      -4.428   0.731 -32.903  1.00  0.00     0.073 A 
HETATM    8  C   UNL     1      -4.638  -0.563 -33.317  1.00  0.00     0.072 A 
HETATM    9  N   UNL     1      -3.881  -1.696 -33.251  1.00  0.00    -0.353 N 
HETATM   10  H   UNL     1      -2.959  -1.773 -32.849  1.00  0.00     0.166 HD
HETATM   11  C   UNL     1      -4.578  -2.757 -33.830  1.00  0.00     0.043 A 
HETATM   12  C   UNL     1      -4.189  -4.094 -33.982  1.00  0.00     0.030 A 
HETATM   13  C   UNL     1      -5.086  -4.967 -34.605  1.00  0.00     0.002 A 
HETATM   14  C   UNL     1      -6.324  -4.521 -35.061  1.00  0.00     0.001 A 
HETATM   15  C   UNL     1      -6.707  -3.183 -34.907  1.00  0.00     0.014 A 
HETATM   16  C   UNL     1      -5.826  -2.279 -34.282  1.00  0.00     0.004 A 
HETATM   17  C   UNL     1      -5.788  -0.934 -33.933  1.00  0.00     0.014 A 
HETATM   18  C   UNL     1      -6.790   0.036 -34.151  1.00  0.00    -0.010 A 
HETATM   19  C   UNL     1      -8.102  -0.130 -34.790  1.00  0.00     0.163 A 
HETATM   20  N   UNL     1      -8.598   1.225 -34.684  1.00  0.00    -0.353 N 
HETATM   21  C   UNL     1      -7.754   2.145 -34.072  1.00  0.00     0.253 A 
HETATM   22  O   UNL     1      -8.087   3.315 -33.936  1.00  0.00    -0.268 OA
HETATM   23  C   UNL     1      -6.585   1.382 -33.727  1.00  0.00     0.054 A 
HETATM   24  C   UNL     1      -5.359   1.708 -33.087  1.00  0.00     0.022 A 
HETATM   25  C   UNL     1      -4.951   2.948 -32.596  1.00  0.00     0.007 A 
HETATM   26  C   UNL     1      -5.442   4.263 -32.497  1.00  0.00     0.051 A 
HETATM   27  H   UNL     1      -9.499   1.532 -35.019  1.00  0.00     0.163 HD
ENDROOT
BRANCH   1  28
HETATM   28  O   UNL     1      -5.170   6.509 -31.821  1.00  0.00    -0.361 OA
HETATM   29  H   UNL     1      -4.452   7.149 -31.958  1.00  0.00     0.217 HD
ENDBRANCH   1  28
TORSDOF 2
ENDMDL
MODEL 2
REMARK VINA RESULT:     -10.0      2.767      7.041
REMARK  2 active torsions:
REMARK  status: ('A' for Active; 'I' for Inactive)
REMARK    1  A    between atoms: O_1  and  C_2 
REMARK    2  A    between atoms: C_24  and  C_25 
ROOT
HETATM    1  C   UNL     1      -4.186  -4.494 -34.131  1.00  0.00     0.066 A 
HETATM    2  C   UNL     1      -5.283  -5.070 -34.756  1.00  0.00     0.039 A 
HETATM    3  C   UNL     1      -6.419  -4.304 -35.033  1.00  0.00     0.033 A 
HETATM    4  C   UNL     1      -6.408  -2.953 -34.660  1.00  0.00     0.044 A 
HETATM    5  N   UNL     1      -7.403  -1.993 -34.825  1.00  0.00    -0.353 N 
HETATM    6  H   UNL     1      -8.297  -2.170 -35.254  1.00  0.00     0.166 HD
HETATM    7  C   UNL     1      -6.977  -0.803 -34.318  1.00  0.00     0.073 A 
HETATM    8  C   UNL     1      -7.574   0.433 -34.238  1.00  0.00     0.072 A 
HETATM    9  N   UNL     1      -8.793   0.906 -34.630  1.00  0.00    -0.353 N 
HETATM   10  H   UNL     1      -9.519   0.374 -35.084  1.00  0.00     0.166 HD
HETATM   11  C   UNL     1      -8.894   2.259 -34.305  1.00  0.00     0.043 A 
HETATM   12  C   UNL     1      -9.959   3.144 -34.520  1.00  0.00     0.030 A 
HETATM   13  C   UNL     1      -9.804   4.466 -34.094  1.00  0.00     0.002 A 
HETATM   14  C   UNL     1      -8.630   4.890 -33.477  1.00  0.00     0.001 A 
HETATM   15  C   UNL     1      -7.568   4.001 -33.266  1.00  0.00     0.014 A 
HETATM   16  C   UNL     1      -7.694   2.662 -33.683  1.00  0.00     0.004 A 
HETATM   17  C   UNL     1      -6.940   1.493 -33.678  1.00  0.00     0.014 A 
HETATM   18  C   UNL     1      -5.635   1.318 -33.168  1.00  0.00    -0.010 A 
HETATM   19  C   UNL     1      -4.762   2.309 -32.526  1.00  0.00     0.163 A 
HETATM   20  N   UNL     1      -3.608   1.479 -32.258  1.00  0.00    -0.353 N 
HETATM   21  C   UNL     1      -3.697   0.150 -32.658  1.00  0.00     0.253 A 
HETATM   22  O   UNL     1      -2.770  -0.628 -32.473  1.00  0.00    -0.268 OA
HETATM   23  C   UNL     1      -5.004   0.042 -33.246  1.00  0.00     0.054 A 
HETATM   24  C   UNL     1      -5.721  -1.030 -33.844  1.00  0.00     0.022 A 
HETATM   25  C   UNL     1      -5.302  -2.348 -34.023  1.00  0.00     0.007 A 
HETATM   26  C   UNL     1      -4.174  -3.147 -33.758  1.00  0.00     0.051 A 
HETATM   27  H   UNL     1      -2.764   1.802 -31.810  1.00  0.00     0.163 HD
ENDROOT
BRANCH   1  28
HETATM   28  O   UNL     1      -3.069  -5.231 -33.854  1.00  0.00    -0.361 OA
HETATM   29  H   UNL     1      -2.386  -5.021 -34.511  1.00  0.00     0.217 HD
ENDBRANCH   1  28
TORSDOF 2
ENDMDL
MODEL 3
REMARK VINA RESULT:      -9.7      1.618      3.416
REMARK  2 active torsions:
REMARK  status: ('A' for Active; 'I' for Inactive)
REMARK    1  A    between atoms: O_1  and  C_2 
REMARK    2  A    between atoms: C_24  and  C_25 
ROOT
HETATM    1  C   UNL     1      -6.050   5.028 -32.356  1.00  0.00     0.066 A 
HETATM    2  C   UNL     1      -7.184   5.102 -33.155  1.00  0.00     0.039 A 
HETATM    3  C   UNL     1      -7.648   3.969 -33.826  1.00  0.00     0.033 A 
HETATM    4  C   UNL     1      -6.935   2.771 -33.667  1.00  0.00     0.044 A 
HETATM    5  N   UNL     1      -7.191   1.521 -34.222  1.00  0.00    -0.353 N 
HETATM    6  H   UNL     1      -7.963   1.321 -34.840  1.00  0.00     0.166 HD
HETATM    7  C   UNL     1      -6.247   0.633 -33.804  1.00  0.00     0.073 A 
HETATM    8  C   UNL     1      -6.058  -0.703 -34.063  1.00  0.00     0.072 A 
HETATM    9  N   UNL     1      -6.737  -1.611 -34.823  1.00  0.00    -0.353 N 
HETATM   10  H   UNL     1      -7.566  -1.428 -35.368  1.00  0.00     0.166 HD
HETATM   11  C   UNL     1      -6.110  -2.853 -34.737  1.00  0.00     0.043 A 
HETATM   12  C   UNL     1      -6.458  -4.065 -35.349  1.00  0.00     0.030 A 
HETATM   13  C   UNL     1      -5.652  -5.178 -35.095  1.00  0.00     0.002 A 
HETATM   14  C   UNL     1      -4.539  -5.086 -34.263  1.00  0.00     0.001 A 
HETATM   15  C   UNL     1      -4.196  -3.872 -33.654  1.00  0.00     0.014 A 
HETATM   16  C   UNL     1      -4.989  -2.732 -33.890  1.00  0.00     0.004 A 
HETATM   17  C   UNL     1      -5.024  -1.393 -33.519  1.00  0.00     0.014 A 
HETATM   18  C   UNL     1      -4.124  -0.716 -32.668  1.00  0.00    -0.010 A 
HETATM   19  C   UNL     1      -2.945  -1.247 -31.972  1.00  0.00     0.163 A 
HETATM   20  N   UNL     1      -2.500  -0.049 -31.295  1.00  0.00    -0.353 N 
HETATM   21  C   UNL     1      -3.260   1.097 -31.505  1.00  0.00     0.253 A 
HETATM   22  O   UNL     1      -2.961   2.158 -30.974  1.00  0.00    -0.268 OA
HETATM   23  C   UNL     1      -4.310   0.671 -32.390  1.00  0.00     0.054 A 
HETATM   24  C   UNL     1      -5.412   1.337 -32.990  1.00  0.00     0.022 A 
HETATM   25  C   UNL     1      -5.780   2.676 -32.860  1.00  0.00     0.007 A 
HETATM   26  C   UNL     1      -5.339   3.837 -32.196  1.00  0.00     0.051 A 
HETATM   27  H   UNL     1      -1.690   0.001 -30.695  1.00  0.00     0.163 HD
ENDROOT
BRANCH   1  28
HETATM   28  O   UNL     1      -5.587   6.130 -31.694  1.00  0.00    -0.361 OA
HETATM   29  H   UNL     1      -6.341   6.600 -31.303  1.00  0.00     0.217 HD
ENDBRANCH   1  28
TORSDOF 2
ENDMDL
MODEL 4
REMARK VINA RESULT:      -9.6      1.639      3.782
REMARK  2 active torsions:
REMARK  status: ('A' for Active; 'I' for Inactive)
REMARK    1  A    between atoms: O_1  and  C_2 
REMARK    2  A    between atoms: C_24  and  C_25 
ROOT
HETATM    1  C   UNL     1      -8.414   5.076 -33.505  1.00  0.00     0.066 A 
HETATM    2  C   UNL     1      -9.595   4.688 -34.124  1.00  0.00     0.039 A 
HETATM    3  C   UNL     1      -9.771   3.365 -34.539  1.00  0.00     0.033 A 
HETATM    4  C   UNL     1      -8.725   2.459 -34.310  1.00  0.00     0.044 A 
HETATM    5  N   UNL     1      -8.658   1.105 -34.625  1.00  0.00    -0.353 N 
HETATM    6  H   UNL     1      -9.395   0.591 -35.082  1.00  0.00     0.166 HD
HETATM    7  C   UNL     1      -7.457   0.602 -34.225  1.00  0.00     0.073 A 
HETATM    8  C   UNL     1      -6.911  -0.656 -34.305  1.00  0.00     0.072 A 
HETATM    9  N   UNL     1      -7.367  -1.840 -34.808  1.00  0.00    -0.353 N 
HETATM   10  H   UNL     1      -8.264  -1.995 -35.243  1.00  0.00     0.166 HD
HETATM   11  C   UNL     1      -6.397  -2.826 -34.632  1.00  0.00     0.043 A 
HETATM   12  C   UNL     1      -6.434  -4.180 -34.993  1.00  0.00     0.030 A 
HETATM   13  C   UNL     1      -5.315  -4.963 -34.700  1.00  0.00     0.002 A 
HETATM   14  C   UNL     1      -4.200  -4.418 -34.069  1.00  0.00     0.001 A 
HETATM   15  C   UNL     1      -4.168  -3.064 -33.710  1.00  0.00     0.014 A 
HETATM   16  C   UNL     1      -5.281  -2.248 -33.992  1.00  0.00     0.004 A 
HETATM   17  C   UNL     1      -5.670  -0.924 -33.827  1.00  0.00     0.014 A 
HETATM   18  C   UNL     1      -4.927   0.120 -33.233  1.00  0.00    -0.010 A 
HETATM   19  C   UNL     1      -3.579   0.069 -32.653  1.00  0.00     0.163 A 
HETATM   20  N   UNL     1      -3.439   1.448 -32.239  1.00  0.00    -0.353 N 
HETATM   21  C   UNL     1      -4.520   2.284 -32.502  1.00  0.00     0.253 A 
HETATM   22  O   UNL     1      -4.494   3.467 -32.189  1.00  0.00    -0.268 OA
HETATM   23  C   UNL     1      -5.482   1.430 -33.144  1.00  0.00     0.054 A 
HETATM   24  C   UNL     1      -6.787   1.646 -33.663  1.00  0.00     0.022 A 
HETATM   25  C   UNL     1      -7.517   2.834 -33.682  1.00  0.00     0.007 A 
HETATM   26  C   UNL     1      -7.372   4.175 -33.276  1.00  0.00     0.051 A 
HETATM   27  H   UNL     1      -2.624   1.829 -31.784  1.00  0.00     0.163 HD
ENDROOT
BRANCH   1  28
HETATM   28  O   UNL     1      -8.230   6.367 -33.095  1.00  0.00    -0.361 OA
HETATM   29  H   UNL     1      -7.338   6.651 -33.351  1.00  0.00     0.217 HD
ENDBRANCH   1  28
TORSDOF 2
ENDMDL
MODEL 5
REMARK VINA RESULT:      -9.2      1.531      1.584
REMARK  2 active torsions:
REMARK  status: ('A' for Active; 'I' for Inactive)
REMARK    1  A    between atoms: O_1  and  C_2 
REMARK    2  A    between atoms: C_24  and  C_25 
ROOT
HETATM    1  C   UNL     1      -5.743   5.583 -30.574  1.00  0.00     0.066 A 
HETATM    2  C   UNL     1      -4.360   5.586 -30.695  1.00  0.00     0.039 A 
HETATM    3  C   UNL     1      -3.700   4.491 -31.260  1.00  0.00     0.033 A 
HETATM    4  C   UNL     1      -4.476   3.406 -31.692  1.00  0.00     0.044 A 
HETATM    5  N   UNL     1      -4.062   2.214 -32.280  1.00  0.00    -0.353 N 
HETATM    6  H   UNL     1      -3.101   1.981 -32.473  1.00  0.00     0.166 HD
HETATM    7  C   UNL     1      -5.147   1.434 -32.544  1.00  0.00     0.073 A 
HETATM    8  C   UNL     1      -5.271   0.188 -33.110  1.00  0.00     0.072 A 
HETATM    9  N   UNL     1      -4.367  -0.706 -33.604  1.00  0.00    -0.353 N 
HETATM   10  H   UNL     1      -3.366  -0.583 -33.635  1.00  0.00     0.166 HD
HETATM   11  C   UNL     1      -5.035  -1.838 -34.068  1.00  0.00     0.043 A 
HETATM   12  C   UNL     1      -4.511  -3.000 -34.652  1.00  0.00     0.030 A 
HETATM   13  C   UNL     1      -5.409  -3.999 -35.035  1.00  0.00     0.002 A 
HETATM   14  C   UNL     1      -6.780  -3.846 -34.843  1.00  0.00     0.001 A 
HETATM   15  C   UNL     1      -7.299  -2.683 -34.259  1.00  0.00     0.014 A 
HETATM   16  C   UNL     1      -6.419  -1.658 -33.862  1.00  0.00     0.004 A 
HETATM   17  C   UNL     1      -6.483  -0.400 -33.274  1.00  0.00     0.014 A 
HETATM   18  C   UNL     1      -7.640   0.290 -32.852  1.00  0.00    -0.010 A 
HETATM   19  C   UNL     1      -9.042  -0.140 -32.927  1.00  0.00     0.163 A 
HETATM   20  N   UNL     1      -9.683   1.013 -32.336  1.00  0.00    -0.353 N 
HETATM   21  C   UNL     1      -8.845   2.047 -31.933  1.00  0.00     0.253 A 
HETATM   22  O   UNL     1      -9.297   3.064 -31.422  1.00  0.00    -0.268 OA
HETATM   23  C   UNL     1      -7.525   1.585 -32.264  1.00  0.00     0.054 A 
HETATM   24  C   UNL     1      -6.227   2.146 -32.120  1.00  0.00     0.022 A 
HETATM   25  C   UNL     1      -5.884   3.384 -31.577  1.00  0.00     0.007 A 
HETATM   26  C   UNL     1      -6.518   4.503 -31.003  1.00  0.00     0.051 A 
HETATM   27  H   UNL     1     -10.679   1.109 -32.203  1.00  0.00     0.163 HD
ENDROOT
BRANCH   1  28
HETATM   28  O   UNL     1      -6.400   6.647 -30.023  1.00  0.00    -0.361 OA
HETATM   29  H   UNL     1      -7.094   6.314 -29.432  1.00  0.00     0.217 HD
ENDBRANCH   1  28
TORSDOF 2
ENDMDL
MODEL 6
REMARK VINA RESULT:      -9.1      3.032      5.335
REMARK  2 active torsions:
REMARK  status: ('A' for Active; 'I' for Inactive)
REMARK    1  A    between atoms: O_1  and  C_2 
REMARK    2  A    between atoms: C_24  and  C_25 
ROOT
HETATM    1  C   UNL     1     -12.411   4.019 -32.892  1.00  0.00     0.066 A 
HETATM    2  C   UNL     1     -12.911   3.541 -34.096  1.00  0.00     0.039 A 
HETATM    3  C   UNL     1     -12.226   2.546 -34.799  1.00  0.00     0.033 A 
HETATM    4  C   UNL     1     -11.031   2.058 -34.250  1.00  0.00     0.044 A 
HETATM    5  N   UNL     1     -10.175   1.081 -34.750  1.00  0.00    -0.353 N 
HETATM    6  H   UNL     1     -10.324   0.584 -35.615  1.00  0.00     0.166 HD
HETATM    7  C   UNL     1      -9.126   0.913 -33.898  1.00  0.00     0.073 A 
HETATM    8  C   UNL     1      -8.030   0.084 -33.935  1.00  0.00     0.072 A 
HETATM    9  N   UNL     1      -7.602  -0.856 -34.828  1.00  0.00    -0.353 N 
HETATM   10  H   UNL     1      -8.067  -1.117 -35.685  1.00  0.00     0.166 HD
HETATM   11  C   UNL     1      -6.407  -1.415 -34.378  1.00  0.00     0.043 A 
HETATM   12  C   UNL     1      -5.616  -2.409 -34.971  1.00  0.00     0.030 A 
HETATM   13  C   UNL     1      -4.450  -2.796 -34.306  1.00  0.00     0.002 A 
HETATM   14  C   UNL     1      -4.085  -2.214 -33.095  1.00  0.00     0.001 A 
HETATM   15  C   UNL     1      -4.879  -1.221 -32.507  1.00  0.00     0.014 A 
HETATM   16  C   UNL     1      -6.061  -0.809 -33.153  1.00  0.00     0.004 A 
HETATM   17  C   UNL     1      -7.098   0.094 -32.950  1.00  0.00     0.014 A 
HETATM   18  C   UNL     1      -7.263   0.978 -31.862  1.00  0.00    -0.010 A 
HETATM   19  C   UNL     1      -6.395   1.164 -30.692  1.00  0.00     0.163 A 
HETATM   20  N   UNL     1      -7.137   2.194 -29.999  1.00  0.00    -0.353 N 
HETATM   21  C   UNL     1      -8.311   2.625 -30.608  1.00  0.00     0.253 A 
HETATM   22  O   UNL     1      -9.006   3.493 -30.095  1.00  0.00    -0.268 OA
HETATM   23  C   UNL     1      -8.397   1.843 -31.811  1.00  0.00     0.054 A 
HETATM   24  C   UNL     1      -9.338   1.785 -32.874  1.00  0.00     0.022 A 
HETATM   25  C   UNL     1     -10.505   2.532 -33.028  1.00  0.00     0.007 A 
HETATM   26  C   UNL     1     -11.220   3.534 -32.345  1.00  0.00     0.051 A 
HETATM   27  H   UNL     1      -6.859   2.607 -29.121  1.00  0.00     0.163 HD
ENDROOT
BRANCH   1  28
HETATM   28  O   UNL     1     -13.072   4.992 -32.196  1.00  0.00    -0.361 OA
HETATM   29  H   UNL     1     -13.445   4.599 -31.390  1.00  0.00     0.217 HD
ENDBRANCH   1  28
TORSDOF 2
ENDMDL
MODEL 7
REMARK VINA RESULT:      -9.1      2.459      4.092
REMARK  2 active torsions:
REMARK  status: ('A' for Active; 'I' for Inactive)
REMARK    1  A    between atoms: O_1  and  C_2 
REMARK    2  A    between atoms: C_24  and  C_25 
ROOT
HETATM    1  C   UNL     1      -8.825   4.976 -30.103  1.00  0.00     0.066 A 
HETATM    2  C   UNL     1     -10.108   4.610 -30.490  1.00  0.00     0.039 A 
HETATM    3  C   UNL     1     -10.316   3.440 -31.225  1.00  0.00     0.033 A 
HETATM    4  C   UNL     1      -9.197   2.661 -31.552  1.00  0.00     0.044 A 
HETATM    5  N   UNL     1      -9.142   1.467 -32.266  1.00  0.00    -0.353 N 
HETATM    6  H   UNL     1      -9.947   1.000 -32.653  1.00  0.00     0.166 HD
HETATM    7  C   UNL     1      -7.850   1.047 -32.354  1.00  0.00     0.073 A 
HETATM    8  C   UNL     1      -7.275  -0.053 -32.945  1.00  0.00     0.072 A 
HETATM    9  N   UNL     1      -7.784  -1.106 -33.647  1.00  0.00    -0.353 N 
HETATM   10  H   UNL     1      -8.757  -1.260 -33.866  1.00  0.00     0.166 HD
HETATM   11  C   UNL     1      -6.748  -1.958 -34.028  1.00  0.00     0.043 A 
HETATM   12  C   UNL     1      -6.806  -3.153 -34.758  1.00  0.00     0.030 A 
HETATM   13  C   UNL     1      -5.605  -3.823 -35.008  1.00  0.00     0.002 A 
HETATM   14  C   UNL     1      -4.391  -3.320 -34.547  1.00  0.00     0.001 A 
HETATM   15  C   UNL     1      -4.339  -2.125 -33.817  1.00  0.00     0.014 A 
HETATM   16  C   UNL     1      -5.532  -1.426 -33.549  1.00  0.00     0.004 A 
HETATM   17  C   UNL     1      -5.936  -0.265 -32.900  1.00  0.00     0.014 A 
HETATM   18  C   UNL     1      -5.118   0.670 -32.229  1.00  0.00    -0.010 A 
HETATM   19  C   UNL     1      -3.661   0.651 -32.052  1.00  0.00     0.163 A 
HETATM   20  N   UNL     1      -3.491   1.870 -31.293  1.00  0.00    -0.353 N 
HETATM   21  C   UNL     1      -4.649   2.587 -31.010  1.00  0.00     0.253 A 
HETATM   22  O   UNL     1      -4.605   3.631 -30.372  1.00  0.00    -0.268 OA
HETATM   23  C   UNL     1      -5.702   1.815 -31.612  1.00  0.00     0.054 A 
HETATM   24  C   UNL     1      -7.111   1.981 -31.694  1.00  0.00     0.022 A 
HETATM   25  C   UNL     1      -7.885   3.015 -31.168  1.00  0.00     0.007 A 
HETATM   26  C   UNL     1      -7.710   4.200 -30.429  1.00  0.00     0.051 A 
HETATM   27  H   UNL     1      -2.603   2.222 -30.967  1.00  0.00     0.163 HD
ENDROOT
BRANCH   1  28
HETATM   28  O   UNL     1      -8.609   6.117 -29.385  1.00  0.00    -0.361 OA
HETATM   29  H   UNL     1      -7.652   6.246 -29.284  1.00  0.00     0.217 HD
ENDBRANCH   1  28
TORSDOF 2
ENDMDL
MODEL 8
REMARK VINA RESULT:      -9.0      1.747      1.943
REMARK  2 active torsions:
REMARK  status: ('A' for Active; 'I' for Inactive)
REMARK    1  A    between atoms: O_1  and  C_2 
REMARK    2  A    between atoms: C_24  and  C_25 
ROOT
HETATM    1  C   UNL     1      -7.395   5.027 -31.003  1.00  0.00     0.066 A 
HETATM    2  C   UNL     1      -6.488   5.052 -29.952  1.00  0.00     0.039 A 
HETATM    3  C   UNL     1      -5.618   3.978 -29.746  1.00  0.00     0.033 A 
HETATM    4  C   UNL     1      -5.695   2.891 -30.629  1.00  0.00     0.044 A 
HETATM    5  N   UNL     1      -4.946   1.717 -30.636  1.00  0.00    -0.353 N 
HETATM    6  H   UNL     1      -4.222   1.501 -29.969  1.00  0.00     0.166 HD
HETATM    7  C   UNL     1      -5.346   0.927 -31.670  1.00  0.00     0.073 A 
HETATM    8  C   UNL     1      -4.930  -0.310 -32.102  1.00  0.00     0.072 A 
HETATM    9  N   UNL     1      -3.978  -1.181 -31.656  1.00  0.00    -0.353 N 
HETATM   10  H   UNL     1      -3.371  -1.043 -30.862  1.00  0.00     0.166 HD
HETATM   11  C   UNL     1      -3.964  -2.313 -32.470  1.00  0.00     0.043 A 
HETATM   12  C   UNL     1      -3.156  -3.455 -32.386  1.00  0.00     0.030 A 
HETATM   13  C   UNL     1      -3.346  -4.459 -33.338  1.00  0.00     0.002 A 
HETATM   14  C   UNL     1      -4.306  -4.330 -34.339  1.00  0.00     0.001 A 
HETATM   15  C   UNL     1      -5.111  -3.186 -34.419  1.00  0.00     0.014 A 
HETATM   16  C   UNL     1      -4.944  -2.156 -33.473  1.00  0.00     0.004 A 
HETATM   17  C   UNL     1      -5.489  -0.911 -33.181  1.00  0.00     0.014 A 
HETATM   18  C   UNL     1      -6.525  -0.246 -33.874  1.00  0.00    -0.010 A 
HETATM   19  C   UNL     1      -7.272  -0.695 -35.055  1.00  0.00     0.163 A 
HETATM   20  N   UNL     1      -8.154   0.438 -35.231  1.00  0.00    -0.353 N 
HETATM   21  C   UNL     1      -8.017   1.475 -34.315  1.00  0.00     0.253 A 
HETATM   22  O   UNL     1      -8.720   2.475 -34.383  1.00  0.00    -0.268 OA
HETATM   23  C   UNL     1      -6.966   1.038 -33.437  1.00  0.00     0.054 A 
HETATM   24  C   UNL     1      -6.339   1.615 -32.299  1.00  0.00     0.022 A 
HETATM   25  C   UNL     1      -6.609   2.847 -31.704  1.00  0.00     0.007 A 
HETATM   26  C   UNL     1      -7.472   3.945 -31.883  1.00  0.00     0.051 A 
HETATM   27  H   UNL     1      -8.846   0.516 -35.962  1.00  0.00     0.163 HD
ENDROOT
BRANCH   1  28
HETATM   28  O   UNL     1      -8.251   6.071 -31.215  1.00  0.00    -0.361 OA
HETATM   29  H   UNL     1      -8.412   6.519 -30.369  1.00  0.00     0.217 HD
ENDBRANCH   1  28
TORSDOF 2
ENDMDL
MODEL 9
REMARK VINA RESULT:      -8.9      3.250      5.466
REMARK  2 active torsions:
REMARK  status: ('A' for Active; 'I' for Inactive)
REMARK    1  A    between atoms: O_1  and  C_2 
REMARK    2  A    between atoms: C_24  and  C_25 
ROOT
HETATM    1  C   UNL     1      -3.814   2.228 -31.697  1.00  0.00     0.066 A 
HETATM    2  C   UNL     1      -3.787   0.935 -31.192  1.00  0.00     0.039 A 
HETATM    3  C   UNL     1      -4.932   0.135 -31.240  1.00  0.00     0.033 A 
HETATM    4  C   UNL     1      -6.092   0.682 -31.806  1.00  0.00     0.044 A 
HETATM    5  N   UNL     1      -7.345   0.096 -31.969  1.00  0.00    -0.353 N 
HETATM    6  H   UNL     1      -7.574  -0.843 -31.680  1.00  0.00     0.166 HD
HETATM    7  C   UNL     1      -8.188   0.980 -32.568  1.00  0.00     0.073 A 
HETATM    8  C   UNL     1      -9.508   0.890 -32.941  1.00  0.00     0.072 A 
HETATM    9  N   UNL     1     -10.437  -0.106 -32.847  1.00  0.00    -0.353 N 
HETATM   10  H   UNL     1     -10.289  -1.022 -32.450  1.00  0.00     0.166 HD
HETATM   11  C   UNL     1     -11.646   0.331 -33.388  1.00  0.00     0.043 A 
HETATM   12  C   UNL     1     -12.864  -0.353 -33.502  1.00  0.00     0.030 A 
HETATM   13  C   UNL     1     -13.936   0.321 -34.092  1.00  0.00     0.002 A 
HETATM   14  C   UNL     1     -13.800   1.629 -34.551  1.00  0.00     0.001 A 
HETATM   15  C   UNL     1     -12.580   2.308 -34.434  1.00  0.00     0.014 A 
HETATM   16  C   UNL     1     -11.480   1.655 -33.844  1.00  0.00     0.004 A 
HETATM   17  C   UNL     1     -10.151   1.925 -33.537  1.00  0.00     0.014 A 
HETATM   18  C   UNL     1      -9.443   3.122 -33.776  1.00  0.00    -0.010 A 
HETATM   19  C   UNL     1      -9.923   4.362 -34.400  1.00  0.00     0.163 A 
HETATM   20  N   UNL     1      -8.715   5.154 -34.330  1.00  0.00    -0.353 N 
HETATM   21  C   UNL     1      -7.607   4.542 -33.754  1.00  0.00     0.253 A 
HETATM   22  O   UNL     1      -6.541   5.134 -33.651  1.00  0.00    -0.268 OA
HETATM   23  C   UNL     1      -8.073   3.230 -33.395  1.00  0.00     0.054 A 
HETATM   24  C   UNL     1      -7.456   2.109 -32.775  1.00  0.00     0.022 A 
HETATM   25  C   UNL     1      -6.141   1.995 -32.325  1.00  0.00     0.007 A 
HETATM   26  C   UNL     1      -4.970   2.774 -32.262  1.00  0.00     0.051 A 
HETATM   27  H   UNL     1      -8.632   6.102 -34.667  1.00  0.00     0.163 HD
ENDROOT
BRANCH   1  28
HETATM   28  O   UNL     1      -2.701   3.020 -31.656  1.00  0.00    -0.361 OA
HETATM   29  H   UNL     1      -2.630   3.501 -32.497  1.00  0.00     0.217 HD
ENDBRANCH   1  28
TORSDOF 2
ENDMDL
MODEL 10
REMARK VINA RESULT:      -8.6      3.285      4.921
REMARK  2 active torsions:
REMARK  status: ('A' for Active; 'I' for Inactive)
REMARK    1  A    between atoms: O_1  and  C_2 
REMARK    2  A    between atoms: C_24  and  C_25 
ROOT
HETATM    1  C   UNL     1      -1.422   5.096 -32.456  1.00  0.00     0.066 A 
HETATM    2  C   UNL     1      -1.864   6.218 -33.144  1.00  0.00     0.039 A 
HETATM    3  C   UNL     1      -3.179   6.285 -33.613  1.00  0.00     0.033 A 
HETATM    4  C   UNL     1      -4.021   5.191 -33.368  1.00  0.00     0.044 A 
HETATM    5  N   UNL     1      -5.355   5.017 -33.726  1.00  0.00    -0.353 N 
HETATM    6  H   UNL     1      -5.899   5.696 -34.235  1.00  0.00     0.166 HD
HETATM    7  C   UNL     1      -5.791   3.804 -33.288  1.00  0.00     0.073 A 
HETATM    8  C   UNL     1      -7.007   3.169 -33.386  1.00  0.00     0.072 A 
HETATM    9  N   UNL     1      -8.198   3.520 -33.951  1.00  0.00    -0.353 N 
HETATM   10  H   UNL     1      -8.396   4.384 -34.433  1.00  0.00     0.166 HD
HETATM   11  C   UNL     1      -9.123   2.494 -33.764  1.00  0.00     0.043 A 
HETATM   12  C   UNL     1     -10.461   2.422 -34.175  1.00  0.00     0.030 A 
HETATM   13  C   UNL     1     -11.179   1.266 -33.856  1.00  0.00     0.002 A 
HETATM   14  C   UNL     1     -10.585   0.220 -33.155  1.00  0.00     0.001 A 
HETATM   15  C   UNL     1      -9.247   0.298 -32.747  1.00  0.00     0.014 A 
HETATM   16  C   UNL     1      -8.496   1.450 -33.053  1.00  0.00     0.004 A 
HETATM   17  C   UNL     1      -7.209   1.936 -32.859  1.00  0.00     0.014 A 
HETATM   18  C   UNL     1      -6.142   1.293 -32.195  1.00  0.00    -0.010 A 
HETATM   19  C   UNL     1      -6.124  -0.027 -31.554  1.00  0.00     0.163 A 
HETATM   20  N   UNL     1      -4.756  -0.054 -31.086  1.00  0.00    -0.353 N 
HETATM   21  C   UNL     1      -3.985   1.068 -31.370  1.00  0.00     0.253 A 
HETATM   22  O   UNL     1      -2.815   1.137 -31.014  1.00  0.00    -0.268 OA
HETATM   23  C   UNL     1      -4.875   1.941 -32.086  1.00  0.00     0.054 A 
HETATM   24  C   UNL     1      -4.727   3.233 -32.659  1.00  0.00     0.022 A 
HETATM   25  C   UNL     1      -3.590   4.040 -32.670  1.00  0.00     0.007 A 
HETATM   26  C   UNL     1      -2.260   4.005 -32.211  1.00  0.00     0.051 A 
HETATM   27  H   UNL     1      -4.339  -0.820 -30.579  1.00  0.00     0.163 HD
ENDROOT
BRANCH   1  28
HETATM   28  O   UNL     1      -0.139   5.019 -31.993  1.00  0.00    -0.361 OA
HETATM   29  H   UNL     1       0.438   4.727 -32.717  1.00  0.00     0.217 HD
ENDBRANCH   1  28
TORSDOF 2
ENDMDL
