MODEL 1
REMARK VINA RESULT:      -9.6      0.000      0.000
REMARK  3 active torsions:
REMARK  status: ('A' for Active; 'I' for Inactive)
REMARK    1  A    between atoms: C_4  and  C_5 
REMARK    2  A    between atoms: C_5  and  N_6 
REMARK    3  A    between atoms: C_16  and  C_17 
ROOT
HETATM    1  N   UNL     1      -4.538   5.243 -31.343  1.00  0.00    -0.065 N 
HETATM    2  H   UNL     1      -4.032   5.536 -30.486  1.00  0.00     0.280 HD
HETATM    3  C   UNL     1      -3.844   4.024 -31.872  1.00  0.00     0.238 C 
HETATM    4  C   UNL     1      -4.353   2.800 -31.135  1.00  0.00     0.077 C 
HETATM    5  C   UNL     1      -5.868   2.544 -31.402  1.00  0.00     0.218 C 
HETATM    6  N   UNL     1      -6.457   1.935 -30.172  1.00  0.00     0.102 N 
HETATM    7  C   UNL     1      -5.914   0.576 -29.921  1.00  0.00     0.291 C 
HETATM    8  C   UNL     1      -5.942  -0.436 -31.103  1.00  0.00     0.160 C 
HETATM    9  N   UNL     1      -5.972   0.202 -32.441  1.00  0.00    -0.331 N 
HETATM   10  C   UNL     1      -6.044   1.542 -32.578  1.00  0.00     0.123 A 
HETATM   11  C   UNL     1      -6.079  -0.433 -33.703  1.00  0.00     0.061 A 
HETATM   12  C   UNL     1      -6.348   0.611 -34.569  1.00  0.00     0.120 A 
HETATM   13  N   UNL     1      -6.314   1.788 -33.860  1.00  0.00    -0.351 N 
HETATM   14  H   UNL     1      -6.512   2.692 -34.280  1.00  0.00     0.166 HD
HETATM   15  C   UNL     1      -6.596   3.891 -31.655  1.00  0.00     0.077 C 
HETATM   16  C   UNL     1      -5.964   5.040 -30.879  1.00  0.00     0.238 C 
HETATM   17  H   UNL     1      -7.474   1.844 -30.272  1.00  0.00     0.317 HD
ENDROOT
BRANCH   1  18
HETATM   18  C   UNL     1      -4.336   6.466 -32.233  1.00  0.00     0.299 C 
BRANCH  18  19
HETATM   19  C   UNL     1      -2.916   6.666 -32.605  1.00  0.00     0.079 A 
HETATM   20  O   UNL     1      -2.015   6.632 -31.578  1.00  0.00    -0.318 OA
HETATM   21  C   UNL     1      -0.780   6.806 -32.130  1.00  0.00     0.049 A 
HETATM   22  C   UNL     1       0.377   6.797 -31.209  1.00  0.00     0.076 C 
HETATM   23  C   UNL     1      -0.888   6.946 -33.497  1.00  0.00     0.035 A 
HETATM   24  C   UNL     1      -2.267   6.856 -33.804  1.00  0.00     0.037 A 
ENDBRANCH  18  19
ENDBRANCH   1  18
BRANCH  11  25
HETATM   25  C   UNL     1      -5.947  -1.878 -34.120  1.00  0.00    -0.008 A 
HETATM   26  C   UNL     1      -7.055  -2.652 -34.472  1.00  0.00     0.014 A 
HETATM   27  C   UNL     1      -6.904  -4.005 -34.797  1.00  0.00     0.001 A 
HETATM   28  C   UNL     1      -5.647  -4.599 -34.775  1.00  0.00     0.000 A 
HETATM   29  C   UNL     1      -4.534  -3.841 -34.433  1.00  0.00     0.001 A 
HETATM   30  C   UNL     1      -4.681  -2.489 -34.105  1.00  0.00     0.014 A 
ENDBRANCH  11  25
TORSDOF 3
ENDMDL
MODEL 2
REMARK VINA RESULT:      -9.2      3.937      6.790
REMARK  3 active torsions:
REMARK  status: ('A' for Active; 'I' for Inactive)
REMARK    1  A    between atoms: C_4  and  C_5 
REMARK    2  A    between atoms: C_5  and  N_6 
REMARK    3  A    between atoms: C_16  and  C_17 
ROOT
HETATM    1  N   UNL     1      -4.072   0.218 -30.967  1.00  0.00    -0.065 N 
HETATM    2  H   UNL     1      -3.735   0.276 -29.988  1.00  0.00     0.280 HD
HETATM    3  C   UNL     1      -5.436  -0.403 -30.931  1.00  0.00     0.238 C 
HETATM    4  C   UNL     1      -6.465   0.669 -30.625  1.00  0.00     0.077 C 
HETATM    5  C   UNL     1      -6.545   1.742 -31.754  1.00  0.00     0.218 C 
HETATM    6  N   UNL     1      -6.892   3.050 -31.123  1.00  0.00     0.102 N 
HETATM    7  C   UNL     1      -8.265   3.037 -30.557  1.00  0.00     0.291 C 
HETATM    8  C   UNL     1      -9.417   2.551 -31.483  1.00  0.00     0.160 C 
HETATM    9  N   UNL     1      -8.973   1.656 -32.578  1.00  0.00    -0.331 N 
HETATM   10  C   UNL     1      -7.667   1.373 -32.766  1.00  0.00     0.123 A 
HETATM   11  C   UNL     1      -9.755   1.111 -33.625  1.00  0.00     0.061 A 
HETATM   12  C   UNL     1      -8.814   0.605 -34.503  1.00  0.00     0.120 A 
HETATM   13  N   UNL     1      -7.566   0.773 -33.952  1.00  0.00    -0.351 N 
HETATM   14  H   UNL     1      -6.711   0.504 -34.430  1.00  0.00     0.166 HD
HETATM   15  C   UNL     1      -5.159   1.899 -32.434  1.00  0.00     0.077 C 
HETATM   16  C   UNL     1      -4.011   1.646 -31.465  1.00  0.00     0.238 C 
HETATM   17  H   UNL     1      -6.856   3.802 -31.820  1.00  0.00     0.317 HD
ENDROOT
BRANCH   1  18
HETATM   18  C   UNL     1      -3.023  -0.705 -31.582  1.00  0.00     0.299 C 
BRANCH  18  19
HETATM   19  C   UNL     1      -3.592  -1.594 -32.621  1.00  0.00     0.079 A 
HETATM   20  O   UNL     1      -3.325  -2.927 -32.485  1.00  0.00    -0.318 OA
HETATM   21  C   UNL     1      -3.954  -3.564 -33.513  1.00  0.00     0.049 A 
HETATM   22  C   UNL     1      -3.820  -5.035 -33.578  1.00  0.00     0.076 C 
HETATM   23  C   UNL     1      -4.622  -2.648 -34.299  1.00  0.00     0.035 A 
HETATM   24  C   UNL     1      -4.388  -1.377 -33.723  1.00  0.00     0.037 A 
ENDBRANCH  18  19
ENDBRANCH   1  18
BRANCH  11  25
HETATM   25  C   UNL     1     -11.249   1.039 -33.836  1.00  0.00    -0.008 A 
HETATM   26  C   UNL     1     -12.008  -0.048 -33.399  1.00  0.00     0.014 A 
HETATM   27  C   UNL     1     -13.382  -0.109 -33.662  1.00  0.00     0.001 A 
HETATM   28  C   UNL     1     -14.011   0.914 -34.362  1.00  0.00     0.000 A 
HETATM   29  C   UNL     1     -13.270   2.005 -34.799  1.00  0.00     0.001 A 
HETATM   30  C   UNL     1     -11.897   2.069 -34.540  1.00  0.00     0.014 A 
ENDBRANCH  11  25
TORSDOF 3
ENDMDL
MODEL 3
REMARK VINA RESULT:      -8.9      1.286      1.693
REMARK  3 active torsions:
REMARK  status: ('A' for Active; 'I' for Inactive)
REMARK    1  A    between atoms: C_4  and  C_5 
REMARK    2  A    between atoms: C_5  and  N_6 
REMARK    3  A    between atoms: C_16  and  C_17 
ROOT
HETATM    1  N   UNL     1      -4.920   5.366 -31.156  1.00  0.00    -0.065 N 
HETATM    2  H   UNL     1      -4.398   5.692 -30.321  1.00  0.00     0.280 HD
HETATM    3  C   UNL     1      -4.163   4.205 -31.727  1.00  0.00     0.238 C 
HETATM    4  C   UNL     1      -4.547   2.942 -30.977  1.00  0.00     0.077 C 
HETATM    5  C   UNL     1      -6.050   2.577 -31.178  1.00  0.00     0.218 C 
HETATM    6  N   UNL     1      -6.535   1.919 -29.928  1.00  0.00     0.102 N 
HETATM    7  C   UNL     1      -5.882   0.603 -29.714  1.00  0.00     0.291 C 
HETATM    8  C   UNL     1      -5.889  -0.402 -30.902  1.00  0.00     0.160 C 
HETATM    9  N   UNL     1      -6.028   0.239 -32.232  1.00  0.00    -0.331 N 
HETATM   10  C   UNL     1      -6.205   1.570 -32.353  1.00  0.00     0.123 A 
HETATM   11  C   UNL     1      -6.145  -0.396 -33.493  1.00  0.00     0.061 A 
HETATM   12  C   UNL     1      -6.530   0.630 -34.337  1.00  0.00     0.120 A 
HETATM   13  N   UNL     1      -6.550   1.802 -33.620  1.00  0.00    -0.351 N 
HETATM   14  H   UNL     1      -6.833   2.691 -34.023  1.00  0.00     0.166 HD
HETATM   15  C   UNL     1      -6.885   3.868 -31.386  1.00  0.00     0.077 C 
HETATM   16  C   UNL     1      -6.305   5.056 -30.630  1.00  0.00     0.238 C 
HETATM   17  H   UNL     1      -7.546   1.754 -29.982  1.00  0.00     0.317 HD
ENDROOT
BRANCH   1  18
HETATM   18  C   UNL     1      -4.849   6.605 -32.045  1.00  0.00     0.299 C 
BRANCH  18  19
HETATM   19  C   UNL     1      -3.639   7.418 -31.785  1.00  0.00     0.079 A 
HETATM   20  O   UNL     1      -3.838   8.604 -31.135  1.00  0.00    -0.318 OA
HETATM   21  C   UNL     1      -2.611   9.176 -30.972  1.00  0.00     0.049 A 
HETATM   22  C   UNL     1      -2.563  10.480 -30.276  1.00  0.00     0.076 C 
HETATM   23  C   UNL     1      -1.635   8.364 -31.508  1.00  0.00     0.035 A 
HETATM   24  C   UNL     1      -2.298   7.230 -32.034  1.00  0.00     0.037 A 
ENDBRANCH  18  19
ENDBRANCH   1  18
BRANCH  11  25
HETATM   25  C   UNL     1      -5.927  -1.826 -33.927  1.00  0.00    -0.008 A 
HETATM   26  C   UNL     1      -4.665  -2.423 -33.901  1.00  0.00     0.014 A 
HETATM   27  C   UNL     1      -4.488  -3.733 -34.365  1.00  0.00     0.001 A 
HETATM   28  C   UNL     1      -5.567  -4.457 -34.858  1.00  0.00     0.000 A 
HETATM   29  C   UNL     1      -6.831  -3.878 -34.884  1.00  0.00     0.001 A 
HETATM   30  C   UNL     1      -7.011  -2.570 -34.423  1.00  0.00     0.014 A 
ENDBRANCH  11  25
TORSDOF 3
ENDMDL
MODEL 4
REMARK VINA RESULT:      -8.9      2.969      9.581
REMARK  3 active torsions:
REMARK  status: ('A' for Active; 'I' for Inactive)
REMARK    1  A    between atoms: C_4  and  C_5 
REMARK    2  A    between atoms: C_5  and  N_6 
REMARK    3  A    between atoms: C_16  and  C_17 
ROOT
HETATM    1  N   UNL     1      -4.441   2.926 -33.047  1.00  0.00    -0.065 N 
HETATM    2  H   UNL     1      -4.117   2.401 -33.881  1.00  0.00     0.280 HD
HETATM    3  C   UNL     1      -3.263   3.079 -32.133  1.00  0.00     0.238 C 
HETATM    4  C   UNL     1      -2.436   4.270 -32.580  1.00  0.00     0.077 C 
HETATM    5  C   UNL     1      -3.221   5.611 -32.446  1.00  0.00     0.218 C 
HETATM    6  N   UNL     1      -2.763   6.524 -33.535  1.00  0.00     0.102 N 
HETATM    7  C   UNL     1      -1.348   6.931 -33.349  1.00  0.00     0.291 C 
HETATM    8  C   UNL     1      -0.940   7.489 -31.956  1.00  0.00     0.160 C 
HETATM    9  N   UNL     1      -1.818   7.044 -30.847  1.00  0.00    -0.331 N 
HETATM   10  C   UNL     1      -2.907   6.282 -31.079  1.00  0.00     0.123 A 
HETATM   11  C   UNL     1      -1.763   7.433 -29.486  1.00  0.00     0.061 A 
HETATM   12  C   UNL     1      -2.954   6.961 -28.966  1.00  0.00     0.120 A 
HETATM   13  N   UNL     1      -3.617   6.267 -29.950  1.00  0.00    -0.351 N 
HETATM   14  H   UNL     1      -4.534   5.851 -29.811  1.00  0.00     0.166 HD
HETATM   15  C   UNL     1      -4.739   5.358 -32.649  1.00  0.00     0.077 C 
HETATM   16  C   UNL     1      -5.006   4.211 -33.615  1.00  0.00     0.238 C 
HETATM   17  H   UNL     1      -3.328   7.380 -33.542  1.00  0.00     0.317 HD
ENDROOT
BRANCH   1  18
HETATM   18  C   UNL     1      -5.494   1.970 -32.492  1.00  0.00     0.299 C 
BRANCH  18  19
HETATM   19  C   UNL     1      -6.082   1.106 -33.542  1.00  0.00     0.079 A 
HETATM   20  O   UNL     1      -5.721  -0.212 -33.508  1.00  0.00    -0.318 OA
HETATM   21  C   UNL     1      -6.384  -0.829 -34.527  1.00  0.00     0.049 A 
HETATM   22  C   UNL     1      -6.163  -2.282 -34.693  1.00  0.00     0.076 C 
HETATM   23  C   UNL     1      -7.165   0.083 -35.205  1.00  0.00     0.035 A 
HETATM   24  C   UNL     1      -6.969   1.332 -34.570  1.00  0.00     0.037 A 
ENDBRANCH  18  19
ENDBRANCH   1  18
BRANCH  11  25
HETATM   25  C   UNL     1      -0.716   8.176 -28.691  1.00  0.00    -0.008 A 
HETATM   26  C   UNL     1       0.620   7.772 -28.664  1.00  0.00     0.014 A 
HETATM   27  C   UNL     1       1.553   8.450 -27.870  1.00  0.00     0.001 A 
HETATM   28  C   UNL     1       1.162   9.537 -27.097  1.00  0.00     0.000 A 
HETATM   29  C   UNL     1      -0.163   9.955 -27.118  1.00  0.00     0.001 A 
HETATM   30  C   UNL     1      -1.099   9.279 -27.908  1.00  0.00     0.014 A 
ENDBRANCH  11  25
TORSDOF 3
ENDMDL
MODEL 5
REMARK VINA RESULT:      -8.5      3.693      5.148
REMARK  3 active torsions:
REMARK  status: ('A' for Active; 'I' for Inactive)
REMARK    1  A    between atoms: C_4  and  C_5 
REMARK    2  A    between atoms: C_5  and  N_6 
REMARK    3  A    between atoms: C_16  and  C_17 
ROOT
HETATM    1  N   UNL     1      -8.408   5.342 -31.302  1.00  0.00    -0.065 N 
HETATM    2  H   UNL     1      -7.837   6.063 -30.822  1.00  0.00     0.280 HD
HETATM    3  C   UNL     1      -7.507   4.637 -32.271  1.00  0.00     0.238 C 
HETATM    4  C   UNL     1      -6.733   3.557 -31.539  1.00  0.00     0.077 C 
HETATM    5  C   UNL     1      -7.670   2.442 -30.980  1.00  0.00     0.218 C 
HETATM    6  N   UNL     1      -7.067   1.923 -29.717  1.00  0.00     0.102 N 
HETATM    7  C   UNL     1      -5.791   1.209 -29.972  1.00  0.00     0.291 C 
HETATM    8  C   UNL     1      -5.793   0.108 -31.071  1.00  0.00     0.160 C 
HETATM    9  N   UNL     1      -6.857   0.277 -32.090  1.00  0.00    -0.331 N 
HETATM   10  C   UNL     1      -7.768   1.267 -31.995  1.00  0.00     0.123 A 
HETATM   11  C   UNL     1      -7.173  -0.588 -33.166  1.00  0.00     0.061 A 
HETATM   12  C   UNL     1      -8.395  -0.118 -33.611  1.00  0.00     0.120 A 
HETATM   13  N   UNL     1      -8.722   1.004 -32.888  1.00  0.00    -0.351 N 
HETATM   14  H   UNL     1      -9.594   1.509 -33.017  1.00  0.00     0.166 HD
HETATM   15  C   UNL     1      -9.057   3.042 -30.630  1.00  0.00     0.077 C 
HETATM   16  C   UNL     1      -8.957   4.493 -30.176  1.00  0.00     0.238 C 
HETATM   17  H   UNL     1      -7.704   1.258 -29.265  1.00  0.00     0.317 HD
ENDROOT
BRANCH   1  18
HETATM   18  C   UNL     1      -9.451   6.212 -31.998  1.00  0.00     0.299 C 
BRANCH  18  19
HETATM   19  C   UNL     1      -9.918   5.622 -33.274  1.00  0.00     0.079 A 
HETATM   20  O   UNL     1     -10.779   4.565 -33.169  1.00  0.00    -0.318 OA
HETATM   21  C   UNL     1     -11.105   4.193 -34.439  1.00  0.00     0.049 A 
HETATM   22  C   UNL     1     -12.044   3.061 -34.589  1.00  0.00     0.076 C 
HETATM   23  C   UNL     1     -10.464   5.006 -35.350  1.00  0.00     0.035 A 
HETATM   24  C   UNL     1      -9.698   5.928 -34.598  1.00  0.00     0.037 A 
ENDBRANCH  18  19
ENDBRANCH   1  18
BRANCH  11  25
HETATM   25  C   UNL     1      -6.436  -1.761 -33.768  1.00  0.00    -0.008 A 
HETATM   26  C   UNL     1      -5.043  -1.796 -33.854  1.00  0.00     0.014 A 
HETATM   27  C   UNL     1      -4.394  -2.873 -34.470  1.00  0.00     0.001 A 
HETATM   28  C   UNL     1      -5.129  -3.925 -35.005  1.00  0.00     0.000 A 
HETATM   29  C   UNL     1      -6.516  -3.907 -34.922  1.00  0.00     0.001 A 
HETATM   30  C   UNL     1      -7.168  -2.833 -34.309  1.00  0.00     0.014 A 
ENDBRANCH  11  25
TORSDOF 3
ENDMDL
MODEL 6
REMARK VINA RESULT:      -8.4      2.473      8.486
REMARK  3 active torsions:
REMARK  status: ('A' for Active; 'I' for Inactive)
REMARK    1  A    between atoms: C_4  and  C_5 
REMARK    2  A    between atoms: C_5  and  N_6 
REMARK    3  A    between atoms: C_16  and  C_17 
ROOT
HETATM    1  N   UNL     1      -6.724  -0.229 -33.847  1.00  0.00    -0.065 N 
HETATM    2  H   UNL     1      -7.728  -0.485 -33.792  1.00  0.00     0.280 HD
HETATM    3  C   UNL     1      -6.655   1.258 -34.024  1.00  0.00     0.238 C 
HETATM    4  C   UNL     1      -6.765   1.928 -32.667  1.00  0.00     0.077 C 
HETATM    5  C   UNL     1      -5.558   1.579 -31.743  1.00  0.00     0.218 C 
HETATM    6  N   UNL     1      -6.048   1.557 -30.333  1.00  0.00     0.102 N 
HETATM    7  C   UNL     1      -6.458   2.909 -29.875  1.00  0.00     0.291 C 
HETATM    8  C   UNL     1      -5.448   4.073 -30.087  1.00  0.00     0.160 C 
HETATM    9  N   UNL     1      -4.478   3.837 -31.183  1.00  0.00    -0.331 N 
HETATM   10  C   UNL     1      -4.457   2.672 -31.863  1.00  0.00     0.123 A 
HETATM   11  C   UNL     1      -3.393   4.660 -31.575  1.00  0.00     0.061 A 
HETATM   12  C   UNL     1      -2.665   3.851 -32.428  1.00  0.00     0.120 A 
HETATM   13  N   UNL     1      -3.337   2.663 -32.585  1.00  0.00    -0.351 N 
HETATM   14  H   UNL     1      -2.978   1.896 -33.147  1.00  0.00     0.166 HD
HETATM   15  C   UNL     1      -5.026   0.161 -32.080  1.00  0.00     0.077 C 
HETATM   16  C   UNL     1      -6.132  -0.769 -32.563  1.00  0.00     0.238 C 
HETATM   17  H   UNL     1      -5.306   1.233 -29.703  1.00  0.00     0.317 HD
ENDROOT
BRANCH   1  18
HETATM   18  C   UNL     1      -6.299  -0.989 -35.101  1.00  0.00     0.299 C 
BRANCH  18  19
HETATM   19  C   UNL     1      -6.045  -2.424 -34.833  1.00  0.00     0.079 A 
HETATM   20  O   UNL     1      -4.756  -2.759 -34.524  1.00  0.00    -0.318 OA
HETATM   21  C   UNL     1      -4.743  -4.102 -34.289  1.00  0.00     0.049 A 
HETATM   22  C   UNL     1      -3.445  -4.708 -33.921  1.00  0.00     0.076 C 
HETATM   23  C   UNL     1      -6.010  -4.622 -34.441  1.00  0.00     0.035 A 
HETATM   24  C   UNL     1      -6.851  -3.539 -34.792  1.00  0.00     0.037 A 
ENDBRANCH  18  19
ENDBRANCH   1  18
BRANCH  11  25
HETATM   25  C   UNL     1      -3.024   6.080 -31.217  1.00  0.00    -0.008 A 
HETATM   26  C   UNL     1      -3.842   7.163 -31.545  1.00  0.00     0.014 A 
HETATM   27  C   UNL     1      -3.441   8.472 -31.249  1.00  0.00     0.001 A 
HETATM   28  C   UNL     1      -2.223   8.712 -30.624  1.00  0.00     0.000 A 
HETATM   29  C   UNL     1      -1.400   7.643 -30.287  1.00  0.00     0.001 A 
HETATM   30  C   UNL     1      -1.796   6.335 -30.582  1.00  0.00     0.014 A 
ENDBRANCH  11  25
TORSDOF 3
ENDMDL
MODEL 7
REMARK VINA RESULT:      -8.3      2.343      7.645
REMARK  3 active torsions:
REMARK  status: ('A' for Active; 'I' for Inactive)
REMARK    1  A    between atoms: C_4  and  C_5 
REMARK    2  A    between atoms: C_5  and  N_6 
REMARK    3  A    between atoms: C_16  and  C_17 
ROOT
HETATM    1  N   UNL     1      -8.551   1.197 -33.055  1.00  0.00    -0.065 N 
HETATM    2  H   UNL     1      -9.434   1.520 -33.494  1.00  0.00     0.280 HD
HETATM    3  C   UNL     1      -7.427   1.900 -33.753  1.00  0.00     0.238 C 
HETATM    4  C   UNL     1      -7.243   3.277 -33.141  1.00  0.00     0.077 C 
HETATM    5  C   UNL     1      -6.801   3.199 -31.648  1.00  0.00     0.218 C 
HETATM    6  N   UNL     1      -7.377   4.377 -30.934  1.00  0.00     0.102 N 
HETATM    7  C   UNL     1      -6.779   5.651 -31.408  1.00  0.00     0.291 C 
HETATM    8  C   UNL     1      -5.226   5.740 -31.452  1.00  0.00     0.160 C 
HETATM    9  N   UNL     1      -4.550   4.425 -31.559  1.00  0.00    -0.331 N 
HETATM   10  C   UNL     1      -5.251   3.273 -31.543  1.00  0.00     0.123 A 
HETATM   11  C   UNL     1      -3.158   4.161 -31.543  1.00  0.00     0.061 A 
HETATM   12  C   UNL     1      -3.091   2.789 -31.385  1.00  0.00     0.120 A 
HETATM   13  N   UNL     1      -4.369   2.284 -31.395  1.00  0.00    -0.351 N 
HETATM   14  H   UNL     1      -4.574   1.297 -31.264  1.00  0.00     0.166 HD
HETATM   15  C   UNL     1      -7.381   1.920 -30.990  1.00  0.00     0.077 C 
HETATM   16  C   UNL     1      -8.725   1.524 -31.588  1.00  0.00     0.238 C 
HETATM   17  H   UNL     1      -7.192   4.310 -29.927  1.00  0.00     0.317 HD
ENDROOT
BRANCH   1  18
HETATM   18  C   UNL     1      -8.597  -0.295 -33.374  1.00  0.00     0.299 C 
BRANCH  18  19
HETATM   19  C   UNL     1      -7.254  -0.855 -33.650  1.00  0.00     0.079 A 
HETATM   20  O   UNL     1      -6.348  -0.778 -32.629  1.00  0.00    -0.318 OA
HETATM   21  C   UNL     1      -5.201  -1.366 -33.073  1.00  0.00     0.049 A 
HETATM   22  C   UNL     1      -4.062  -1.415 -32.132  1.00  0.00     0.076 C 
HETATM   23  C   UNL     1      -5.370  -1.819 -34.364  1.00  0.00     0.035 A 
HETATM   24  C   UNL     1      -6.695  -1.490 -34.737  1.00  0.00     0.037 A 
ENDBRANCH  18  19
ENDBRANCH   1  18
BRANCH  11  25
HETATM   25  C   UNL     1      -1.957   5.068 -31.663  1.00  0.00    -0.008 A 
HETATM   26  C   UNL     1      -0.933   5.072 -30.714  1.00  0.00     0.014 A 
HETATM   27  C   UNL     1       0.138   5.967 -30.826  1.00  0.00     0.001 A 
HETATM   28  C   UNL     1       0.197   6.866 -31.885  1.00  0.00     0.000 A 
HETATM   29  C   UNL     1      -0.812   6.871 -32.841  1.00  0.00     0.001 A 
HETATM   30  C   UNL     1      -1.884   5.979 -32.732  1.00  0.00     0.014 A 
ENDBRANCH  11  25
TORSDOF 3
ENDMDL
MODEL 8
REMARK VINA RESULT:      -8.3      2.046      2.800
REMARK  3 active torsions:
REMARK  status: ('A' for Active; 'I' for Inactive)
REMARK    1  A    between atoms: C_4  and  C_5 
REMARK    2  A    between atoms: C_5  and  N_6 
REMARK    3  A    between atoms: C_16  and  C_17 
ROOT
HETATM    1  N   UNL     1      -7.533   4.476 -30.469  1.00  0.00    -0.065 N 
HETATM    2  H   UNL     1      -8.445   4.797 -30.091  1.00  0.00     0.280 HD
HETATM    3  C   UNL     1      -7.465   2.993 -30.262  1.00  0.00     0.238 C 
HETATM    4  C   UNL     1      -8.196   2.297 -31.395  1.00  0.00     0.077 C 
HETATM    5  C   UNL     1      -7.507   2.540 -32.773  1.00  0.00     0.218 C 
HETATM    6  N   UNL     1      -8.569   2.558 -33.822  1.00  0.00     0.102 N 
HETATM    7  C   UNL     1      -9.203   1.226 -33.982  1.00  0.00     0.291 C 
HETATM    8  C   UNL     1      -8.261   0.002 -34.174  1.00  0.00     0.160 C 
HETATM    9  N   UNL     1      -6.896   0.202 -33.631  1.00  0.00    -0.331 N 
HETATM   10  C   UNL     1      -6.521   1.380 -33.093  1.00  0.00     0.123 A 
HETATM   11  C   UNL     1      -5.792  -0.681 -33.714  1.00  0.00     0.061 A 
HETATM   12  C   UNL     1      -4.723   0.099 -33.312  1.00  0.00     0.120 A 
HETATM   13  N   UNL     1      -5.198   1.334 -32.939  1.00  0.00    -0.351 N 
HETATM   14  H   UNL     1      -4.591   2.090 -32.633  1.00  0.00     0.166 HD
HETATM   15  C   UNL     1      -6.813   3.928 -32.780  1.00  0.00     0.077 C 
HETATM   16  C   UNL     1      -7.546   4.942 -31.909  1.00  0.00     0.238 C 
HETATM   17  H   UNL     1      -8.167   2.816 -34.731  1.00  0.00     0.317 HD
ENDROOT
BRANCH   1  18
HETATM   18  C   UNL     1      -6.562   5.239 -29.572  1.00  0.00     0.299 C 
BRANCH  18  19
HETATM   19  C   UNL     1      -5.329   5.641 -30.288  1.00  0.00     0.079 A 
HETATM   20  O   UNL     1      -4.449   4.637 -30.580  1.00  0.00    -0.318 OA
HETATM   21  C   UNL     1      -3.410   5.206 -31.254  1.00  0.00     0.049 A 
HETATM   22  C   UNL     1      -2.319   4.309 -31.692  1.00  0.00     0.076 C 
HETATM   23  C   UNL     1      -3.623   6.560 -31.397  1.00  0.00     0.035 A 
HETATM   24  C   UNL     1      -4.862   6.841 -30.773  1.00  0.00     0.037 A 
ENDBRANCH  18  19
ENDBRANCH   1  18
BRANCH  11  25
HETATM   25  C   UNL     1      -5.687  -2.131 -34.122  1.00  0.00    -0.008 A 
HETATM   26  C   UNL     1      -6.776  -2.835 -34.640  1.00  0.00     0.014 A 
HETATM   27  C   UNL     1      -6.660  -4.194 -34.955  1.00  0.00     0.001 A 
HETATM   28  C   UNL     1      -5.457  -4.863 -34.757  1.00  0.00     0.000 A 
HETATM   29  C   UNL     1      -4.363  -4.174 -34.248  1.00  0.00     0.001 A 
HETATM   30  C   UNL     1      -4.475  -2.817 -33.931  1.00  0.00     0.014 A 
ENDBRANCH  11  25
TORSDOF 3
ENDMDL
MODEL 9
REMARK VINA RESULT:      -8.1      3.177      5.711
REMARK  3 active torsions:
REMARK  status: ('A' for Active; 'I' for Inactive)
REMARK    1  A    between atoms: C_4  and  C_5 
REMARK    2  A    between atoms: C_5  and  N_6 
REMARK    3  A    between atoms: C_16  and  C_17 
ROOT
HETATM    1  N   UNL     1      -0.701   6.697 -29.587  1.00  0.00    -0.065 N 
HETATM    2  H   UNL     1      -0.494   7.712 -29.648  1.00  0.00     0.280 HD
HETATM    3  C   UNL     1      -2.185   6.538 -29.726  1.00  0.00     0.238 C 
HETATM    4  C   UNL     1      -2.551   6.539 -31.199  1.00  0.00     0.077 C 
HETATM    5  C   UNL     1      -1.946   5.315 -31.953  1.00  0.00     0.218 C 
HETATM    6  N   UNL     1      -1.646   5.739 -33.353  1.00  0.00     0.102 N 
HETATM    7  C   UNL     1      -2.887   6.036 -34.113  1.00  0.00     0.291 C 
HETATM    8  C   UNL     1      -4.013   4.963 -34.092  1.00  0.00     0.160 C 
HETATM    9  N   UNL     1      -3.967   4.063 -32.914  1.00  0.00    -0.331 N 
HETATM   10  C   UNL     1      -2.977   4.152 -32.003  1.00  0.00     0.123 A 
HETATM   11  C   UNL     1      -4.795   2.946 -32.642  1.00  0.00     0.061 A 
HETATM   12  C   UNL     1      -4.151   2.314 -31.594  1.00  0.00     0.120 A 
HETATM   13  N   UNL     1      -3.063   3.070 -31.228  1.00  0.00    -0.351 N 
HETATM   14  H   UNL     1      -2.417   2.790 -30.496  1.00  0.00     0.166 HD
HETATM   15  C   UNL     1      -0.607   4.895 -31.290  1.00  0.00     0.077 C 
HETATM   16  C   UNL     1       0.134   6.082 -30.688  1.00  0.00     0.238 C 
HETATM   17  H   UNL     1      -1.153   4.990 -33.853  1.00  0.00     0.317 HD
ENDROOT
BRANCH   1  18
HETATM   18  C   UNL     1      -0.208   6.384 -28.176  1.00  0.00     0.299 C 
BRANCH  18  19
HETATM   19  C   UNL     1       0.670   7.447 -27.636  1.00  0.00     0.079 A 
HETATM   20  O   UNL     1       1.008   7.336 -26.316  1.00  0.00    -0.318 OA
HETATM   21  C   UNL     1       1.831   8.384 -26.029  1.00  0.00     0.049 A 
HETATM   22  C   UNL     1       2.345   8.478 -24.646  1.00  0.00     0.076 C 
HETATM   23  C   UNL     1       2.023   9.157 -27.154  1.00  0.00     0.035 A 
HETATM   24  C   UNL     1       1.274   8.553 -28.191  1.00  0.00     0.037 A 
ENDBRANCH  18  19
ENDBRANCH   1  18
BRANCH  11  25
HETATM   25  C   UNL     1      -6.081   2.467 -33.270  1.00  0.00    -0.008 A 
HETATM   26  C   UNL     1      -7.249   3.233 -33.244  1.00  0.00     0.014 A 
HETATM   27  C   UNL     1      -8.440   2.733 -33.786  1.00  0.00     0.001 A 
HETATM   28  C   UNL     1      -8.476   1.467 -34.360  1.00  0.00     0.000 A 
HETATM   29  C   UNL     1      -7.321   0.696 -34.398  1.00  0.00     0.001 A 
HETATM   30  C   UNL     1      -6.130   1.190 -33.857  1.00  0.00     0.014 A 
ENDBRANCH  11  25
TORSDOF 3
ENDMDL
MODEL 10
REMARK VINA RESULT:      -8.1      5.344      9.072
REMARK  3 active torsions:
REMARK  status: ('A' for Active; 'I' for Inactive)
REMARK    1  A    between atoms: C_4  and  C_5 
REMARK    2  A    between atoms: C_5  and  N_6 
REMARK    3  A    between atoms: C_16  and  C_17 
ROOT
HETATM    1  N   UNL     1      -7.906  -0.020 -33.151  1.00  0.00    -0.065 N 
HETATM    2  H   UNL     1      -8.154  -1.007 -33.348  1.00  0.00     0.280 HD
HETATM    3  C   UNL     1      -8.213   0.770 -34.387  1.00  0.00     0.238 C 
HETATM    4  C   UNL     1      -9.687   1.128 -34.398  1.00  0.00     0.077 C 
HETATM    5  C   UNL     1     -10.068   2.073 -33.217  1.00  0.00     0.218 C 
HETATM    6  N   UNL     1     -11.471   1.761 -32.811  1.00  0.00     0.102 N 
HETATM    7  C   UNL     1     -12.441   2.125 -33.874  1.00  0.00     0.291 C 
HETATM    8  C   UNL     1     -12.347   3.560 -34.469  1.00  0.00     0.160 C 
HETATM    9  N   UNL     1     -11.008   4.182 -34.331  1.00  0.00    -0.331 N 
HETATM   10  C   UNL     1     -10.009   3.557 -33.676  1.00  0.00     0.123 A 
HETATM   11  C   UNL     1     -10.619   5.495 -34.696  1.00  0.00     0.061 A 
HETATM   12  C   UNL     1      -9.381   5.643 -34.100  1.00  0.00     0.120 A 
HETATM   13  N   UNL     1      -9.039   4.455 -33.498  1.00  0.00    -0.351 N 
HETATM   14  H   UNL     1      -8.181   4.331 -32.969  1.00  0.00     0.166 HD
HETATM   15  C   UNL     1      -9.151   1.791 -31.997  1.00  0.00     0.077 C 
HETATM   16  C   UNL     1      -8.722   0.331 -31.925  1.00  0.00     0.238 C 
HETATM   17  H   UNL     1     -11.725   2.292 -31.971  1.00  0.00     0.317 HD
ENDROOT
BRANCH   1  18
HETATM   18  C   UNL     1      -6.407  -0.143 -32.891  1.00  0.00     0.299 C 
BRANCH  18  19
HETATM   19  C   UNL     1      -5.814  -1.325 -33.558  1.00  0.00     0.079 A 
HETATM   20  O   UNL     1      -6.697  -2.246 -34.048  1.00  0.00    -0.318 OA
HETATM   21  C   UNL     1      -5.958  -3.227 -34.639  1.00  0.00     0.049 A 
HETATM   22  C   UNL     1      -6.698  -4.347 -35.260  1.00  0.00     0.076 C 
HETATM   23  C   UNL     1      -4.614  -2.937 -34.534  1.00  0.00     0.035 A 
HETATM   24  C   UNL     1      -4.521  -1.709 -33.836  1.00  0.00     0.037 A 
ENDBRANCH  18  19
ENDBRANCH   1  18
BRANCH  11  25
HETATM   25  C   UNL     1     -11.303   6.555 -35.526  1.00  0.00    -0.008 A 
HETATM   26  C   UNL     1     -12.683   6.557 -35.736  1.00  0.00     0.014 A 
HETATM   27  C   UNL     1     -13.277   7.522 -36.558  1.00  0.00     0.001 A 
HETATM   28  C   UNL     1     -12.500   8.494 -37.178  1.00  0.00     0.000 A 
HETATM   29  C   UNL     1     -11.125   8.509 -36.974  1.00  0.00     0.001 A 
HETATM   30  C   UNL     1     -10.528   7.546 -36.155  1.00  0.00     0.014 A 
ENDBRANCH  11  25
TORSDOF 3
ENDMDL
