MODEL 1
REMARK VINA RESULT:      -9.9      0.000      0.000
REMARK  7 active torsions:
REMARK  status: ('A' for Active; 'I' for Inactive)
REMARK    1  A    between atoms: C_5  and  N_6 
REMARK    2  A    between atoms: C_7  and  S_8 
REMARK    3  A    between atoms: S_8  and  C_9 
REMARK    4  A    between atoms: C_9  and  C_10 
REMARK       I    between atoms: C_10  and  N_11 
REMARK    5  A    between atoms: C_13  and  C_14 
REMARK    6  A    between atoms: C_14  and  N_15 
REMARK       I    between atoms: N_15  and  C_16 
REMARK       I    between atoms: C_16  and  N_17 
REMARK    7  A    between atoms: N_17  and  C_18 
ROOT
HETATM    1  C   UNL     1      -5.276   5.494 -32.967  1.00  0.00     0.229 C 
HETATM    2  N   UNL     1      -3.958   5.551 -33.437  1.00  0.00    -0.351 N 
HETATM    3  C   UNL     1      -2.985   6.222 -32.575  1.00  0.00     0.132 C 
HETATM    4  C   UNL     1      -1.558   5.687 -32.769  1.00  0.00     0.021 C 
HETATM    5  C   UNL     1      -1.179   5.699 -34.256  1.00  0.00     0.009 C 
HETATM    6  C   UNL     1      -2.222   4.952 -35.085  1.00  0.00     0.020 C 
HETATM    7  C   UNL     1      -3.618   5.517 -34.859  1.00  0.00     0.126 C 
HETATM    8  O   UNL     1      -5.591   6.033 -31.902  1.00  0.00    -0.273 OA
ENDROOT
BRANCH   1   9
HETATM    9  C   UNL     1      -6.339   4.809 -33.816  1.00  0.00     0.185 C 
BRANCH   9  10
HETATM   10  S   UNL     1      -6.039   3.030 -34.042  1.00  0.00    -0.082 SA
BRANCH  10  11
HETATM   11  C   UNL     1      -7.073   2.338 -32.830  1.00  0.00     0.173 A 
HETATM   12  N   UNL     1      -7.040   1.004 -32.445  1.00  0.00    -0.299 N 
HETATM   13  C   UNL     1      -8.111   0.847 -31.584  1.00  0.00     0.118 A 
HETATM   14  C   UNL     1      -8.719   2.074 -31.499  1.00  0.00     0.137 A 
HETATM   15  N   UNL     1      -8.081   2.985 -32.287  1.00  0.00    -0.235 NA
BRANCH  12  16
HETATM   16  C   UNL     1      -6.085  -0.010 -32.749  1.00  0.00     0.047 A 
HETATM   17  C   UNL     1      -6.249  -0.882 -33.855  1.00  0.00    -0.029 A 
HETATM   18  C   UNL     1      -5.335  -1.954 -34.014  1.00  0.00    -0.054 A 
HETATM   19  C   UNL     1      -7.334  -0.683 -34.888  1.00  0.00     0.051 C 
HETATM   20  C   UNL     1      -5.451  -2.945 -35.143  1.00  0.00     0.049 C 
HETATM   21  C   UNL     1      -4.252  -2.085 -33.129  1.00  0.00     0.007 A 
HETATM   22  C   UNL     1      -4.081  -1.197 -32.072  1.00  0.00     0.003 A 
HETATM   23  C   UNL     1      -4.999  -0.171 -31.873  1.00  0.00     0.030 A 
ENDBRANCH  12  16
ENDBRANCH  10  11
ENDBRANCH   9  10
ENDBRANCH   1   9
BRANCH   4  24
HETATM   24  C   UNL     1      -0.589   6.503 -31.902  1.00  0.00     0.130 C 
BRANCH  24  25
HETATM   25  N   UNL     1      -0.040   5.731 -30.799  1.00  0.00    -0.342 N 
HETATM   26  C   UNL     1       0.284   6.077 -29.521  1.00  0.00     0.320 C 
HETATM   27  N   UNL     1      -0.064   7.339 -29.132  1.00  0.00    -0.309 N 
HETATM   28  O   UNL     1       0.861   5.236 -28.839  1.00  0.00    -0.247 OA
HETATM   29  H   UNL     1      -0.646   7.858 -29.766  1.00  0.00     0.170 HD
HETATM   30  H   UNL     1       0.267   4.787 -31.007  1.00  0.00     0.164 HD
BRANCH  27  31
HETATM   31  C   UNL     1       0.214   7.970 -27.901  1.00  0.00     0.039 A 
HETATM   32  C   UNL     1      -0.713   8.114 -26.869  1.00  0.00     0.071 A 
HETATM   33  C   UNL     1      -0.340   8.746 -25.686  1.00  0.00     0.118 A 
HETATM   34  F   UNL     1      -1.236   8.880 -24.698  1.00  0.00    -0.206 F 
HETATM   35  C   UNL     1       0.947   9.240 -25.504  1.00  0.00     0.042 A 
HETATM   36  C   UNL     1       1.880   9.098 -26.524  1.00  0.00     0.005 A 
HETATM   37  C   UNL     1       1.516   8.465 -27.716  1.00  0.00     0.030 A 
ENDBRANCH  27  31
ENDBRANCH  24  25
ENDBRANCH   4  24
TORSDOF 7
ENDMDL
MODEL 2
REMARK VINA RESULT:      -9.8      3.869     10.516
REMARK  7 active torsions:
REMARK  status: ('A' for Active; 'I' for Inactive)
REMARK    1  A    between atoms: C_5  and  N_6 
REMARK    2  A    between atoms: C_7  and  S_8 
REMARK    3  A    between atoms: S_8  and  C_9 
REMARK    4  A    between atoms: C_9  and  C_10 
REMARK       I    between atoms: C_10  and  N_11 
REMARK    5  A    between atoms: C_13  and  C_14 
REMARK    6  A    between atoms: C_14  and  N_15 
REMARK       I    between atoms: N_15  and  C_16 
REMARK       I    between atoms: C_16  and  N_17 
REMARK    7  A    between atoms: N_17  and  C_18 
ROOT
HETATM    1  C   UNL     1      -6.332   5.196 -32.887  1.00  0.00     0.229 C 
HETATM    2  N   UNL     1      -7.315   4.422 -32.259  1.00  0.00    -0.351 N 
HETATM    3  C   UNL     1      -8.023   3.456 -33.098  1.00  0.00     0.132 C 
HETATM    4  C   UNL     1      -8.535   2.247 -32.302  1.00  0.00     0.021 C 
HETATM    5  C   UNL     1      -9.342   2.712 -31.081  1.00  0.00     0.009 C 
HETATM    6  C   UNL     1      -8.526   3.689 -30.237  1.00  0.00     0.020 C 
HETATM    7  C   UNL     1      -8.040   4.869 -31.069  1.00  0.00     0.126 C 
HETATM    8  O   UNL     1      -6.123   5.090 -34.099  1.00  0.00    -0.273 OA
ENDROOT
BRANCH   1   9
HETATM    9  C   UNL     1      -5.557   6.222 -32.069  1.00  0.00     0.185 C 
BRANCH   9  10
HETATM   10  S   UNL     1      -4.020   5.559 -31.360  1.00  0.00    -0.082 SA
BRANCH  10  11
HETATM   11  C   UNL     1      -2.824   6.203 -32.442  1.00  0.00     0.173 A 
HETATM   12  N   UNL     1      -1.555   6.611 -32.049  1.00  0.00    -0.299 N 
HETATM   13  C   UNL     1      -0.995   7.191 -33.173  1.00  0.00     0.118 A 
HETATM   14  C   UNL     1      -1.939   7.100 -34.164  1.00  0.00     0.137 A 
HETATM   15  N   UNL     1      -3.073   6.504 -33.697  1.00  0.00    -0.235 NA
BRANCH  12  16
HETATM   16  C   UNL     1      -0.877   6.419 -30.810  1.00  0.00     0.047 A 
HETATM   17  C   UNL     1      -0.885   7.408 -29.793  1.00  0.00    -0.029 A 
HETATM   18  C   UNL     1      -0.075   7.206 -28.647  1.00  0.00    -0.054 A 
HETATM   19  C   UNL     1      -1.753   8.641 -29.872  1.00  0.00     0.051 C 
HETATM   20  C   UNL     1       0.000   8.218 -27.533  1.00  0.00     0.049 C 
HETATM   21  C   UNL     1       0.649   6.012 -28.504  1.00  0.00     0.007 A 
HETATM   22  C   UNL     1       0.614   5.033 -29.491  1.00  0.00     0.003 A 
HETATM   23  C   UNL     1      -0.135   5.238 -30.646  1.00  0.00     0.030 A 
ENDBRANCH  12  16
ENDBRANCH  10  11
ENDBRANCH   9  10
ENDBRANCH   1   9
BRANCH   4  24
HETATM   24  C   UNL     1      -9.343   1.332 -33.234  1.00  0.00     0.130 C 
BRANCH  24  25
HETATM   25  N   UNL     1      -8.682   1.112 -34.511  1.00  0.00    -0.342 N 
HETATM   26  C   UNL     1      -7.762   0.189 -34.910  1.00  0.00     0.320 C 
HETATM   27  N   UNL     1      -7.469  -0.797 -34.010  1.00  0.00    -0.309 N 
HETATM   28  O   UNL     1      -7.277   0.324 -36.028  1.00  0.00    -0.247 OA
HETATM   29  H   UNL     1      -8.048  -0.841 -33.191  1.00  0.00     0.170 HD
HETATM   30  H   UNL     1      -8.828   1.812 -35.230  1.00  0.00     0.164 HD
BRANCH  27  31
HETATM   31  C   UNL     1      -6.512  -1.825 -34.140  1.00  0.00     0.039 A 
HETATM   32  C   UNL     1      -6.755  -3.046 -34.768  1.00  0.00     0.071 A 
HETATM   33  C   UNL     1      -5.740  -3.996 -34.851  1.00  0.00     0.118 A 
HETATM   34  F   UNL     1      -5.982  -5.167 -35.458  1.00  0.00    -0.206 F 
HETATM   35  C   UNL     1      -4.478  -3.755 -34.322  1.00  0.00     0.042 A 
HETATM   36  C   UNL     1      -4.223  -2.540 -33.697  1.00  0.00     0.005 A 
HETATM   37  C   UNL     1      -5.235  -1.579 -33.608  1.00  0.00     0.030 A 
ENDBRANCH  27  31
ENDBRANCH  24  25
ENDBRANCH   4  24
TORSDOF 7
ENDMDL
MODEL 3
REMARK VINA RESULT:      -9.6      3.972     10.275
REMARK  7 active torsions:
REMARK  status: ('A' for Active; 'I' for Inactive)
REMARK    1  A    between atoms: C_5  and  N_6 
REMARK    2  A    between atoms: C_7  and  S_8 
REMARK    3  A    between atoms: S_8  and  C_9 
REMARK    4  A    between atoms: C_9  and  C_10 
REMARK       I    between atoms: C_10  and  N_11 
REMARK    5  A    between atoms: C_13  and  C_14 
REMARK    6  A    between atoms: C_14  and  N_15 
REMARK       I    between atoms: N_15  and  C_16 
REMARK       I    between atoms: C_16  and  N_17 
REMARK    7  A    between atoms: N_17  and  C_18 
ROOT
HETATM    1  C   UNL     1      -5.781   6.026 -30.052  1.00  0.00     0.229 C 
HETATM    2  N   UNL     1      -5.209   5.182 -31.012  1.00  0.00    -0.351 N 
HETATM    3  C   UNL     1      -5.992   4.011 -31.403  1.00  0.00     0.132 C 
HETATM    4  C   UNL     1      -5.687   3.549 -32.836  1.00  0.00     0.021 C 
HETATM    5  C   UNL     1      -4.175   3.375 -33.032  1.00  0.00     0.009 C 
HETATM    6  C   UNL     1      -3.429   4.648 -32.637  1.00  0.00     0.020 C 
HETATM    7  C   UNL     1      -3.764   5.066 -31.211  1.00  0.00     0.126 C 
HETATM    8  O   UNL     1      -6.868   5.750 -29.535  1.00  0.00    -0.273 OA
ENDROOT
BRANCH   1   9
HETATM    9  C   UNL     1      -5.017   7.265 -29.601  1.00  0.00     0.185 C 
BRANCH   9  10
HETATM   10  S   UNL     1      -4.105   7.017 -28.048  1.00  0.00    -0.082 SA
BRANCH  10  11
HETATM   11  C   UNL     1      -3.138   8.458 -27.969  1.00  0.00     0.173 A 
HETATM   12  N   UNL     1      -2.024   8.695 -28.764  1.00  0.00    -0.299 N 
HETATM   13  C   UNL     1      -1.472   9.866 -28.278  1.00  0.00     0.118 A 
HETATM   14  C   UNL     1      -2.271  10.264 -27.236  1.00  0.00     0.137 A 
HETATM   15  N   UNL     1      -3.288   9.377 -27.041  1.00  0.00    -0.235 NA
BRANCH  12  16
HETATM   16  C   UNL     1      -1.551   7.988 -29.908  1.00  0.00     0.047 A 
HETATM   17  C   UNL     1      -0.628   6.917 -29.795  1.00  0.00    -0.029 A 
HETATM   18  C   UNL     1      -0.097   6.353 -30.982  1.00  0.00    -0.054 A 
HETATM   19  C   UNL     1      -0.227   6.333 -28.461  1.00  0.00     0.051 C 
HETATM   20  C   UNL     1       0.911   5.233 -30.955  1.00  0.00     0.049 C 
HETATM   21  C   UNL     1      -0.547   6.806 -32.233  1.00  0.00     0.007 A 
HETATM   22  C   UNL     1      -1.484   7.829 -32.328  1.00  0.00     0.003 A 
HETATM   23  C   UNL     1      -1.977   8.428 -31.172  1.00  0.00     0.030 A 
ENDBRANCH  12  16
ENDBRANCH  10  11
ENDBRANCH   9  10
ENDBRANCH   1   9
BRANCH   4  24
HETATM   24  C   UNL     1      -6.477   2.266 -33.133  1.00  0.00     0.130 C 
BRANCH  24  25
HETATM   25  N   UNL     1      -6.244   1.225 -32.145  1.00  0.00    -0.342 N 
HETATM   26  C   UNL     1      -6.017  -0.113 -32.273  1.00  0.00     0.320 C 
HETATM   27  N   UNL     1      -5.855  -0.578 -33.547  1.00  0.00    -0.309 N 
HETATM   28  O   UNL     1      -5.985  -0.779 -31.243  1.00  0.00    -0.247 OA
HETATM   29  H   UNL     1      -5.780   0.116 -34.270  1.00  0.00     0.170 HD
HETATM   30  H   UNL     1      -6.368   1.480 -31.172  1.00  0.00     0.164 HD
BRANCH  27  31
HETATM   31  C   UNL     1      -5.679  -1.916 -33.960  1.00  0.00     0.039 A 
HETATM   32  C   UNL     1      -4.491  -2.630 -33.814  1.00  0.00     0.071 A 
HETATM   33  C   UNL     1      -4.420  -3.951 -34.250  1.00  0.00     0.118 A 
HETATM   34  F   UNL     1      -3.274  -4.632 -34.105  1.00  0.00    -0.206 F 
HETATM   35  C   UNL     1      -5.514  -4.583 -34.828  1.00  0.00     0.042 A 
HETATM   36  C   UNL     1      -6.705  -3.881 -34.975  1.00  0.00     0.005 A 
HETATM   37  C   UNL     1      -6.787  -2.554 -34.542  1.00  0.00     0.030 A 
ENDBRANCH  27  31
ENDBRANCH  24  25
ENDBRANCH   4  24
TORSDOF 7
ENDMDL
MODEL 4
REMARK VINA RESULT:      -9.4      1.466      1.883
REMARK  7 active torsions:
REMARK  status: ('A' for Active; 'I' for Inactive)
REMARK    1  A    between atoms: C_5  and  N_6 
REMARK    2  A    between atoms: C_7  and  S_8 
REMARK    3  A    between atoms: S_8  and  C_9 
REMARK    4  A    between atoms: C_9  and  C_10 
REMARK       I    between atoms: C_10  and  N_11 
REMARK    5  A    between atoms: C_13  and  C_14 
REMARK    6  A    between atoms: C_14  and  N_15 
REMARK       I    between atoms: N_15  and  C_16 
REMARK       I    between atoms: C_16  and  N_17 
REMARK    7  A    between atoms: N_17  and  C_18 
ROOT
HETATM    1  C   UNL     1      -4.517   5.201 -31.492  1.00  0.00     0.229 C 
HETATM    2  N   UNL     1      -3.292   5.755 -31.882  1.00  0.00    -0.351 N 
HETATM    3  C   UNL     1      -2.371   6.127 -30.810  1.00  0.00     0.132 C 
HETATM    4  C   UNL     1      -0.900   6.068 -31.250  1.00  0.00     0.021 C 
HETATM    5  C   UNL     1      -0.695   6.866 -32.545  1.00  0.00     0.009 C 
HETATM    6  C   UNL     1      -1.668   6.398 -33.626  1.00  0.00     0.020 C 
HETATM    7  C   UNL     1      -3.110   6.475 -33.144  1.00  0.00     0.126 C 
HETATM    8  O   UNL     1      -4.807   5.088 -30.296  1.00  0.00    -0.273 OA
ENDROOT
BRANCH   1   9
HETATM    9  C   UNL     1      -5.524   4.792 -32.560  1.00  0.00     0.185 C 
BRANCH   9  10
HETATM   10  S   UNL     1      -5.314   3.076 -33.121  1.00  0.00    -0.082 SA
BRANCH  10  11
HETATM   11  C   UNL     1      -6.613   2.270 -32.295  1.00  0.00     0.173 A 
HETATM   12  N   UNL     1      -6.771   0.891 -32.248  1.00  0.00    -0.299 N 
HETATM   13  C   UNL     1      -7.993   0.686 -31.634  1.00  0.00     0.118 A 
HETATM   14  C   UNL     1      -8.494   1.931 -31.349  1.00  0.00     0.137 A 
HETATM   15  N   UNL     1      -7.642   2.905 -31.778  1.00  0.00    -0.235 NA
BRANCH  12  16
HETATM   16  C   UNL     1      -5.872  -0.145 -32.635  1.00  0.00     0.047 A 
HETATM   17  C   UNL     1      -6.091  -0.930 -33.795  1.00  0.00    -0.029 A 
HETATM   18  C   UNL     1      -5.233  -2.031 -34.040  1.00  0.00    -0.054 A 
HETATM   19  C   UNL     1      -7.177  -0.608 -34.795  1.00  0.00     0.051 C 
HETATM   20  C   UNL     1      -5.412  -2.936 -35.232  1.00  0.00     0.049 C 
HETATM   21  C   UNL     1      -4.147  -2.274 -33.184  1.00  0.00     0.007 A 
HETATM   22  C   UNL     1      -3.920  -1.471 -32.072  1.00  0.00     0.003 A 
HETATM   23  C   UNL     1      -4.784  -0.417 -31.789  1.00  0.00     0.030 A 
ENDBRANCH  12  16
ENDBRANCH  10  11
ENDBRANCH   9  10
ENDBRANCH   1   9
BRANCH   4  24
HETATM   24  C   UNL     1      -0.008   6.560 -30.101  1.00  0.00     0.130 C 
BRANCH  24  25
HETATM   25  N   UNL     1      -0.461   6.092 -28.801  1.00  0.00    -0.342 N 
HETATM   26  C   UNL     1      -0.226   6.550 -27.539  1.00  0.00     0.320 C 
HETATM   27  N   UNL     1       0.458   7.728 -27.443  1.00  0.00    -0.309 N 
HETATM   28  O   UNL     1      -0.640   5.869 -26.606  1.00  0.00    -0.247 OA
HETATM   29  H   UNL     1       0.613   8.227 -28.301  1.00  0.00     0.170 HD
HETATM   30  H   UNL     1      -0.959   5.209 -28.779  1.00  0.00     0.164 HD
BRANCH  27  31
HETATM   31  C   UNL     1       0.890   8.381 -26.269  1.00  0.00     0.039 A 
HETATM   32  C   UNL     1       2.196   8.330 -25.781  1.00  0.00     0.071 A 
HETATM   33  C   UNL     1       2.526   9.016 -24.615  1.00  0.00     0.118 A 
HETATM   34  F   UNL     1       3.783   8.963 -24.152  1.00  0.00    -0.206 F 
HETATM   35  C   UNL     1       1.580   9.760 -23.920  1.00  0.00     0.042 A 
HETATM   36  C   UNL     1       0.276   9.820 -24.399  1.00  0.00     0.005 A 
HETATM   37  C   UNL     1      -0.066   9.136 -25.569  1.00  0.00     0.030 A 
ENDBRANCH  27  31
ENDBRANCH  24  25
ENDBRANCH   4  24
TORSDOF 7
ENDMDL
MODEL 5
REMARK VINA RESULT:      -9.2      3.686     10.265
REMARK  7 active torsions:
REMARK  status: ('A' for Active; 'I' for Inactive)
REMARK    1  A    between atoms: C_5  and  N_6 
REMARK    2  A    between atoms: C_7  and  S_8 
REMARK    3  A    between atoms: S_8  and  C_9 
REMARK    4  A    between atoms: C_9  and  C_10 
REMARK       I    between atoms: C_10  and  N_11 
REMARK    5  A    between atoms: C_13  and  C_14 
REMARK    6  A    between atoms: C_14  and  N_15 
REMARK       I    between atoms: N_15  and  C_16 
REMARK       I    between atoms: C_16  and  N_17 
REMARK    7  A    between atoms: N_17  and  C_18 
ROOT
HETATM    1  C   UNL     1      -6.393   5.385 -33.056  1.00  0.00     0.229 C 
HETATM    2  N   UNL     1      -7.600   5.120 -32.398  1.00  0.00    -0.351 N 
HETATM    3  C   UNL     1      -8.595   4.348 -33.141  1.00  0.00     0.132 C 
HETATM    4  C   UNL     1      -9.524   3.541 -32.220  1.00  0.00     0.021 C 
HETATM    5  C   UNL     1     -10.127   4.450 -31.140  1.00  0.00     0.009 C 
HETATM    6  C   UNL     1      -9.028   5.195 -30.386  1.00  0.00     0.020 C 
HETATM    7  C   UNL     1      -8.134   5.977 -31.339  1.00  0.00     0.126 C 
HETATM    8  O   UNL     1      -6.216   5.021 -34.223  1.00  0.00    -0.273 OA
ENDROOT
BRANCH   1   9
HETATM    9  C   UNL     1      -5.313   6.184 -32.337  1.00  0.00     0.185 C 
BRANCH   9  10
HETATM   10  S   UNL     1      -3.948   5.154 -31.723  1.00  0.00    -0.082 SA
BRANCH  10  11
HETATM   11  C   UNL     1      -2.673   5.553 -32.833  1.00  0.00     0.173 A 
HETATM   12  N   UNL     1      -1.745   6.565 -32.624  1.00  0.00    -0.299 N 
HETATM   13  C   UNL     1      -1.021   6.644 -33.800  1.00  0.00     0.118 A 
HETATM   14  C   UNL     1      -1.544   5.691 -34.638  1.00  0.00     0.137 A 
HETATM   15  N   UNL     1      -2.577   5.035 -34.037  1.00  0.00    -0.235 NA
BRANCH  12  16
HETATM   16  C   UNL     1      -1.473   7.326 -31.450  1.00  0.00     0.047 A 
HETATM   17  C   UNL     1      -0.461   6.947 -30.532  1.00  0.00    -0.029 A 
HETATM   18  C   UNL     1      -0.341   7.671 -29.319  1.00  0.00    -0.054 A 
HETATM   19  C   UNL     1       0.515   5.830 -30.821  1.00  0.00     0.051 C 
HETATM   20  C   UNL     1       0.687   7.318 -28.275  1.00  0.00     0.049 C 
HETATM   21  C   UNL     1      -1.163   8.785 -29.087  1.00  0.00     0.007 A 
HETATM   22  C   UNL     1      -2.124   9.171 -30.015  1.00  0.00     0.003 A 
HETATM   23  C   UNL     1      -2.289   8.439 -31.187  1.00  0.00     0.030 A 
ENDBRANCH  12  16
ENDBRANCH  10  11
ENDBRANCH   9  10
ENDBRANCH   1   9
BRANCH   4  24
HETATM   24  C   UNL     1     -10.592   2.837 -33.070  1.00  0.00     0.130 C 
BRANCH  24  25
HETATM   25  N   UNL     1     -10.715   1.423 -32.754  1.00  0.00    -0.342 N 
HETATM   26  C   UNL     1      -9.814   0.401 -32.800  1.00  0.00     0.320 C 
HETATM   27  N   UNL     1      -8.522   0.749 -33.075  1.00  0.00    -0.309 N 
HETATM   28  O   UNL     1     -10.238  -0.732 -32.599  1.00  0.00    -0.247 OA
HETATM   29  H   UNL     1      -8.316   1.732 -33.086  1.00  0.00     0.170 HD
HETATM   30  H   UNL     1     -11.647   1.076 -32.560  1.00  0.00     0.164 HD
BRANCH  27  31
HETATM   31  C   UNL     1      -7.416  -0.110 -33.248  1.00  0.00     0.039 A 
HETATM   32  C   UNL     1      -7.269  -0.988 -34.322  1.00  0.00     0.071 A 
HETATM   33  C   UNL     1      -6.136  -1.793 -34.408  1.00  0.00     0.118 A 
HETATM   34  F   UNL     1      -6.000  -2.633 -35.443  1.00  0.00    -0.206 F 
HETATM   35  C   UNL     1      -5.136  -1.740 -33.443  1.00  0.00     0.042 A 
HETATM   36  C   UNL     1      -5.271  -0.866 -32.371  1.00  0.00     0.005 A 
HETATM   37  C   UNL     1      -6.405  -0.054 -32.275  1.00  0.00     0.030 A 
ENDBRANCH  27  31
ENDBRANCH  24  25
ENDBRANCH   4  24
TORSDOF 7
ENDMDL
MODEL 6
REMARK VINA RESULT:      -9.2      1.357      1.687
REMARK  7 active torsions:
REMARK  status: ('A' for Active; 'I' for Inactive)
REMARK    1  A    between atoms: C_5  and  N_6 
REMARK    2  A    between atoms: C_7  and  S_8 
REMARK    3  A    between atoms: S_8  and  C_9 
REMARK    4  A    between atoms: C_9  and  C_10 
REMARK       I    between atoms: C_10  and  N_11 
REMARK    5  A    between atoms: C_13  and  C_14 
REMARK    6  A    between atoms: C_14  and  N_15 
REMARK       I    between atoms: N_15  and  C_16 
REMARK       I    between atoms: C_16  and  N_17 
REMARK    7  A    between atoms: N_17  and  C_18 
ROOT
HETATM    1  C   UNL     1      -5.422   4.594 -31.518  1.00  0.00     0.229 C 
HETATM    2  N   UNL     1      -4.548   4.988 -32.539  1.00  0.00    -0.351 N 
HETATM    3  C   UNL     1      -3.219   5.435 -32.126  1.00  0.00     0.132 C 
HETATM    4  C   UNL     1      -2.154   5.197 -33.208  1.00  0.00     0.021 C 
HETATM    5  C   UNL     1      -2.614   5.783 -34.550  1.00  0.00     0.009 C 
HETATM    6  C   UNL     1      -3.992   5.244 -34.930  1.00  0.00     0.020 C 
HETATM    7  C   UNL     1      -5.011   5.503 -33.828  1.00  0.00     0.126 C 
HETATM    8  O   UNL     1      -5.086   4.676 -30.332  1.00  0.00    -0.273 OA
ENDROOT
BRANCH   1   9
HETATM    9  C   UNL     1      -6.823   4.117 -31.880  1.00  0.00     0.185 C 
BRANCH   9  10
HETATM   10  S   UNL     1      -6.868   3.109 -33.392  1.00  0.00    -0.082 SA
BRANCH  10  11
HETATM   11  C   UNL     1      -8.079   1.929 -32.997  1.00  0.00     0.173 A 
HETATM   12  N   UNL     1      -7.823   0.573 -32.833  1.00  0.00    -0.299 N 
HETATM   13  C   UNL     1      -9.065  -0.016 -32.683  1.00  0.00     0.118 A 
HETATM   14  C   UNL     1      -9.985   0.999 -32.762  1.00  0.00     0.137 A 
HETATM   15  N   UNL     1      -9.366   2.196 -32.975  1.00  0.00    -0.235 NA
BRANCH  12  16
HETATM   16  C   UNL     1      -6.579  -0.115 -32.730  1.00  0.00     0.047 A 
HETATM   17  C   UNL     1      -6.138  -1.015 -33.733  1.00  0.00    -0.029 A 
HETATM   18  C   UNL     1      -4.960  -1.768 -33.498  1.00  0.00    -0.054 A 
HETATM   19  C   UNL     1      -6.855  -1.167 -35.054  1.00  0.00     0.051 C 
HETATM   20  C   UNL     1      -4.436  -2.768 -34.496  1.00  0.00     0.049 C 
HETATM   21  C   UNL     1      -4.218  -1.554 -32.325  1.00  0.00     0.007 A 
HETATM   22  C   UNL     1      -4.640  -0.638 -31.368  1.00  0.00     0.003 A 
HETATM   23  C   UNL     1      -5.822   0.071 -31.561  1.00  0.00     0.030 A 
ENDBRANCH  12  16
ENDBRANCH  10  11
ENDBRANCH   9  10
ENDBRANCH   1   9
BRANCH   4  24
HETATM   24  C   UNL     1      -0.813   5.776 -32.734  1.00  0.00     0.130 C 
BRANCH  24  25
HETATM   25  N   UNL     1      -0.201   4.981 -31.681  1.00  0.00    -0.342 N 
HETATM   26  C   UNL     1       0.107   5.274 -30.386  1.00  0.00     0.320 C 
HETATM   27  N   UNL     1      -0.328   6.483 -29.922  1.00  0.00    -0.309 N 
HETATM   28  O   UNL     1       0.747   4.438 -29.757  1.00  0.00    -0.247 OA
HETATM   29  H   UNL     1      -0.950   6.995 -30.522  1.00  0.00     0.170 HD
HETATM   30  H   UNL     1       0.171   4.076 -31.946  1.00  0.00     0.164 HD
BRANCH  27  31
HETATM   31  C   UNL     1      -0.087   7.057 -28.656  1.00  0.00     0.039 A 
HETATM   32  C   UNL     1       1.087   7.728 -28.312  1.00  0.00     0.071 A 
HETATM   33  C   UNL     1       1.227   8.267 -27.035  1.00  0.00     0.118 A 
HETATM   34  F   UNL     1       2.357   8.911 -26.712  1.00  0.00    -0.206 F 
HETATM   35  C   UNL     1       0.217   8.156 -26.087  1.00  0.00     0.042 A 
HETATM   36  C   UNL     1      -0.959   7.493 -26.421  1.00  0.00     0.005 A 
HETATM   37  C   UNL     1      -1.110   6.948 -27.699  1.00  0.00     0.030 A 
ENDBRANCH  27  31
ENDBRANCH  24  25
ENDBRANCH   4  24
TORSDOF 7
ENDMDL
MODEL 7
REMARK VINA RESULT:      -8.9      4.388      9.758
REMARK  7 active torsions:
REMARK  status: ('A' for Active; 'I' for Inactive)
REMARK    1  A    between atoms: C_5  and  N_6 
REMARK    2  A    between atoms: C_7  and  S_8 
REMARK    3  A    between atoms: S_8  and  C_9 
REMARK    4  A    between atoms: C_9  and  C_10 
REMARK       I    between atoms: C_10  and  N_11 
REMARK    5  A    between atoms: C_13  and  C_14 
REMARK    6  A    between atoms: C_14  and  N_15 
REMARK       I    between atoms: N_15  and  C_16 
REMARK       I    between atoms: C_16  and  N_17 
REMARK    7  A    between atoms: N_17  and  C_18 
ROOT
HETATM    1  C   UNL     1      -6.864   5.255 -33.205  1.00  0.00     0.229 C 
HETATM    2  N   UNL     1      -8.032   4.603 -32.790  1.00  0.00    -0.351 N 
HETATM    3  C   UNL     1      -8.409   3.400 -33.532  1.00  0.00     0.132 C 
HETATM    4  C   UNL     1      -9.215   2.409 -32.678  1.00  0.00     0.021 C 
HETATM    5  C   UNL     1     -10.400   3.118 -32.008  1.00  0.00     0.009 C 
HETATM    6  C   UNL     1      -9.924   4.341 -31.226  1.00  0.00     0.020 C 
HETATM    7  C   UNL     1      -9.131   5.292 -32.113  1.00  0.00     0.126 C 
HETATM    8  O   UNL     1      -6.227   4.848 -34.181  1.00  0.00    -0.273 OA
ENDROOT
BRANCH   1   9
HETATM    9  C   UNL     1      -6.416   6.514 -32.474  1.00  0.00     0.185 C 
BRANCH   9  10
HETATM   10  S   UNL     1      -6.156   6.254 -30.694  1.00  0.00    -0.082 SA
BRANCH  10  11
HETATM   11  C   UNL     1      -5.338   4.722 -30.673  1.00  0.00     0.173 A 
HETATM   12  N   UNL     1      -4.024   4.533 -31.083  1.00  0.00    -0.299 N 
HETATM   13  C   UNL     1      -3.826   3.164 -31.050  1.00  0.00     0.118 A 
HETATM   14  C   UNL     1      -5.011   2.614 -30.629  1.00  0.00     0.137 A 
HETATM   15  N   UNL     1      -5.945   3.584 -30.417  1.00  0.00    -0.235 NA
BRANCH  12  16
HETATM   16  C   UNL     1      -3.016   5.493 -31.386  1.00  0.00     0.047 A 
HETATM   17  C   UNL     1      -2.441   5.588 -32.680  1.00  0.00    -0.029 A 
HETATM   18  C   UNL     1      -1.348   6.470 -32.871  1.00  0.00    -0.054 A 
HETATM   19  C   UNL     1      -2.979   4.818 -33.862  1.00  0.00     0.051 C 
HETATM   20  C   UNL     1      -0.658   6.612 -34.204  1.00  0.00     0.049 C 
HETATM   21  C   UNL     1      -0.910   7.280 -31.811  1.00  0.00     0.007 A 
HETATM   22  C   UNL     1      -1.510   7.205 -30.559  1.00  0.00     0.003 A 
HETATM   23  C   UNL     1      -2.550   6.307 -30.341  1.00  0.00     0.030 A 
ENDBRANCH  12  16
ENDBRANCH  10  11
ENDBRANCH   9  10
ENDBRANCH   1   9
BRANCH   4  24
HETATM   24  C   UNL     1      -9.648   1.224 -33.552  1.00  0.00     0.130 C 
BRANCH  24  25
HETATM   25  N   UNL     1      -8.821   1.072 -34.739  1.00  0.00    -0.342 N 
HETATM   26  C   UNL     1      -7.801   0.216 -35.030  1.00  0.00     0.320 C 
HETATM   27  N   UNL     1      -7.559  -0.767 -34.113  1.00  0.00    -0.309 N 
HETATM   28  O   UNL     1      -7.189   0.405 -36.076  1.00  0.00    -0.247 OA
HETATM   29  H   UNL     1      -8.232  -0.865 -33.373  1.00  0.00     0.170 HD
HETATM   30  H   UNL     1      -8.921   1.776 -35.461  1.00  0.00     0.164 HD
BRANCH  27  31
HETATM   31  C   UNL     1      -6.528  -1.731 -34.134  1.00  0.00     0.039 A 
HETATM   32  C   UNL     1      -6.645  -2.989 -34.725  1.00  0.00     0.071 A 
HETATM   33  C   UNL     1      -5.566  -3.868 -34.699  1.00  0.00     0.118 A 
HETATM   34  F   UNL     1      -5.685  -5.075 -35.271  1.00  0.00    -0.206 F 
HETATM   35  C   UNL     1      -4.363  -3.521 -34.097  1.00  0.00     0.042 A 
HETATM   36  C   UNL     1      -4.234  -2.268 -33.508  1.00  0.00     0.005 A 
HETATM   37  C   UNL     1      -5.311  -1.377 -33.528  1.00  0.00     0.030 A 
ENDBRANCH  27  31
ENDBRANCH  24  25
ENDBRANCH   4  24
TORSDOF 7
ENDMDL
MODEL 8
REMARK VINA RESULT:      -8.9      3.634     10.634
REMARK  7 active torsions:
REMARK  status: ('A' for Active; 'I' for Inactive)
REMARK    1  A    between atoms: C_5  and  N_6 
REMARK    2  A    between atoms: C_7  and  S_8 
REMARK    3  A    between atoms: S_8  and  C_9 
REMARK    4  A    between atoms: C_9  and  C_10 
REMARK       I    between atoms: C_10  and  N_11 
REMARK    5  A    between atoms: C_13  and  C_14 
REMARK    6  A    between atoms: C_14  and  N_15 
REMARK       I    between atoms: N_15  and  C_16 
REMARK       I    between atoms: C_16  and  N_17 
REMARK    7  A    between atoms: N_17  and  C_18 
ROOT
HETATM    1  C   UNL     1      -4.234   6.241 -31.179  1.00  0.00     0.229 C 
HETATM    2  N   UNL     1      -4.747   5.411 -32.182  1.00  0.00    -0.351 N 
HETATM    3  C   UNL     1      -5.767   4.445 -31.775  1.00  0.00     0.132 C 
HETATM    4  C   UNL     1      -6.727   4.084 -32.919  1.00  0.00     0.021 C 
HETATM    5  C   UNL     1      -5.939   3.661 -34.166  1.00  0.00     0.009 C 
HETATM    6  C   UNL     1      -4.920   4.732 -34.549  1.00  0.00     0.020 C 
HETATM    7  C   UNL     1      -3.993   5.057 -33.386  1.00  0.00     0.126 C 
HETATM    8  O   UNL     1      -4.599   6.115 -30.006  1.00  0.00    -0.273 OA
ENDROOT
BRANCH   1   9
HETATM    9  C   UNL     1      -3.168   7.270 -31.537  1.00  0.00     0.185 C 
BRANCH   9  10
HETATM   10  S   UNL     1      -2.277   7.911 -30.088  1.00  0.00    -0.082 SA
BRANCH  10  11
HETATM   11  C   UNL     1      -1.126   6.646 -29.789  1.00  0.00     0.173 A 
HETATM   12  N   UNL     1      -0.119   6.716 -28.835  1.00  0.00    -0.299 N 
HETATM   13  C   UNL     1       0.650   5.584 -29.033  1.00  0.00     0.118 A 
HETATM   14  C   UNL     1       0.073   4.905 -30.077  1.00  0.00     0.137 A 
HETATM   15  N   UNL     1      -1.014   5.579 -30.550  1.00  0.00    -0.235 NA
BRANCH  12  16
HETATM   16  C   UNL     1       0.082   7.662 -27.788  1.00  0.00     0.047 A 
HETATM   17  C   UNL     1      -0.829   7.784 -26.707  1.00  0.00    -0.029 A 
HETATM   18  C   UNL     1      -0.640   8.837 -25.778  1.00  0.00    -0.054 A 
HETATM   19  C   UNL     1      -1.963   6.809 -26.492  1.00  0.00     0.051 C 
HETATM   20  C   UNL     1      -1.576   9.059 -24.618  1.00  0.00     0.049 C 
HETATM   21  C   UNL     1       0.476   9.682 -25.898  1.00  0.00     0.007 A 
HETATM   22  C   UNL     1       1.384   9.524 -26.939  1.00  0.00     0.003 A 
HETATM   23  C   UNL     1       1.184   8.527 -27.889  1.00  0.00     0.030 A 
ENDBRANCH  12  16
ENDBRANCH  10  11
ENDBRANCH   9  10
ENDBRANCH   1   9
BRANCH   4  24
HETATM   24  C   UNL     1      -7.703   3.001 -32.436  1.00  0.00     0.130 C 
BRANCH  24  25
HETATM   25  N   UNL     1      -7.073   2.034 -31.551  1.00  0.00    -0.342 N 
HETATM   26  C   UNL     1      -6.560   0.793 -31.781  1.00  0.00     0.320 C 
HETATM   27  N   UNL     1      -6.501   0.397 -33.086  1.00  0.00    -0.309 N 
HETATM   28  O   UNL     1      -6.204   0.142 -30.804  1.00  0.00    -0.247 OA
HETATM   29  H   UNL     1      -6.712   1.097 -33.776  1.00  0.00     0.170 HD
HETATM   30  H   UNL     1      -7.093   2.240 -30.558  1.00  0.00     0.164 HD
BRANCH  27  31
HETATM   31  C   UNL     1      -6.085  -0.853 -33.590  1.00  0.00     0.039 A 
HETATM   32  C   UNL     1      -6.938  -1.778 -34.192  1.00  0.00     0.071 A 
HETATM   33  C   UNL     1      -6.428  -2.984 -34.665  1.00  0.00     0.118 A 
HETATM   34  F   UNL     1      -7.253  -3.868 -35.244  1.00  0.00    -0.206 F 
HETATM   35  C   UNL     1      -5.077  -3.292 -34.555  1.00  0.00     0.042 A 
HETATM   36  C   UNL     1      -4.217  -2.376 -33.959  1.00  0.00     0.005 A 
HETATM   37  C   UNL     1      -4.719  -1.162 -33.481  1.00  0.00     0.030 A 
ENDBRANCH  27  31
ENDBRANCH  24  25
ENDBRANCH   4  24
TORSDOF 7
ENDMDL
MODEL 9
REMARK VINA RESULT:      -8.8      5.307     10.905
REMARK  7 active torsions:
REMARK  status: ('A' for Active; 'I' for Inactive)
REMARK    1  A    between atoms: C_5  and  N_6 
REMARK    2  A    between atoms: C_7  and  S_8 
REMARK    3  A    between atoms: S_8  and  C_9 
REMARK    4  A    between atoms: C_9  and  C_10 
REMARK       I    between atoms: C_10  and  N_11 
REMARK    5  A    between atoms: C_13  and  C_14 
REMARK    6  A    between atoms: C_14  and  N_15 
REMARK       I    between atoms: N_15  and  C_16 
REMARK       I    between atoms: C_16  and  N_17 
REMARK    7  A    between atoms: N_17  and  C_18 
ROOT
HETATM    1  C   UNL     1      -5.869   0.211 -32.761  1.00  0.00     0.229 C 
HETATM    2  N   UNL     1      -6.989   0.950 -33.161  1.00  0.00    -0.351 N 
HETATM    3  C   UNL     1      -8.266   0.238 -33.194  1.00  0.00     0.132 C 
HETATM    4  C   UNL     1      -9.467   1.168 -32.964  1.00  0.00     0.021 C 
HETATM    5  C   UNL     1      -9.405   2.368 -33.918  1.00  0.00     0.009 C 
HETATM    6  C   UNL     1      -8.058   3.081 -33.802  1.00  0.00     0.020 C 
HETATM    7  C   UNL     1      -6.901   2.119 -34.036  1.00  0.00     0.126 C 
HETATM    8  O   UNL     1      -5.966  -0.992 -32.503  1.00  0.00    -0.273 OA
ENDROOT
BRANCH   1   9
HETATM    9  C   UNL     1      -4.508   0.895 -32.704  1.00  0.00     0.185 C 
BRANCH   9  10
HETATM   10  S   UNL     1      -4.032   1.404 -31.026  1.00  0.00    -0.082 SA
BRANCH  10  11
HETATM   11  C   UNL     1      -4.995   2.832 -30.801  1.00  0.00     0.173 A 
HETATM   12  N   UNL     1      -4.533   4.125 -31.008  1.00  0.00    -0.299 N 
HETATM   13  C   UNL     1      -5.554   4.951 -30.573  1.00  0.00     0.118 A 
HETATM   14  C   UNL     1      -6.558   4.123 -30.135  1.00  0.00     0.137 A 
HETATM   15  N   UNL     1      -6.195   2.815 -30.263  1.00  0.00    -0.235 NA
BRANCH  12  16
HETATM   16  C   UNL     1      -3.329   4.578 -31.622  1.00  0.00     0.047 A 
HETATM   17  C   UNL     1      -3.214   4.712 -33.030  1.00  0.00    -0.029 A 
HETATM   18  C   UNL     1      -1.947   5.032 -33.577  1.00  0.00    -0.054 A 
HETATM   19  C   UNL     1      -4.399   4.567 -33.955  1.00  0.00     0.051 C 
HETATM   20  C   UNL     1      -1.727   5.165 -35.062  1.00  0.00     0.049 C 
HETATM   21  C   UNL     1      -0.860   5.284 -32.724  1.00  0.00     0.007 A 
HETATM   22  C   UNL     1      -0.999   5.189 -31.344  1.00  0.00     0.003 A 
HETATM   23  C   UNL     1      -2.224   4.825 -30.792  1.00  0.00     0.030 A 
ENDBRANCH  12  16
ENDBRANCH  10  11
ENDBRANCH   9  10
ENDBRANCH   1   9
BRANCH   4  24
HETATM   24  C   UNL     1     -10.766   0.361 -33.107  1.00  0.00     0.130 C 
BRANCH  24  25
HETATM   25  N   UNL     1     -11.631   0.876 -34.156  1.00  0.00    -0.342 N 
HETATM   26  C   UNL     1     -12.788   1.594 -34.108  1.00  0.00     0.320 C 
HETATM   27  N   UNL     1     -13.176   2.029 -32.873  1.00  0.00    -0.309 N 
HETATM   28  O   UNL     1     -13.379   1.781 -35.166  1.00  0.00    -0.247 OA
HETATM   29  H   UNL     1     -12.515   1.904 -32.127  1.00  0.00     0.170 HD
HETATM   30  H   UNL     1     -11.427   0.581 -35.105  1.00  0.00     0.164 HD
BRANCH  27  31
HETATM   31  C   UNL     1     -14.356   2.725 -32.535  1.00  0.00     0.039 A 
HETATM   32  C   UNL     1     -15.583   2.110 -32.290  1.00  0.00     0.071 A 
HETATM   33  C   UNL     1     -16.692   2.884 -31.956  1.00  0.00     0.118 A 
HETATM   34  F   UNL     1     -17.868   2.286 -31.721  1.00  0.00    -0.206 F 
HETATM   35  C   UNL     1     -16.604   4.268 -31.857  1.00  0.00     0.042 A 
HETATM   36  C   UNL     1     -15.385   4.891 -32.096  1.00  0.00     0.005 A 
HETATM   37  C   UNL     1     -14.266   4.123 -32.431  1.00  0.00     0.030 A 
ENDBRANCH  27  31
ENDBRANCH  24  25
ENDBRANCH   4  24
TORSDOF 7
ENDMDL
MODEL 10
REMARK VINA RESULT:      -8.7      3.749     11.107
REMARK  7 active torsions:
REMARK  status: ('A' for Active; 'I' for Inactive)
REMARK    1  A    between atoms: C_5  and  N_6 
REMARK    2  A    between atoms: C_7  and  S_8 
REMARK    3  A    between atoms: S_8  and  C_9 
REMARK    4  A    between atoms: C_9  and  C_10 
REMARK       I    between atoms: C_10  and  N_11 
REMARK    5  A    between atoms: C_13  and  C_14 
REMARK    6  A    between atoms: C_14  and  N_15 
REMARK       I    between atoms: N_15  and  C_16 
REMARK       I    between atoms: C_16  and  N_17 
REMARK    7  A    between atoms: N_17  and  C_18 
ROOT
HETATM    1  C   UNL     1      -3.895   6.493 -31.341  1.00  0.00     0.229 C 
HETATM    2  N   UNL     1      -4.663   5.339 -31.138  1.00  0.00    -0.351 N 
HETATM    3  C   UNL     1      -5.013   4.568 -32.330  1.00  0.00     0.132 C 
HETATM    4  C   UNL     1      -5.220   3.076 -32.027  1.00  0.00     0.021 C 
HETATM    5  C   UNL     1      -6.205   2.897 -30.864  1.00  0.00     0.009 C 
HETATM    6  C   UNL     1      -5.756   3.703 -29.647  1.00  0.00     0.020 C 
HETATM    7  C   UNL     1      -5.563   5.173 -29.997  1.00  0.00     0.126 C 
HETATM    8  O   UNL     1      -3.582   6.851 -32.480  1.00  0.00    -0.273 OA
ENDROOT
BRANCH   1   9
HETATM    9  C   UNL     1      -3.496   7.342 -30.140  1.00  0.00     0.185 C 
BRANCH   9  10
HETATM   10  S   UNL     1      -1.848   8.091 -30.309  1.00  0.00    -0.082 SA
BRANCH  10  11
HETATM   11  C   UNL     1      -0.823   6.843 -29.670  1.00  0.00     0.173 A 
HETATM   12  N   UNL     1      -0.153   6.928 -28.457  1.00  0.00    -0.299 N 
HETATM   13  C   UNL     1       0.656   5.807 -28.408  1.00  0.00     0.118 A 
HETATM   14  C   UNL     1       0.432   5.120 -29.575  1.00  0.00     0.137 A 
HETATM   15  N   UNL     1      -0.471   5.778 -30.357  1.00  0.00    -0.235 NA
BRANCH  12  16
HETATM   16  C   UNL     1      -0.292   7.876 -27.401  1.00  0.00     0.047 A 
HETATM   17  C   UNL     1      -1.233   7.696 -26.356  1.00  0.00    -0.029 A 
HETATM   18  C   UNL     1      -1.413   8.745 -25.419  1.00  0.00    -0.054 A 
HETATM   19  C   UNL     1      -2.016   6.416 -26.184  1.00  0.00     0.051 C 
HETATM   20  C   UNL     1      -2.413   8.652 -24.295  1.00  0.00     0.049 C 
HETATM   21  C   UNL     1      -0.611   9.895 -25.496  1.00  0.00     0.007 A 
HETATM   22  C   UNL     1       0.338  10.039 -26.503  1.00  0.00     0.003 A 
HETATM   23  C   UNL     1       0.490   9.041 -27.460  1.00  0.00     0.030 A 
ENDBRANCH  12  16
ENDBRANCH  10  11
ENDBRANCH   9  10
ENDBRANCH   1   9
BRANCH   4  24
HETATM   24  C   UNL     1      -5.673   2.359 -33.307  1.00  0.00     0.130 C 
BRANCH  24  25
HETATM   25  N   UNL     1      -6.762   1.425 -33.069  1.00  0.00    -0.342 N 
HETATM   26  C   UNL     1      -6.871   0.084 -33.282  1.00  0.00     0.320 C 
HETATM   27  N   UNL     1      -5.733  -0.557 -33.681  1.00  0.00    -0.309 N 
HETATM   28  O   UNL     1      -7.972  -0.427 -33.105  1.00  0.00    -0.247 OA
HETATM   29  H   UNL     1      -4.884  -0.020 -33.654  1.00  0.00     0.170 HD
HETATM   30  H   UNL     1      -7.654   1.821 -32.791  1.00  0.00     0.164 HD
BRANCH  27  31
HETATM   31  C   UNL     1      -5.587  -1.915 -34.034  1.00  0.00     0.039 A 
HETATM   32  C   UNL     1      -4.412  -2.647 -33.861  1.00  0.00     0.071 A 
HETATM   33  C   UNL     1      -4.370  -3.987 -34.236  1.00  0.00     0.118 A 
HETATM   34  F   UNL     1      -3.237  -4.684 -34.064  1.00  0.00    -0.206 F 
HETATM   35  C   UNL     1      -5.480  -4.622 -34.781  1.00  0.00     0.042 A 
HETATM   36  C   UNL     1      -6.657  -3.903 -34.955  1.00  0.00     0.005 A 
HETATM   37  C   UNL     1      -6.710  -2.557 -34.582  1.00  0.00     0.030 A 
ENDBRANCH  27  31
ENDBRANCH  24  25
ENDBRANCH   4  24
TORSDOF 7
ENDMDL
