MODEL 1
REMARK VINA RESULT:      -8.5      0.000      0.000
REMARK  5 active torsions:
REMARK  status: ('A' for Active; 'I' for Inactive)
REMARK    1  A    between atoms: C_2  and  C_3 
REMARK    2  A    between atoms: C_2  and  C_18 
REMARK       I    between atoms: C_3  and  N_4 
REMARK    3  A    between atoms: N_4  and  C_5 
REMARK    4  A    between atoms: C_7  and  C_8 
REMARK    5  A    between atoms: C_18  and  C_19 
ROOT
HETATM    1  C   UNL     1      -6.720   0.321 -33.876  1.00  0.00     0.226 C 
HETATM    2  N   UNL     1      -7.743   0.748 -33.052  1.00  0.00    -0.327 N 
HETATM    3  O   UNL     1      -6.738   0.352 -35.106  1.00  0.00    -0.273 OA
HETATM    4  H   UNL     1      -7.724   0.436 -32.091  1.00  0.00     0.169 HD
ENDROOT
BRANCH   2   5
HETATM    5  C   UNL     1      -8.899   1.463 -33.432  1.00  0.00     0.035 A 
HETATM    6  C   UNL     1     -10.176   0.896 -33.497  1.00  0.00     0.042 A 
HETATM    7  C   UNL     1     -11.279   1.644 -33.946  1.00  0.00    -0.021 A 
HETATM    8  C   UNL     1     -11.085   2.980 -34.319  1.00  0.00     0.012 A 
HETATM    9  C   UNL     1      -9.817   3.555 -34.253  1.00  0.00     0.003 A 
HETATM   10  C   UNL     1      -8.728   2.797 -33.821  1.00  0.00     0.029 A 
BRANCH   7  11
HETATM   11  C   UNL     1     -12.598   1.044 -34.056  1.00  0.00     0.010 A 
HETATM   12  C   UNL     1     -13.792   1.533 -34.637  1.00  0.00     0.152 A 
HETATM   13  N   UNL     1     -14.811   0.676 -34.532  1.00  0.00    -0.187 NA
HETATM   14  N   UNL     1     -14.271  -0.369 -33.883  1.00  0.00    -0.289 N 
HETATM   15  H   UNL     1     -14.864  -1.168 -33.682  1.00  0.00     0.188 HD
HETATM   16  C   UNL     1     -12.954  -0.197 -33.575  1.00  0.00     0.123 A 
ENDBRANCH   7  11
ENDBRANCH   2   5
BRANCH   1  17
HETATM   17  C   UNL     1      -5.441  -0.117 -33.157  1.00  0.00     0.078 C 
HETATM   18  C   UNL     1      -5.844  -0.869 -31.887  1.00  0.00     0.020 C 
BRANCH  17  19
HETATM   19  C   UNL     1      -4.455  -0.966 -33.977  1.00  0.00     0.052 C 
BRANCH  19  20
HETATM   20  C   UNL     1      -4.735  -2.443 -34.133  1.00  0.00    -0.057 A 
HETATM   21  C   UNL     1      -5.831  -2.947 -34.843  1.00  0.00     0.007 A 
HETATM   22  C   UNL     1      -6.006  -4.325 -34.998  1.00  0.00     0.001 A 
HETATM   23  C   UNL     1      -5.082  -5.216 -34.458  1.00  0.00     0.000 A 
HETATM   24  C   UNL     1      -3.980  -4.731 -33.761  1.00  0.00     0.001 A 
HETATM   25  C   UNL     1      -3.806  -3.356 -33.603  1.00  0.00     0.007 A 
ENDBRANCH  19  20
ENDBRANCH  17  19
ENDBRANCH   1  17
TORSDOF 5
ENDMDL
MODEL 2
REMARK VINA RESULT:      -8.3      4.417      7.749
REMARK  5 active torsions:
REMARK  status: ('A' for Active; 'I' for Inactive)
REMARK    1  A    between atoms: C_2  and  C_3 
REMARK    2  A    between atoms: C_2  and  C_18 
REMARK       I    between atoms: C_3  and  N_4 
REMARK    3  A    between atoms: N_4  and  C_5 
REMARK    4  A    between atoms: C_7  and  C_8 
REMARK    5  A    between atoms: C_18  and  C_19 
ROOT
HETATM    1  C   UNL     1      -5.818   2.281 -31.976  1.00  0.00     0.226 C 
HETATM    2  N   UNL     1      -5.376   1.679 -33.137  1.00  0.00    -0.327 N 
HETATM    3  O   UNL     1      -6.811   1.941 -31.333  1.00  0.00    -0.273 OA
HETATM    4  H   UNL     1      -4.721   2.198 -33.706  1.00  0.00     0.169 HD
ENDROOT
BRANCH   2   5
HETATM    5  C   UNL     1      -5.841   0.471 -33.700  1.00  0.00     0.035 A 
HETATM    6  C   UNL     1      -5.181  -0.754 -33.561  1.00  0.00     0.042 A 
HETATM    7  C   UNL     1      -5.660  -1.911 -34.201  1.00  0.00    -0.021 A 
HETATM    8  C   UNL     1      -6.824  -1.825 -34.975  1.00  0.00     0.012 A 
HETATM    9  C   UNL     1      -7.491  -0.609 -35.115  1.00  0.00     0.003 A 
HETATM   10  C   UNL     1      -6.997   0.535 -34.488  1.00  0.00     0.029 A 
BRANCH   7  11
HETATM   11  C   UNL     1      -4.952  -3.176 -34.094  1.00  0.00     0.010 A 
HETATM   12  C   UNL     1      -3.741  -3.506 -33.439  1.00  0.00     0.152 A 
HETATM   13  N   UNL     1      -3.411  -4.794 -33.575  1.00  0.00    -0.187 NA
HETATM   14  N   UNL     1      -4.413  -5.294 -34.317  1.00  0.00    -0.289 N 
HETATM   15  H   UNL     1      -4.386  -6.279 -34.558  1.00  0.00     0.188 HD
HETATM   16  C   UNL     1      -5.356  -4.368 -34.654  1.00  0.00     0.123 A 
ENDBRANCH   7  11
ENDBRANCH   2   5
BRANCH   1  17
HETATM   17  C   UNL     1      -4.911   3.384 -31.423  1.00  0.00     0.078 C 
HETATM   18  C   UNL     1      -5.255   3.585 -29.946  1.00  0.00     0.020 C 
BRANCH  17  19
HETATM   19  C   UNL     1      -3.397   3.166 -31.583  1.00  0.00     0.052 C 
BRANCH  19  20
HETATM   20  C   UNL     1      -2.614   4.150 -32.421  1.00  0.00    -0.057 A 
HETATM   21  C   UNL     1      -2.894   4.407 -33.768  1.00  0.00     0.007 A 
HETATM   22  C   UNL     1      -2.167   5.370 -34.475  1.00  0.00     0.001 A 
HETATM   23  C   UNL     1      -1.163   6.097 -33.843  1.00  0.00     0.000 A 
HETATM   24  C   UNL     1      -0.882   5.864 -32.500  1.00  0.00     0.001 A 
HETATM   25  C   UNL     1      -1.604   4.901 -31.794  1.00  0.00     0.007 A 
ENDBRANCH  19  20
ENDBRANCH  17  19
ENDBRANCH   1  17
TORSDOF 5
ENDMDL
MODEL 3
REMARK VINA RESULT:      -8.3      4.498      7.185
REMARK  5 active torsions:
REMARK  status: ('A' for Active; 'I' for Inactive)
REMARK    1  A    between atoms: C_2  and  C_3 
REMARK    2  A    between atoms: C_2  and  C_18 
REMARK       I    between atoms: C_3  and  N_4 
REMARK    3  A    between atoms: N_4  and  C_5 
REMARK    4  A    between atoms: C_7  and  C_8 
REMARK    5  A    between atoms: C_18  and  C_19 
ROOT
HETATM    1  C   UNL     1      -5.838   0.660 -32.677  1.00  0.00     0.226 C 
HETATM    2  N   UNL     1      -6.015   1.983 -33.028  1.00  0.00    -0.327 N 
HETATM    3  O   UNL     1      -4.961   0.235 -31.925  1.00  0.00    -0.273 OA
HETATM    4  H   UNL     1      -6.586   2.174 -33.840  1.00  0.00     0.169 HD
ENDROOT
BRANCH   2   5
HETATM    5  C   UNL     1      -5.373   3.106 -32.463  1.00  0.00     0.035 A 
HETATM    6  C   UNL     1      -4.419   3.876 -33.138  1.00  0.00     0.042 A 
HETATM    7  C   UNL     1      -3.766   4.944 -32.499  1.00  0.00    -0.021 A 
HETATM    8  C   UNL     1      -4.094   5.241 -31.170  1.00  0.00     0.012 A 
HETATM    9  C   UNL     1      -5.047   4.483 -30.491  1.00  0.00     0.003 A 
HETATM   10  C   UNL     1      -5.676   3.416 -31.132  1.00  0.00     0.029 A 
BRANCH   7  11
HETATM   11  C   UNL     1      -2.743   5.717 -33.184  1.00  0.00     0.010 A 
HETATM   12  C   UNL     1      -2.502   7.111 -33.216  1.00  0.00     0.152 A 
HETATM   13  N   UNL     1      -1.453   7.440 -33.974  1.00  0.00    -0.187 NA
HETATM   14  N   UNL     1      -1.016   6.255 -34.430  1.00  0.00    -0.289 N 
HETATM   15  H   UNL     1      -0.207   6.244 -35.042  1.00  0.00     0.188 HD
HETATM   16  C   UNL     1      -1.754   5.196 -33.989  1.00  0.00     0.123 A 
ENDBRANCH   7  11
ENDBRANCH   2   5
BRANCH   1  17
HETATM   17  C   UNL     1      -6.904  -0.305 -33.203  1.00  0.00     0.078 C 
HETATM   18  C   UNL     1      -8.234   0.450 -33.272  1.00  0.00     0.020 C 
BRANCH  17  19
HETATM   19  C   UNL     1      -6.611  -0.974 -34.556  1.00  0.00     0.052 C 
BRANCH  19  20
HETATM   20  C   UNL     1      -5.964  -2.340 -34.557  1.00  0.00    -0.057 A 
HETATM   21  C   UNL     1      -4.645  -2.567 -34.146  1.00  0.00     0.007 A 
HETATM   22  C   UNL     1      -4.121  -3.863 -34.117  1.00  0.00     0.001 A 
HETATM   23  C   UNL     1      -4.911  -4.949 -34.487  1.00  0.00     0.000 A 
HETATM   24  C   UNL     1      -6.228  -4.742 -34.884  1.00  0.00     0.001 A 
HETATM   25  C   UNL     1      -6.751  -3.449 -34.916  1.00  0.00     0.007 A 
ENDBRANCH  19  20
ENDBRANCH  17  19
ENDBRANCH   1  17
TORSDOF 5
ENDMDL
MODEL 4
REMARK VINA RESULT:      -8.2      1.720      2.332
REMARK  5 active torsions:
REMARK  status: ('A' for Active; 'I' for Inactive)
REMARK    1  A    between atoms: C_2  and  C_3 
REMARK    2  A    between atoms: C_2  and  C_18 
REMARK       I    between atoms: C_3  and  N_4 
REMARK    3  A    between atoms: N_4  and  C_5 
REMARK    4  A    between atoms: C_7  and  C_8 
REMARK    5  A    between atoms: C_18  and  C_19 
ROOT
HETATM    1  C   UNL     1      -8.352   0.617 -33.372  1.00  0.00     0.226 C 
HETATM    2  N   UNL     1      -9.064   1.593 -34.041  1.00  0.00    -0.327 N 
HETATM    3  O   UNL     1      -8.397   0.410 -32.160  1.00  0.00    -0.273 OA
HETATM    4  H   UNL     1      -8.753   1.837 -34.971  1.00  0.00     0.169 HD
ENDROOT
BRANCH   2   5
HETATM    5  C   UNL     1     -10.102   2.395 -33.521  1.00  0.00     0.035 A 
HETATM    6  C   UNL     1     -11.437   1.983 -33.443  1.00  0.00     0.042 A 
HETATM    7  C   UNL     1     -12.437   2.854 -32.974  1.00  0.00    -0.021 A 
HETATM    8  C   UNL     1     -12.077   4.145 -32.570  1.00  0.00     0.012 A 
HETATM    9  C   UNL     1     -10.749   4.563 -32.640  1.00  0.00     0.003 A 
HETATM   10  C   UNL     1      -9.768   3.695 -33.121  1.00  0.00     0.029 A 
BRANCH   7  11
HETATM   11  C   UNL     1     -13.831   2.443 -32.934  1.00  0.00     0.010 A 
HETATM   12  C   UNL     1     -14.852   2.724 -31.995  1.00  0.00     0.152 A 
HETATM   13  N   UNL     1     -16.018   2.151 -32.308  1.00  0.00    -0.187 NA
HETATM   14  N   UNL     1     -15.747   1.502 -33.452  1.00  0.00    -0.289 N 
HETATM   15  H   UNL     1     -16.495   0.980 -33.896  1.00  0.00     0.188 HD
HETATM   16  C   UNL     1     -14.455   1.643 -33.866  1.00  0.00     0.123 A 
ENDBRANCH   7  11
ENDBRANCH   2   5
BRANCH   1  17
HETATM   17  C   UNL     1      -7.537  -0.325 -34.262  1.00  0.00     0.078 C 
HETATM   18  C   UNL     1      -7.175   0.429 -35.544  1.00  0.00     0.020 C 
BRANCH  17  19
HETATM   19  C   UNL     1      -6.270  -0.930 -33.635  1.00  0.00     0.052 C 
BRANCH  19  20
HETATM   20  C   UNL     1      -5.845  -2.314 -34.065  1.00  0.00    -0.057 A 
HETATM   21  C   UNL     1      -4.544  -2.805 -33.905  1.00  0.00     0.007 A 
HETATM   22  C   UNL     1      -4.226  -4.115 -34.273  1.00  0.00     0.001 A 
HETATM   23  C   UNL     1      -5.206  -4.957 -34.793  1.00  0.00     0.000 A 
HETATM   24  C   UNL     1      -6.508  -4.490 -34.945  1.00  0.00     0.001 A 
HETATM   25  C   UNL     1      -6.826  -3.181 -34.581  1.00  0.00     0.007 A 
ENDBRANCH  19  20
ENDBRANCH  17  19
ENDBRANCH   1  17
TORSDOF 5
ENDMDL
MODEL 5
REMARK VINA RESULT:      -8.2      2.414      8.051
REMARK  5 active torsions:
REMARK  status: ('A' for Active; 'I' for Inactive)
REMARK    1  A    between atoms: C_2  and  C_3 
REMARK    2  A    between atoms: C_2  and  C_18 
REMARK       I    between atoms: C_3  and  N_4 
REMARK    3  A    between atoms: N_4  and  C_5 
REMARK    4  A    between atoms: C_7  and  C_8 
REMARK    5  A    between atoms: C_18  and  C_19 
ROOT
HETATM    1  C   UNL     1      -9.369   1.284 -33.443  1.00  0.00     0.226 C 
HETATM    2  N   UNL     1      -8.241   1.254 -34.239  1.00  0.00    -0.327 N 
HETATM    3  O   UNL     1      -9.607   0.508 -32.518  1.00  0.00    -0.273 OA
HETATM    4  H   UNL     1      -8.279   1.759 -35.113  1.00  0.00     0.169 HD
ENDROOT
BRANCH   2   5
HETATM    5  C   UNL     1      -7.079   0.478 -34.039  1.00  0.00     0.035 A 
HETATM    6  C   UNL     1      -6.966  -0.864 -34.419  1.00  0.00     0.042 A 
HETATM    7  C   UNL     1      -5.804  -1.602 -34.133  1.00  0.00    -0.021 A 
HETATM    8  C   UNL     1      -4.745  -0.970 -33.469  1.00  0.00     0.012 A 
HETATM    9  C   UNL     1      -4.847   0.368 -33.091  1.00  0.00     0.003 A 
HETATM   10  C   UNL     1      -6.011   1.085 -33.367  1.00  0.00     0.029 A 
BRANCH   7  11
HETATM   11  C   UNL     1      -5.702  -3.008 -34.488  1.00  0.00     0.010 A 
HETATM   12  C   UNL     1      -6.655  -3.893 -35.046  1.00  0.00     0.152 A 
HETATM   13  N   UNL     1      -6.176  -5.128 -35.224  1.00  0.00    -0.187 NA
HETATM   14  N   UNL     1      -4.911  -5.037 -34.780  1.00  0.00    -0.289 N 
HETATM   15  H   UNL     1      -4.330  -5.867 -34.815  1.00  0.00     0.188 HD
HETATM   16  C   UNL     1      -4.581  -3.793 -34.329  1.00  0.00     0.123 A 
ENDBRANCH   7  11
ENDBRANCH   2   5
BRANCH   1  17
HETATM   17  C   UNL     1     -10.319   2.458 -33.698  1.00  0.00     0.078 C 
HETATM   18  C   UNL     1      -9.484   3.647 -34.177  1.00  0.00     0.020 C 
BRANCH  17  19
HETATM   19  C   UNL     1     -11.474   2.199 -34.679  1.00  0.00     0.052 C 
BRANCH  19  20
HETATM   20  C   UNL     1     -12.866   2.023 -34.120  1.00  0.00    -0.057 A 
HETATM   21  C   UNL     1     -13.754   1.035 -34.562  1.00  0.00     0.007 A 
HETATM   22  C   UNL     1     -15.010   0.887 -33.967  1.00  0.00     0.001 A 
HETATM   23  C   UNL     1     -15.390   1.715 -32.913  1.00  0.00     0.000 A 
HETATM   24  C   UNL     1     -14.514   2.693 -32.452  1.00  0.00     0.001 A 
HETATM   25  C   UNL     1     -13.261   2.843 -33.048  1.00  0.00     0.007 A 
ENDBRANCH  19  20
ENDBRANCH  17  19
ENDBRANCH   1  17
TORSDOF 5
ENDMDL
MODEL 6
REMARK VINA RESULT:      -8.1      5.737      8.782
REMARK  5 active torsions:
REMARK  status: ('A' for Active; 'I' for Inactive)
REMARK    1  A    between atoms: C_2  and  C_3 
REMARK    2  A    between atoms: C_2  and  C_18 
REMARK       I    between atoms: C_3  and  N_4 
REMARK    3  A    between atoms: N_4  and  C_5 
REMARK    4  A    between atoms: C_7  and  C_8 
REMARK    5  A    between atoms: C_18  and  C_19 
ROOT
HETATM    1  C   UNL     1      -3.952   1.615 -32.302  1.00  0.00     0.226 C 
HETATM    2  N   UNL     1      -3.947   2.929 -32.727  1.00  0.00    -0.327 N 
HETATM    3  O   UNL     1      -2.961   0.981 -31.941  1.00  0.00    -0.273 OA
HETATM    4  H   UNL     1      -4.757   3.253 -33.238  1.00  0.00     0.169 HD
ENDROOT
BRANCH   2   5
HETATM    5  C   UNL     1      -2.875   3.844 -32.650  1.00  0.00     0.035 A 
HETATM    6  C   UNL     1      -2.221   4.175 -31.459  1.00  0.00     0.042 A 
HETATM    7  C   UNL     1      -1.201   5.143 -31.437  1.00  0.00    -0.021 A 
HETATM    8  C   UNL     1      -0.835   5.769 -32.636  1.00  0.00     0.012 A 
HETATM    9  C   UNL     1      -1.479   5.442 -33.828  1.00  0.00     0.003 A 
HETATM   10  C   UNL     1      -2.499   4.491 -33.834  1.00  0.00     0.029 A 
BRANCH   7  11
HETATM   11  C   UNL     1      -0.551   5.520 -30.194  1.00  0.00     0.010 A 
HETATM   12  C   UNL     1      -0.820   6.577 -29.291  1.00  0.00     0.152 A 
HETATM   13  N   UNL     1       0.015   6.596 -28.249  1.00  0.00    -0.187 NA
HETATM   14  N   UNL     1       0.823   5.547 -28.479  1.00  0.00    -0.289 N 
HETATM   15  H   UNL     1       1.558   5.351 -27.808  1.00  0.00     0.188 HD
HETATM   16  C   UNL     1       0.528   4.875 -29.629  1.00  0.00     0.123 A 
ENDBRANCH   7  11
ENDBRANCH   2   5
BRANCH   1  17
HETATM   17  C   UNL     1      -5.336   0.969 -32.187  1.00  0.00     0.078 C 
HETATM   18  C   UNL     1      -6.261   1.957 -31.471  1.00  0.00     0.020 C 
BRANCH  17  19
HETATM   19  C   UNL     1      -5.983   0.504 -33.501  1.00  0.00     0.052 C 
BRANCH  19  20
HETATM   20  C   UNL     1      -5.872  -0.954 -33.880  1.00  0.00    -0.057 A 
HETATM   21  C   UNL     1      -6.959  -1.720 -34.320  1.00  0.00     0.007 A 
HETATM   22  C   UNL     1      -6.782  -3.051 -34.709  1.00  0.00     0.001 A 
HETATM   23  C   UNL     1      -5.516  -3.630 -34.676  1.00  0.00     0.000 A 
HETATM   24  C   UNL     1      -4.423  -2.879 -34.256  1.00  0.00     0.001 A 
HETATM   25  C   UNL     1      -4.599  -1.552 -33.864  1.00  0.00     0.007 A 
ENDBRANCH  19  20
ENDBRANCH  17  19
ENDBRANCH   1  17
TORSDOF 5
ENDMDL
MODEL 7
REMARK VINA RESULT:      -8.0     13.543     14.485
REMARK  5 active torsions:
REMARK  status: ('A' for Active; 'I' for Inactive)
REMARK    1  A    between atoms: C_2  and  C_3 
REMARK    2  A    between atoms: C_2  and  C_18 
REMARK       I    between atoms: C_3  and  N_4 
REMARK    3  A    between atoms: N_4  and  C_5 
REMARK    4  A    between atoms: C_7  and  C_8 
REMARK    5  A    between atoms: C_18  and  C_19 
ROOT
HETATM    1  C   UNL     1      -5.013 -14.219 -36.598  1.00  0.00     0.226 C 
HETATM    2  N   UNL     1      -5.276 -12.963 -37.107  1.00  0.00    -0.327 N 
HETATM    3  O   UNL     1      -5.439 -15.277 -37.060  1.00  0.00    -0.273 OA
HETATM    4  H   UNL     1      -5.094 -12.172 -36.504  1.00  0.00     0.169 HD
ENDROOT
BRANCH   2   5
HETATM    5  C   UNL     1      -5.905 -12.656 -38.333  1.00  0.00     0.035 A 
HETATM    6  C   UNL     1      -7.279 -12.791 -38.555  1.00  0.00     0.042 A 
HETATM    7  C   UNL     1      -7.838 -12.532 -39.819  1.00  0.00    -0.021 A 
HETATM    8  C   UNL     1      -6.997 -12.120 -40.860  1.00  0.00     0.012 A 
HETATM    9  C   UNL     1      -5.626 -11.978 -40.647  1.00  0.00     0.003 A 
HETATM   10  C   UNL     1      -5.082 -12.254 -39.392  1.00  0.00     0.029 A 
BRANCH   7  11
HETATM   11  C   UNL     1      -9.259 -12.714 -40.064  1.00  0.00     0.010 A 
HETATM   12  C   UNL     1     -10.064 -13.877 -40.019  1.00  0.00     0.152 A 
HETATM   13  N   UNL     1     -11.345 -13.634 -40.314  1.00  0.00    -0.187 NA
HETATM   14  N   UNL     1     -11.364 -12.312 -40.548  1.00  0.00    -0.289 N 
HETATM   15  H   UNL     1     -12.248 -11.881 -40.798  1.00  0.00     0.188 HD
HETATM   16  C   UNL     1     -10.144 -11.717 -40.414  1.00  0.00     0.123 A 
ENDBRANCH   7  11
ENDBRANCH   2   5
BRANCH   1  17
HETATM   17  C   UNL     1      -4.021 -14.258 -35.432  1.00  0.00     0.078 C 
HETATM   18  C   UNL     1      -4.611 -15.151 -34.338  1.00  0.00     0.020 C 
BRANCH  17  19
HETATM   19  C   UNL     1      -2.592 -14.717 -35.768  1.00  0.00     0.052 C 
BRANCH  19  20
HETATM   20  C   UNL     1      -2.046 -14.417 -37.145  1.00  0.00    -0.057 A 
HETATM   21  C   UNL     1      -1.959 -15.375 -38.162  1.00  0.00     0.007 A 
HETATM   22  C   UNL     1      -1.495 -15.023 -39.433  1.00  0.00     0.001 A 
HETATM   23  C   UNL     1      -1.127 -13.709 -39.708  1.00  0.00     0.000 A 
HETATM   24  C   UNL     1      -1.222 -12.741 -38.713  1.00  0.00     0.001 A 
HETATM   25  C   UNL     1      -1.681 -13.092 -37.443  1.00  0.00     0.007 A 
ENDBRANCH  19  20
ENDBRANCH  17  19
ENDBRANCH   1  17
TORSDOF 5
ENDMDL
MODEL 8
REMARK VINA RESULT:      -7.7      5.616      8.469
REMARK  5 active torsions:
REMARK  status: ('A' for Active; 'I' for Inactive)
REMARK    1  A    between atoms: C_2  and  C_3 
REMARK    2  A    between atoms: C_2  and  C_18 
REMARK       I    between atoms: C_3  and  N_4 
REMARK    3  A    between atoms: N_4  and  C_5 
REMARK    4  A    between atoms: C_7  and  C_8 
REMARK    5  A    between atoms: C_18  and  C_19 
ROOT
HETATM    1  C   UNL     1      -3.394   3.790 -32.420  1.00  0.00     0.226 C 
HETATM    2  N   UNL     1      -4.661   3.276 -32.611  1.00  0.00    -0.327 N 
HETATM    3  O   UNL     1      -2.519   3.281 -31.720  1.00  0.00    -0.273 OA
HETATM    4  H   UNL     1      -5.363   3.901 -32.983  1.00  0.00     0.169 HD
ENDROOT
BRANCH   2   5
HETATM    5  C   UNL     1      -5.133   2.005 -32.216  1.00  0.00     0.035 A 
HETATM    6  C   UNL     1      -5.180   0.896 -33.067  1.00  0.00     0.042 A 
HETATM    7  C   UNL     1      -5.721  -0.327 -32.633  1.00  0.00    -0.021 A 
HETATM    8  C   UNL     1      -6.205  -0.427 -31.323  1.00  0.00     0.012 A 
HETATM    9  C   UNL     1      -6.158   0.672 -30.466  1.00  0.00     0.003 A 
HETATM   10  C   UNL     1      -5.632   1.884 -30.914  1.00  0.00     0.029 A 
BRANCH   7  11
HETATM   11  C   UNL     1      -5.811  -1.468 -33.529  1.00  0.00     0.010 A 
HETATM   12  C   UNL     1      -6.933  -2.086 -34.131  1.00  0.00     0.152 A 
HETATM   13  N   UNL     1      -6.603  -3.128 -34.898  1.00  0.00    -0.187 NA
HETATM   14  N   UNL     1      -5.265  -3.181 -34.791  1.00  0.00    -0.289 N 
HETATM   15  H   UNL     1      -4.771  -3.908 -35.298  1.00  0.00     0.188 HD
HETATM   16  C   UNL     1      -4.745  -2.213 -33.983  1.00  0.00     0.123 A 
ENDBRANCH   7  11
ENDBRANCH   2   5
BRANCH   1  17
HETATM   17  C   UNL     1      -3.060   5.034 -33.247  1.00  0.00     0.078 C 
HETATM   18  C   UNL     1      -4.096   5.150 -34.368  1.00  0.00     0.020 C 
BRANCH  17  19
HETATM   19  C   UNL     1      -2.973   6.362 -32.476  1.00  0.00     0.052 C 
BRANCH  19  20
HETATM   20  C   UNL     1      -1.792   6.584 -31.560  1.00  0.00    -0.057 A 
HETATM   21  C   UNL     1      -0.461   6.525 -31.991  1.00  0.00     0.007 A 
HETATM   22  C   UNL     1       0.587   6.794 -31.107  1.00  0.00     0.001 A 
HETATM   23  C   UNL     1       0.320   7.140 -29.785  1.00  0.00     0.000 A 
HETATM   24  C   UNL     1      -0.997   7.218 -29.343  1.00  0.00     0.001 A 
HETATM   25  C   UNL     1      -2.044   6.946 -30.224  1.00  0.00     0.007 A 
ENDBRANCH  19  20
ENDBRANCH  17  19
ENDBRANCH   1  17
TORSDOF 5
ENDMDL
MODEL 9
REMARK VINA RESULT:      -7.7     13.812     17.062
REMARK  5 active torsions:
REMARK  status: ('A' for Active; 'I' for Inactive)
REMARK    1  A    between atoms: C_2  and  C_3 
REMARK    2  A    between atoms: C_2  and  C_18 
REMARK       I    between atoms: C_3  and  N_4 
REMARK    3  A    between atoms: N_4  and  C_5 
REMARK    4  A    between atoms: C_7  and  C_8 
REMARK    5  A    between atoms: C_18  and  C_19 
ROOT
HETATM    1  C   UNL     1      -4.874 -13.018 -39.237  1.00  0.00     0.226 C 
HETATM    2  N   UNL     1      -4.018 -12.598 -38.239  1.00  0.00    -0.327 N 
HETATM    3  O   UNL     1      -4.761 -14.064 -39.877  1.00  0.00    -0.273 OA
HETATM    4  H   UNL     1      -4.058 -11.623 -37.975  1.00  0.00     0.169 HD
ENDROOT
BRANCH   2   5
HETATM    5  C   UNL     1      -2.987 -13.347 -37.632  1.00  0.00     0.035 A 
HETATM    6  C   UNL     1      -1.781 -13.664 -38.267  1.00  0.00     0.042 A 
HETATM    7  C   UNL     1      -0.819 -14.469 -37.633  1.00  0.00    -0.021 A 
HETATM    8  C   UNL     1      -1.076 -14.944 -36.341  1.00  0.00     0.012 A 
HETATM    9  C   UNL     1      -2.272 -14.628 -35.698  1.00  0.00     0.003 A 
HETATM   10  C   UNL     1      -3.226 -13.841 -36.344  1.00  0.00     0.029 A 
BRANCH   7  11
HETATM   11  C   UNL     1       0.415 -14.837 -38.308  1.00  0.00     0.010 A 
HETATM   12  C   UNL     1       1.586 -15.465 -37.820  1.00  0.00     0.152 A 
HETATM   13  N   UNL     1       2.518 -15.631 -38.763  1.00  0.00    -0.187 NA
HETATM   14  N   UNL     1       1.946 -15.109 -39.860  1.00  0.00    -0.289 N 
HETATM   15  H   UNL     1       2.473 -15.119 -40.727  1.00  0.00     0.188 HD
HETATM   16  C   UNL     1       0.692 -14.620 -39.641  1.00  0.00     0.123 A 
ENDBRANCH   7  11
ENDBRANCH   2   5
BRANCH   1  17
HETATM   17  C   UNL     1      -6.105 -12.135 -39.459  1.00  0.00     0.078 C 
HETATM   18  C   UNL     1      -6.524 -12.265 -40.926  1.00  0.00     0.020 C 
BRANCH  17  19
HETATM   19  C   UNL     1      -7.311 -12.404 -38.544  1.00  0.00     0.052 C 
BRANCH  19  20
HETATM   20  C   UNL     1      -8.602 -12.869 -39.176  1.00  0.00    -0.057 A 
HETATM   21  C   UNL     1      -9.537 -11.998 -39.747  1.00  0.00     0.007 A 
HETATM   22  C   UNL     1     -10.688 -12.493 -40.366  1.00  0.00     0.001 A 
HETATM   23  C   UNL     1     -10.914 -13.866 -40.435  1.00  0.00     0.000 A 
HETATM   24  C   UNL     1      -9.988 -14.747 -39.886  1.00  0.00     0.001 A 
HETATM   25  C   UNL     1      -8.840 -14.253 -39.264  1.00  0.00     0.007 A 
ENDBRANCH  19  20
ENDBRANCH  17  19
ENDBRANCH   1  17
TORSDOF 5
ENDMDL
MODEL 10
REMARK VINA RESULT:      -7.6      4.919      7.922
REMARK  5 active torsions:
REMARK  status: ('A' for Active; 'I' for Inactive)
REMARK    1  A    between atoms: C_2  and  C_3 
REMARK    2  A    between atoms: C_2  and  C_18 
REMARK       I    between atoms: C_3  and  N_4 
REMARK    3  A    between atoms: N_4  and  C_5 
REMARK    4  A    between atoms: C_7  and  C_8 
REMARK    5  A    between atoms: C_18  and  C_19 
ROOT
HETATM    1  C   UNL     1      -3.512   0.358 -31.969  1.00  0.00     0.226 C 
HETATM    2  N   UNL     1      -4.157   1.447 -32.522  1.00  0.00    -0.327 N 
HETATM    3  O   UNL     1      -2.721   0.403 -31.027  1.00  0.00    -0.273 OA
HETATM    4  H   UNL     1      -4.566   1.326 -33.438  1.00  0.00     0.169 HD
ENDROOT
BRANCH   2   5
HETATM    5  C   UNL     1      -4.191   2.763 -32.014  1.00  0.00     0.035 A 
HETATM    6  C   UNL     1      -3.406   3.809 -32.512  1.00  0.00     0.042 A 
HETATM    7  C   UNL     1      -3.438   5.084 -31.920  1.00  0.00    -0.021 A 
HETATM    8  C   UNL     1      -4.282   5.302 -30.824  1.00  0.00     0.012 A 
HETATM    9  C   UNL     1      -5.071   4.267 -30.324  1.00  0.00     0.003 A 
HETATM   10  C   UNL     1      -5.019   3.002 -30.910  1.00  0.00     0.029 A 
BRANCH   7  11
HETATM   11  C   UNL     1      -2.591   6.159 -32.409  1.00  0.00     0.010 A 
HETATM   12  C   UNL     1      -2.687   7.561 -32.244  1.00  0.00     0.152 A 
HETATM   13  N   UNL     1      -1.705   8.226 -32.858  1.00  0.00    -0.187 NA
HETATM   14  N   UNL     1      -0.973   7.249 -33.419  1.00  0.00    -0.289 N 
HETATM   15  H   UNL     1      -0.151   7.511 -33.953  1.00  0.00     0.188 HD
HETATM   16  C   UNL     1      -1.461   5.998 -33.182  1.00  0.00     0.123 A 
ENDBRANCH   7  11
ENDBRANCH   2   5
BRANCH   1  17
HETATM   17  C   UNL     1      -3.926  -1.004 -32.534  1.00  0.00     0.078 C 
HETATM   18  C   UNL     1      -3.018  -2.069 -31.914  1.00  0.00     0.020 C 
BRANCH  17  19
HETATM   19  C   UNL     1      -5.400  -1.399 -32.348  1.00  0.00     0.052 C 
BRANCH  19  20
HETATM   20  C   UNL     1      -6.443  -0.701 -33.190  1.00  0.00    -0.057 A 
HETATM   21  C   UNL     1      -6.489  -0.788 -34.586  1.00  0.00     0.007 A 
HETATM   22  C   UNL     1      -7.511  -0.163 -35.306  1.00  0.00     0.001 A 
HETATM   23  C   UNL     1      -8.509   0.544 -34.639  1.00  0.00     0.000 A 
HETATM   24  C   UNL     1      -8.487   0.628 -33.251  1.00  0.00     0.001 A 
HETATM   25  C   UNL     1      -7.464   0.008 -32.532  1.00  0.00     0.007 A 
ENDBRANCH  19  20
ENDBRANCH  17  19
ENDBRANCH   1  17
TORSDOF 5
ENDMDL
