MODEL 1
REMARK VINA RESULT:      -9.1      0.000      0.000
REMARK  6 active torsions:
REMARK  status: ('A' for Active; 'I' for Inactive)
REMARK    1  A    between atoms: C_4  and  N_5 
REMARK       I    between atoms: N_5  and  C_6 
REMARK    2  A    between atoms: C_6  and  C_7 
REMARK       I    between atoms: C_7  and  N_8 
REMARK    3  A    between atoms: N_8  and  C_9 
REMARK    4  A    between atoms: C_9  and  C_10 
REMARK    5  A    between atoms: C_10  and  C_11 
REMARK    6  A    between atoms: C_11  and  C_12 
ROOT
HETATM    1  C   UNL     1      -6.952   2.005 -32.094  1.00  0.00     0.309 C 
HETATM    2  N   UNL     1      -6.409   1.121 -31.187  1.00  0.00    -0.353 N 
HETATM    3  O   UNL     1      -6.330   2.736 -32.850  1.00  0.00    -0.262 OA
HETATM    4  H   UNL     1      -7.072   0.626 -30.594  1.00  0.00     0.162 HD
ENDROOT
BRANCH   1   5
HETATM    5  C   UNL     1      -8.498   2.028 -32.075  1.00  0.00     0.314 C 
HETATM    6  N   UNL     1      -9.040   1.889 -33.328  1.00  0.00    -0.317 N 
HETATM    7  H   UNL     1      -8.381   1.777 -34.103  1.00  0.00     0.169 HD
HETATM    8  O   UNL     1      -9.066   2.173 -31.001  1.00  0.00    -0.262 OA
BRANCH   6   9
HETATM    9  C   UNL     1     -10.401   1.884 -33.710  1.00  0.00     0.065 A 
HETATM   10  C   UNL     1     -11.244   0.784 -33.503  1.00  0.00     0.038 A 
HETATM   11  C   UNL     1     -12.584   0.833 -33.898  1.00  0.00    -0.059 A 
HETATM   12  C   UNL     1     -13.497  -0.337 -33.673  1.00  0.00     0.048 C 
HETATM   13  C   UNL     1     -13.073   1.995 -34.501  1.00  0.00     0.020 A 
HETATM   14  C   UNL     1     -12.232   3.101 -34.713  1.00  0.00    -0.005 A 
HETATM   15  C   UNL     1     -10.880   3.056 -34.315  1.00  0.00     0.093 A 
HETATM   16  C   UNL     1     -12.709   4.272 -35.317  1.00  0.00     0.015 A 
HETATM   17  N   UNL     1     -10.049   4.110 -34.505  1.00  0.00    -0.258 NA
HETATM   18  C   UNL     1     -10.545   5.221 -35.093  1.00  0.00     0.117 A 
HETATM   19  C   UNL     1     -11.854   5.350 -35.511  1.00  0.00     0.020 A 
ENDBRANCH   6   9
ENDBRANCH   1   5
BRANCH   2  20
HETATM   20  C   UNL     1      -4.990   1.033 -30.935  1.00  0.00     0.123 C 
BRANCH  20  21
HETATM   21  C   UNL     1      -4.382  -0.272 -31.445  1.00  0.00     0.024 C 
BRANCH  21  22
HETATM   22  C   UNL     1      -4.095  -0.232 -32.948  1.00  0.00     0.042 C 
BRANCH  22  23
HETATM   23  C   UNL     1      -5.029  -1.102 -33.726  1.00  0.00    -0.030 A 
HETATM   24  C   UNL     1      -4.895  -2.509 -33.954  1.00  0.00    -0.002 A 
HETATM   25  C   UNL     1      -5.984  -2.915 -34.725  1.00  0.00     0.042 A 
HETATM   26  C   UNL     1      -3.940  -3.477 -33.577  1.00  0.00     0.014 A 
HETATM   27  C   UNL     1      -6.170  -4.241 -35.136  1.00  0.00     0.030 A 
HETATM   28  N   UNL     1      -6.753  -1.799 -34.956  1.00  0.00    -0.365 N 
HETATM   29  C   UNL     1      -5.210  -5.180 -34.748  1.00  0.00     0.002 A 
HETATM   30  C   UNL     1      -4.110  -4.806 -33.980  1.00  0.00     0.001 A 
HETATM   31  H   UNL     1      -7.610  -1.796 -35.490  1.00  0.00     0.165 HD
HETATM   32  C   UNL     1      -6.189  -0.702 -34.361  1.00  0.00     0.096 A 
ENDBRANCH  22  23
ENDBRANCH  21  22
ENDBRANCH  20  21
ENDBRANCH   2  20
TORSDOF 6
ENDMDL
MODEL 2
REMARK VINA RESULT:      -8.9      5.020      8.030
REMARK  6 active torsions:
REMARK  status: ('A' for Active; 'I' for Inactive)
REMARK    1  A    between atoms: C_4  and  N_5 
REMARK       I    between atoms: N_5  and  C_6 
REMARK    2  A    between atoms: C_6  and  C_7 
REMARK       I    between atoms: C_7  and  N_8 
REMARK    3  A    between atoms: N_8  and  C_9 
REMARK    4  A    between atoms: C_9  and  C_10 
REMARK    5  A    between atoms: C_10  and  C_11 
REMARK    6  A    between atoms: C_11  and  C_12 
ROOT
HETATM    1  C   UNL     1      -3.190   3.144 -32.069  1.00  0.00     0.309 C 
HETATM    2  N   UNL     1      -3.692   4.014 -33.012  1.00  0.00    -0.353 N 
HETATM    3  O   UNL     1      -2.329   3.398 -31.239  1.00  0.00    -0.262 OA
HETATM    4  H   UNL     1      -4.368   3.624 -33.664  1.00  0.00     0.162 HD
ENDROOT
BRANCH   1   5
HETATM    5  C   UNL     1      -3.809   1.730 -32.150  1.00  0.00     0.314 C 
HETATM    6  N   UNL     1      -4.875   1.673 -33.012  1.00  0.00    -0.317 N 
HETATM    7  H   UNL     1      -5.121   2.541 -33.495  1.00  0.00     0.169 HD
HETATM    8  O   UNL     1      -3.323   0.840 -31.465  1.00  0.00    -0.262 OA
BRANCH   6   9
HETATM    9  C   UNL     1      -5.699   0.570 -33.331  1.00  0.00     0.065 A 
HETATM   10  C   UNL     1      -5.200  -0.620 -33.876  1.00  0.00     0.038 A 
HETATM   11  C   UNL     1      -6.060  -1.682 -34.171  1.00  0.00    -0.059 A 
HETATM   12  C   UNL     1      -5.533  -2.964 -34.748  1.00  0.00     0.048 C 
HETATM   13  C   UNL     1      -7.427  -1.541 -33.913  1.00  0.00     0.020 A 
HETATM   14  C   UNL     1      -7.934  -0.350 -33.368  1.00  0.00    -0.005 A 
HETATM   15  C   UNL     1      -7.070   0.724 -33.069  1.00  0.00     0.093 A 
HETATM   16  C   UNL     1      -9.303  -0.194 -33.105  1.00  0.00     0.015 A 
HETATM   17  N   UNL     1      -7.534   1.882 -32.540  1.00  0.00    -0.258 NA
HETATM   18  C   UNL     1      -8.859   1.994 -32.302  1.00  0.00     0.117 A 
HETATM   19  C   UNL     1      -9.774   0.995 -32.564  1.00  0.00     0.020 A 
ENDBRANCH   6   9
ENDBRANCH   1   5
BRANCH   2  20
HETATM   20  C   UNL     1      -3.163   5.343 -33.210  1.00  0.00     0.123 C 
BRANCH  20  21
HETATM   21  C   UNL     1      -1.853   5.343 -33.996  1.00  0.00     0.024 C 
BRANCH  21  22
HETATM   22  C   UNL     1      -1.040   6.620 -33.771  1.00  0.00     0.042 C 
BRANCH  22  23
HETATM   23  C   UNL     1      -1.094   7.083 -32.351  1.00  0.00    -0.030 A 
HETATM   24  C   UNL     1      -0.442   6.476 -31.230  1.00  0.00    -0.002 A 
HETATM   25  C   UNL     1      -0.759   7.231 -30.100  1.00  0.00     0.042 A 
HETATM   26  C   UNL     1       0.389   5.346 -31.071  1.00  0.00     0.014 A 
HETATM   27  C   UNL     1      -0.286   6.917 -28.820  1.00  0.00     0.030 A 
HETATM   28  N   UNL     1      -1.572   8.259 -30.518  1.00  0.00    -0.365 N 
HETATM   29  C   UNL     1       0.536   5.793 -28.691  1.00  0.00     0.002 A 
HETATM   30  C   UNL     1       0.869   5.018 -29.799  1.00  0.00     0.001 A 
HETATM   31  H   UNL     1      -1.956   8.967 -29.908  1.00  0.00     0.165 HD
HETATM   32  C   UNL     1      -1.780   8.181 -31.869  1.00  0.00     0.096 A 
ENDBRANCH  22  23
ENDBRANCH  21  22
ENDBRANCH  20  21
ENDBRANCH   2  20
TORSDOF 6
ENDMDL
MODEL 3
REMARK VINA RESULT:      -8.9      5.403      9.151
REMARK  6 active torsions:
REMARK  status: ('A' for Active; 'I' for Inactive)
REMARK    1  A    between atoms: C_4  and  N_5 
REMARK       I    between atoms: N_5  and  C_6 
REMARK    2  A    between atoms: C_6  and  C_7 
REMARK       I    between atoms: C_7  and  N_8 
REMARK    3  A    between atoms: N_8  and  C_9 
REMARK    4  A    between atoms: C_9  and  C_10 
REMARK    5  A    between atoms: C_10  and  C_11 
REMARK    6  A    between atoms: C_11  and  C_12 
ROOT
HETATM    1  C   UNL     1      -4.315   4.059 -31.021  1.00  0.00     0.309 C 
HETATM    2  N   UNL     1      -3.213   4.351 -31.794  1.00  0.00    -0.353 N 
HETATM    3  O   UNL     1      -4.955   4.854 -30.349  1.00  0.00    -0.262 OA
HETATM    4  H   UNL     1      -2.763   3.559 -32.248  1.00  0.00     0.162 HD
ENDROOT
BRANCH   1   5
HETATM    5  C   UNL     1      -4.697   2.561 -31.041  1.00  0.00     0.314 C 
HETATM    6  N   UNL     1      -4.279   1.929 -32.185  1.00  0.00    -0.317 N 
HETATM    7  H   UNL     1      -3.769   2.500 -32.864  1.00  0.00     0.169 HD
HETATM    8  O   UNL     1      -5.314   2.104 -30.088  1.00  0.00    -0.262 OA
BRANCH   6   9
HETATM    9  C   UNL     1      -4.459   0.581 -32.569  1.00  0.00     0.065 A 
HETATM   10  C   UNL     1      -3.667  -0.464 -32.074  1.00  0.00     0.038 A 
HETATM   11  C   UNL     1      -3.889  -1.781 -32.486  1.00  0.00    -0.059 A 
HETATM   12  C   UNL     1      -3.050  -2.907 -31.956  1.00  0.00     0.048 C 
HETATM   13  C   UNL     1      -4.916  -2.043 -33.397  1.00  0.00     0.020 A 
HETATM   14  C   UNL     1      -5.714  -1.001 -33.898  1.00  0.00    -0.005 A 
HETATM   15  C   UNL     1      -5.493   0.329 -33.485  1.00  0.00     0.093 A 
HETATM   16  C   UNL     1      -6.746  -1.250 -34.813  1.00  0.00     0.015 A 
HETATM   17  N   UNL     1      -6.250   1.352 -33.950  1.00  0.00    -0.258 NA
HETATM   18  C   UNL     1      -7.235   1.072 -34.832  1.00  0.00     0.117 A 
HETATM   19  C   UNL     1      -7.520  -0.198 -35.288  1.00  0.00     0.020 A 
ENDBRANCH   6   9
ENDBRANCH   1   5
BRANCH   2  20
HETATM   20  C   UNL     1      -2.596   5.657 -31.816  1.00  0.00     0.123 C 
BRANCH  20  21
HETATM   21  C   UNL     1      -1.229   5.651 -32.497  1.00  0.00     0.024 C 
BRANCH  21  22
HETATM   22  C   UNL     1      -0.247   6.623 -31.839  1.00  0.00     0.042 C 
BRANCH  22  23
HETATM   23  C   UNL     1       0.109   6.213 -30.446  1.00  0.00    -0.030 A 
HETATM   24  C   UNL     1      -0.040   7.000 -29.260  1.00  0.00    -0.002 A 
HETATM   25  C   UNL     1       0.412   6.232 -28.187  1.00  0.00     0.042 A 
HETATM   26  C   UNL     1      -0.515   8.303 -29.000  1.00  0.00     0.014 A 
HETATM   27  C   UNL     1       0.410   6.698 -26.866  1.00  0.00     0.030 A 
HETATM   28  N   UNL     1       0.819   5.023 -28.700  1.00  0.00    -0.365 N 
HETATM   29  C   UNL     1      -0.067   7.992 -26.636  1.00  0.00     0.002 A 
HETATM   30  C   UNL     1      -0.523   8.785 -27.687  1.00  0.00     0.001 A 
HETATM   31  H   UNL     1       1.194   4.265 -28.147  1.00  0.00     0.165 HD
HETATM   32  C   UNL     1       0.642   4.999 -30.057  1.00  0.00     0.096 A 
ENDBRANCH  22  23
ENDBRANCH  21  22
ENDBRANCH  20  21
ENDBRANCH   2  20
TORSDOF 6
ENDMDL
MODEL 4
REMARK VINA RESULT:      -8.9      3.646      7.934
REMARK  6 active torsions:
REMARK  status: ('A' for Active; 'I' for Inactive)
REMARK    1  A    between atoms: C_4  and  N_5 
REMARK       I    between atoms: N_5  and  C_6 
REMARK    2  A    between atoms: C_6  and  C_7 
REMARK       I    between atoms: C_7  and  N_8 
REMARK    3  A    between atoms: N_8  and  C_9 
REMARK    4  A    between atoms: C_9  and  C_10 
REMARK    5  A    between atoms: C_10  and  C_11 
REMARK    6  A    between atoms: C_11  and  C_12 
ROOT
HETATM    1  C   UNL     1      -8.551   2.283 -33.830  1.00  0.00     0.309 C 
HETATM    2  N   UNL     1      -7.548   3.219 -33.695  1.00  0.00    -0.353 N 
HETATM    3  O   UNL     1      -9.704   2.505 -34.167  1.00  0.00    -0.262 OA
HETATM    4  H   UNL     1      -6.656   2.871 -33.351  1.00  0.00     0.162 HD
ENDROOT
BRANCH   1   5
HETATM    5  C   UNL     1      -8.097   0.847 -33.482  1.00  0.00     0.314 C 
HETATM    6  N   UNL     1      -6.929   0.498 -34.112  1.00  0.00    -0.317 N 
HETATM    7  H   UNL     1      -6.501   1.210 -34.710  1.00  0.00     0.169 HD
HETATM    8  O   UNL     1      -8.793   0.183 -32.724  1.00  0.00    -0.262 OA
BRANCH   6   9
HETATM    9  C   UNL     1      -6.223  -0.725 -34.058  1.00  0.00     0.065 A 
HETATM   10  C   UNL     1      -6.634  -1.872 -34.749  1.00  0.00     0.038 A 
HETATM   11  C   UNL     1      -5.897  -3.056 -34.662  1.00  0.00    -0.059 A 
HETATM   12  C   UNL     1      -6.325  -4.288 -35.405  1.00  0.00     0.048 C 
HETATM   13  C   UNL     1      -4.741  -3.080 -33.876  1.00  0.00     0.020 A 
HETATM   14  C   UNL     1      -4.324  -1.934 -33.179  1.00  0.00    -0.005 A 
HETATM   15  C   UNL     1      -5.065  -0.737 -33.264  1.00  0.00     0.093 A 
HETATM   16  C   UNL     1      -3.167  -1.945 -32.387  1.00  0.00     0.015 A 
HETATM   17  N   UNL     1      -4.682   0.383 -32.605  1.00  0.00    -0.258 NA
HETATM   18  C   UNL     1      -3.563   0.333 -31.850  1.00  0.00     0.117 A 
HETATM   19  C   UNL     1      -2.779  -0.795 -31.711  1.00  0.00     0.020 A 
ENDBRANCH   6   9
ENDBRANCH   1   5
BRANCH   2  20
HETATM   20  C   UNL     1      -7.780   4.638 -33.833  1.00  0.00     0.123 C 
BRANCH  20  21
HETATM   21  C   UNL     1      -6.608   5.477 -33.328  1.00  0.00     0.024 C 
BRANCH  21  22
HETATM   22  C   UNL     1      -5.280   5.067 -33.968  1.00  0.00     0.042 C 
BRANCH  22  23
HETATM   23  C   UNL     1      -4.195   4.884 -32.956  1.00  0.00    -0.030 A 
HETATM   24  C   UNL     1      -2.964   5.611 -32.883  1.00  0.00    -0.002 A 
HETATM   25  C   UNL     1      -2.251   5.122 -31.788  1.00  0.00     0.042 A 
HETATM   26  C   UNL     1      -2.386   6.642 -33.654  1.00  0.00     0.014 A 
HETATM   27  C   UNL     1      -0.992   5.612 -31.423  1.00  0.00     0.030 A 
HETATM   28  N   UNL     1      -3.020   4.135 -31.216  1.00  0.00    -0.365 N 
HETATM   29  C   UNL     1      -0.442   6.634 -32.202  1.00  0.00     0.002 A 
HETATM   30  C   UNL     1      -1.128   7.143 -33.303  1.00  0.00     0.001 A 
HETATM   31  H   UNL     1      -2.751   3.604 -30.400  1.00  0.00     0.165 HD
HETATM   32  C   UNL     1      -4.191   3.983 -31.909  1.00  0.00     0.096 A 
ENDBRANCH  22  23
ENDBRANCH  21  22
ENDBRANCH  20  21
ENDBRANCH   2  20
TORSDOF 6
ENDMDL
MODEL 5
REMARK VINA RESULT:      -8.9      5.069      8.303
REMARK  6 active torsions:
REMARK  status: ('A' for Active; 'I' for Inactive)
REMARK    1  A    between atoms: C_4  and  N_5 
REMARK       I    between atoms: N_5  and  C_6 
REMARK    2  A    between atoms: C_6  and  C_7 
REMARK       I    between atoms: C_7  and  N_8 
REMARK    3  A    between atoms: N_8  and  C_9 
REMARK    4  A    between atoms: C_9  and  C_10 
REMARK    5  A    between atoms: C_10  and  C_11 
REMARK    6  A    between atoms: C_11  and  C_12 
ROOT
HETATM    1  C   UNL     1      -3.214   3.291 -32.047  1.00  0.00     0.309 C 
HETATM    2  N   UNL     1      -3.202   3.996 -33.230  1.00  0.00    -0.353 N 
HETATM    3  O   UNL     1      -2.303   3.229 -31.235  1.00  0.00    -0.262 OA
HETATM    4  H   UNL     1      -4.026   3.895 -33.819  1.00  0.00     0.162 HD
ENDROOT
BRANCH   1   5
HETATM    5  C   UNL     1      -4.529   2.512 -31.811  1.00  0.00     0.314 C 
HETATM    6  N   UNL     1      -5.003   1.925 -32.957  1.00  0.00    -0.317 N 
HETATM    7  H   UNL     1      -4.443   2.054 -33.804  1.00  0.00     0.169 HD
HETATM    8  O   UNL     1      -5.007   2.503 -30.685  1.00  0.00    -0.262 OA
BRANCH   6   9
HETATM    9  C   UNL     1      -6.175   1.157 -33.140  1.00  0.00     0.065 A 
HETATM   10  C   UNL     1      -7.461   1.668 -32.921  1.00  0.00     0.038 A 
HETATM   11  C   UNL     1      -8.588   0.865 -33.120  1.00  0.00    -0.059 A 
HETATM   12  C   UNL     1      -9.970   1.406 -32.895  1.00  0.00     0.048 C 
HETATM   13  C   UNL     1      -8.414  -0.456 -33.542  1.00  0.00     0.020 A 
HETATM   14  C   UNL     1      -7.128  -0.975 -33.762  1.00  0.00    -0.005 A 
HETATM   15  C   UNL     1      -5.988  -0.169 -33.564  1.00  0.00     0.093 A 
HETATM   16  C   UNL     1      -6.940  -2.299 -34.185  1.00  0.00     0.015 A 
HETATM   17  N   UNL     1      -4.737  -0.644 -33.772  1.00  0.00    -0.258 NA
HETATM   18  C   UNL     1      -4.596  -1.925 -34.178  1.00  0.00     0.117 A 
HETATM   19  C   UNL     1      -5.655  -2.783 -34.396  1.00  0.00     0.020 A 
ENDBRANCH   6   9
ENDBRANCH   1   5
BRANCH   2  20
HETATM   20  C   UNL     1      -2.030   4.682 -33.720  1.00  0.00     0.123 C 
BRANCH  20  21
HETATM   21  C   UNL     1      -2.293   6.156 -34.022  1.00  0.00     0.024 C 
BRANCH  21  22
HETATM   22  C   UNL     1      -1.137   7.056 -33.581  1.00  0.00     0.042 C 
BRANCH  22  23
HETATM   23  C   UNL     1      -1.192   7.373 -32.121  1.00  0.00    -0.030 A 
HETATM   24  C   UNL     1      -0.519   6.672 -31.069  1.00  0.00    -0.002 A 
HETATM   25  C   UNL     1      -0.845   7.303 -29.869  1.00  0.00     0.042 A 
HETATM   26  C   UNL     1       0.337   5.551 -31.028  1.00  0.00     0.014 A 
HETATM   27  C   UNL     1      -0.357   6.873 -28.629  1.00  0.00     0.030 A 
HETATM   28  N   UNL     1      -1.683   8.349 -30.178  1.00  0.00    -0.365 N 
HETATM   29  C   UNL     1       0.490   5.761 -28.616  1.00  0.00     0.002 A 
HETATM   30  C   UNL     1       0.833   5.107 -29.798  1.00  0.00     0.001 A 
HETATM   31  H   UNL     1      -2.078   8.983 -29.498  1.00  0.00     0.165 HD
HETATM   32  C   UNL     1      -1.899   8.401 -31.529  1.00  0.00     0.096 A 
ENDBRANCH  22  23
ENDBRANCH  21  22
ENDBRANCH  20  21
ENDBRANCH   2  20
TORSDOF 6
ENDMDL
MODEL 6
REMARK VINA RESULT:      -8.8      2.665      6.838
REMARK  6 active torsions:
REMARK  status: ('A' for Active; 'I' for Inactive)
REMARK    1  A    between atoms: C_4  and  N_5 
REMARK       I    between atoms: N_5  and  C_6 
REMARK    2  A    between atoms: C_6  and  C_7 
REMARK       I    between atoms: C_7  and  N_8 
REMARK    3  A    between atoms: N_8  and  C_9 
REMARK    4  A    between atoms: C_9  and  C_10 
REMARK    5  A    between atoms: C_10  and  C_11 
REMARK    6  A    between atoms: C_11  and  C_12 
ROOT
HETATM    1  C   UNL     1      -4.033   4.071 -31.006  1.00  0.00     0.309 C 
HETATM    2  N   UNL     1      -5.091   3.890 -30.142  1.00  0.00    -0.353 N 
HETATM    3  O   UNL     1      -3.409   5.108 -31.174  1.00  0.00    -0.262 OA
HETATM    4  H   UNL     1      -5.535   2.974 -30.166  1.00  0.00     0.162 HD
ENDROOT
BRANCH   1   5
HETATM    5  C   UNL     1      -3.681   2.803 -31.818  1.00  0.00     0.314 C 
HETATM    6  N   UNL     1      -4.636   1.825 -31.701  1.00  0.00    -0.317 N 
HETATM    7  H   UNL     1      -5.450   2.045 -31.120  1.00  0.00     0.169 HD
HETATM    8  O   UNL     1      -2.632   2.786 -32.448  1.00  0.00    -0.262 OA
BRANCH   6   9
HETATM    9  C   UNL     1      -4.656   0.533 -32.274  1.00  0.00     0.065 A 
HETATM   10  C   UNL     1      -3.842  -0.513 -31.821  1.00  0.00     0.038 A 
HETATM   11  C   UNL     1      -3.903  -1.774 -32.422  1.00  0.00    -0.059 A 
HETATM   12  C   UNL     1      -3.040  -2.902 -31.938  1.00  0.00     0.048 C 
HETATM   13  C   UNL     1      -4.791  -1.977 -33.483  1.00  0.00     0.020 A 
HETATM   14  C   UNL     1      -5.610  -0.933 -33.943  1.00  0.00    -0.005 A 
HETATM   15  C   UNL     1      -5.551   0.340 -33.339  1.00  0.00     0.093 A 
HETATM   16  C   UNL     1      -6.503  -1.123 -35.006  1.00  0.00     0.015 A 
HETATM   17  N   UNL     1      -6.332   1.363 -33.762  1.00  0.00    -0.258 NA
HETATM   18  C   UNL     1      -7.180   1.141 -34.790  1.00  0.00     0.117 A 
HETATM   19  C   UNL     1      -7.301  -0.071 -35.438  1.00  0.00     0.020 A 
ENDBRANCH   6   9
ENDBRANCH   1   5
BRANCH   2  20
HETATM   20  C   UNL     1      -5.678   4.972 -29.387  1.00  0.00     0.123 C 
BRANCH  20  21
HETATM   21  C   UNL     1      -7.170   4.767 -29.130  1.00  0.00     0.024 C 
BRANCH  21  22
HETATM   22  C   UNL     1      -7.649   3.379 -29.562  1.00  0.00     0.042 C 
BRANCH  22  23
HETATM   23  C   UNL     1      -8.634   3.445 -30.685  1.00  0.00    -0.030 A 
HETATM   24  C   UNL     1      -9.132   2.341 -31.450  1.00  0.00    -0.002 A 
HETATM   25  C   UNL     1     -10.027   2.852 -32.389  1.00  0.00     0.042 A 
HETATM   26  C   UNL     1      -8.898   0.950 -31.431  1.00  0.00     0.014 A 
HETATM   27  C   UNL     1     -10.704   2.042 -33.310  1.00  0.00     0.030 A 
HETATM   28  N   UNL     1     -10.074   4.214 -32.203  1.00  0.00    -0.365 N 
HETATM   29  C   UNL     1     -10.455   0.667 -33.270  1.00  0.00     0.002 A 
HETATM   30  C   UNL     1      -9.565   0.127 -32.344  1.00  0.00     0.001 A 
HETATM   31  H   UNL     1     -10.645   4.845 -32.748  1.00  0.00     0.165 HD
HETATM   32  C   UNL     1      -9.241   4.582 -31.182  1.00  0.00     0.096 A 
ENDBRANCH  22  23
ENDBRANCH  21  22
ENDBRANCH  20  21
ENDBRANCH   2  20
TORSDOF 6
ENDMDL
MODEL 7
REMARK VINA RESULT:      -8.8      4.816      7.571
REMARK  6 active torsions:
REMARK  status: ('A' for Active; 'I' for Inactive)
REMARK    1  A    between atoms: C_4  and  N_5 
REMARK       I    between atoms: N_5  and  C_6 
REMARK    2  A    between atoms: C_6  and  C_7 
REMARK       I    between atoms: C_7  and  N_8 
REMARK    3  A    between atoms: N_8  and  C_9 
REMARK    4  A    between atoms: C_9  and  C_10 
REMARK    5  A    between atoms: C_10  and  C_11 
REMARK    6  A    between atoms: C_11  and  C_12 
ROOT
HETATM    1  C   UNL     1      -5.754   4.320 -33.702  1.00  0.00     0.309 C 
HETATM    2  N   UNL     1      -5.826   3.037 -33.203  1.00  0.00    -0.353 N 
HETATM    3  O   UNL     1      -6.657   4.931 -34.253  1.00  0.00    -0.262 OA
HETATM    4  H   UNL     1      -4.962   2.657 -32.823  1.00  0.00     0.162 HD
ENDROOT
BRANCH   1   5
HETATM    5  C   UNL     1      -4.360   4.966 -33.531  1.00  0.00     0.314 C 
HETATM    6  N   UNL     1      -4.098   5.309 -32.228  1.00  0.00    -0.317 N 
HETATM    7  H   UNL     1      -4.826   5.093 -31.542  1.00  0.00     0.169 HD
HETATM    8  O   UNL     1      -3.660   5.114 -34.523  1.00  0.00    -0.262 OA
BRANCH   6   9
HETATM    9  C   UNL     1      -2.950   5.933 -31.690  1.00  0.00     0.065 A 
HETATM   10  C   UNL     1      -1.714   5.283 -31.575  1.00  0.00     0.038 A 
HETATM   11  C   UNL     1      -0.609   5.948 -31.037  1.00  0.00    -0.059 A 
HETATM   12  C   UNL     1       0.721   5.262 -30.918  1.00  0.00     0.048 C 
HETATM   13  C   UNL     1      -0.753   7.273 -30.614  1.00  0.00     0.020 A 
HETATM   14  C   UNL     1      -1.989   7.930 -30.725  1.00  0.00    -0.005 A 
HETATM   15  C   UNL     1      -3.107   7.263 -31.268  1.00  0.00     0.093 A 
HETATM   16  C   UNL     1      -2.148   9.258 -30.304  1.00  0.00     0.015 A 
HETATM   17  N   UNL     1      -4.310   7.875 -31.388  1.00  0.00    -0.258 NA
HETATM   18  C   UNL     1      -4.423   9.155 -30.970  1.00  0.00     0.117 A 
HETATM   19  C   UNL     1      -3.383   9.881 -30.428  1.00  0.00     0.020 A 
ENDBRANCH   6   9
ENDBRANCH   1   5
BRANCH   2  20
HETATM   20  C   UNL     1      -6.985   2.194 -33.377  1.00  0.00     0.123 C 
BRANCH  20  21
HETATM   21  C   UNL     1      -6.907   1.341 -34.641  1.00  0.00     0.024 C 
BRANCH  21  22
HETATM   22  C   UNL     1      -7.247  -0.128 -34.374  1.00  0.00     0.042 C 
BRANCH  22  23
HETATM   23  C   UNL     1      -6.027  -0.952 -34.111  1.00  0.00    -0.030 A 
HETATM   24  C   UNL     1      -5.883  -2.358 -34.336  1.00  0.00    -0.002 A 
HETATM   25  C   UNL     1      -4.588  -2.713 -33.957  1.00  0.00     0.042 A 
HETATM   26  C   UNL     1      -6.740  -3.367 -34.825  1.00  0.00     0.014 A 
HETATM   27  C   UNL     1      -4.105  -4.024 -34.044  1.00  0.00     0.030 A 
HETATM   28  N   UNL     1      -3.968  -1.566 -33.519  1.00  0.00    -0.365 N 
HETATM   29  C   UNL     1      -4.973  -5.004 -34.534  1.00  0.00     0.002 A 
HETATM   30  C   UNL     1      -6.273  -4.682 -34.919  1.00  0.00     0.001 A 
HETATM   31  H   UNL     1      -3.017  -1.525 -33.182  1.00  0.00     0.165 HD
HETATM   32  C   UNL     1      -4.823  -0.501 -33.606  1.00  0.00     0.096 A 
ENDBRANCH  22  23
ENDBRANCH  21  22
ENDBRANCH  20  21
ENDBRANCH   2  20
TORSDOF 6
ENDMDL
MODEL 8
REMARK VINA RESULT:      -8.8      2.448      3.595
REMARK  6 active torsions:
REMARK  status: ('A' for Active; 'I' for Inactive)
REMARK    1  A    between atoms: C_4  and  N_5 
REMARK       I    between atoms: N_5  and  C_6 
REMARK    2  A    between atoms: C_6  and  C_7 
REMARK       I    between atoms: C_7  and  N_8 
REMARK    3  A    between atoms: N_8  and  C_9 
REMARK    4  A    between atoms: C_9  and  C_10 
REMARK    5  A    between atoms: C_10  and  C_11 
REMARK    6  A    between atoms: C_11  and  C_12 
ROOT
HETATM    1  C   UNL     1      -8.723   4.136 -33.900  1.00  0.00     0.309 C 
HETATM    2  N   UNL     1      -8.428   2.856 -33.484  1.00  0.00    -0.353 N 
HETATM    3  O   UNL     1      -7.927   4.954 -34.336  1.00  0.00    -0.262 OA
HETATM    4  H   UNL     1      -9.204   2.323 -33.094  1.00  0.00     0.162 HD
ENDROOT
BRANCH   1   5
HETATM    5  C   UNL     1     -10.217   4.501 -33.746  1.00  0.00     0.314 C 
HETATM    6  N   UNL     1     -10.881   3.646 -32.902  1.00  0.00    -0.317 N 
HETATM    7  H   UNL     1     -10.326   2.899 -32.476  1.00  0.00     0.169 HD
HETATM    8  O   UNL     1     -10.650   5.462 -34.368  1.00  0.00    -0.262 OA
BRANCH   6   9
HETATM    9  C   UNL     1     -12.246   3.647 -32.533  1.00  0.00     0.065 A 
HETATM   10  C   UNL     1     -12.809   4.624 -31.702  1.00  0.00     0.038 A 
HETATM   11  C   UNL     1     -14.166   4.579 -31.370  1.00  0.00    -0.059 A 
HETATM   12  C   UNL     1     -14.779   5.626 -30.486  1.00  0.00     0.048 C 
HETATM   13  C   UNL     1     -14.956   3.545 -31.881  1.00  0.00     0.020 A 
HETATM   14  C   UNL     1     -14.398   2.561 -32.714  1.00  0.00    -0.005 A 
HETATM   15  C   UNL     1     -13.029   2.603 -33.052  1.00  0.00     0.093 A 
HETATM   16  C   UNL     1     -15.178   1.518 -33.233  1.00  0.00     0.015 A 
HETATM   17  N   UNL     1     -12.467   1.669 -33.856  1.00  0.00    -0.258 NA
HETATM   18  C   UNL     1     -13.251   0.678 -34.335  1.00  0.00     0.117 A 
HETATM   19  C   UNL     1     -14.597   0.561 -34.056  1.00  0.00     0.020 A 
ENDBRANCH   6   9
ENDBRANCH   1   5
BRANCH   2  20
HETATM   20  C   UNL     1      -7.078   2.349 -33.408  1.00  0.00     0.123 C 
BRANCH  20  21
HETATM   21  C   UNL     1      -6.723   1.444 -34.585  1.00  0.00     0.024 C 
BRANCH  21  22
HETATM   22  C   UNL     1      -7.130  -0.012 -34.343  1.00  0.00     0.042 C 
BRANCH  22  23
HETATM   23  C   UNL     1      -5.951  -0.893 -34.079  1.00  0.00    -0.030 A 
HETATM   24  C   UNL     1      -5.857  -2.296 -34.348  1.00  0.00    -0.002 A 
HETATM   25  C   UNL     1      -4.587  -2.715 -33.951  1.00  0.00     0.042 A 
HETATM   26  C   UNL     1      -6.741  -3.253 -34.891  1.00  0.00     0.014 A 
HETATM   27  C   UNL     1      -4.154  -4.041 -34.072  1.00  0.00     0.030 A 
HETATM   28  N   UNL     1      -3.932  -1.609 -33.461  1.00  0.00    -0.365 N 
HETATM   29  C   UNL     1      -5.048  -4.969 -34.613  1.00  0.00     0.002 A 
HETATM   30  C   UNL     1      -6.325  -4.582 -35.017  1.00  0.00     0.001 A 
HETATM   31  H   UNL     1      -2.988  -1.617 -33.102  1.00  0.00     0.165 HD
HETATM   32  C   UNL     1      -4.742  -0.508 -33.533  1.00  0.00     0.096 A 
ENDBRANCH  22  23
ENDBRANCH  21  22
ENDBRANCH  20  21
ENDBRANCH   2  20
TORSDOF 6
ENDMDL
MODEL 9
REMARK VINA RESULT:      -8.7      5.568      8.660
REMARK  6 active torsions:
REMARK  status: ('A' for Active; 'I' for Inactive)
REMARK    1  A    between atoms: C_4  and  N_5 
REMARK       I    between atoms: N_5  and  C_6 
REMARK    2  A    between atoms: C_6  and  C_7 
REMARK       I    between atoms: C_7  and  N_8 
REMARK    3  A    between atoms: N_8  and  C_9 
REMARK    4  A    between atoms: C_9  and  C_10 
REMARK    5  A    between atoms: C_10  and  C_11 
REMARK    6  A    between atoms: C_11  and  C_12 
ROOT
HETATM    1  C   UNL     1      -3.907   5.460 -34.318  1.00  0.00     0.309 C 
HETATM    2  N   UNL     1      -4.679   4.727 -33.443  1.00  0.00    -0.353 N 
HETATM    3  O   UNL     1      -3.876   5.333 -35.533  1.00  0.00    -0.262 OA
HETATM    4  H   UNL     1      -4.542   4.923 -32.454  1.00  0.00     0.162 HD
ENDROOT
BRANCH   1   5
HETATM    5  C   UNL     1      -3.006   6.501 -33.614  1.00  0.00     0.314 C 
HETATM    6  N   UNL     1      -3.203   6.532 -32.257  1.00  0.00    -0.317 N 
HETATM    7  H   UNL     1      -3.891   5.875 -31.878  1.00  0.00     0.169 HD
HETATM    8  O   UNL     1      -2.248   7.174 -34.300  1.00  0.00    -0.262 OA
BRANCH   6   9
HETATM    9  C   UNL     1      -2.585   7.358 -31.290  1.00  0.00     0.065 A 
HETATM   10  C   UNL     1      -3.001   8.671 -31.033  1.00  0.00     0.038 A 
HETATM   11  C   UNL     1      -2.356   9.444 -30.064  1.00  0.00    -0.059 A 
HETATM   12  C   UNL     1      -2.799  10.849 -29.777  1.00  0.00     0.048 C 
HETATM   13  C   UNL     1      -1.289   8.887 -29.351  1.00  0.00     0.020 A 
HETATM   14  C   UNL     1      -0.867   7.572 -29.604  1.00  0.00    -0.005 A 
HETATM   15  C   UNL     1      -1.515   6.788 -30.581  1.00  0.00     0.093 A 
HETATM   16  C   UNL     1       0.202   7.002 -28.897  1.00  0.00     0.015 A 
HETATM   17  N   UNL     1      -1.129   5.516 -30.842  1.00  0.00    -0.258 NA
HETATM   18  C   UNL     1      -0.094   5.003 -30.141  1.00  0.00     0.117 A 
HETATM   19  C   UNL     1       0.595   5.698 -29.169  1.00  0.00     0.020 A 
ENDBRANCH   6   9
ENDBRANCH   1   5
BRANCH   2  20
HETATM   20  C   UNL     1      -5.491   3.609 -33.865  1.00  0.00     0.123 C 
BRANCH  20  21
HETATM   21  C   UNL     1      -5.564   2.506 -32.811  1.00  0.00     0.024 C 
BRANCH  21  22
HETATM   22  C   UNL     1      -6.259   1.246 -33.335  1.00  0.00     0.042 C 
BRANCH  22  23
HETATM   23  C   UNL     1      -5.346   0.062 -33.353  1.00  0.00    -0.030 A 
HETATM   24  C   UNL     1      -5.636  -1.231 -33.896  1.00  0.00    -0.002 A 
HETATM   25  C   UNL     1      -4.509  -2.029 -33.702  1.00  0.00     0.042 A 
HETATM   26  C   UNL     1      -6.760  -1.797 -34.534  1.00  0.00     0.014 A 
HETATM   27  C   UNL     1      -4.446  -3.366 -34.116  1.00  0.00     0.030 A 
HETATM   28  N   UNL     1      -3.569  -1.253 -33.067  1.00  0.00    -0.365 N 
HETATM   29  C   UNL     1      -5.573  -3.903 -34.746  1.00  0.00     0.002 A 
HETATM   30  C   UNL     1      -6.715  -3.131 -34.953  1.00  0.00     0.001 A 
HETATM   31  H   UNL     1      -2.649  -1.574 -32.800  1.00  0.00     0.165 HD
HETATM   32  C   UNL     1      -4.061   0.007 -32.851  1.00  0.00     0.096 A 
ENDBRANCH  22  23
ENDBRANCH  21  22
ENDBRANCH  20  21
ENDBRANCH   2  20
TORSDOF 6
ENDMDL
MODEL 10
REMARK VINA RESULT:      -8.6      6.120      9.078
REMARK  6 active torsions:
REMARK  status: ('A' for Active; 'I' for Inactive)
REMARK    1  A    between atoms: C_4  and  N_5 
REMARK       I    between atoms: N_5  and  C_6 
REMARK    2  A    between atoms: C_6  and  C_7 
REMARK       I    between atoms: C_7  and  N_8 
REMARK    3  A    between atoms: N_8  and  C_9 
REMARK    4  A    between atoms: C_9  and  C_10 
REMARK    5  A    between atoms: C_10  and  C_11 
REMARK    6  A    between atoms: C_11  and  C_12 
ROOT
HETATM    1  C   UNL     1      -2.268   4.285 -31.966  1.00  0.00     0.309 C 
HETATM    2  N   UNL     1      -3.079   3.669 -31.037  1.00  0.00    -0.353 N 
HETATM    3  O   UNL     1      -2.232   4.043 -33.163  1.00  0.00    -0.262 OA
HETATM    4  H   UNL     1      -2.942   3.952 -30.068  1.00  0.00     0.162 HD
ENDROOT
BRANCH   1   5
HETATM    5  C   UNL     1      -1.331   5.350 -31.351  1.00  0.00     0.314 C 
HETATM    6  N   UNL     1      -1.842   5.896 -30.201  1.00  0.00    -0.317 N 
HETATM    7  H   UNL     1      -2.748   5.538 -29.886  1.00  0.00     0.169 HD
HETATM    8  O   UNL     1      -0.280   5.602 -31.924  1.00  0.00    -0.262 OA
BRANCH   6   9
HETATM    9  C   UNL     1      -1.290   6.902 -29.376  1.00  0.00     0.065 A 
HETATM   10  C   UNL     1      -0.234   6.663 -28.487  1.00  0.00     0.038 A 
HETATM   11  C   UNL     1       0.276   7.696 -27.695  1.00  0.00    -0.059 A 
HETATM   12  C   UNL     1       1.412   7.451 -26.746  1.00  0.00     0.048 C 
HETATM   13  C   UNL     1      -0.281   8.974 -27.804  1.00  0.00     0.020 A 
HETATM   14  C   UNL     1      -1.341   9.220 -28.693  1.00  0.00    -0.005 A 
HETATM   15  C   UNL     1      -1.859   8.181 -29.493  1.00  0.00     0.093 A 
HETATM   16  C   UNL     1      -1.910  10.496 -28.811  1.00  0.00     0.015 A 
HETATM   17  N   UNL     1      -2.878   8.393 -30.360  1.00  0.00    -0.258 NA
HETATM   18  C   UNL     1      -3.401   9.637 -30.445  1.00  0.00     0.117 A 
HETATM   19  C   UNL     1      -2.955  10.709 -29.700  1.00  0.00     0.020 A 
ENDBRANCH   6   9
ENDBRANCH   1   5
BRANCH   2  20
HETATM   20  C   UNL     1      -3.932   2.551 -31.362  1.00  0.00     0.123 C 
BRANCH  20  21
HETATM   21  C   UNL     1      -3.198   1.213 -31.298  1.00  0.00     0.024 C 
BRANCH  21  22
HETATM   22  C   UNL     1      -4.115   0.066 -30.868  1.00  0.00     0.042 C 
BRANCH  22  23
HETATM   23  C   UNL     1      -4.216  -1.000 -31.912  1.00  0.00    -0.030 A 
HETATM   24  C   UNL     1      -5.232  -1.119 -32.914  1.00  0.00    -0.002 A 
HETATM   25  C   UNL     1      -4.940  -2.251 -33.675  1.00  0.00     0.042 A 
HETATM   26  C   UNL     1      -6.380  -0.367 -33.242  1.00  0.00     0.014 A 
HETATM   27  C   UNL     1      -5.735  -2.669 -34.749  1.00  0.00     0.030 A 
HETATM   28  N   UNL     1      -3.790  -2.799 -33.157  1.00  0.00    -0.365 N 
HETATM   29  C   UNL     1      -6.866  -1.906 -35.053  1.00  0.00     0.002 A 
HETATM   30  C   UNL     1      -7.186  -0.771 -34.311  1.00  0.00     0.001 A 
HETATM   31  H   UNL     1      -3.343  -3.632 -33.514  1.00  0.00     0.165 HD
HETATM   32  C   UNL     1      -3.345  -2.055 -32.097  1.00  0.00     0.096 A 
ENDBRANCH  22  23
ENDBRANCH  21  22
ENDBRANCH  20  21
ENDBRANCH   2  20
TORSDOF 6
ENDMDL
