MODEL 1
REMARK VINA RESULT:      -8.7      0.000      0.000
REMARK  7 active torsions:
REMARK  status: ('A' for Active; 'I' for Inactive)
REMARK    1  A    between atoms: O_2  and  C_3 
REMARK    2  A    between atoms: C_4  and  N_5 
REMARK       I    between atoms: N_5  and  C_6 
REMARK    3  A    between atoms: C_6  and  C_7 
REMARK    4  A    between atoms: C_14  and  N_15 
REMARK       I    between atoms: N_15  and  C_16 
REMARK    5  A    between atoms: C_16  and  C_17 
REMARK    6  A    between atoms: C_17  and  C_18 
REMARK    7  A    between atoms: C_18  and  C_19 
ROOT
HETATM    1  C   UNL     1      -4.399   5.288 -31.330  1.00  0.00     0.095 A 
HETATM    2  C   UNL     1      -3.747   4.884 -32.502  1.00  0.00     0.070 A 
HETATM    3  C   UNL     1      -3.711   3.511 -32.808  1.00  0.00     0.062 A 
HETATM    4  C   UNL     1      -4.356   2.566 -32.002  1.00  0.00     0.037 A 
HETATM    5  C   UNL     1      -5.063   3.004 -30.879  1.00  0.00     0.032 A 
HETATM    6  C   UNL     1      -5.091   4.359 -30.549  1.00  0.00     0.041 A 
ENDROOT
BRANCH   4   7
HETATM    7  N   UNL     1      -4.316   1.175 -32.229  1.00  0.00    -0.327 N 
HETATM    8  C   UNL     1      -3.465   0.245 -31.655  1.00  0.00     0.222 C 
HETATM    9  O   UNL     1      -2.534   0.484 -30.893  1.00  0.00    -0.273 OA
HETATM   10  H   UNL     1      -4.986   0.823 -32.902  1.00  0.00     0.169 HD
BRANCH   8  11
HETATM   11  C   UNL     1      -3.818  -1.184 -32.029  1.00  0.00     0.108 C 
BRANCH  11  12
HETATM   12  C   UNL     1      -3.867  -1.394 -33.545  1.00  0.00     0.047 C 
BRANCH  12  13
HETATM   13  C   UNL     1      -4.732  -2.551 -33.993  1.00  0.00    -0.058 A 
HETATM   14  C   UNL     1      -4.181  -3.838 -34.080  1.00  0.00     0.007 A 
HETATM   15  C   UNL     1      -4.945  -4.912 -34.546  1.00  0.00     0.001 A 
HETATM   16  C   UNL     1      -6.266  -4.712 -34.936  1.00  0.00     0.000 A 
HETATM   17  C   UNL     1      -6.824  -3.438 -34.869  1.00  0.00     0.001 A 
HETATM   18  C   UNL     1      -6.058  -2.362 -34.412  1.00  0.00     0.007 A 
ENDBRANCH  12  13
ENDBRANCH  11  12
ENDBRANCH   8  11
ENDBRANCH   4   7
BRANCH   2  19
HETATM   19  N   UNL     1      -3.023   5.723 -33.373  1.00  0.00    -0.319 N 
HETATM   20  C   UNL     1      -1.681   6.014 -33.489  1.00  0.00     0.280 C 
HETATM   21  O   UNL     1      -1.292   6.341 -34.615  1.00  0.00    -0.265 OA
HETATM   22  H   UNL     1      -3.543   6.104 -34.156  1.00  0.00     0.169 HD
BRANCH  20  23
HETATM   23  C   UNL     1      -0.822   6.067 -32.323  1.00  0.00     0.142 A 
HETATM   24  O   UNL     1      -0.457   4.873 -31.750  1.00  0.00    -0.317 OA
HETATM   25  C   UNL     1       0.368   5.151 -30.711  1.00  0.00     0.143 A 
HETATM   26  C   UNL     1       0.567   6.505 -30.603  1.00  0.00     0.027 A 
HETATM   27  C   UNL     1      -0.186   7.096 -31.648  1.00  0.00     0.045 A 
ENDBRANCH  20  23
ENDBRANCH   2  19
BRANCH   1  28
HETATM   28  O   UNL     1      -4.377   6.571 -30.859  1.00  0.00    -0.354 OA
HETATM   29  C   UNL     1      -3.376   6.721 -29.849  1.00  0.00     0.210 C 
ENDBRANCH   1  28
TORSDOF 7
ENDMDL
MODEL 2
REMARK VINA RESULT:      -8.6      5.676      8.203
REMARK  7 active torsions:
REMARK  status: ('A' for Active; 'I' for Inactive)
REMARK    1  A    between atoms: O_2  and  C_3 
REMARK    2  A    between atoms: C_4  and  N_5 
REMARK       I    between atoms: N_5  and  C_6 
REMARK    3  A    between atoms: C_6  and  C_7 
REMARK    4  A    between atoms: C_14  and  N_15 
REMARK       I    between atoms: N_15  and  C_16 
REMARK    5  A    between atoms: C_16  and  C_17 
REMARK    6  A    between atoms: C_17  and  C_18 
REMARK    7  A    between atoms: C_18  and  C_19 
ROOT
HETATM    1  C   UNL     1     -10.280   3.006 -32.628  1.00  0.00     0.095 A 
HETATM    2  C   UNL     1     -10.048   2.231 -33.771  1.00  0.00     0.070 A 
HETATM    3  C   UNL     1      -8.988   1.306 -33.748  1.00  0.00     0.062 A 
HETATM    4  C   UNL     1      -8.214   1.110 -32.599  1.00  0.00     0.037 A 
HETATM    5  C   UNL     1      -8.515   1.843 -31.447  1.00  0.00     0.032 A 
HETATM    6  C   UNL     1      -9.548   2.780 -31.459  1.00  0.00     0.041 A 
ENDROOT
BRANCH   4   7
HETATM    7  N   UNL     1      -7.111   0.234 -32.528  1.00  0.00    -0.327 N 
HETATM    8  C   UNL     1      -5.765   0.559 -32.566  1.00  0.00     0.222 C 
HETATM    9  O   UNL     1      -5.291   1.676 -32.744  1.00  0.00    -0.273 OA
HETATM   10  H   UNL     1      -7.340  -0.750 -32.452  1.00  0.00     0.169 HD
BRANCH   8  11
HETATM   11  C   UNL     1      -4.865  -0.638 -32.311  1.00  0.00     0.108 C 
BRANCH  11  12
HETATM   12  C   UNL     1      -4.234  -1.176 -33.598  1.00  0.00     0.047 C 
BRANCH  12  13
HETATM   13  C   UNL     1      -4.832  -2.473 -34.099  1.00  0.00    -0.058 A 
HETATM   14  C   UNL     1      -6.132  -2.482 -34.623  1.00  0.00     0.007 A 
HETATM   15  C   UNL     1      -6.726  -3.677 -35.039  1.00  0.00     0.001 A 
HETATM   16  C   UNL     1      -6.030  -4.878 -34.929  1.00  0.00     0.000 A 
HETATM   17  C   UNL     1      -4.743  -4.888 -34.398  1.00  0.00     0.001 A 
HETATM   18  C   UNL     1      -4.152  -3.694 -33.974  1.00  0.00     0.007 A 
ENDBRANCH  12  13
ENDBRANCH  11  12
ENDBRANCH   8  11
ENDBRANCH   4   7
BRANCH   2  19
HETATM   19  N   UNL     1     -10.721   2.359 -35.003  1.00  0.00    -0.319 N 
HETATM   20  C   UNL     1     -12.049   2.262 -35.356  1.00  0.00     0.280 C 
HETATM   21  O   UNL     1     -12.396   2.913 -36.347  1.00  0.00    -0.265 OA
HETATM   22  H   UNL     1     -10.168   2.711 -35.775  1.00  0.00     0.169 HD
BRANCH  20  23
HETATM   23  C   UNL     1     -12.939   1.337 -34.683  1.00  0.00     0.142 A 
HETATM   24  O   UNL     1     -14.282   1.439 -34.951  1.00  0.00    -0.317 OA
HETATM   25  C   UNL     1     -14.916   0.466 -34.254  1.00  0.00     0.143 A 
HETATM   26  C   UNL     1     -14.012  -0.287 -33.545  1.00  0.00     0.027 A 
HETATM   27  C   UNL     1     -12.737   0.263 -33.831  1.00  0.00     0.045 A 
ENDBRANCH  20  23
ENDBRANCH   2  19
BRANCH   1  28
HETATM   28  O   UNL     1     -11.184   4.031 -32.581  1.00  0.00    -0.354 OA
HETATM   29  C   UNL     1     -10.545   5.280 -32.856  1.00  0.00     0.210 C 
ENDBRANCH   1  28
TORSDOF 7
ENDMDL
MODEL 3
REMARK VINA RESULT:      -8.5      1.845      2.677
REMARK  7 active torsions:
REMARK  status: ('A' for Active; 'I' for Inactive)
REMARK    1  A    between atoms: O_2  and  C_3 
REMARK    2  A    between atoms: C_4  and  N_5 
REMARK       I    between atoms: N_5  and  C_6 
REMARK    3  A    between atoms: C_6  and  C_7 
REMARK    4  A    between atoms: C_14  and  N_15 
REMARK       I    between atoms: N_15  and  C_16 
REMARK    5  A    between atoms: C_16  and  C_17 
REMARK    6  A    between atoms: C_17  and  C_18 
REMARK    7  A    between atoms: C_18  and  C_19 
ROOT
HETATM    1  C   UNL     1      -4.877   4.557 -30.904  1.00  0.00     0.095 A 
HETATM    2  C   UNL     1      -3.977   3.628 -31.441  1.00  0.00     0.070 A 
HETATM    3  C   UNL     1      -4.493   2.550 -32.184  1.00  0.00     0.062 A 
HETATM    4  C   UNL     1      -5.863   2.428 -32.439  1.00  0.00     0.037 A 
HETATM    5  C   UNL     1      -6.732   3.411 -31.955  1.00  0.00     0.032 A 
HETATM    6  C   UNL     1      -6.240   4.474 -31.198  1.00  0.00     0.041 A 
ENDROOT
BRANCH   4   7
HETATM    7  N   UNL     1      -6.445   1.348 -33.135  1.00  0.00    -0.327 N 
HETATM    8  C   UNL     1      -6.919   0.157 -32.610  1.00  0.00     0.222 C 
HETATM    9  O   UNL     1      -6.847  -0.202 -31.440  1.00  0.00    -0.273 OA
HETATM   10  H   UNL     1      -6.510   1.460 -34.139  1.00  0.00     0.169 HD
BRANCH   8  11
HETATM   11  C   UNL     1      -7.616  -0.705 -33.648  1.00  0.00     0.108 C 
BRANCH  11  12
HETATM   12  C   UNL     1      -6.699  -1.058 -34.823  1.00  0.00     0.047 C 
BRANCH  12  13
HETATM   13  C   UNL     1      -5.986  -2.385 -34.690  1.00  0.00    -0.058 A 
HETATM   14  C   UNL     1      -6.644  -3.567 -35.058  1.00  0.00     0.007 A 
HETATM   15  C   UNL     1      -6.026  -4.810 -34.890  1.00  0.00     0.001 A 
HETATM   16  C   UNL     1      -4.747  -4.887 -34.347  1.00  0.00     0.000 A 
HETATM   17  C   UNL     1      -4.086  -3.723 -33.964  1.00  0.00     0.001 A 
HETATM   18  C   UNL     1      -4.705  -2.481 -34.123  1.00  0.00     0.007 A 
ENDBRANCH  12  13
ENDBRANCH  11  12
ENDBRANCH   8  11
ENDBRANCH   4   7
BRANCH   2  19
HETATM   19  N   UNL     1      -2.584   3.609 -31.224  1.00  0.00    -0.319 N 
HETATM   20  C   UNL     1      -1.608   4.575 -31.338  1.00  0.00     0.280 C 
HETATM   21  O   UNL     1      -0.620   4.436 -30.610  1.00  0.00    -0.265 OA
HETATM   22  H   UNL     1      -2.217   2.777 -30.779  1.00  0.00     0.169 HD
BRANCH  20  23
HETATM   23  C   UNL     1      -1.686   5.604 -32.356  1.00  0.00     0.142 A 
HETATM   24  O   UNL     1      -1.847   6.901 -31.935  1.00  0.00    -0.317 OA
HETATM   25  C   UNL     1      -1.855   7.693 -33.035  1.00  0.00     0.143 A 
HETATM   26  C   UNL     1      -1.684   6.940 -34.171  1.00  0.00     0.027 A 
HETATM   27  C   UNL     1      -1.561   5.597 -33.736  1.00  0.00     0.045 A 
ENDBRANCH  20  23
ENDBRANCH   2  19
BRANCH   1  28
HETATM   28  O   UNL     1      -4.507   5.560 -30.052  1.00  0.00    -0.354 OA
HETATM   29  C   UNL     1      -5.068   6.808 -30.468  1.00  0.00     0.210 C 
ENDBRANCH   1  28
TORSDOF 7
ENDMDL
MODEL 4
REMARK VINA RESULT:      -8.0      1.547      1.791
REMARK  7 active torsions:
REMARK  status: ('A' for Active; 'I' for Inactive)
REMARK    1  A    between atoms: O_2  and  C_3 
REMARK    2  A    between atoms: C_4  and  N_5 
REMARK       I    between atoms: N_5  and  C_6 
REMARK    3  A    between atoms: C_6  and  C_7 
REMARK    4  A    between atoms: C_14  and  N_15 
REMARK       I    between atoms: N_15  and  C_16 
REMARK    5  A    between atoms: C_16  and  C_17 
REMARK    6  A    between atoms: C_17  and  C_18 
REMARK    7  A    between atoms: C_18  and  C_19 
ROOT
HETATM    1  C   UNL     1      -4.633   6.053 -30.748  1.00  0.00     0.095 A 
HETATM    2  C   UNL     1      -4.024   5.825 -31.989  1.00  0.00     0.070 A 
HETATM    3  C   UNL     1      -3.995   4.510 -32.488  1.00  0.00     0.062 A 
HETATM    4  C   UNL     1      -4.607   3.454 -31.803  1.00  0.00     0.037 A 
HETATM    5  C   UNL     1      -5.273   3.723 -30.604  1.00  0.00     0.032 A 
HETATM    6  C   UNL     1      -5.293   5.016 -30.083  1.00  0.00     0.041 A 
ENDROOT
BRANCH   4   7
HETATM    7  N   UNL     1      -4.571   2.110 -32.227  1.00  0.00    -0.327 N 
HETATM    8  C   UNL     1      -5.467   1.458 -33.058  1.00  0.00     0.222 C 
HETATM    9  O   UNL     1      -6.504   1.924 -33.519  1.00  0.00    -0.273 OA
HETATM   10  H   UNL     1      -3.802   1.559 -31.866  1.00  0.00     0.169 HD
BRANCH   8  11
HETATM   11  C   UNL     1      -5.020   0.051 -33.414  1.00  0.00     0.108 C 
BRANCH  11  12
HETATM   12  C   UNL     1      -6.126  -0.754 -34.104  1.00  0.00     0.047 C 
BRANCH  12  13
HETATM   13  C   UNL     1      -5.831  -2.230 -34.254  1.00  0.00    -0.058 A 
HETATM   14  C   UNL     1      -4.545  -2.713 -33.977  1.00  0.00     0.007 A 
HETATM   15  C   UNL     1      -4.233  -4.063 -34.163  1.00  0.00     0.001 A 
HETATM   16  C   UNL     1      -5.202  -4.945 -34.633  1.00  0.00     0.000 A 
HETATM   17  C   UNL     1      -6.481  -4.478 -34.926  1.00  0.00     0.001 A 
HETATM   18  C   UNL     1      -6.790  -3.127 -34.749  1.00  0.00     0.007 A 
ENDBRANCH  12  13
ENDBRANCH  11  12
ENDBRANCH   8  11
ENDBRANCH   4   7
BRANCH   2  19
HETATM   19  N   UNL     1      -3.335   6.786 -32.757  1.00  0.00    -0.319 N 
HETATM   20  C   UNL     1      -1.995   7.005 -32.996  1.00  0.00     0.280 C 
HETATM   21  O   UNL     1      -1.717   7.546 -34.071  1.00  0.00    -0.265 OA
HETATM   22  H   UNL     1      -3.908   7.363 -33.361  1.00  0.00     0.169 HD
BRANCH  20  23
HETATM   23  C   UNL     1      -1.000   6.741 -31.977  1.00  0.00     0.142 A 
HETATM   24  O   UNL     1      -0.913   7.626 -30.930  1.00  0.00    -0.317 OA
HETATM   25  C   UNL     1       0.044   7.172 -30.085  1.00  0.00     0.143 A 
HETATM   26  C   UNL     1       0.576   5.994 -30.549  1.00  0.00     0.027 A 
HETATM   27  C   UNL     1      -0.103   5.707 -31.758  1.00  0.00     0.045 A 
ENDBRANCH  20  23
ENDBRANCH   2  19
BRANCH   1  28
HETATM   28  O   UNL     1      -4.598   7.256 -30.100  1.00  0.00    -0.354 OA
HETATM   29  C   UNL     1      -5.921   7.701 -29.792  1.00  0.00     0.210 C 
ENDBRANCH   1  28
TORSDOF 7
ENDMDL
MODEL 5
REMARK VINA RESULT:      -7.9      2.432      8.576
REMARK  7 active torsions:
REMARK  status: ('A' for Active; 'I' for Inactive)
REMARK    1  A    between atoms: O_2  and  C_3 
REMARK    2  A    between atoms: C_4  and  N_5 
REMARK       I    between atoms: N_5  and  C_6 
REMARK    3  A    between atoms: C_6  and  C_7 
REMARK    4  A    between atoms: C_14  and  N_15 
REMARK       I    between atoms: N_15  and  C_16 
REMARK    5  A    between atoms: C_16  and  C_17 
REMARK    6  A    between atoms: C_17  and  C_18 
REMARK    7  A    between atoms: C_18  and  C_19 
ROOT
HETATM    1  C   UNL     1      -5.416   2.031 -30.844  1.00  0.00     0.095 A 
HETATM    2  C   UNL     1      -4.515   1.300 -31.628  1.00  0.00     0.070 A 
HETATM    3  C   UNL     1      -3.483   1.996 -32.285  1.00  0.00     0.062 A 
HETATM    4  C   UNL     1      -3.312   3.375 -32.120  1.00  0.00     0.037 A 
HETATM    5  C   UNL     1      -4.180   4.068 -31.271  1.00  0.00     0.032 A 
HETATM    6  C   UNL     1      -5.221   3.397 -30.630  1.00  0.00     0.041 A 
ENDROOT
BRANCH   4   7
HETATM    7  N   UNL     1      -2.329   4.135 -32.786  1.00  0.00    -0.327 N 
HETATM    8  C   UNL     1      -2.489   4.938 -33.904  1.00  0.00     0.222 C 
HETATM    9  O   UNL     1      -3.516   5.073 -34.561  1.00  0.00    -0.273 OA
HETATM   10  H   UNL     1      -1.394   4.071 -32.403  1.00  0.00     0.169 HD
BRANCH   8  11
HETATM   11  C   UNL     1      -1.235   5.722 -34.248  1.00  0.00     0.108 C 
BRANCH  11  12
HETATM   12  C   UNL     1      -1.290   7.164 -33.734  1.00  0.00     0.047 C 
BRANCH  12  13
HETATM   13  C   UNL     1      -1.055   7.312 -32.247  1.00  0.00    -0.058 A 
HETATM   14  C   UNL     1      -1.927   8.098 -31.481  1.00  0.00     0.007 A 
HETATM   15  C   UNL     1      -1.697   8.296 -30.116  1.00  0.00     0.001 A 
HETATM   16  C   UNL     1      -0.591   7.715 -29.502  1.00  0.00     0.000 A 
HETATM   17  C   UNL     1       0.292   6.943 -30.253  1.00  0.00     0.001 A 
HETATM   18  C   UNL     1       0.068   6.751 -31.619  1.00  0.00     0.007 A 
ENDBRANCH  12  13
ENDBRANCH  11  12
ENDBRANCH   8  11
ENDBRANCH   4   7
BRANCH   2  19
HETATM   19  N   UNL     1      -4.600  -0.078 -31.913  1.00  0.00    -0.319 N 
HETATM   20  C   UNL     1      -5.160  -0.784 -32.956  1.00  0.00     0.280 C 
HETATM   21  O   UNL     1      -4.646  -1.879 -33.207  1.00  0.00    -0.265 OA
HETATM   22  H   UNL     1      -4.045  -0.687 -31.322  1.00  0.00     0.169 HD
BRANCH  20  23
HETATM   23  C   UNL     1      -6.365  -0.321 -33.613  1.00  0.00     0.142 A 
HETATM   24  O   UNL     1      -7.548  -0.438 -32.924  1.00  0.00    -0.317 OA
HETATM   25  C   UNL     1      -8.529   0.086 -33.699  1.00  0.00     0.143 A 
HETATM   26  C   UNL     1      -8.009   0.561 -34.878  1.00  0.00     0.027 A 
HETATM   27  C   UNL     1      -6.615   0.313 -34.819  1.00  0.00     0.045 A 
ENDBRANCH  20  23
ENDBRANCH   2  19
BRANCH   1  28
HETATM   28  O   UNL     1      -6.535   1.487 -30.276  1.00  0.00    -0.354 OA
HETATM   29  C   UNL     1      -7.704   2.206 -30.677  1.00  0.00     0.210 C 
ENDBRANCH   1  28
TORSDOF 7
ENDMDL
MODEL 6
REMARK VINA RESULT:      -7.9      2.023      2.722
REMARK  7 active torsions:
REMARK  status: ('A' for Active; 'I' for Inactive)
REMARK    1  A    between atoms: O_2  and  C_3 
REMARK    2  A    between atoms: C_4  and  N_5 
REMARK       I    between atoms: N_5  and  C_6 
REMARK    3  A    between atoms: C_6  and  C_7 
REMARK    4  A    between atoms: C_14  and  N_15 
REMARK       I    between atoms: N_15  and  C_16 
REMARK    5  A    between atoms: C_16  and  C_17 
REMARK    6  A    between atoms: C_17  and  C_18 
REMARK    7  A    between atoms: C_18  and  C_19 
ROOT
HETATM    1  C   UNL     1      -2.676   6.526 -31.407  1.00  0.00     0.095 A 
HETATM    2  C   UNL     1      -1.977   5.320 -31.544  1.00  0.00     0.070 A 
HETATM    3  C   UNL     1      -2.692   4.115 -31.414  1.00  0.00     0.062 A 
HETATM    4  C   UNL     1      -4.077   4.105 -31.212  1.00  0.00     0.037 A 
HETATM    5  C   UNL     1      -4.761   5.322 -31.155  1.00  0.00     0.032 A 
HETATM    6  C   UNL     1      -4.065   6.526 -31.260  1.00  0.00     0.041 A 
ENDROOT
BRANCH   4   7
HETATM    7  N   UNL     1      -4.840   2.934 -31.027  1.00  0.00    -0.327 N 
HETATM    8  C   UNL     1      -5.530   2.209 -31.985  1.00  0.00     0.222 C 
HETATM    9  O   UNL     1      -5.658   2.505 -33.168  1.00  0.00    -0.273 OA
HETATM   10  H   UNL     1      -4.896   2.595 -30.073  1.00  0.00     0.169 HD
BRANCH   8  11
HETATM   11  C   UNL     1      -6.114   0.919 -31.437  1.00  0.00     0.108 C 
BRANCH  11  12
HETATM   12  C   UNL     1      -5.130  -0.252 -31.533  1.00  0.00     0.047 C 
BRANCH  12  13
HETATM   13  C   UNL     1      -5.354  -1.168 -32.715  1.00  0.00    -0.058 A 
HETATM   14  C   UNL     1      -4.289  -1.930 -33.216  1.00  0.00     0.007 A 
HETATM   15  C   UNL     1      -4.459  -2.740 -34.342  1.00  0.00     0.001 A 
HETATM   16  C   UNL     1      -5.692  -2.795 -34.985  1.00  0.00     0.000 A 
HETATM   17  C   UNL     1      -6.756  -2.034 -34.508  1.00  0.00     0.001 A 
HETATM   18  C   UNL     1      -6.586  -1.217 -33.387  1.00  0.00     0.007 A 
ENDBRANCH  12  13
ENDBRANCH  11  12
ENDBRANCH   8  11
ENDBRANCH   4   7
BRANCH   2  19
HETATM   19  N   UNL     1      -0.583   5.189 -31.704  1.00  0.00    -0.319 N 
HETATM   20  C   UNL     1       0.467   5.222 -30.811  1.00  0.00     0.280 C 
HETATM   21  O   UNL     1       1.472   4.580 -31.131  1.00  0.00    -0.265 OA
HETATM   22  H   UNL     1      -0.268   4.888 -32.618  1.00  0.00     0.169 HD
BRANCH  20  23
HETATM   23  C   UNL     1       0.430   6.078 -29.642  1.00  0.00     0.142 A 
HETATM   24  O   UNL     1       0.128   5.494 -28.437  1.00  0.00    -0.317 OA
HETATM   25  C   UNL     1       0.187   6.457 -27.486  1.00  0.00     0.143 A 
HETATM   26  C   UNL     1       0.541   7.662 -28.042  1.00  0.00     0.027 A 
HETATM   27  C   UNL     1       0.712   7.418 -29.427  1.00  0.00     0.045 A 
ENDBRANCH  20  23
ENDBRANCH   2  19
BRANCH   1  28
HETATM   28  O   UNL     1      -2.068   7.750 -31.374  1.00  0.00    -0.354 OA
HETATM   29  C   UNL     1      -2.673   8.586 -30.383  1.00  0.00     0.210 C 
ENDBRANCH   1  28
TORSDOF 7
ENDMDL
MODEL 7
REMARK VINA RESULT:      -7.8      1.956      2.860
REMARK  7 active torsions:
REMARK  status: ('A' for Active; 'I' for Inactive)
REMARK    1  A    between atoms: O_2  and  C_3 
REMARK    2  A    between atoms: C_4  and  N_5 
REMARK       I    between atoms: N_5  and  C_6 
REMARK    3  A    between atoms: C_6  and  C_7 
REMARK    4  A    between atoms: C_14  and  N_15 
REMARK       I    between atoms: N_15  and  C_16 
REMARK    5  A    between atoms: C_16  and  C_17 
REMARK    6  A    between atoms: C_17  and  C_18 
REMARK    7  A    between atoms: C_18  and  C_19 
ROOT
HETATM    1  C   UNL     1      -2.650   5.824 -32.391  1.00  0.00     0.095 A 
HETATM    2  C   UNL     1      -3.302   5.468 -31.204  1.00  0.00     0.070 A 
HETATM    3  C   UNL     1      -3.772   4.149 -31.069  1.00  0.00     0.062 A 
HETATM    4  C   UNL     1      -3.549   3.188 -32.062  1.00  0.00     0.037 A 
HETATM    5  C   UNL     1      -2.829   3.551 -33.204  1.00  0.00     0.032 A 
HETATM    6  C   UNL     1      -2.375   4.860 -33.364  1.00  0.00     0.041 A 
ENDROOT
BRANCH   4   7
HETATM    7  N   UNL     1      -4.035   1.866 -32.006  1.00  0.00    -0.327 N 
HETATM    8  C   UNL     1      -5.198   1.365 -32.566  1.00  0.00     0.222 C 
HETATM    9  O   UNL     1      -6.059   2.010 -33.155  1.00  0.00    -0.273 OA
HETATM   10  H   UNL     1      -3.465   1.213 -31.482  1.00  0.00     0.169 HD
BRANCH   8  11
HETATM   11  C   UNL     1      -5.315  -0.143 -32.426  1.00  0.00     0.108 C 
BRANCH  11  12
HETATM   12  C   UNL     1      -4.434  -0.891 -33.432  1.00  0.00     0.047 C 
BRANCH  12  13
HETATM   13  C   UNL     1      -4.994  -2.217 -33.896  1.00  0.00    -0.058 A 
HETATM   14  C   UNL     1      -4.167  -3.348 -33.927  1.00  0.00     0.007 A 
HETATM   15  C   UNL     1      -4.647  -4.570 -34.406  1.00  0.00     0.001 A 
HETATM   16  C   UNL     1      -5.957  -4.675 -34.865  1.00  0.00     0.000 A 
HETATM   17  C   UNL     1      -6.787  -3.558 -34.854  1.00  0.00     0.001 A 
HETATM   18  C   UNL     1      -6.306  -2.333 -34.383  1.00  0.00     0.007 A 
ENDBRANCH  12  13
ENDBRANCH  11  12
ENDBRANCH   8  11
ENDBRANCH   4   7
BRANCH   2  19
HETATM   19  N   UNL     1      -3.630   6.345 -30.149  1.00  0.00    -0.319 N 
HETATM   20  C   UNL     1      -2.866   7.157 -29.338  1.00  0.00     0.280 C 
HETATM   21  O   UNL     1      -3.431   8.159 -28.889  1.00  0.00    -0.265 OA
HETATM   22  H   UNL     1      -4.617   6.531 -30.019  1.00  0.00     0.169 HD
BRANCH  20  23
HETATM   23  C   UNL     1      -1.531   6.768 -28.932  1.00  0.00     0.142 A 
HETATM   24  O   UNL     1      -1.276   6.685 -27.585  1.00  0.00    -0.317 OA
HETATM   25  C   UNL     1       0.005   6.273 -27.432  1.00  0.00     0.143 A 
HETATM   26  C   UNL     1       0.593   6.066 -28.656  1.00  0.00     0.027 A 
HETATM   27  C   UNL     1      -0.398   6.370 -29.623  1.00  0.00     0.045 A 
ENDBRANCH  20  23
ENDBRANCH   2  19
BRANCH   1  28
HETATM   28  O   UNL     1      -2.277   7.105 -32.693  1.00  0.00    -0.354 OA
HETATM   29  C   UNL     1      -1.070   7.111 -33.460  1.00  0.00     0.210 C 
ENDBRANCH   1  28
TORSDOF 7
ENDMDL
MODEL 8
REMARK VINA RESULT:      -7.6      2.948      8.619
REMARK  7 active torsions:
REMARK  status: ('A' for Active; 'I' for Inactive)
REMARK    1  A    between atoms: O_2  and  C_3 
REMARK    2  A    between atoms: C_4  and  N_5 
REMARK       I    between atoms: N_5  and  C_6 
REMARK    3  A    between atoms: C_6  and  C_7 
REMARK    4  A    between atoms: C_14  and  N_15 
REMARK       I    between atoms: N_15  and  C_16 
REMARK    5  A    between atoms: C_16  and  C_17 
REMARK    6  A    between atoms: C_17  and  C_18 
REMARK    7  A    between atoms: C_18  and  C_19 
ROOT
HETATM    1  C   UNL     1      -6.633   2.936 -31.313  1.00  0.00     0.095 A 
HETATM    2  C   UNL     1      -6.606   3.120 -32.701  1.00  0.00     0.070 A 
HETATM    3  C   UNL     1      -5.408   3.560 -33.293  1.00  0.00     0.062 A 
HETATM    4  C   UNL     1      -4.247   3.756 -32.537  1.00  0.00     0.037 A 
HETATM    5  C   UNL     1      -4.282   3.492 -31.165  1.00  0.00     0.032 A 
HETATM    6  C   UNL     1      -5.467   3.077 -30.558  1.00  0.00     0.041 A 
ENDROOT
BRANCH   4   7
HETATM    7  N   UNL     1      -3.032   4.240 -33.063  1.00  0.00    -0.327 N 
HETATM    8  C   UNL     1      -2.848   5.299 -33.938  1.00  0.00     0.222 C 
HETATM    9  O   UNL     1      -3.729   5.964 -34.471  1.00  0.00    -0.273 OA
HETATM   10  H   UNL     1      -2.201   3.741 -32.772  1.00  0.00     0.169 HD
BRANCH   8  11
HETATM   11  C   UNL     1      -1.381   5.623 -34.165  1.00  0.00     0.108 C 
BRANCH  11  12
HETATM   12  C   UNL     1      -1.025   7.047 -33.728  1.00  0.00     0.047 C 
BRANCH  12  13
HETATM   13  C   UNL     1      -0.906   7.236 -32.232  1.00  0.00    -0.058 A 
HETATM   14  C   UNL     1      -1.846   8.025 -31.554  1.00  0.00     0.007 A 
HETATM   15  C   UNL     1      -1.723   8.260 -30.182  1.00  0.00     0.001 A 
HETATM   16  C   UNL     1      -0.658   7.714 -29.471  1.00  0.00     0.000 A 
HETATM   17  C   UNL     1       0.291   6.939 -30.133  1.00  0.00     0.001 A 
HETATM   18  C   UNL     1       0.175   6.711 -31.506  1.00  0.00     0.007 A 
ENDBRANCH  12  13
ENDBRANCH  11  12
ENDBRANCH   8  11
ENDBRANCH   4   7
BRANCH   2  19
HETATM   19  N   UNL     1      -7.710   3.003 -33.570  1.00  0.00    -0.319 N 
HETATM   20  C   UNL     1      -8.425   1.918 -34.030  1.00  0.00     0.280 C 
HETATM   21  O   UNL     1      -9.604   2.133 -34.331  1.00  0.00    -0.265 OA
HETATM   22  H   UNL     1      -8.167   3.870 -33.825  1.00  0.00     0.169 HD
BRANCH  20  23
HETATM   23  C   UNL     1      -7.780   0.643 -34.274  1.00  0.00     0.142 A 
HETATM   24  O   UNL     1      -7.823  -0.292 -33.269  1.00  0.00    -0.317 OA
HETATM   25  C   UNL     1      -7.202  -1.409 -33.719  1.00  0.00     0.143 A 
HETATM   26  C   UNL     1      -6.766  -1.231 -35.010  1.00  0.00     0.027 A 
HETATM   27  C   UNL     1      -7.150   0.084 -35.374  1.00  0.00     0.045 A 
ENDBRANCH  20  23
ENDBRANCH   2  19
BRANCH   1  28
HETATM   28  O   UNL     1      -7.772   2.649 -30.612  1.00  0.00    -0.354 OA
HETATM   29  C   UNL     1      -8.353   3.844 -30.083  1.00  0.00     0.210 C 
ENDBRANCH   1  28
TORSDOF 7
ENDMDL
MODEL 9
REMARK VINA RESULT:      -7.6      6.441      8.228
REMARK  7 active torsions:
REMARK  status: ('A' for Active; 'I' for Inactive)
REMARK    1  A    between atoms: O_2  and  C_3 
REMARK    2  A    between atoms: C_4  and  N_5 
REMARK       I    between atoms: N_5  and  C_6 
REMARK    3  A    between atoms: C_6  and  C_7 
REMARK    4  A    between atoms: C_14  and  N_15 
REMARK       I    between atoms: N_15  and  C_16 
REMARK    5  A    between atoms: C_16  and  C_17 
REMARK    6  A    between atoms: C_17  and  C_18 
REMARK    7  A    between atoms: C_18  and  C_19 
ROOT
HETATM    1  C   UNL     1     -12.726   3.109 -33.210  1.00  0.00     0.095 A 
HETATM    2  C   UNL     1     -11.503   3.780 -33.082  1.00  0.00     0.070 A 
HETATM    3  C   UNL     1     -10.347   3.166 -33.598  1.00  0.00     0.062 A 
HETATM    4  C   UNL     1     -10.409   1.944 -34.278  1.00  0.00     0.037 A 
HETATM    5  C   UNL     1     -11.654   1.333 -34.458  1.00  0.00     0.032 A 
HETATM    6  C   UNL     1     -12.807   1.916 -33.933  1.00  0.00     0.041 A 
ENDROOT
BRANCH   4   7
HETATM    7  N   UNL     1      -9.283   1.257 -34.775  1.00  0.00    -0.327 N 
HETATM    8  C   UNL     1      -8.541   0.273 -34.142  1.00  0.00     0.222 C 
HETATM    9  O   UNL     1      -8.694  -0.127 -32.993  1.00  0.00    -0.273 OA
HETATM   10  H   UNL     1      -8.979   1.531 -35.702  1.00  0.00     0.169 HD
BRANCH   8  11
HETATM   11  C   UNL     1      -7.489  -0.342 -35.049  1.00  0.00     0.108 C 
BRANCH  11  12
HETATM   12  C   UNL     1      -6.219  -0.732 -34.286  1.00  0.00     0.047 C 
BRANCH  12  13
HETATM   13  C   UNL     1      -5.824  -2.186 -34.421  1.00  0.00    -0.058 A 
HETATM   14  C   UNL     1      -6.791  -3.140 -34.766  1.00  0.00     0.007 A 
HETATM   15  C   UNL     1      -6.461  -4.496 -34.842  1.00  0.00     0.001 A 
HETATM   16  C   UNL     1      -5.162  -4.915 -34.567  1.00  0.00     0.000 A 
HETATM   17  C   UNL     1      -4.193  -3.981 -34.210  1.00  0.00     0.001 A 
HETATM   18  C   UNL     1      -4.524  -2.626 -34.126  1.00  0.00     0.007 A 
ENDBRANCH  12  13
ENDBRANCH  11  12
ENDBRANCH   8  11
ENDBRANCH   4   7
BRANCH   2  19
HETATM   19  N   UNL     1     -11.295   4.987 -32.385  1.00  0.00    -0.319 N 
HETATM   20  C   UNL     1     -11.674   6.288 -32.636  1.00  0.00     0.280 C 
HETATM   21  O   UNL     1     -11.813   7.014 -31.646  1.00  0.00    -0.265 OA
HETATM   22  H   UNL     1     -10.902   4.900 -31.455  1.00  0.00     0.169 HD
BRANCH  20  23
HETATM   23  C   UNL     1     -11.762   6.795 -33.990  1.00  0.00     0.142 A 
HETATM   24  O   UNL     1     -10.585   7.082 -34.638  1.00  0.00    -0.317 OA
HETATM   25  C   UNL     1     -10.895   7.500 -35.889  1.00  0.00     0.143 A 
HETATM   26  C   UNL     1     -12.255   7.476 -36.082  1.00  0.00     0.027 A 
HETATM   27  C   UNL     1     -12.814   7.010 -34.867  1.00  0.00     0.045 A 
ENDBRANCH  20  23
ENDBRANCH   2  19
BRANCH   1  28
HETATM   28  O   UNL     1     -13.886   3.538 -32.627  1.00  0.00    -0.354 OA
HETATM   29  C   UNL     1     -14.626   2.432 -32.103  1.00  0.00     0.210 C 
ENDBRANCH   1  28
TORSDOF 7
ENDMDL
MODEL 10
REMARK VINA RESULT:      -7.4      5.137      6.939
REMARK  7 active torsions:
REMARK  status: ('A' for Active; 'I' for Inactive)
REMARK    1  A    between atoms: O_2  and  C_3 
REMARK    2  A    between atoms: C_4  and  N_5 
REMARK       I    between atoms: N_5  and  C_6 
REMARK    3  A    between atoms: C_6  and  C_7 
REMARK    4  A    between atoms: C_14  and  N_15 
REMARK       I    between atoms: N_15  and  C_16 
REMARK    5  A    between atoms: C_16  and  C_17 
REMARK    6  A    between atoms: C_17  and  C_18 
REMARK    7  A    between atoms: C_18  and  C_19 
ROOT
HETATM    1  C   UNL     1      -9.900   3.618 -31.064  1.00  0.00     0.095 A 
HETATM    2  C   UNL     1     -10.134   2.609 -32.007  1.00  0.00     0.070 A 
HETATM    3  C   UNL     1      -9.068   1.759 -32.355  1.00  0.00     0.062 A 
HETATM    4  C   UNL     1      -7.817   1.867 -31.739  1.00  0.00     0.037 A 
HETATM    5  C   UNL     1      -7.632   2.833 -30.747  1.00  0.00     0.032 A 
HETATM    6  C   UNL     1      -8.671   3.699 -30.405  1.00  0.00     0.041 A 
ENDROOT
BRANCH   4   7
HETATM    7  N   UNL     1      -6.698   1.077 -32.077  1.00  0.00    -0.327 N 
HETATM    8  C   UNL     1      -6.100   0.084 -31.319  1.00  0.00     0.222 C 
HETATM    9  O   UNL     1      -6.399  -0.236 -30.174  1.00  0.00    -0.273 OA
HETATM   10  H   UNL     1      -6.281   1.275 -32.979  1.00  0.00     0.169 HD
BRANCH   8  11
HETATM   11  C   UNL     1      -5.008  -0.653 -32.075  1.00  0.00     0.108 C 
BRANCH  11  12
HETATM   12  C   UNL     1      -5.327  -0.796 -33.567  1.00  0.00     0.047 C 
BRANCH  12  13
HETATM   13  C   UNL     1      -5.405  -2.224 -34.060  1.00  0.00    -0.058 A 
HETATM   14  C   UNL     1      -6.595  -2.700 -34.626  1.00  0.00     0.007 A 
HETATM   15  C   UNL     1      -6.708  -4.031 -35.037  1.00  0.00     0.001 A 
HETATM   16  C   UNL     1      -5.635  -4.904 -34.882  1.00  0.00     0.000 A 
HETATM   17  C   UNL     1      -4.450  -4.450 -34.309  1.00  0.00     0.001 A 
HETATM   18  C   UNL     1      -4.339  -3.121 -33.890  1.00  0.00     0.007 A 
ENDBRANCH  12  13
ENDBRANCH  11  12
ENDBRANCH   8  11
ENDBRANCH   4   7
BRANCH   2  19
HETATM   19  N   UNL     1     -11.328   2.420 -32.732  1.00  0.00    -0.319 N 
HETATM   20  C   UNL     1     -11.780   2.918 -33.935  1.00  0.00     0.280 C 
HETATM   21  O   UNL     1     -12.581   2.207 -34.551  1.00  0.00    -0.265 OA
HETATM   22  H   UNL     1     -11.941   1.687 -32.394  1.00  0.00     0.169 HD
BRANCH  20  23
HETATM   23  C   UNL     1     -11.437   4.258 -34.368  1.00  0.00     0.142 A 
HETATM   24  O   UNL     1     -10.271   4.418 -35.076  1.00  0.00    -0.317 OA
HETATM   25  C   UNL     1     -10.168   5.727 -35.410  1.00  0.00     0.143 A 
HETATM   26  C   UNL     1     -11.255   6.428 -34.949  1.00  0.00     0.027 A 
HETATM   27  C   UNL     1     -12.080   5.483 -34.291  1.00  0.00     0.045 A 
ENDBRANCH  20  23
ENDBRANCH   2  19
BRANCH   1  28
HETATM   28  O   UNL     1     -10.813   4.587 -30.754  1.00  0.00    -0.354 OA
HETATM   29  C   UNL     1     -10.159   5.831 -30.492  1.00  0.00     0.210 C 
ENDBRANCH   1  28
TORSDOF 7
ENDMDL
