MODEL 1
REMARK VINA RESULT:      -9.9      0.000      0.000
REMARK  5 active torsions:
REMARK  status: ('A' for Active; 'I' for Inactive)
REMARK    1  A    between atoms: C_4  and  O_5 
REMARK    2  A    between atoms: O_5  and  C_6 
REMARK    3  A    between atoms: C_6  and  C_7 
REMARK       I    between atoms: C_7  and  N_8 
REMARK    4  A    between atoms: N_8  and  C_9 
REMARK    5  A    between atoms: C_11  and  C_12 
ROOT
HETATM    1  C   UNL     1      -2.404   4.028 -32.257  1.00  0.00     0.035 A 
HETATM    2  C   UNL     1      -1.717   4.595 -31.180  1.00  0.00     0.045 A 
HETATM    3  C   UNL     1      -0.950   5.762 -31.339  1.00  0.00     0.019 A 
HETATM    4  C   UNL     1      -0.857   6.337 -32.614  1.00  0.00     0.016 A 
HETATM    5  C   UNL     1      -1.534   5.778 -33.698  1.00  0.00     0.003 A 
HETATM    6  C   UNL     1      -2.314   4.635 -33.515  1.00  0.00     0.029 A 
ENDROOT
BRANCH   1   7
HETATM    7  N   UNL     1      -3.217   2.882 -32.151  1.00  0.00    -0.325 N 
HETATM    8  C   UNL     1      -4.312   2.696 -31.324  1.00  0.00     0.251 C 
HETATM    9  O   UNL     1      -4.718   3.481 -30.471  1.00  0.00    -0.270 OA
HETATM   10  H   UNL     1      -2.992   2.105 -32.765  1.00  0.00     0.169 HD
BRANCH   8  11
HETATM   11  C   UNL     1      -5.005   1.338 -31.526  1.00  0.00     0.217 C 
HETATM   12  C   UNL     1      -5.371   0.742 -30.170  1.00  0.00     0.050 C 
BRANCH  11  13
HETATM   13  O   UNL     1      -4.143   0.401 -32.183  1.00  0.00    -0.337 OA
BRANCH  13  14
HETATM   14  C   UNL     1      -4.796  -0.417 -33.069  1.00  0.00     0.070 A 
HETATM   15  C   UNL     1      -4.447  -1.751 -33.285  1.00  0.00     0.043 A 
HETATM   16  C   UNL     1      -5.167  -2.529 -34.201  1.00  0.00    -0.059 A 
HETATM   17  C   UNL     1      -4.807  -3.966 -34.440  1.00  0.00     0.048 C 
HETATM   18  C   UNL     1      -6.250  -1.956 -34.882  1.00  0.00     0.013 A 
HETATM   19  C   UNL     1      -6.617  -0.623 -34.656  1.00  0.00    -0.059 A 
HETATM   20  C   UNL     1      -5.893   0.136 -33.730  1.00  0.00     0.043 A 
HETATM   21  C   UNL     1      -7.795  -0.038 -35.378  1.00  0.00     0.048 C 
ENDBRANCH  13  14
ENDBRANCH  11  13
ENDBRANCH   8  11
ENDBRANCH   1   7
BRANCH   3  22
HETATM   22  C   UNL     1      -0.279   6.403 -30.209  1.00  0.00     0.181 A 
HETATM   23  O   UNL     1      -0.504   5.856 -28.970  1.00  0.00    -0.289 OA
HETATM   24  C   UNL     1       0.183   6.668 -28.119  1.00  0.00     0.106 A 
HETATM   25  C   UNL     1       0.790   7.657 -28.874  1.00  0.00     0.093 A 
HETATM   26  C   UNL     1       0.270   6.557 -26.737  1.00  0.00     0.040 A 
HETATM   27  N   UNL     1       0.492   7.479 -30.202  1.00  0.00    -0.221 NA
HETATM   28  C   UNL     1       1.557   8.630 -28.221  1.00  0.00     0.034 A 
HETATM   29  C   UNL     1       1.670   8.556 -26.824  1.00  0.00     0.002 A 
HETATM   30  C   UNL     1       1.039   7.538 -26.098  1.00  0.00     0.003 A 
ENDBRANCH   3  22
TORSDOF 5
ENDMDL
MODEL 2
REMARK VINA RESULT:      -9.6      1.978     10.199
REMARK  5 active torsions:
REMARK  status: ('A' for Active; 'I' for Inactive)
REMARK    1  A    between atoms: C_4  and  O_5 
REMARK    2  A    between atoms: O_5  and  C_6 
REMARK    3  A    between atoms: C_6  and  C_7 
REMARK       I    between atoms: C_7  and  N_8 
REMARK    4  A    between atoms: N_8  and  C_9 
REMARK    5  A    between atoms: C_11  and  C_12 
ROOT
HETATM    1  C   UNL     1      -3.657   2.581 -31.924  1.00  0.00     0.035 A 
HETATM    2  C   UNL     1      -3.737   1.346 -32.577  1.00  0.00     0.045 A 
HETATM    3  C   UNL     1      -4.654   0.364 -32.164  1.00  0.00     0.019 A 
HETATM    4  C   UNL     1      -5.473   0.629 -31.059  1.00  0.00     0.016 A 
HETATM    5  C   UNL     1      -5.400   1.855 -30.397  1.00  0.00     0.003 A 
HETATM    6  C   UNL     1      -4.504   2.830 -30.838  1.00  0.00     0.029 A 
ENDROOT
BRANCH   1   7
HETATM    7  N   UNL     1      -2.786   3.617 -32.314  1.00  0.00    -0.325 N 
HETATM    8  C   UNL     1      -3.022   4.614 -33.246  1.00  0.00     0.251 C 
HETATM    9  O   UNL     1      -4.014   4.718 -33.962  1.00  0.00    -0.270 OA
HETATM   10  H   UNL     1      -1.886   3.655 -31.846  1.00  0.00     0.169 HD
BRANCH   8  11
HETATM   11  C   UNL     1      -1.866   5.621 -33.366  1.00  0.00     0.217 C 
HETATM   12  C   UNL     1      -1.173   5.449 -34.715  1.00  0.00     0.050 C 
BRANCH  11  13
HETATM   13  O   UNL     1      -0.877   5.410 -32.351  1.00  0.00    -0.337 OA
BRANCH  13  14
HETATM   14  C   UNL     1      -0.896   6.359 -31.361  1.00  0.00     0.070 A 
HETATM   15  C   UNL     1      -1.686   7.509 -31.413  1.00  0.00     0.043 A 
HETATM   16  C   UNL     1      -1.659   8.431 -30.359  1.00  0.00    -0.059 A 
HETATM   17  C   UNL     1      -2.507   9.669 -30.398  1.00  0.00     0.048 C 
HETATM   18  C   UNL     1      -0.846   8.175 -29.247  1.00  0.00     0.013 A 
HETATM   19  C   UNL     1      -0.064   7.013 -29.180  1.00  0.00    -0.059 A 
HETATM   20  C   UNL     1      -0.112   6.099 -30.238  1.00  0.00     0.043 A 
HETATM   21  C   UNL     1       0.781   6.748 -27.969  1.00  0.00     0.048 C 
ENDBRANCH  13  14
ENDBRANCH  11  13
ENDBRANCH   8  11
ENDBRANCH   1   7
BRANCH   3  22
HETATM   22  C   UNL     1      -4.794  -0.906 -32.876  1.00  0.00     0.181 A 
HETATM   23  O   UNL     1      -6.006  -1.144 -33.475  1.00  0.00    -0.289 OA
HETATM   24  C   UNL     1      -5.877  -2.394 -34.002  1.00  0.00     0.106 A 
HETATM   25  C   UNL     1      -4.604  -2.848 -33.705  1.00  0.00     0.093 A 
HETATM   26  C   UNL     1      -6.833  -3.113 -34.707  1.00  0.00     0.040 A 
HETATM   27  N   UNL     1      -3.922  -1.894 -32.991  1.00  0.00    -0.221 NA
HETATM   28  C   UNL     1      -4.224  -4.126 -34.138  1.00  0.00     0.034 A 
HETATM   29  C   UNL     1      -5.162  -4.888 -34.852  1.00  0.00     0.002 A 
HETATM   30  C   UNL     1      -6.441  -4.389 -35.130  1.00  0.00     0.003 A 
ENDBRANCH   3  22
TORSDOF 5
ENDMDL
MODEL 3
REMARK VINA RESULT:      -9.5      1.122      2.049
REMARK  5 active torsions:
REMARK  status: ('A' for Active; 'I' for Inactive)
REMARK    1  A    between atoms: C_4  and  O_5 
REMARK    2  A    between atoms: O_5  and  C_6 
REMARK    3  A    between atoms: C_6  and  C_7 
REMARK       I    between atoms: C_7  and  N_8 
REMARK    4  A    between atoms: N_8  and  C_9 
REMARK    5  A    between atoms: C_11  and  C_12 
ROOT
HETATM    1  C   UNL     1      -2.744   4.316 -32.346  1.00  0.00     0.035 A 
HETATM    2  C   UNL     1      -2.207   5.029 -31.270  1.00  0.00     0.045 A 
HETATM    3  C   UNL     1      -1.267   6.055 -31.474  1.00  0.00     0.019 A 
HETATM    4  C   UNL     1      -0.848   6.334 -32.782  1.00  0.00     0.016 A 
HETATM    5  C   UNL     1      -1.373   5.626 -33.863  1.00  0.00     0.003 A 
HETATM    6  C   UNL     1      -2.327   4.630 -33.645  1.00  0.00     0.029 A 
ENDROOT
BRANCH   1   7
HETATM    7  N   UNL     1      -3.715   3.305 -32.208  1.00  0.00    -0.325 N 
HETATM    8  C   UNL     1      -3.591   2.100 -31.538  1.00  0.00     0.251 C 
HETATM    9  O   UNL     1      -2.570   1.664 -31.011  1.00  0.00    -0.270 OA
HETATM   10  H   UNL     1      -4.622   3.484 -32.629  1.00  0.00     0.169 HD
BRANCH   8  11
HETATM   11  C   UNL     1      -4.884   1.268 -31.534  1.00  0.00     0.217 C 
HETATM   12  C   UNL     1      -5.542   1.348 -30.159  1.00  0.00     0.050 C 
BRANCH  11  13
HETATM   13  O   UNL     1      -4.621  -0.115 -31.799  1.00  0.00    -0.337 OA
BRANCH  13  14
HETATM   14  C   UNL     1      -5.351  -0.623 -32.843  1.00  0.00     0.070 A 
HETATM   15  C   UNL     1      -6.372   0.084 -33.483  1.00  0.00     0.043 A 
HETATM   16  C   UNL     1      -7.070  -0.497 -34.549  1.00  0.00    -0.059 A 
HETATM   17  C   UNL     1      -8.164   0.252 -35.251  1.00  0.00     0.048 C 
HETATM   18  C   UNL     1      -6.720  -1.786 -34.975  1.00  0.00     0.013 A 
HETATM   19  C   UNL     1      -5.685  -2.494 -34.348  1.00  0.00    -0.059 A 
HETATM   20  C   UNL     1      -4.991  -1.893 -33.292  1.00  0.00     0.043 A 
HETATM   21  C   UNL     1      -5.312  -3.862 -34.836  1.00  0.00     0.048 C 
ENDBRANCH  13  14
ENDBRANCH  11  13
ENDBRANCH   8  11
ENDBRANCH   1   7
BRANCH   3  22
HETATM   22  C   UNL     1      -0.745   6.853 -30.366  1.00  0.00     0.181 A 
HETATM   23  O   UNL     1      -1.583   7.811 -29.850  1.00  0.00    -0.289 OA
HETATM   24  C   UNL     1      -0.834   8.426 -28.892  1.00  0.00     0.106 A 
HETATM   25  C   UNL     1       0.407   7.814 -28.867  1.00  0.00     0.093 A 
HETATM   26  C   UNL     1      -1.216   9.483 -28.075  1.00  0.00     0.040 A 
HETATM   27  N   UNL     1       0.454   6.813 -29.806  1.00  0.00    -0.221 NA
HETATM   28  C   UNL     1       1.370   8.274 -27.959  1.00  0.00     0.034 A 
HETATM   29  C   UNL     1       1.026   9.344 -27.117  1.00  0.00     0.002 A 
HETATM   30  C   UNL     1      -0.243   9.934 -27.176  1.00  0.00     0.003 A 
ENDBRANCH   3  22
TORSDOF 5
ENDMDL
MODEL 4
REMARK VINA RESULT:      -9.2      4.896      8.905
REMARK  5 active torsions:
REMARK  status: ('A' for Active; 'I' for Inactive)
REMARK    1  A    between atoms: C_4  and  O_5 
REMARK    2  A    between atoms: O_5  and  C_6 
REMARK    3  A    between atoms: C_6  and  C_7 
REMARK       I    between atoms: C_7  and  N_8 
REMARK    4  A    between atoms: N_8  and  C_9 
REMARK    5  A    between atoms: C_11  and  C_12 
ROOT
HETATM    1  C   UNL     1      -5.720   2.979 -32.192  1.00  0.00     0.035 A 
HETATM    2  C   UNL     1      -5.820   1.700 -32.747  1.00  0.00     0.045 A 
HETATM    3  C   UNL     1      -4.720   0.825 -32.762  1.00  0.00     0.019 A 
HETATM    4  C   UNL     1      -3.499   1.270 -32.236  1.00  0.00     0.016 A 
HETATM    5  C   UNL     1      -3.386   2.546 -31.683  1.00  0.00     0.003 A 
HETATM    6  C   UNL     1      -4.496   3.391 -31.651  1.00  0.00     0.029 A 
ENDROOT
BRANCH   1   7
HETATM    7  N   UNL     1      -6.796   3.885 -32.115  1.00  0.00    -0.325 N 
HETATM    8  C   UNL     1      -7.340   4.641 -33.140  1.00  0.00     0.251 C 
HETATM    9  O   UNL     1      -6.919   4.712 -34.291  1.00  0.00    -0.270 OA
HETATM   10  H   UNL     1      -7.243   3.985 -31.208  1.00  0.00     0.169 HD
BRANCH   8  11
HETATM   11  C   UNL     1      -8.558   5.472 -32.703  1.00  0.00     0.217 C 
HETATM   12  C   UNL     1      -8.114   6.562 -31.731  1.00  0.00     0.050 C 
BRANCH  11  13
HETATM   13  O   UNL     1      -9.529   4.667 -32.024  1.00  0.00    -0.337 OA
BRANCH  13  14
HETATM   14  C   UNL     1     -10.126   3.731 -32.829  1.00  0.00     0.070 A 
HETATM   15  C   UNL     1     -10.867   4.056 -33.967  1.00  0.00     0.043 A 
HETATM   16  C   UNL     1     -11.442   3.044 -34.747  1.00  0.00    -0.059 A 
HETATM   17  C   UNL     1     -12.236   3.378 -35.976  1.00  0.00     0.048 C 
HETATM   18  C   UNL     1     -11.248   1.705 -34.381  1.00  0.00     0.013 A 
HETATM   19  C   UNL     1     -10.490   1.371 -33.251  1.00  0.00    -0.059 A 
HETATM   20  C   UNL     1      -9.914   2.395 -32.490  1.00  0.00     0.043 A 
HETATM   21  C   UNL     1     -10.275  -0.069 -32.892  1.00  0.00     0.048 C 
ENDBRANCH  13  14
ENDBRANCH  11  13
ENDBRANCH   8  11
ENDBRANCH   1   7
BRANCH   3  22
HETATM   22  C   UNL     1      -4.826  -0.538 -33.281  1.00  0.00     0.181 A 
HETATM   23  O   UNL     1      -6.046  -0.906 -33.792  1.00  0.00    -0.289 OA
HETATM   24  C   UNL     1      -5.879  -2.213 -34.142  1.00  0.00     0.106 A 
HETATM   25  C   UNL     1      -4.577  -2.569 -33.834  1.00  0.00     0.093 A 
HETATM   26  C   UNL     1      -6.825  -3.063 -34.700  1.00  0.00     0.040 A 
HETATM   27  N   UNL     1      -3.915  -1.497 -33.290  1.00  0.00    -0.221 NA
HETATM   28  C   UNL     1      -4.155  -3.879 -34.097  1.00  0.00     0.034 A 
HETATM   29  C   UNL     1      -5.081  -4.772 -34.659  1.00  0.00     0.002 A 
HETATM   30  C   UNL     1      -6.390  -4.369 -34.954  1.00  0.00     0.003 A 
ENDBRANCH   3  22
TORSDOF 5
ENDMDL
MODEL 5
REMARK VINA RESULT:      -9.1      1.873     10.210
REMARK  5 active torsions:
REMARK  status: ('A' for Active; 'I' for Inactive)
REMARK    1  A    between atoms: C_4  and  O_5 
REMARK    2  A    between atoms: O_5  and  C_6 
REMARK    3  A    between atoms: C_6  and  C_7 
REMARK       I    between atoms: C_7  and  N_8 
REMARK    4  A    between atoms: N_8  and  C_9 
REMARK    5  A    between atoms: C_11  and  C_12 
ROOT
HETATM    1  C   UNL     1      -4.190   3.027 -31.095  1.00  0.00     0.035 A 
HETATM    2  C   UNL     1      -4.125   1.838 -31.829  1.00  0.00     0.045 A 
HETATM    3  C   UNL     1      -5.108   0.843 -31.688  1.00  0.00     0.019 A 
HETATM    4  C   UNL     1      -6.146   1.047 -30.769  1.00  0.00     0.016 A 
HETATM    5  C   UNL     1      -6.218   2.227 -30.028  1.00  0.00     0.003 A 
HETATM    6  C   UNL     1      -5.250   3.216 -30.201  1.00  0.00     0.029 A 
ENDROOT
BRANCH   1   7
HETATM    7  N   UNL     1      -3.257   4.075 -31.220  1.00  0.00    -0.325 N 
HETATM    8  C   UNL     1      -3.168   5.010 -32.237  1.00  0.00     0.251 C 
HETATM    9  O   UNL     1      -3.846   5.037 -33.261  1.00  0.00    -0.270 OA
HETATM   10  H   UNL     1      -2.580   4.174 -30.469  1.00  0.00     0.169 HD
BRANCH   8  11
HETATM   11  C   UNL     1      -2.063   6.055 -32.009  1.00  0.00     0.217 C 
HETATM   12  C   UNL     1      -1.130   6.089 -33.216  1.00  0.00     0.050 C 
BRANCH  11  13
HETATM   13  O   UNL     1      -1.264   5.734 -30.863  1.00  0.00    -0.337 OA
BRANCH  13  14
HETATM   14  C   UNL     1      -1.051   6.799 -30.027  1.00  0.00     0.070 A 
HETATM   15  C   UNL     1       0.117   6.970 -29.281  1.00  0.00     0.043 A 
HETATM   16  C   UNL     1       0.267   8.090 -28.453  1.00  0.00    -0.059 A 
HETATM   17  C   UNL     1       1.519   8.291 -27.650  1.00  0.00     0.048 C 
HETATM   18  C   UNL     1      -0.759   9.043 -28.398  1.00  0.00     0.013 A 
HETATM   19  C   UNL     1      -1.926   8.887 -29.159  1.00  0.00    -0.059 A 
HETATM   20  C   UNL     1      -2.054   7.767 -29.988  1.00  0.00     0.043 A 
HETATM   21  C   UNL     1      -3.002   9.932 -29.103  1.00  0.00     0.048 C 
ENDBRANCH  13  14
ENDBRANCH  11  13
ENDBRANCH   8  11
ENDBRANCH   1   7
BRANCH   3  22
HETATM   22  C   UNL     1      -5.090  -0.377 -32.495  1.00  0.00     0.181 A 
HETATM   23  O   UNL     1      -6.249  -0.689 -33.162  1.00  0.00    -0.289 OA
HETATM   24  C   UNL     1      -5.972  -1.876 -33.772  1.00  0.00     0.106 A 
HETATM   25  C   UNL     1      -4.670  -2.221 -33.454  1.00  0.00     0.093 A 
HETATM   26  C   UNL     1      -6.823  -2.632 -34.568  1.00  0.00     0.040 A 
HETATM   27  N   UNL     1      -4.117  -1.260 -32.643  1.00  0.00    -0.221 NA
HETATM   28  C   UNL     1      -4.145  -3.417 -33.960  1.00  0.00     0.034 A 
HETATM   29  C   UNL     1      -4.972  -4.213 -34.768  1.00  0.00     0.002 A 
HETATM   30  C   UNL     1      -6.285  -3.825 -35.065  1.00  0.00     0.003 A 
ENDBRANCH   3  22
TORSDOF 5
ENDMDL
MODEL 6
REMARK VINA RESULT:      -9.0      1.898     10.093
REMARK  5 active torsions:
REMARK  status: ('A' for Active; 'I' for Inactive)
REMARK    1  A    between atoms: C_4  and  O_5 
REMARK    2  A    between atoms: O_5  and  C_6 
REMARK    3  A    between atoms: C_6  and  C_7 
REMARK       I    between atoms: C_7  and  N_8 
REMARK    4  A    between atoms: N_8  and  C_9 
REMARK    5  A    between atoms: C_11  and  C_12 
ROOT
HETATM    1  C   UNL     1      -4.219   3.387 -30.951  1.00  0.00     0.035 A 
HETATM    2  C   UNL     1      -3.843   2.108 -31.371  1.00  0.00     0.045 A 
HETATM    3  C   UNL     1      -4.779   1.061 -31.442  1.00  0.00     0.019 A 
HETATM    4  C   UNL     1      -6.101   1.313 -31.051  1.00  0.00     0.016 A 
HETATM    5  C   UNL     1      -6.487   2.584 -30.626  1.00  0.00     0.003 A 
HETATM    6  C   UNL     1      -5.551   3.618 -30.589  1.00  0.00     0.029 A 
ENDROOT
BRANCH   1   7
HETATM    7  N   UNL     1      -3.336   4.483 -30.895  1.00  0.00    -0.325 N 
HETATM    8  C   UNL     1      -2.299   4.779 -31.765  1.00  0.00     0.251 C 
HETATM    9  O   UNL     1      -1.916   4.081 -32.700  1.00  0.00    -0.270 OA
HETATM   10  H   UNL     1      -3.484   5.150 -30.144  1.00  0.00     0.169 HD
BRANCH   8  11
HETATM   11  C   UNL     1      -1.585   6.100 -31.435  1.00  0.00     0.217 C 
HETATM   12  C   UNL     1      -0.850   6.609 -32.671  1.00  0.00     0.050 C 
BRANCH  11  13
HETATM   13  O   UNL     1      -0.608   5.926 -30.401  1.00  0.00    -0.337 OA
BRANCH  13  14
HETATM   14  C   UNL     1      -0.693   6.861 -29.402  1.00  0.00     0.070 A 
HETATM   15  C   UNL     1      -1.898   7.251 -28.814  1.00  0.00     0.043 A 
HETATM   16  C   UNL     1      -1.905   8.208 -27.791  1.00  0.00    -0.059 A 
HETATM   17  C   UNL     1      -3.192   8.633 -27.145  1.00  0.00     0.048 C 
HETATM   18  C   UNL     1      -0.690   8.754 -27.355  1.00  0.00     0.013 A 
HETATM   19  C   UNL     1       0.524   8.354 -27.929  1.00  0.00    -0.059 A 
HETATM   20  C   UNL     1       0.513   7.388 -28.943  1.00  0.00     0.043 A 
HETATM   21  C   UNL     1       1.815   8.933 -27.431  1.00  0.00     0.048 C 
ENDBRANCH  13  14
ENDBRANCH  11  13
ENDBRANCH   8  11
ENDBRANCH   1   7
BRANCH   3  22
HETATM   22  C   UNL     1      -4.416  -0.265 -31.940  1.00  0.00     0.181 A 
HETATM   23  O   UNL     1      -4.992  -0.655 -33.124  1.00  0.00    -0.289 OA
HETATM   24  C   UNL     1      -4.532  -1.924 -33.315  1.00  0.00     0.106 A 
HETATM   25  C   UNL     1      -3.702  -2.237 -32.252  1.00  0.00     0.093 A 
HETATM   26  C   UNL     1      -4.829  -2.777 -34.370  1.00  0.00     0.040 A 
HETATM   27  N   UNL     1      -3.632  -1.175 -31.384  1.00  0.00    -0.221 NA
HETATM   28  C   UNL     1      -3.102  -3.503 -32.213  1.00  0.00     0.034 A 
HETATM   29  C   UNL     1      -3.378  -4.397 -33.259  1.00  0.00     0.002 A 
HETATM   30  C   UNL     1      -4.224  -4.039 -34.316  1.00  0.00     0.003 A 
ENDBRANCH   3  22
TORSDOF 5
ENDMDL
MODEL 7
REMARK VINA RESULT:      -8.6      2.770      9.430
REMARK  5 active torsions:
REMARK  status: ('A' for Active; 'I' for Inactive)
REMARK    1  A    between atoms: C_4  and  O_5 
REMARK    2  A    between atoms: O_5  and  C_6 
REMARK    3  A    between atoms: C_6  and  C_7 
REMARK       I    between atoms: C_7  and  N_8 
REMARK    4  A    between atoms: N_8  and  C_9 
REMARK    5  A    between atoms: C_11  and  C_12 
ROOT
HETATM    1  C   UNL     1      -7.081   3.876 -31.138  1.00  0.00     0.035 A 
HETATM    2  C   UNL     1      -6.620   2.705 -31.748  1.00  0.00     0.045 A 
HETATM    3  C   UNL     1      -7.457   1.587 -31.901  1.00  0.00     0.019 A 
HETATM    4  C   UNL     1      -8.765   1.651 -31.401  1.00  0.00     0.016 A 
HETATM    5  C   UNL     1      -9.235   2.812 -30.786  1.00  0.00     0.003 A 
HETATM    6  C   UNL     1      -8.399   3.923 -30.668  1.00  0.00     0.029 A 
ENDROOT
BRANCH   1   7
HETATM    7  N   UNL     1      -6.301   5.040 -30.990  1.00  0.00    -0.325 N 
HETATM    8  C   UNL     1      -5.609   5.456 -29.865  1.00  0.00     0.251 C 
HETATM    9  O   UNL     1      -5.622   4.914 -28.763  1.00  0.00    -0.270 OA
HETATM   10  H   UNL     1      -6.217   5.639 -31.806  1.00  0.00     0.169 HD
BRANCH   8  11
HETATM   11  C   UNL     1      -4.805   6.748 -30.087  1.00  0.00     0.217 C 
HETATM   12  C   UNL     1      -5.563   7.932 -29.495  1.00  0.00     0.050 C 
BRANCH  11  13
HETATM   13  O   UNL     1      -4.618   7.017 -31.482  1.00  0.00    -0.337 OA
BRANCH  13  14
HETATM   14  C   UNL     1      -3.384   6.649 -31.951  1.00  0.00     0.070 A 
HETATM   15  C   UNL     1      -3.181   6.049 -33.196  1.00  0.00     0.043 A 
HETATM   16  C   UNL     1      -1.888   5.708 -33.612  1.00  0.00    -0.059 A 
HETATM   17  C   UNL     1      -1.654   5.069 -34.949  1.00  0.00     0.048 C 
HETATM   18  C   UNL     1      -0.801   5.993 -32.773  1.00  0.00     0.013 A 
HETATM   19  C   UNL     1      -0.996   6.611 -31.530  1.00  0.00    -0.059 A 
HETATM   20  C   UNL     1      -2.294   6.954 -31.136  1.00  0.00     0.043 A 
HETATM   21  C   UNL     1       0.183   6.928 -30.659  1.00  0.00     0.048 C 
ENDBRANCH  13  14
ENDBRANCH  11  13
ENDBRANCH   8  11
ENDBRANCH   1   7
BRANCH   3  22
HETATM   22  C   UNL     1      -7.010   0.379 -32.593  1.00  0.00     0.181 A 
HETATM   23  O   UNL     1      -5.663   0.115 -32.559  1.00  0.00    -0.289 OA
HETATM   24  C   UNL     1      -5.526  -1.011 -33.314  1.00  0.00     0.106 A 
HETATM   25  C   UNL     1      -6.784  -1.376 -33.762  1.00  0.00     0.093 A 
HETATM   26  C   UNL     1      -4.350  -1.690 -33.608  1.00  0.00     0.040 A 
HETATM   27  N   UNL     1      -7.721  -0.488 -33.296  1.00  0.00    -0.221 NA
HETATM   28  C   UNL     1      -6.910  -2.512 -34.572  1.00  0.00     0.034 A 
HETATM   29  C   UNL     1      -5.745  -3.226 -34.895  1.00  0.00     0.002 A 
HETATM   30  C   UNL     1      -4.491  -2.821 -34.421  1.00  0.00     0.003 A 
ENDBRANCH   3  22
TORSDOF 5
ENDMDL
MODEL 8
REMARK VINA RESULT:      -8.5      2.855      4.040
REMARK  5 active torsions:
REMARK  status: ('A' for Active; 'I' for Inactive)
REMARK    1  A    between atoms: C_4  and  O_5 
REMARK    2  A    between atoms: O_5  and  C_6 
REMARK    3  A    between atoms: C_6  and  C_7 
REMARK       I    between atoms: C_7  and  N_8 
REMARK    4  A    between atoms: N_8  and  C_9 
REMARK    5  A    between atoms: C_11  and  C_12 
ROOT
HETATM    1  C   UNL     1      -7.061   4.569 -32.112  1.00  0.00     0.035 A 
HETATM    2  C   UNL     1      -5.727   4.817 -31.773  1.00  0.00     0.045 A 
HETATM    3  C   UNL     1      -5.262   6.128 -31.565  1.00  0.00     0.019 A 
HETATM    4  C   UNL     1      -6.155   7.194 -31.736  1.00  0.00     0.016 A 
HETATM    5  C   UNL     1      -7.486   6.959 -32.079  1.00  0.00     0.003 A 
HETATM    6  C   UNL     1      -7.938   5.650 -32.254  1.00  0.00     0.029 A 
ENDROOT
BRANCH   1   7
HETATM    7  N   UNL     1      -7.593   3.277 -32.297  1.00  0.00    -0.325 N 
HETATM    8  C   UNL     1      -7.273   2.364 -33.287  1.00  0.00     0.251 C 
HETATM    9  O   UNL     1      -6.518   2.559 -34.236  1.00  0.00    -0.270 OA
HETATM   10  H   UNL     1      -8.278   2.966 -31.614  1.00  0.00     0.169 HD
BRANCH   8  11
HETATM   11  C   UNL     1      -8.005   1.021 -33.137  1.00  0.00     0.217 C 
HETATM   12  C   UNL     1      -9.445   1.267 -32.695  1.00  0.00     0.050 C 
BRANCH  11  13
HETATM   13  O   UNL     1      -7.390   0.195 -32.140  1.00  0.00    -0.337 OA
BRANCH  13  14
HETATM   14  C   UNL     1      -6.397  -0.612 -32.633  1.00  0.00     0.070 A 
HETATM   15  C   UNL     1      -6.585  -1.507 -33.687  1.00  0.00     0.043 A 
HETATM   16  C   UNL     1      -5.520  -2.294 -34.143  1.00  0.00    -0.059 A 
HETATM   17  C   UNL     1      -5.705  -3.257 -35.279  1.00  0.00     0.048 C 
HETATM   18  C   UNL     1      -4.261  -2.157 -33.540  1.00  0.00     0.013 A 
HETATM   19  C   UNL     1      -4.061  -1.247 -32.494  1.00  0.00    -0.059 A 
HETATM   20  C   UNL     1      -5.135  -0.462 -32.059  1.00  0.00     0.043 A 
HETATM   21  C   UNL     1      -2.700  -1.100 -31.880  1.00  0.00     0.048 C 
ENDBRANCH  13  14
ENDBRANCH  11  13
ENDBRANCH   8  11
ENDBRANCH   1   7
BRANCH   3  22
HETATM   22  C   UNL     1      -3.887   6.400 -31.147  1.00  0.00     0.181 A 
HETATM   23  O   UNL     1      -2.915   6.260 -32.107  1.00  0.00    -0.289 OA
HETATM   24  C   UNL     1      -1.753   6.512 -31.441  1.00  0.00     0.106 A 
HETATM   25  C   UNL     1      -2.073   6.797 -30.125  1.00  0.00     0.093 A 
HETATM   26  C   UNL     1      -0.464   6.489 -31.959  1.00  0.00     0.040 A 
HETATM   27  N   UNL     1      -3.432   6.725 -29.948  1.00  0.00    -0.221 NA
HETATM   28  C   UNL     1      -1.038   7.088 -29.226  1.00  0.00     0.034 A 
HETATM   29  C   UNL     1       0.280   7.073 -29.707  1.00  0.00     0.002 A 
HETATM   30  C   UNL     1       0.559   6.779 -31.049  1.00  0.00     0.003 A 
ENDBRANCH   3  22
TORSDOF 5
ENDMDL
MODEL 9
REMARK VINA RESULT:      -8.4      4.937      9.274
REMARK  5 active torsions:
REMARK  status: ('A' for Active; 'I' for Inactive)
REMARK    1  A    between atoms: C_4  and  O_5 
REMARK    2  A    between atoms: O_5  and  C_6 
REMARK    3  A    between atoms: C_6  and  C_7 
REMARK       I    between atoms: C_7  and  N_8 
REMARK    4  A    between atoms: N_8  and  C_9 
REMARK    5  A    between atoms: C_11  and  C_12 
ROOT
HETATM    1  C   UNL     1      -5.894   2.781 -32.192  1.00  0.00     0.035 A 
HETATM    2  C   UNL     1      -5.953   1.494 -32.736  1.00  0.00     0.045 A 
HETATM    3  C   UNL     1      -4.806   0.686 -32.817  1.00  0.00     0.019 A 
HETATM    4  C   UNL     1      -3.583   1.205 -32.370  1.00  0.00     0.016 A 
HETATM    5  C   UNL     1      -3.511   2.489 -31.830  1.00  0.00     0.003 A 
HETATM    6  C   UNL     1      -4.665   3.267 -31.730  1.00  0.00     0.029 A 
ENDROOT
BRANCH   1   7
HETATM    7  N   UNL     1      -7.015   3.623 -32.050  1.00  0.00    -0.325 N 
HETATM    8  C   UNL     1      -7.839   3.754 -30.945  1.00  0.00     0.251 C 
HETATM    9  O   UNL     1      -7.781   3.089 -29.914  1.00  0.00    -0.270 OA
HETATM   10  H   UNL     1      -7.237   4.221 -32.839  1.00  0.00     0.169 HD
BRANCH   8  11
HETATM   11  C   UNL     1      -8.929   4.823 -31.121  1.00  0.00     0.217 C 
HETATM   12  C   UNL     1      -8.473   6.131 -30.480  1.00  0.00     0.050 C 
BRANCH  11  13
HETATM   13  O   UNL     1     -10.151   4.439 -30.480  1.00  0.00    -0.337 OA
BRANCH  13  14
HETATM   14  C   UNL     1     -11.087   3.929 -31.343  1.00  0.00     0.070 A 
HETATM   15  C   UNL     1     -10.776   3.047 -32.380  1.00  0.00     0.043 A 
HETATM   16  C   UNL     1     -11.788   2.561 -33.218  1.00  0.00    -0.059 A 
HETATM   17  C   UNL     1     -11.471   1.608 -34.333  1.00  0.00     0.048 C 
HETATM   18  C   UNL     1     -13.114   2.954 -32.990  1.00  0.00     0.013 A 
HETATM   19  C   UNL     1     -13.435   3.825 -31.939  1.00  0.00    -0.059 A 
HETATM   20  C   UNL     1     -12.412   4.292 -31.106  1.00  0.00     0.043 A 
HETATM   21  C   UNL     1     -14.863   4.214 -31.699  1.00  0.00     0.048 C 
ENDBRANCH  13  14
ENDBRANCH  11  13
ENDBRANCH   8  11
ENDBRANCH   1   7
BRANCH   3  22
HETATM   22  C   UNL     1      -4.864  -0.685 -33.325  1.00  0.00     0.181 A 
HETATM   23  O   UNL     1      -6.055  -1.085 -33.878  1.00  0.00    -0.289 OA
HETATM   24  C   UNL     1      -5.847  -2.391 -34.206  1.00  0.00     0.106 A 
HETATM   25  C   UNL     1      -4.551  -2.716 -33.846  1.00  0.00     0.093 A 
HETATM   26  C   UNL     1      -6.753  -3.267 -34.790  1.00  0.00     0.040 A 
HETATM   27  N   UNL     1      -3.933  -1.624 -33.288  1.00  0.00    -0.221 NA
HETATM   28  C   UNL     1      -4.092  -4.019 -34.077  1.00  0.00     0.034 A 
HETATM   29  C   UNL     1      -4.977  -4.938 -34.664  1.00  0.00     0.002 A 
HETATM   30  C   UNL     1      -6.282  -4.566 -35.013  1.00  0.00     0.003 A 
ENDBRANCH   3  22
TORSDOF 5
ENDMDL
MODEL 10
REMARK VINA RESULT:      -8.4      6.326     10.501
REMARK  5 active torsions:
REMARK  status: ('A' for Active; 'I' for Inactive)
REMARK    1  A    between atoms: C_4  and  O_5 
REMARK    2  A    between atoms: O_5  and  C_6 
REMARK    3  A    between atoms: C_6  and  C_7 
REMARK       I    between atoms: C_7  and  N_8 
REMARK    4  A    between atoms: N_8  and  C_9 
REMARK    5  A    between atoms: C_11  and  C_12 
ROOT
HETATM    1  C   UNL     1      -8.210   2.549 -33.733  1.00  0.00     0.035 A 
HETATM    2  C   UNL     1      -7.947   1.204 -34.009  1.00  0.00     0.045 A 
HETATM    3  C   UNL     1      -6.666   0.658 -33.811  1.00  0.00     0.019 A 
HETATM    4  C   UNL     1      -5.639   1.497 -33.360  1.00  0.00     0.016 A 
HETATM    5  C   UNL     1      -5.888   2.842 -33.085  1.00  0.00     0.003 A 
HETATM    6  C   UNL     1      -7.172   3.360 -33.260  1.00  0.00     0.029 A 
ENDROOT
BRANCH   1   7
HETATM    7  N   UNL     1      -9.479   3.143 -33.876  1.00  0.00    -0.325 N 
HETATM    8  C   UNL     1     -10.401   3.416 -32.880  1.00  0.00     0.251 C 
HETATM    9  O   UNL     1     -10.302   3.108 -31.695  1.00  0.00    -0.270 OA
HETATM   10  H   UNL     1      -9.747   3.425 -34.814  1.00  0.00     0.169 HD
BRANCH   8  11
HETATM   11  C   UNL     1     -11.658   4.137 -33.394  1.00  0.00     0.217 C 
HETATM   12  C   UNL     1     -11.280   5.522 -33.913  1.00  0.00     0.050 C 
BRANCH  11  13
HETATM   13  O   UNL     1     -12.622   4.323 -32.350  1.00  0.00    -0.337 OA
BRANCH  13  14
HETATM   14  C   UNL     1     -13.730   3.526 -32.479  1.00  0.00     0.070 A 
HETATM   15  C   UNL     1     -15.001   3.899 -32.035  1.00  0.00     0.043 A 
HETATM   16  C   UNL     1     -16.089   3.034 -32.209  1.00  0.00    -0.059 A 
HETATM   17  C   UNL     1     -17.462   3.423 -31.743  1.00  0.00     0.048 C 
HETATM   18  C   UNL     1     -15.890   1.802 -32.848  1.00  0.00     0.013 A 
HETATM   19  C   UNL     1     -14.621   1.430 -33.311  1.00  0.00    -0.059 A 
HETATM   20  C   UNL     1     -13.547   2.312 -33.139  1.00  0.00     0.043 A 
HETATM   21  C   UNL     1     -14.435   0.118 -34.013  1.00  0.00     0.048 C 
ENDBRANCH  13  14
ENDBRANCH  11  13
ENDBRANCH   8  11
ENDBRANCH   1   7
BRANCH   3  22
HETATM   22  C   UNL     1      -6.391  -0.761 -34.034  1.00  0.00     0.181 A 
HETATM   23  O   UNL     1      -5.142  -1.208 -33.679  1.00  0.00    -0.289 OA
HETATM   24  C   UNL     1      -5.143  -2.521 -34.041  1.00  0.00     0.106 A 
HETATM   25  C   UNL     1      -6.382  -2.808 -34.587  1.00  0.00     0.093 A 
HETATM   26  C   UNL     1      -4.103  -3.432 -33.908  1.00  0.00     0.040 A 
HETATM   27  N   UNL     1      -7.170  -1.683 -34.576  1.00  0.00    -0.221 NA
HETATM   28  C   UNL     1      -6.634  -4.108 -35.047  1.00  0.00     0.034 A 
HETATM   29  C   UNL     1      -5.608  -5.060 -34.933  1.00  0.00     0.002 A 
HETATM   30  C   UNL     1      -4.368  -4.726 -34.373  1.00  0.00     0.003 A 
ENDBRANCH   3  22
TORSDOF 5
ENDMDL
