MODEL 1
REMARK VINA RESULT:      -7.7      0.000      0.000
REMARK  8 active torsions:
REMARK  status: ('A' for Active; 'I' for Inactive)
REMARK    1  A    between atoms: C_2  and  N_3 
REMARK    2  A    between atoms: C_2  and  C_17 
REMARK    3  A    between atoms: N_3  and  C_6 
REMARK    4  A    between atoms: C_6  and  C_7 
REMARK    5  A    between atoms: C_7  and  O_8 
REMARK    6  A    between atoms: C_7  and  C_9 
REMARK    7  A    between atoms: C_11  and  O_12 
REMARK    8  A    between atoms: C_17  and  C_18 
ROOT
HETATM    1  N   UNL     1      -5.552   3.546 -33.603  1.00  0.00    -0.068 N 
HETATM    2  H   UNL     1      -4.922   2.945 -34.151  1.00  0.00     0.277 HD
HETATM    3  H   UNL     1      -6.452   3.488 -34.114  1.00  0.00     0.277 HD
ENDROOT
BRANCH   1   4
HETATM    4  C   UNL     1      -5.654   3.004 -32.198  1.00  0.00     0.188 C 
HETATM    5  C   UNL     1      -5.564   4.211 -31.259  1.00  0.00     0.040 C 
BRANCH   4   6
HETATM    6  C   UNL     1      -4.543   1.974 -31.923  1.00  0.00     0.099 C 
BRANCH   6   7
HETATM    7  C   UNL     1      -4.818   0.679 -32.621  1.00  0.00     0.078 A 
HETATM    8  S   UNL     1      -3.550  -0.434 -32.919  1.00  0.00    -0.073 SA
HETATM    9  C   UNL     1      -4.672  -1.514 -33.657  1.00  0.00     0.035 A 
HETATM   10  C   UNL     1      -5.943  -0.934 -33.633  1.00  0.00     0.074 A 
HETATM   11  C   UNL     1      -4.445  -2.781 -34.218  1.00  0.00     0.021 A 
HETATM   12  N   UNL     1      -6.009   0.322 -33.044  1.00  0.00    -0.245 NA
HETATM   13  C   UNL     1      -7.025  -1.648 -34.185  1.00  0.00     0.033 A 
HETATM   14  C   UNL     1      -6.810  -2.913 -34.743  1.00  0.00     0.002 A 
HETATM   15  C   UNL     1      -5.535  -3.469 -34.758  1.00  0.00     0.002 A 
ENDBRANCH   6   7
ENDBRANCH   4   6
ENDBRANCH   1   4
BRANCH   1  16
HETATM   16  C   UNL     1      -5.076   4.971 -33.764  1.00  0.00     0.269 C 
BRANCH  16  17
HETATM   17  C   UNL     1      -3.671   4.926 -34.404  1.00  0.00     0.177 C 
BRANCH  17  18
HETATM   18  O   UNL     1      -3.732   5.685 -35.625  1.00  0.00    -0.389 OA
HETATM   19  H   UNL     1      -4.274   5.161 -36.251  1.00  0.00     0.210 HD
ENDBRANCH  17  18
BRANCH  17  20
HETATM   20  C   UNL     1      -2.600   5.445 -33.479  1.00  0.00    -0.025 A 
HETATM   21  C   UNL     1      -2.051   4.635 -32.465  1.00  0.00     0.046 A 
HETATM   22  C   UNL     1      -1.046   5.127 -31.629  1.00  0.00     0.068 A 
HETATM   23  C   UNL     1      -0.570   6.424 -31.819  1.00  0.00     0.037 A 
HETATM   24  C   UNL     1      -1.101   7.235 -32.821  1.00  0.00     0.003 A 
HETATM   25  C   UNL     1      -2.111   6.749 -33.647  1.00  0.00     0.010 A 
BRANCH  22  26
HETATM   26  O   UNL     1      -0.442   4.443 -30.612  1.00  0.00    -0.356 OA
HETATM   27  C   UNL     1       0.761   4.982 -30.083  1.00  0.00     0.210 C 
ENDBRANCH  22  26
ENDBRANCH  17  20
ENDBRANCH  16  17
ENDBRANCH   1  16
TORSDOF 8
ENDMDL
MODEL 2
REMARK VINA RESULT:      -7.6      3.476      6.827
REMARK  8 active torsions:
REMARK  status: ('A' for Active; 'I' for Inactive)
REMARK    1  A    between atoms: C_2  and  N_3 
REMARK    2  A    between atoms: C_2  and  C_17 
REMARK    3  A    between atoms: N_3  and  C_6 
REMARK    4  A    between atoms: C_6  and  C_7 
REMARK    5  A    between atoms: C_7  and  O_8 
REMARK    6  A    between atoms: C_7  and  C_9 
REMARK    7  A    between atoms: C_11  and  O_12 
REMARK    8  A    between atoms: C_17  and  C_18 
ROOT
HETATM    1  N   UNL     1      -3.123   1.729 -31.199  1.00  0.00    -0.068 N 
HETATM    2  H   UNL     1      -2.168   1.627 -31.568  1.00  0.00     0.277 HD
HETATM    3  H   UNL     1      -2.975   2.035 -30.219  1.00  0.00     0.277 HD
ENDROOT
BRANCH   1   4
HETATM    4  C   UNL     1      -3.862   2.762 -32.016  1.00  0.00     0.188 C 
HETATM    5  C   UNL     1      -2.867   3.894 -32.286  1.00  0.00     0.040 C 
BRANCH   4   6
HETATM    6  C   UNL     1      -5.116   3.258 -31.271  1.00  0.00     0.099 C 
BRANCH   6   7
HETATM    7  C   UNL     1      -6.367   2.733 -31.904  1.00  0.00     0.078 A 
HETATM    8  S   UNL     1      -6.929   3.381 -33.387  1.00  0.00    -0.073 SA
HETATM    9  C   UNL     1      -8.256   2.283 -33.364  1.00  0.00     0.035 A 
HETATM   10  C   UNL     1      -8.178   1.502 -32.208  1.00  0.00     0.074 A 
HETATM   11  C   UNL     1      -9.291   2.124 -34.300  1.00  0.00     0.021 A 
HETATM   12  N   UNL     1      -7.097   1.776 -31.380  1.00  0.00    -0.245 NA
HETATM   13  C   UNL     1      -9.169   0.525 -31.982  1.00  0.00     0.033 A 
HETATM   14  C   UNL     1     -10.202   0.355 -32.909  1.00  0.00     0.002 A 
HETATM   15  C   UNL     1     -10.260   1.147 -34.052  1.00  0.00     0.002 A 
ENDBRANCH   6   7
ENDBRANCH   4   6
ENDBRANCH   1   4
BRANCH   1  16
HETATM   16  C   UNL     1      -3.728   0.348 -31.114  1.00  0.00     0.269 C 
BRANCH  16  17
HETATM   17  C   UNL     1      -3.143  -0.492 -32.271  1.00  0.00     0.177 C 
BRANCH  17  18
HETATM   18  O   UNL     1      -2.343  -1.533 -31.682  1.00  0.00    -0.389 OA
HETATM   19  H   UNL     1      -2.065  -2.118 -32.416  1.00  0.00     0.210 HD
ENDBRANCH  17  18
BRANCH  17  20
HETATM   20  C   UNL     1      -4.212  -1.053 -33.173  1.00  0.00    -0.025 A 
HETATM   21  C   UNL     1      -4.194  -2.400 -33.583  1.00  0.00     0.046 A 
HETATM   22  C   UNL     1      -5.203  -2.908 -34.404  1.00  0.00     0.068 A 
HETATM   23  C   UNL     1      -6.249  -2.074 -34.799  1.00  0.00     0.037 A 
HETATM   24  C   UNL     1      -6.283  -0.740 -34.397  1.00  0.00     0.003 A 
HETATM   25  C   UNL     1      -5.270  -0.230 -33.588  1.00  0.00     0.010 A 
BRANCH  22  26
HETATM   26  O   UNL     1      -5.290  -4.189 -34.870  1.00  0.00    -0.356 OA
HETATM   27  C   UNL     1      -6.542  -4.614 -35.390  1.00  0.00     0.210 C 
ENDBRANCH  22  26
ENDBRANCH  17  20
ENDBRANCH  16  17
ENDBRANCH   1  16
TORSDOF 8
ENDMDL
MODEL 3
REMARK VINA RESULT:      -7.4      4.699      7.764
REMARK  8 active torsions:
REMARK  status: ('A' for Active; 'I' for Inactive)
REMARK    1  A    between atoms: C_2  and  N_3 
REMARK    2  A    between atoms: C_2  and  C_17 
REMARK    3  A    between atoms: N_3  and  C_6 
REMARK    4  A    between atoms: C_6  and  C_7 
REMARK    5  A    between atoms: C_7  and  O_8 
REMARK    6  A    between atoms: C_7  and  C_9 
REMARK    7  A    between atoms: C_11  and  O_12 
REMARK    8  A    between atoms: C_17  and  C_18 
ROOT
HETATM    1  N   UNL     1      -7.303   1.974 -31.510  1.00  0.00    -0.068 N 
HETATM    2  H   UNL     1      -7.837   1.470 -30.790  1.00  0.00     0.277 HD
HETATM    3  H   UNL     1      -7.263   2.946 -31.151  1.00  0.00     0.277 HD
ENDROOT
BRANCH   1   4
HETATM    4  C   UNL     1      -5.933   1.353 -31.638  1.00  0.00     0.188 C 
HETATM    5  C   UNL     1      -4.967   2.273 -30.886  1.00  0.00     0.040 C 
BRANCH   4   6
HETATM    6  C   UNL     1      -5.540   1.187 -33.118  1.00  0.00     0.099 C 
BRANCH   6   7
HETATM    7  C   UNL     1      -5.429  -0.259 -33.493  1.00  0.00     0.078 A 
HETATM    8  S   UNL     1      -3.961  -1.107 -33.255  1.00  0.00    -0.073 SA
HETATM    9  C   UNL     1      -4.687  -2.540 -33.877  1.00  0.00     0.035 A 
HETATM   10  C   UNL     1      -6.009  -2.259 -34.236  1.00  0.00     0.074 A 
HETATM   11  C   UNL     1      -4.131  -3.819 -34.038  1.00  0.00     0.021 A 
HETATM   12  N   UNL     1      -6.415  -0.949 -34.016  1.00  0.00    -0.245 NA
HETATM   13  C   UNL     1      -6.801  -3.294 -34.770  1.00  0.00     0.033 A 
HETATM   14  C   UNL     1      -6.258  -4.574 -34.930  1.00  0.00     0.002 A 
HETATM   15  C   UNL     1      -4.939  -4.829 -34.568  1.00  0.00     0.002 A 
ENDBRANCH   6   7
ENDBRANCH   4   6
ENDBRANCH   1   4
BRANCH   1  16
HETATM   16  C   UNL     1      -8.159   2.029 -32.754  1.00  0.00     0.269 C 
BRANCH  16  17
HETATM   17  C   UNL     1      -9.208   0.900 -32.651  1.00  0.00     0.177 C 
BRANCH  17  18
HETATM   18  O   UNL     1      -9.491   0.706 -31.254  1.00  0.00    -0.389 OA
HETATM   19  H   UNL     1     -10.463   0.780 -31.155  1.00  0.00     0.210 HD
ENDBRANCH  17  18
BRANCH  17  20
HETATM   20  C   UNL     1     -10.458   1.203 -33.437  1.00  0.00    -0.025 A 
HETATM   21  C   UNL     1     -11.604   0.390 -33.334  1.00  0.00     0.046 A 
HETATM   22  C   UNL     1     -12.761   0.696 -34.055  1.00  0.00     0.068 A 
HETATM   23  C   UNL     1     -12.782   1.832 -34.865  1.00  0.00     0.037 A 
HETATM   24  C   UNL     1     -11.657   2.648 -34.972  1.00  0.00     0.003 A 
HETATM   25  C   UNL     1     -10.500   2.336 -34.263  1.00  0.00     0.010 A 
BRANCH  22  26
HETATM   26  O   UNL     1     -13.927  -0.015 -34.042  1.00  0.00    -0.356 OA
HETATM   27  C   UNL     1     -15.126   0.687 -34.335  1.00  0.00     0.210 C 
ENDBRANCH  22  26
ENDBRANCH  17  20
ENDBRANCH  16  17
ENDBRANCH   1  16
TORSDOF 8
ENDMDL
MODEL 4
REMARK VINA RESULT:      -7.4      4.756      6.981
REMARK  8 active torsions:
REMARK  status: ('A' for Active; 'I' for Inactive)
REMARK    1  A    between atoms: C_2  and  N_3 
REMARK    2  A    between atoms: C_2  and  C_17 
REMARK    3  A    between atoms: N_3  and  C_6 
REMARK    4  A    between atoms: C_6  and  C_7 
REMARK    5  A    between atoms: C_7  and  O_8 
REMARK    6  A    between atoms: C_7  and  C_9 
REMARK    7  A    between atoms: C_11  and  O_12 
REMARK    8  A    between atoms: C_17  and  C_18 
ROOT
HETATM    1  N   UNL     1      -7.831   0.541 -31.797  1.00  0.00    -0.068 N 
HETATM    2  H   UNL     1      -7.807  -0.229 -32.479  1.00  0.00     0.277 HD
HETATM    3  H   UNL     1      -7.880   0.056 -30.882  1.00  0.00     0.277 HD
ENDROOT
BRANCH   1   4
HETATM    4  C   UNL     1      -6.577   1.369 -31.941  1.00  0.00     0.188 C 
HETATM    5  C   UNL     1      -6.983   2.821 -31.671  1.00  0.00     0.040 C 
BRANCH   4   6
HETATM    6  C   UNL     1      -5.958   1.192 -33.340  1.00  0.00     0.099 C 
BRANCH   6   7
HETATM    7  C   UNL     1      -5.732  -0.254 -33.655  1.00  0.00     0.078 A 
HETATM    8  S   UNL     1      -4.202  -0.974 -33.384  1.00  0.00    -0.073 SA
HETATM    9  C   UNL     1      -4.811  -2.483 -33.947  1.00  0.00     0.035 A 
HETATM   10  C   UNL     1      -6.150  -2.322 -34.315  1.00  0.00     0.074 A 
HETATM   11  C   UNL     1      -4.155  -3.720 -34.055  1.00  0.00     0.021 A 
HETATM   12  N   UNL     1      -6.659  -1.041 -34.150  1.00  0.00    -0.245 NA
HETATM   13  C   UNL     1      -6.857  -3.438 -34.806  1.00  0.00     0.033 A 
HETATM   14  C   UNL     1      -6.214  -4.676 -34.914  1.00  0.00     0.002 A 
HETATM   15  C   UNL     1      -4.879  -4.811 -34.543  1.00  0.00     0.002 A 
ENDBRANCH   6   7
ENDBRANCH   4   6
ENDBRANCH   1   4
BRANCH   1  16
HETATM   16  C   UNL     1      -9.155   1.252 -31.961  1.00  0.00     0.269 C 
BRANCH  16  17
HETATM   17  C   UNL     1      -9.844   0.674 -33.217  1.00  0.00     0.177 C 
BRANCH  17  18
HETATM   18  O   UNL     1     -10.799  -0.304 -32.768  1.00  0.00    -0.389 OA
HETATM   19  H   UNL     1     -11.633  -0.117 -33.246  1.00  0.00     0.210 HD
ENDBRANCH  17  18
BRANCH  17  20
HETATM   20  C   UNL     1     -10.494   1.742 -34.058  1.00  0.00    -0.025 A 
HETATM   21  C   UNL     1      -9.841   2.960 -34.331  1.00  0.00     0.046 A 
HETATM   22  C   UNL     1     -10.450   3.931 -35.129  1.00  0.00     0.068 A 
HETATM   23  C   UNL     1     -11.708   3.676 -35.677  1.00  0.00     0.037 A 
HETATM   24  C   UNL     1     -12.364   2.474 -35.420  1.00  0.00     0.003 A 
HETATM   25  C   UNL     1     -11.761   1.510 -34.615  1.00  0.00     0.010 A 
BRANCH  22  26
HETATM   26  O   UNL     1      -9.922   5.147 -35.457  1.00  0.00    -0.356 OA
HETATM   27  C   UNL     1     -10.463   6.292 -34.812  1.00  0.00     0.210 C 
ENDBRANCH  22  26
ENDBRANCH  17  20
ENDBRANCH  16  17
ENDBRANCH   1  16
TORSDOF 8
ENDMDL
MODEL 5
REMARK VINA RESULT:      -7.2      1.929      2.611
REMARK  8 active torsions:
REMARK  status: ('A' for Active; 'I' for Inactive)
REMARK    1  A    between atoms: C_2  and  N_3 
REMARK    2  A    between atoms: C_2  and  C_17 
REMARK    3  A    between atoms: N_3  and  C_6 
REMARK    4  A    between atoms: C_6  and  C_7 
REMARK    5  A    between atoms: C_7  and  O_8 
REMARK    6  A    between atoms: C_7  and  C_9 
REMARK    7  A    between atoms: C_11  and  O_12 
REMARK    8  A    between atoms: C_17  and  C_18 
ROOT
HETATM    1  N   UNL     1      -5.570   2.034 -31.514  1.00  0.00    -0.068 N 
HETATM    2  H   UNL     1      -5.822   1.661 -30.589  1.00  0.00     0.277 HD
HETATM    3  H   UNL     1      -4.906   1.331 -31.889  1.00  0.00     0.277 HD
ENDROOT
BRANCH   1   4
HETATM    4  C   UNL     1      -6.817   2.153 -32.358  1.00  0.00     0.188 C 
HETATM    5  C   UNL     1      -7.846   1.197 -31.747  1.00  0.00     0.040 C 
BRANCH   4   6
HETATM    6  C   UNL     1      -6.518   1.816 -33.831  1.00  0.00     0.099 C 
BRANCH   6   7
HETATM    7  C   UNL     1      -6.216   0.360 -34.005  1.00  0.00     0.078 A 
HETATM    8  S   UNL     1      -7.299  -0.656 -34.858  1.00  0.00    -0.073 SA
HETATM    9  C   UNL     1      -6.245  -1.994 -34.603  1.00  0.00     0.035 A 
HETATM   10  C   UNL     1      -5.137  -1.565 -33.867  1.00  0.00     0.074 A 
HETATM   11  C   UNL     1      -6.386  -3.327 -35.022  1.00  0.00     0.021 A 
HETATM   12  N   UNL     1      -5.139  -0.219 -33.527  1.00  0.00    -0.245 NA
HETATM   13  C   UNL     1      -4.135  -2.501 -33.541  1.00  0.00     0.033 A 
HETATM   14  C   UNL     1      -4.264  -3.830 -33.958  1.00  0.00     0.002 A 
HETATM   15  C   UNL     1      -5.377  -4.235 -34.688  1.00  0.00     0.002 A 
ENDBRANCH   6   7
ENDBRANCH   4   6
ENDBRANCH   1   4
BRANCH   1  16
HETATM   16  C   UNL     1      -4.760   3.290 -31.292  1.00  0.00     0.269 C 
BRANCH  16  17
HETATM   17  C   UNL     1      -3.283   2.954 -31.593  1.00  0.00     0.177 C 
BRANCH  17  18
HETATM   18  O   UNL     1      -3.267   1.718 -32.330  1.00  0.00    -0.389 OA
HETATM   19  H   UNL     1      -4.106   1.686 -32.836  1.00  0.00     0.210 HD
ENDBRANCH  17  18
BRANCH  17  20
HETATM   20  C   UNL     1      -2.583   4.058 -32.342  1.00  0.00    -0.025 A 
HETATM   21  C   UNL     1      -1.621   4.875 -31.716  1.00  0.00     0.046 A 
HETATM   22  C   UNL     1      -0.968   5.882 -32.431  1.00  0.00     0.068 A 
HETATM   23  C   UNL     1      -1.260   6.060 -33.784  1.00  0.00     0.037 A 
HETATM   24  C   UNL     1      -2.206   5.257 -34.418  1.00  0.00     0.003 A 
HETATM   25  C   UNL     1      -2.865   4.261 -33.702  1.00  0.00     0.010 A 
BRANCH  22  26
HETATM   26  O   UNL     1      -0.026   6.737 -31.935  1.00  0.00    -0.356 OA
HETATM   27  C   UNL     1       0.320   6.606 -30.563  1.00  0.00     0.210 C 
ENDBRANCH  22  26
ENDBRANCH  17  20
ENDBRANCH  16  17
ENDBRANCH   1  16
TORSDOF 8
ENDMDL
MODEL 6
REMARK VINA RESULT:      -7.2      1.903      2.400
REMARK  8 active torsions:
REMARK  status: ('A' for Active; 'I' for Inactive)
REMARK    1  A    between atoms: C_2  and  N_3 
REMARK    2  A    between atoms: C_2  and  C_17 
REMARK    3  A    between atoms: N_3  and  C_6 
REMARK    4  A    between atoms: C_6  and  C_7 
REMARK    5  A    between atoms: C_7  and  O_8 
REMARK    6  A    between atoms: C_7  and  C_9 
REMARK    7  A    between atoms: C_11  and  O_12 
REMARK    8  A    between atoms: C_17  and  C_18 
ROOT
HETATM    1  N   UNL     1      -4.262   4.557 -33.705  1.00  0.00    -0.068 N 
HETATM    2  H   UNL     1      -3.647   4.002 -33.095  1.00  0.00     0.277 HD
HETATM    3  H   UNL     1      -4.806   3.841 -34.222  1.00  0.00     0.277 HD
ENDROOT
BRANCH   1   4
HETATM    4  C   UNL     1      -5.141   5.439 -32.851  1.00  0.00     0.188 C 
HETATM    5  C   UNL     1      -4.509   5.462 -31.457  1.00  0.00     0.040 C 
BRANCH   4   6
HETATM    6  C   UNL     1      -6.588   4.910 -32.822  1.00  0.00     0.099 C 
BRANCH   6   7
HETATM    7  C   UNL     1      -6.631   3.432 -33.053  1.00  0.00     0.078 A 
HETATM    8  S   UNL     1      -6.492   2.342 -31.739  1.00  0.00    -0.073 SA
HETATM    9  C   UNL     1      -6.650   1.013 -32.823  1.00  0.00     0.035 A 
HETATM   10  C   UNL     1      -6.787   1.504 -34.125  1.00  0.00     0.074 A 
HETATM   11  C   UNL     1      -6.654  -0.363 -32.545  1.00  0.00     0.021 A 
HETATM   12  N   UNL     1      -6.767   2.887 -34.240  1.00  0.00    -0.245 NA
HETATM   13  C   UNL     1      -6.935   0.586 -35.184  1.00  0.00     0.033 A 
HETATM   14  C   UNL     1      -6.944  -0.787 -34.917  1.00  0.00     0.002 A 
HETATM   15  C   UNL     1      -6.804  -1.253 -33.613  1.00  0.00     0.002 A 
ENDBRANCH   6   7
ENDBRANCH   4   6
ENDBRANCH   1   4
BRANCH   1  16
HETATM   16  C   UNL     1      -3.390   5.236 -34.735  1.00  0.00     0.269 C 
BRANCH  16  17
HETATM   17  C   UNL     1      -1.919   4.912 -34.389  1.00  0.00     0.177 C 
BRANCH  17  18
HETATM   18  O   UNL     1      -1.126   5.242 -35.543  1.00  0.00    -0.389 OA
HETATM   19  H   UNL     1      -1.022   6.216 -35.539  1.00  0.00     0.210 HD
ENDBRANCH  17  18
BRANCH  17  20
HETATM   20  C   UNL     1      -1.444   5.641 -33.159  1.00  0.00    -0.025 A 
HETATM   21  C   UNL     1      -0.873   4.952 -32.072  1.00  0.00     0.046 A 
HETATM   22  C   UNL     1      -0.420   5.646 -30.947  1.00  0.00     0.068 A 
HETATM   23  C   UNL     1      -0.516   7.037 -30.917  1.00  0.00     0.037 A 
HETATM   24  C   UNL     1      -1.075   7.733 -31.987  1.00  0.00     0.003 A 
HETATM   25  C   UNL     1      -1.537   7.040 -33.104  1.00  0.00     0.010 A 
BRANCH  22  26
HETATM   26  O   UNL     1       0.143   5.090 -29.834  1.00  0.00    -0.356 OA
HETATM   27  C   UNL     1       0.351   5.937 -28.712  1.00  0.00     0.210 C 
ENDBRANCH  22  26
ENDBRANCH  17  20
ENDBRANCH  16  17
ENDBRANCH   1  16
TORSDOF 8
ENDMDL
MODEL 7
REMARK VINA RESULT:      -7.1      1.513      2.046
REMARK  8 active torsions:
REMARK  status: ('A' for Active; 'I' for Inactive)
REMARK    1  A    between atoms: C_2  and  N_3 
REMARK    2  A    between atoms: C_2  and  C_17 
REMARK    3  A    between atoms: N_3  and  C_6 
REMARK    4  A    between atoms: C_6  and  C_7 
REMARK    5  A    between atoms: C_7  and  O_8 
REMARK    6  A    between atoms: C_7  and  C_9 
REMARK    7  A    between atoms: C_11  and  O_12 
REMARK    8  A    between atoms: C_17  and  C_18 
ROOT
HETATM    1  N   UNL     1      -4.733   3.665 -32.935  1.00  0.00    -0.068 N 
HETATM    2  H   UNL     1      -4.897   3.982 -31.969  1.00  0.00     0.277 HD
HETATM    3  H   UNL     1      -3.746   3.347 -32.924  1.00  0.00     0.277 HD
ENDROOT
BRANCH   1   4
HETATM    4  C   UNL     1      -5.692   2.545 -33.258  1.00  0.00     0.188 C 
HETATM    5  C   UNL     1      -7.089   3.172 -33.311  1.00  0.00     0.040 C 
BRANCH   4   6
HETATM    6  C   UNL     1      -5.602   1.422 -32.207  1.00  0.00     0.099 C 
BRANCH   6   7
HETATM    7  C   UNL     1      -5.546   0.074 -32.856  1.00  0.00     0.078 A 
HETATM    8  S   UNL     1      -4.056  -0.759 -33.002  1.00  0.00    -0.073 SA
HETATM    9  C   UNL     1      -4.866  -2.074 -33.765  1.00  0.00     0.035 A 
HETATM   10  C   UNL     1      -6.227  -1.772 -33.863  1.00  0.00     0.074 A 
HETATM   11  C   UNL     1      -4.337  -3.285 -34.242  1.00  0.00     0.021 A 
HETATM   12  N   UNL     1      -6.599  -0.538 -33.347  1.00  0.00    -0.245 NA
HETATM   13  C   UNL     1      -7.089  -2.716 -34.457  1.00  0.00     0.033 A 
HETATM   14  C   UNL     1      -6.573  -3.927 -34.931  1.00  0.00     0.002 A 
HETATM   15  C   UNL     1      -5.214  -4.204 -34.824  1.00  0.00     0.002 A 
ENDBRANCH   6   7
ENDBRANCH   4   6
ENDBRANCH   1   4
BRANCH   1  16
HETATM   16  C   UNL     1      -4.765   4.885 -33.825  1.00  0.00     0.269 C 
BRANCH  16  17
HETATM   17  C   UNL     1      -3.348   5.073 -34.413  1.00  0.00     0.177 C 
BRANCH  17  18
HETATM   18  O   UNL     1      -3.495   5.747 -35.675  1.00  0.00    -0.389 OA
HETATM   19  H   UNL     1      -3.253   5.098 -36.367  1.00  0.00     0.210 HD
ENDBRANCH  17  18
BRANCH  17  20
HETATM   20  C   UNL     1      -2.435   5.827 -33.481  1.00  0.00    -0.025 A 
HETATM   21  C   UNL     1      -2.621   7.200 -33.222  1.00  0.00     0.046 A 
HETATM   22  C   UNL     1      -1.777   7.879 -32.341  1.00  0.00     0.068 A 
HETATM   23  C   UNL     1      -0.755   7.180 -31.696  1.00  0.00     0.037 A 
HETATM   24  C   UNL     1      -0.562   5.822 -31.939  1.00  0.00     0.003 A 
HETATM   25  C   UNL     1      -1.397   5.147 -32.827  1.00  0.00     0.010 A 
BRANCH  22  26
HETATM   26  O   UNL     1      -1.853   9.203 -32.016  1.00  0.00    -0.356 OA
HETATM   27  C   UNL     1      -2.416   9.537 -30.755  1.00  0.00     0.210 C 
ENDBRANCH  22  26
ENDBRANCH  17  20
ENDBRANCH  16  17
ENDBRANCH   1  16
TORSDOF 8
ENDMDL
MODEL 8
REMARK VINA RESULT:      -7.1      2.203      2.812
REMARK  8 active torsions:
REMARK  status: ('A' for Active; 'I' for Inactive)
REMARK    1  A    between atoms: C_2  and  N_3 
REMARK    2  A    between atoms: C_2  and  C_17 
REMARK    3  A    between atoms: N_3  and  C_6 
REMARK    4  A    between atoms: C_6  and  C_7 
REMARK    5  A    between atoms: C_7  and  O_8 
REMARK    6  A    between atoms: C_7  and  C_9 
REMARK    7  A    between atoms: C_11  and  O_12 
REMARK    8  A    between atoms: C_17  and  C_18 
ROOT
HETATM    1  N   UNL     1      -5.718   3.717 -31.565  1.00  0.00    -0.068 N 
HETATM    2  H   UNL     1      -5.397   2.905 -32.109  1.00  0.00     0.277 HD
HETATM    3  H   UNL     1      -6.052   4.380 -32.289  1.00  0.00     0.277 HD
ENDROOT
BRANCH   1   4
HETATM    4  C   UNL     1      -6.823   3.282 -30.632  1.00  0.00     0.188 C 
HETATM    5  C   UNL     1      -6.911   4.350 -29.537  1.00  0.00     0.040 C 
BRANCH   4   6
HETATM    6  C   UNL     1      -6.537   1.883 -30.054  1.00  0.00     0.099 C 
BRANCH   6   7
HETATM    7  C   UNL     1      -6.388   0.866 -31.143  1.00  0.00     0.078 A 
HETATM    8  S   UNL     1      -7.734   0.418 -32.103  1.00  0.00    -0.073 SA
HETATM    9  C   UNL     1      -6.735  -0.661 -33.000  1.00  0.00     0.035 A 
HETATM   10  C   UNL     1      -5.436  -0.608 -32.488  1.00  0.00     0.074 A 
HETATM   11  C   UNL     1      -7.074  -1.494 -34.079  1.00  0.00     0.021 A 
HETATM   12  N   UNL     1      -5.255   0.264 -31.422  1.00  0.00    -0.245 NA
HETATM   13  C   UNL     1      -4.441  -1.413 -33.077  1.00  0.00     0.033 A 
HETATM   14  C   UNL     1      -4.767  -2.244 -34.155  1.00  0.00     0.002 A 
HETATM   15  C   UNL     1      -6.069  -2.282 -34.646  1.00  0.00     0.002 A 
ENDBRANCH   6   7
ENDBRANCH   4   6
ENDBRANCH   1   4
BRANCH   1  16
HETATM   16  C   UNL     1      -4.500   4.360 -30.945  1.00  0.00     0.269 C 
BRANCH  16  17
HETATM   17  C   UNL     1      -3.260   3.846 -31.709  1.00  0.00     0.177 C 
BRANCH  17  18
HETATM   18  O   UNL     1      -3.686   2.734 -32.517  1.00  0.00    -0.389 OA
HETATM   19  H   UNL     1      -3.439   1.923 -32.027  1.00  0.00     0.210 HD
ENDBRANCH  17  18
BRANCH  17  20
HETATM   20  C   UNL     1      -2.609   4.921 -32.540  1.00  0.00    -0.025 A 
HETATM   21  C   UNL     1      -2.565   6.260 -32.103  1.00  0.00     0.046 A 
HETATM   22  C   UNL     1      -1.940   7.241 -32.878  1.00  0.00     0.068 A 
HETATM   23  C   UNL     1      -1.337   6.880 -34.083  1.00  0.00     0.037 A 
HETATM   24  C   UNL     1      -1.368   5.560 -34.525  1.00  0.00     0.003 A 
HETATM   25  C   UNL     1      -2.001   4.583 -33.759  1.00  0.00     0.010 A 
BRANCH  22  26
HETATM   26  O   UNL     1      -1.839   8.566 -32.564  1.00  0.00    -0.356 OA
HETATM   27  C   UNL     1      -2.272   8.969 -31.272  1.00  0.00     0.210 C 
ENDBRANCH  22  26
ENDBRANCH  17  20
ENDBRANCH  16  17
ENDBRANCH   1  16
TORSDOF 8
ENDMDL
MODEL 9
REMARK VINA RESULT:      -7.0      3.206      8.304
REMARK  8 active torsions:
REMARK  status: ('A' for Active; 'I' for Inactive)
REMARK    1  A    between atoms: C_2  and  N_3 
REMARK    2  A    between atoms: C_2  and  C_17 
REMARK    3  A    between atoms: N_3  and  C_6 
REMARK    4  A    between atoms: C_6  and  C_7 
REMARK    5  A    between atoms: C_7  and  O_8 
REMARK    6  A    between atoms: C_7  and  C_9 
REMARK    7  A    between atoms: C_11  and  O_12 
REMARK    8  A    between atoms: C_17  and  C_18 
ROOT
HETATM    1  N   UNL     1      -5.848   2.416 -31.648  1.00  0.00    -0.068 N 
HETATM    2  H   UNL     1      -6.300   2.903 -30.863  1.00  0.00     0.277 HD
HETATM    3  H   UNL     1      -6.638   1.956 -32.138  1.00  0.00     0.277 HD
ENDROOT
BRANCH   1   4
HETATM    4  C   UNL     1      -5.145   3.429 -32.520  1.00  0.00     0.188 C 
HETATM    5  C   UNL     1      -5.775   3.315 -33.911  1.00  0.00     0.040 C 
BRANCH   4   6
HETATM    6  C   UNL     1      -3.627   3.169 -32.549  1.00  0.00     0.099 C 
BRANCH   6   7
HETATM    7  C   UNL     1      -2.876   4.258 -31.847  1.00  0.00     0.078 A 
HETATM    8  S   UNL     1      -3.716   5.554 -31.106  1.00  0.00    -0.073 SA
HETATM    9  C   UNL     1      -2.217   6.230 -30.590  1.00  0.00     0.035 A 
HETATM   10  C   UNL     1      -1.174   5.413 -31.036  1.00  0.00     0.074 A 
HETATM   11  C   UNL     1      -1.980   7.397 -29.845  1.00  0.00     0.021 A 
HETATM   12  N   UNL     1      -1.566   4.295 -31.759  1.00  0.00    -0.245 NA
HETATM   13  C   UNL     1       0.151   5.776 -30.724  1.00  0.00     0.033 A 
HETATM   14  C   UNL     1       0.398   6.934 -29.979  1.00  0.00     0.002 A 
HETATM   15  C   UNL     1      -0.657   7.732 -29.547  1.00  0.00     0.002 A 
ENDBRANCH   6   7
ENDBRANCH   4   6
ENDBRANCH   1   4
BRANCH   1  16
HETATM   16  C   UNL     1      -5.012   1.299 -31.070  1.00  0.00     0.269 C 
BRANCH  16  17
HETATM   17  C   UNL     1      -5.896   0.033 -31.015  1.00  0.00     0.177 C 
BRANCH  17  18
HETATM   18  O   UNL     1      -7.194   0.438 -30.546  1.00  0.00    -0.389 OA
HETATM   19  H   UNL     1      -7.055   1.239 -29.999  1.00  0.00     0.210 HD
ENDBRANCH  17  18
BRANCH  17  20
HETATM   20  C   UNL     1      -5.978  -0.669 -32.346  1.00  0.00    -0.025 A 
HETATM   21  C   UNL     1      -4.927  -1.481 -32.814  1.00  0.00     0.046 A 
HETATM   22  C   UNL     1      -5.028  -2.140 -34.042  1.00  0.00     0.068 A 
HETATM   23  C   UNL     1      -6.194  -2.005 -34.796  1.00  0.00     0.037 A 
HETATM   24  C   UNL     1      -7.244  -1.208 -34.344  1.00  0.00     0.003 A 
HETATM   25  C   UNL     1      -7.138  -0.542 -33.125  1.00  0.00     0.010 A 
BRANCH  22  26
HETATM   26  O   UNL     1      -4.078  -2.946 -34.601  1.00  0.00    -0.356 OA
HETATM   27  C   UNL     1      -3.905  -4.240 -34.041  1.00  0.00     0.210 C 
ENDBRANCH  22  26
ENDBRANCH  17  20
ENDBRANCH  16  17
ENDBRANCH   1  16
TORSDOF 8
ENDMDL
MODEL 10
REMARK VINA RESULT:      -7.0      3.167      7.398
REMARK  8 active torsions:
REMARK  status: ('A' for Active; 'I' for Inactive)
REMARK    1  A    between atoms: C_2  and  N_3 
REMARK    2  A    between atoms: C_2  and  C_17 
REMARK    3  A    between atoms: N_3  and  C_6 
REMARK    4  A    between atoms: C_6  and  C_7 
REMARK    5  A    between atoms: C_7  and  O_8 
REMARK    6  A    between atoms: C_7  and  C_9 
REMARK    7  A    between atoms: C_11  and  O_12 
REMARK    8  A    between atoms: C_17  and  C_18 
ROOT
HETATM    1  N   UNL     1      -8.441   2.052 -30.850  1.00  0.00    -0.068 N 
HETATM    2  H   UNL     1      -8.069   1.857 -29.911  1.00  0.00     0.277 HD
HETATM    3  H   UNL     1      -9.462   1.907 -30.745  1.00  0.00     0.277 HD
ENDROOT
BRANCH   1   4
HETATM    4  C   UNL     1      -8.100   3.472 -31.233  1.00  0.00     0.188 C 
HETATM    5  C   UNL     1      -9.281   4.338 -30.784  1.00  0.00     0.040 C 
BRANCH   4   6
HETATM    6  C   UNL     1      -7.840   3.587 -32.747  1.00  0.00     0.099 C 
BRANCH   6   7
HETATM    7  C   UNL     1      -6.414   3.944 -33.028  1.00  0.00     0.078 A 
HETATM    8  S   UNL     1      -5.210   3.719 -31.831  1.00  0.00    -0.073 SA
HETATM    9  C   UNL     1      -4.014   4.311 -32.921  1.00  0.00     0.035 A 
HETATM   10  C   UNL     1      -4.631   4.651 -34.128  1.00  0.00     0.074 A 
HETATM   11  C   UNL     1      -2.632   4.463 -32.725  1.00  0.00     0.021 A 
HETATM   12  N   UNL     1      -6.003   4.443 -34.171  1.00  0.00    -0.245 NA
HETATM   13  C   UNL     1      -3.837   5.159 -35.175  1.00  0.00     0.033 A 
HETATM   14  C   UNL     1      -2.458   5.311 -34.992  1.00  0.00     0.002 A 
HETATM   15  C   UNL     1      -1.867   4.967 -33.780  1.00  0.00     0.002 A 
ENDBRANCH   6   7
ENDBRANCH   4   6
ENDBRANCH   1   4
BRANCH   1  16
HETATM   16  C   UNL     1      -7.960   0.952 -31.767  1.00  0.00     0.269 C 
BRANCH  16  17
HETATM   17  C   UNL     1      -6.616   0.432 -31.210  1.00  0.00     0.177 C 
BRANCH  17  18
HETATM   18  O   UNL     1      -6.887  -0.163 -29.928  1.00  0.00    -0.389 OA
HETATM   19  H   UNL     1      -7.269   0.545 -29.369  1.00  0.00     0.210 HD
ENDBRANCH  17  18
BRANCH  17  20
HETATM   20  C   UNL     1      -5.944  -0.540 -32.144  1.00  0.00    -0.025 A 
HETATM   21  C   UNL     1      -6.648  -1.149 -33.201  1.00  0.00     0.046 A 
HETATM   22  C   UNL     1      -6.004  -2.034 -34.070  1.00  0.00     0.068 A 
HETATM   23  C   UNL     1      -4.644  -2.293 -33.897  1.00  0.00     0.037 A 
HETATM   24  C   UNL     1      -3.933  -1.694 -32.859  1.00  0.00     0.003 A 
HETATM   25  C   UNL     1      -4.578  -0.821 -31.986  1.00  0.00     0.010 A 
BRANCH  22  26
HETATM   26  O   UNL     1      -6.579  -2.687 -35.122  1.00  0.00    -0.356 OA
HETATM   27  C   UNL     1      -6.603  -4.108 -35.077  1.00  0.00     0.210 C 
ENDBRANCH  22  26
ENDBRANCH  17  20
ENDBRANCH  16  17
ENDBRANCH   1  16
TORSDOF 8
ENDMDL
