MODEL 1
REMARK VINA RESULT:      -8.6      0.000      0.000
REMARK  7 active torsions:
REMARK  status: ('A' for Active; 'I' for Inactive)
REMARK    1  A    between atoms: CG_4  and  CB_5 
REMARK    2  A    between atoms: CB_5  and  CA_6 
REMARK    3  A    between atoms: CA_6  and  N_7 
REMARK    4  A    between atoms: CA_6  and  C_8 
REMARK       I    between atoms: N_7  and  C_14 
REMARK    5  A    between atoms: C_8  and  O_9 
REMARK       I    between atoms: C_14  and  N_15 
REMARK    6  A    between atoms: N_15  and  C_16 
REMARK    7  A    between atoms: C_22  and  C_23 
ROOT
ATOM      1  N   PHE A   1      -6.525   1.402 -34.158  1.00  0.00    -0.336 N 
ATOM      2  H   PHE A   1      -7.213   1.572 -34.883  1.00  0.00     0.164 HD
HETATM    3  C   UNK A   0      -6.019   2.571 -33.671  1.00  0.00     0.321 C 
HETATM    4  N   UNK A   0      -5.184   2.457 -32.594  1.00  0.00    -0.309 N 
HETATM    5  O   UNK A   0      -6.347   3.608 -34.235  1.00  0.00    -0.247 OA
HETATM    6  H   UNK A   0      -5.245   1.599 -32.071  1.00  0.00     0.170 HD
ENDROOT
BRANCH   1   7
ATOM      7  CA  PHE A   1      -6.307   0.021 -33.729  1.00  0.00     0.113 C 
BRANCH   7   8
ATOM      8  CB  PHE A   1      -6.614  -0.993 -34.857  1.00  0.00     0.065 C 
BRANCH   8   9
ATOM      9  CG  PHE A   1      -5.998  -2.366 -34.700  1.00  0.00    -0.056 A 
ATOM     10  CD1 PHE A   1      -6.740  -3.514 -35.017  1.00  0.00     0.007 A 
ATOM     11  CE1 PHE A   1      -6.183  -4.784 -34.861  1.00  0.00     0.001 A 
ATOM     12  CZ  PHE A   1      -4.878  -4.921 -34.397  1.00  0.00     0.000 A 
ATOM     13  CE2 PHE A   1      -4.126  -3.788 -34.094  1.00  0.00     0.001 A 
ATOM     14  CD2 PHE A   1      -4.682  -2.517 -34.247  1.00  0.00     0.007 A 
ENDBRANCH   8   9
ENDBRANCH   7   8
BRANCH   7  15
ATOM     15  C   PHE A   1      -7.054  -0.271 -32.416  1.00  0.00     0.189 C 
BRANCH  15  16
ATOM     16  O   PHE A   1      -6.161  -0.258 -31.306  1.00  0.00    -0.399 OA
ATOM     17  H   PHE A   1      -6.697  -0.312 -30.496  1.00  0.00     0.209 HD
ENDBRANCH  15  16
ENDBRANCH   7  15
ENDBRANCH   1   7
BRANCH   4  18
HETATM   18  C   UNK A   0      -4.378   3.468 -32.027  1.00  0.00     0.038 A 
HETATM   19  C   UNK A   0      -2.987   3.523 -32.186  1.00  0.00     0.063 A 
HETATM   20  C   UNK A   0      -2.268   4.542 -31.542  1.00  0.00     0.087 A 
HETATM   21  C   UNK A   0      -2.947   5.476 -30.769  1.00  0.00     0.063 A 
HETATM   22  N   UNK A   0      -0.915   4.791 -31.529  1.00  0.00    -0.228 NA
HETATM   23  N   UNK A   0      -1.964   6.305 -30.294  1.00  0.00    -0.338 N 
HETATM   24  C   UNK A   0      -4.329   5.460 -30.591  1.00  0.00     0.034 A 
HETATM   25  H   UNK A   0      -2.095   7.105 -29.690  1.00  0.00     0.167 HD
HETATM   26  C   UNK A   0      -0.754   5.856 -30.765  1.00  0.00     0.170 A 
HETATM   27  C   UNK A   0      -5.028   4.428 -31.234  1.00  0.00     0.032 A 
BRANCH  26  28
HETATM   28  C   UNK A   0       0.510   6.544 -30.400  1.00  0.00     0.422 C 
HETATM   29  F   UNK A   0       1.126   7.039 -31.510  1.00  0.00    -0.206 F 
HETATM   30  F   UNK A   0       0.257   7.625 -29.611  1.00  0.00    -0.206 F 
ENDBRANCH  26  28
ENDBRANCH   4  18
TORSDOF 7
ENDMDL
MODEL 2
REMARK VINA RESULT:      -8.4      1.167      1.398
REMARK  7 active torsions:
REMARK  status: ('A' for Active; 'I' for Inactive)
REMARK    1  A    between atoms: CG_4  and  CB_5 
REMARK    2  A    between atoms: CB_5  and  CA_6 
REMARK    3  A    between atoms: CA_6  and  N_7 
REMARK    4  A    between atoms: CA_6  and  C_8 
REMARK       I    between atoms: N_7  and  C_14 
REMARK    5  A    between atoms: C_8  and  O_9 
REMARK       I    between atoms: C_14  and  N_15 
REMARK    6  A    between atoms: N_15  and  C_16 
REMARK    7  A    between atoms: C_22  and  C_23 
ROOT
ATOM      1  N   PHE A   1      -7.552   1.989 -33.716  1.00  0.00    -0.336 N 
ATOM      2  H   PHE A   1      -8.134   2.189 -34.522  1.00  0.00     0.164 HD
HETATM    3  C   UNK A   0      -6.758   3.052 -33.401  1.00  0.00     0.321 C 
HETATM    4  N   UNK A   0      -6.035   2.936 -32.247  1.00  0.00    -0.309 N 
HETATM    5  O   UNK A   0      -6.757   4.005 -34.171  1.00  0.00    -0.247 OA
HETATM    6  H   UNK A   0      -6.358   2.248 -31.586  1.00  0.00     0.170 HD
ENDROOT
BRANCH   1   7
ATOM      7  CA  PHE A   1      -7.750   0.714 -33.026  1.00  0.00     0.113 C 
BRANCH   7   8
ATOM      8  CB  PHE A   1      -7.863  -0.470 -34.016  1.00  0.00     0.065 C 
BRANCH   8   9
ATOM      9  CG  PHE A   1      -6.652  -1.371 -34.112  1.00  0.00    -0.056 A 
ATOM     10  CD1 PHE A   1      -6.764  -2.647 -34.684  1.00  0.00     0.007 A 
ATOM     11  CE1 PHE A   1      -5.654  -3.489 -34.764  1.00  0.00     0.001 A 
ATOM     12  CZ  PHE A   1      -4.419  -3.062 -34.283  1.00  0.00     0.000 A 
ATOM     13  CE2 PHE A   1      -4.292  -1.791 -33.728  1.00  0.00     0.001 A 
ATOM     14  CD2 PHE A   1      -5.401  -0.948 -33.645  1.00  0.00     0.007 A 
ENDBRANCH   8   9
ENDBRANCH   7   8
BRANCH   7  15
ATOM     15  C   PHE A   1      -8.922   0.804 -32.033  1.00  0.00     0.189 C 
BRANCH  15  16
ATOM     16  O   PHE A   1      -8.528   1.469 -30.837  1.00  0.00    -0.399 OA
ATOM     17  H   PHE A   1      -8.368   0.790 -30.160  1.00  0.00     0.209 HD
ENDBRANCH  15  16
ENDBRANCH   7  15
ENDBRANCH   1   7
BRANCH   4  18
HETATM   18  C   UNK A   0      -5.002   3.786 -31.796  1.00  0.00     0.038 A 
HETATM   19  C   UNK A   0      -3.644   3.543 -32.042  1.00  0.00     0.063 A 
HETATM   20  C   UNK A   0      -2.687   4.422 -31.510  1.00  0.00     0.087 A 
HETATM   21  C   UNK A   0      -3.104   5.515 -30.760  1.00  0.00     0.063 A 
HETATM   22  N   UNK A   0      -1.315   4.385 -31.595  1.00  0.00    -0.228 NA
HETATM   23  N   UNK A   0      -1.942   6.146 -30.400  1.00  0.00    -0.338 N 
HETATM   24  C   UNK A   0      -4.444   5.795 -30.499  1.00  0.00     0.034 A 
HETATM   25  H   UNK A   0      -1.863   6.985 -29.844  1.00  0.00     0.167 HD
HETATM   26  C   UNK A   0      -0.886   5.432 -30.913  1.00  0.00     0.170 A 
HETATM   27  C   UNK A   0      -5.383   4.898 -31.029  1.00  0.00     0.032 A 
BRANCH  26  28
HETATM   28  C   UNK A   0       0.515   5.860 -30.671  1.00  0.00     0.422 C 
HETATM   29  F   UNK A   0       1.388   4.880 -31.039  1.00  0.00    -0.206 F 
HETATM   30  F   UNK A   0       0.828   6.935 -31.446  1.00  0.00    -0.206 F 
ENDBRANCH  26  28
ENDBRANCH   4  18
TORSDOF 7
ENDMDL
MODEL 3
REMARK VINA RESULT:      -8.4      1.452      2.149
REMARK  7 active torsions:
REMARK  status: ('A' for Active; 'I' for Inactive)
REMARK    1  A    between atoms: CG_4  and  CB_5 
REMARK    2  A    between atoms: CB_5  and  CA_6 
REMARK    3  A    between atoms: CA_6  and  N_7 
REMARK    4  A    between atoms: CA_6  and  C_8 
REMARK       I    between atoms: N_7  and  C_14 
REMARK    5  A    between atoms: C_8  and  O_9 
REMARK       I    between atoms: C_14  and  N_15 
REMARK    6  A    between atoms: N_15  and  C_16 
REMARK    7  A    between atoms: C_22  and  C_23 
ROOT
ATOM      1  N   PHE A   1      -7.064  -0.061 -32.017  1.00  0.00    -0.336 N 
ATOM      2  H   PHE A   1      -7.425  -0.556 -31.208  1.00  0.00     0.164 HD
HETATM    3  C   UNK A   0      -6.160   0.892 -31.653  1.00  0.00     0.321 C 
HETATM    4  N   UNK A   0      -5.511   1.521 -32.678  1.00  0.00    -0.309 N 
HETATM    5  O   UNK A   0      -6.011   1.103 -30.454  1.00  0.00    -0.247 OA
HETATM    6  H   UNK A   0      -5.516   1.048 -33.566  1.00  0.00     0.170 HD
ENDROOT
BRANCH   1   7
ATOM      7  CA  PHE A   1      -7.481  -0.519 -33.342  1.00  0.00     0.113 C 
BRANCH   7   8
ATOM      8  CB  PHE A   1      -6.272  -0.812 -34.262  1.00  0.00     0.065 C 
BRANCH   8   9
ATOM      9  CG  PHE A   1      -5.844  -2.260 -34.354  1.00  0.00    -0.056 A 
ATOM     10  CD1 PHE A   1      -4.538  -2.635 -34.008  1.00  0.00     0.007 A 
ATOM     11  CE1 PHE A   1      -4.132  -3.967 -34.103  1.00  0.00     0.001 A 
ATOM     12  CZ  PHE A   1      -5.030  -4.939 -34.535  1.00  0.00     0.000 A 
ATOM     13  CE2 PHE A   1      -6.335  -4.582 -34.866  1.00  0.00     0.001 A 
ATOM     14  CD2 PHE A   1      -6.742  -3.250 -34.773  1.00  0.00     0.007 A 
ENDBRANCH   8   9
ENDBRANCH   7   8
BRANCH   7  15
ATOM     15  C   PHE A   1      -8.508   0.447 -33.959  1.00  0.00     0.189 C 
BRANCH  15  16
ATOM     16  O   PHE A   1      -8.280   0.612 -35.355  1.00  0.00    -0.399 OA
ATOM     17  H   PHE A   1      -9.088   0.988 -35.743  1.00  0.00     0.209 HD
ENDBRANCH  15  16
ENDBRANCH   7  15
ENDBRANCH   1   7
BRANCH   4  18
HETATM   18  C   UNK A   0      -4.687   2.665 -32.594  1.00  0.00     0.038 A 
HETATM   19  C   UNK A   0      -3.435   2.667 -31.965  1.00  0.00     0.063 A 
HETATM   20  C   UNK A   0      -2.712   3.868 -31.891  1.00  0.00     0.087 A 
HETATM   21  C   UNK A   0      -3.246   5.024 -32.447  1.00  0.00     0.063 A 
HETATM   22  N   UNK A   0      -1.489   4.124 -31.315  1.00  0.00    -0.228 NA
HETATM   23  N   UNK A   0      -2.304   5.988 -32.199  1.00  0.00    -0.338 N 
HETATM   24  C   UNK A   0      -4.483   5.062 -33.086  1.00  0.00     0.034 A 
HETATM   25  H   UNK A   0      -2.359   6.962 -32.463  1.00  0.00     0.167 HD
HETATM   26  C   UNK A   0      -1.265   5.411 -31.508  1.00  0.00     0.170 A 
HETATM   27  C   UNK A   0      -5.195   3.855 -33.140  1.00  0.00     0.032 A 
BRANCH  26  28
HETATM   28  C   UNK A   0      -0.095   6.217 -31.076  1.00  0.00     0.422 C 
HETATM   29  F   UNK A   0       1.002   5.424 -30.918  1.00  0.00    -0.206 F 
HETATM   30  F   UNK A   0       0.245   7.121 -32.036  1.00  0.00    -0.206 F 
ENDBRANCH  26  28
ENDBRANCH   4  18
TORSDOF 7
ENDMDL
MODEL 4
REMARK VINA RESULT:      -8.3      4.404      9.773
REMARK  7 active torsions:
REMARK  status: ('A' for Active; 'I' for Inactive)
REMARK    1  A    between atoms: CG_4  and  CB_5 
REMARK    2  A    between atoms: CB_5  and  CA_6 
REMARK    3  A    between atoms: CA_6  and  N_7 
REMARK    4  A    between atoms: CA_6  and  C_8 
REMARK       I    between atoms: N_7  and  C_14 
REMARK    5  A    between atoms: C_8  and  O_9 
REMARK       I    between atoms: C_14  and  N_15 
REMARK    6  A    between atoms: N_15  and  C_16 
REMARK    7  A    between atoms: C_22  and  C_23 
ROOT
ATOM      1  N   PHE A   1      -0.745   5.447 -31.898  1.00  0.00    -0.336 N 
ATOM      2  H   PHE A   1      -0.281   5.938 -32.654  1.00  0.00     0.164 HD
HETATM    3  C   UNK A   0      -1.757   4.661 -32.364  1.00  0.00     0.321 C 
HETATM    4  N   UNK A   0      -2.357   3.852 -31.440  1.00  0.00    -0.309 N 
HETATM    5  O   UNK A   0      -2.040   4.749 -33.553  1.00  0.00    -0.247 OA
HETATM    6  H   UNK A   0      -1.835   3.672 -30.598  1.00  0.00     0.170 HD
ENDROOT
BRANCH   1   7
ATOM      7  CA  PHE A   1      -0.197   5.590 -30.549  1.00  0.00     0.113 C 
BRANCH   7   8
ATOM      8  CB  PHE A   1      -0.099   7.072 -30.116  1.00  0.00     0.065 C 
BRANCH   8   9
ATOM      9  CG  PHE A   1       0.331   7.317 -28.686  1.00  0.00    -0.056 A 
ATOM     10  CD1 PHE A   1       1.292   8.296 -28.394  1.00  0.00     0.007 A 
ATOM     11  CE1 PHE A   1       1.703   8.518 -27.079  1.00  0.00     0.001 A 
ATOM     12  CZ  PHE A   1       1.150   7.772 -26.041  1.00  0.00     0.000 A 
ATOM     13  CE2 PHE A   1       0.183   6.808 -26.316  1.00  0.00     0.001 A 
ATOM     14  CD2 PHE A   1      -0.228   6.583 -27.631  1.00  0.00     0.007 A 
ENDBRANCH   8   9
ENDBRANCH   7   8
BRANCH   7  15
ATOM     15  C   PHE A   1       1.126   4.816 -30.410  1.00  0.00     0.189 C 
BRANCH  15  16
ATOM     16  O   PHE A   1       1.056   3.870 -29.349  1.00  0.00    -0.399 OA
ATOM     17  H   PHE A   1       1.161   2.984 -29.735  1.00  0.00     0.209 HD
ENDBRANCH  15  16
ENDBRANCH   7  15
ENDBRANCH   1   7
BRANCH   4  18
HETATM   18  C   UNK A   0      -3.540   3.098 -31.605  1.00  0.00     0.038 A 
HETATM   19  C   UNK A   0      -3.623   1.967 -32.428  1.00  0.00     0.063 A 
HETATM   20  C   UNK A   0      -4.857   1.312 -32.563  1.00  0.00     0.087 A 
HETATM   21  C   UNK A   0      -5.965   1.792 -31.876  1.00  0.00     0.063 A 
HETATM   22  N   UNK A   0      -5.192   0.211 -33.317  1.00  0.00    -0.228 NA
HETATM   23  N   UNK A   0      -6.981   0.941 -32.229  1.00  0.00    -0.338 N 
HETATM   24  C   UNK A   0      -5.923   2.908 -31.043  1.00  0.00     0.034 A 
HETATM   25  H   UNK A   0      -7.940   0.990 -31.915  1.00  0.00     0.167 HD
HETATM   26  C   UNK A   0      -6.479   0.009 -33.104  1.00  0.00     0.170 A 
HETATM   27  C   UNK A   0      -4.683   3.554 -30.930  1.00  0.00     0.032 A 
BRANCH  26  28
HETATM   28  C   UNK A   0      -7.353  -1.042 -33.684  1.00  0.00     0.422 C 
HETATM   29  F   UNK A   0      -7.740  -0.704 -34.946  1.00  0.00    -0.206 F 
HETATM   30  F   UNK A   0      -6.670  -2.214 -33.815  1.00  0.00    -0.206 F 
ENDBRANCH  26  28
ENDBRANCH   4  18
TORSDOF 7
ENDMDL
MODEL 5
REMARK VINA RESULT:      -8.1      7.412      9.805
REMARK  7 active torsions:
REMARK  status: ('A' for Active; 'I' for Inactive)
REMARK    1  A    between atoms: CG_4  and  CB_5 
REMARK    2  A    between atoms: CB_5  and  CA_6 
REMARK    3  A    between atoms: CA_6  and  N_7 
REMARK    4  A    between atoms: CA_6  and  C_8 
REMARK       I    between atoms: N_7  and  C_14 
REMARK    5  A    between atoms: C_8  and  O_9 
REMARK       I    between atoms: C_14  and  N_15 
REMARK    6  A    between atoms: N_15  and  C_16 
REMARK    7  A    between atoms: C_22  and  C_23 
ROOT
ATOM      1  N   PHE A   1      -8.450   2.022 -33.902  1.00  0.00    -0.336 N 
ATOM      2  H   PHE A   1      -7.862   2.616 -34.477  1.00  0.00     0.164 HD
HETATM    3  C   UNK A   0      -9.772   2.252 -34.140  1.00  0.00     0.321 C 
HETATM    4  N   UNK A   0     -10.646   1.407 -33.516  1.00  0.00    -0.309 N 
HETATM    5  O   UNK A   0     -10.060   3.187 -34.879  1.00  0.00    -0.247 OA
HETATM    6  H   UNK A   0     -10.268   0.532 -33.194  1.00  0.00     0.170 HD
ENDROOT
BRANCH   1   7
ATOM      7  CA  PHE A   1      -7.796   1.019 -33.061  1.00  0.00     0.113 C 
BRANCH   7   8
ATOM      8  CB  PHE A   1      -8.059  -0.420 -33.563  1.00  0.00     0.065 C 
BRANCH   8   9
ATOM      9  CG  PHE A   1      -6.831  -1.258 -33.847  1.00  0.00    -0.056 A 
ATOM     10  CD1 PHE A   1      -6.945  -2.463 -34.556  1.00  0.00     0.007 A 
ATOM     11  CE1 PHE A   1      -5.819  -3.247 -34.809  1.00  0.00     0.001 A 
ATOM     12  CZ  PHE A   1      -4.567  -2.832 -34.365  1.00  0.00     0.000 A 
ATOM     13  CE2 PHE A   1      -4.438  -1.629 -33.674  1.00  0.00     0.001 A 
ATOM     14  CD2 PHE A   1      -5.563  -0.844 -33.419  1.00  0.00     0.007 A 
ENDBRANCH   8   9
ENDBRANCH   7   8
BRANCH   7  15
ATOM     15  C   PHE A   1      -8.149   1.231 -31.578  1.00  0.00     0.189 C 
BRANCH  15  16
ATOM     16  O   PHE A   1      -9.246   0.410 -31.192  1.00  0.00    -0.399 OA
ATOM     17  H   PHE A   1      -9.388   0.537 -30.238  1.00  0.00     0.209 HD
ENDBRANCH  15  16
ENDBRANCH   7  15
ENDBRANCH   1   7
BRANCH   4  18
HETATM   18  C   UNK A   0     -12.049   1.540 -33.430  1.00  0.00     0.038 A 
HETATM   19  C   UNK A   0     -12.683   2.628 -32.813  1.00  0.00     0.063 A 
HETATM   20  C   UNK A   0     -14.084   2.645 -32.735  1.00  0.00     0.087 A 
HETATM   21  C   UNK A   0     -14.813   1.593 -33.276  1.00  0.00     0.063 A 
HETATM   22  N   UNK A   0     -14.922   3.578 -32.169  1.00  0.00    -0.228 NA
HETATM   23  N   UNK A   0     -16.121   1.921 -33.028  1.00  0.00    -0.338 N 
HETATM   24  C   UNK A   0     -14.222   0.498 -33.902  1.00  0.00     0.034 A 
HETATM   25  H   UNK A   0     -16.934   1.378 -33.284  1.00  0.00     0.167 HD
HETATM   26  C   UNK A   0     -16.146   3.117 -32.353  1.00  0.00     0.170 A 
HETATM   27  C   UNK A   0     -12.821   0.494 -33.960  1.00  0.00     0.032 A 
BRANCH  26  28
HETATM   28  C   UNK A   0     -17.432   3.725 -31.925  1.00  0.00     0.422 C 
HETATM   29  F   UNK A   0     -18.161   2.839 -31.190  1.00  0.00    -0.206 F 
HETATM   30  F   UNK A   0     -17.208   4.785 -31.099  1.00  0.00    -0.206 F 
ENDBRANCH  26  28
ENDBRANCH   4  18
TORSDOF 7
ENDMDL
MODEL 6
REMARK VINA RESULT:      -7.8      5.781      8.359
REMARK  7 active torsions:
REMARK  status: ('A' for Active; 'I' for Inactive)
REMARK    1  A    between atoms: CG_4  and  CB_5 
REMARK    2  A    between atoms: CB_5  and  CA_6 
REMARK    3  A    between atoms: CA_6  and  N_7 
REMARK    4  A    between atoms: CA_6  and  C_8 
REMARK       I    between atoms: N_7  and  C_14 
REMARK    5  A    between atoms: C_8  and  O_9 
REMARK       I    between atoms: C_14  and  N_15 
REMARK    6  A    between atoms: N_15  and  C_16 
REMARK    7  A    between atoms: C_22  and  C_23 
ROOT
ATOM      1  N   PHE A   1      -5.195   2.769 -30.912  1.00  0.00    -0.336 N 
ATOM      2  H   PHE A   1      -4.970   3.263 -30.055  1.00  0.00     0.164 HD
HETATM    3  C   UNK A   0      -6.542   2.617 -31.058  1.00  0.00     0.321 C 
HETATM    4  N   UNK A   0      -6.957   2.085 -32.247  1.00  0.00    -0.309 N 
HETATM    5  O   UNK A   0      -7.255   2.959 -30.122  1.00  0.00    -0.247 OA
HETATM    6  H   UNK A   0      -6.302   2.132 -33.010  1.00  0.00     0.170 HD
ENDROOT
BRANCH   1   7
ATOM      7  CA  PHE A   1      -4.098   2.437 -31.820  1.00  0.00     0.113 C 
BRANCH   7   8
ATOM      8  CB  PHE A   1      -3.350   1.155 -31.383  1.00  0.00     0.065 C 
BRANCH   8   9
ATOM      9  CG  PHE A   1      -3.714  -0.111 -32.127  1.00  0.00    -0.056 A 
ATOM     10  CD1 PHE A   1      -3.115  -1.331 -31.782  1.00  0.00     0.007 A 
ATOM     11  CE1 PHE A   1      -3.436  -2.500 -32.473  1.00  0.00     0.001 A 
ATOM     12  CZ  PHE A   1      -4.366  -2.465 -33.508  1.00  0.00     0.000 A 
ATOM     13  CE2 PHE A   1      -4.980  -1.262 -33.850  1.00  0.00     0.001 A 
ATOM     14  CD2 PHE A   1      -4.658  -0.091 -33.161  1.00  0.00     0.007 A 
ENDBRANCH   8   9
ENDBRANCH   7   8
BRANCH   7  15
ATOM     15  C   PHE A   1      -3.174   3.650 -32.032  1.00  0.00     0.189 C 
BRANCH  15  16
ATOM     16  O   PHE A   1      -2.120   3.663 -31.076  1.00  0.00    -0.399 OA
ATOM     17  H   PHE A   1      -1.328   3.295 -31.504  1.00  0.00     0.209 HD
ENDBRANCH  15  16
ENDBRANCH   7  15
ENDBRANCH   1   7
BRANCH   4  18
HETATM   18  C   UNK A   0      -8.256   1.641 -32.577  1.00  0.00     0.038 A 
HETATM   19  C   UNK A   0      -9.320   2.511 -32.850  1.00  0.00     0.063 A 
HETATM   20  C   UNK A   0     -10.588   1.972 -33.121  1.00  0.00     0.087 A 
HETATM   21  C   UNK A   0     -10.759   0.593 -33.123  1.00  0.00     0.063 A 
HETATM   22  N   UNK A   0     -11.775   2.610 -33.394  1.00  0.00    -0.228 NA
HETATM   23  N   UNK A   0     -12.087   0.414 -33.414  1.00  0.00    -0.338 N 
HETATM   24  C   UNK A   0      -9.726  -0.305 -32.864  1.00  0.00     0.034 A 
HETATM   25  H   UNK A   0     -12.569  -0.470 -33.497  1.00  0.00     0.167 HD
HETATM   26  C   UNK A   0     -12.668   1.651 -33.562  1.00  0.00     0.170 A 
HETATM   27  C   UNK A   0      -8.470   0.253 -32.584  1.00  0.00     0.032 A 
BRANCH  26  28
HETATM   28  C   UNK A   0     -14.116   1.784 -33.862  1.00  0.00     0.422 C 
HETATM   29  F   UNK A   0     -14.533   0.770 -34.671  1.00  0.00    -0.206 F 
HETATM   30  F   UNK A   0     -14.854   1.668 -32.723  1.00  0.00    -0.206 F 
ENDBRANCH  26  28
ENDBRANCH   4  18
TORSDOF 7
ENDMDL
MODEL 7
REMARK VINA RESULT:      -7.8      6.022      8.405
REMARK  7 active torsions:
REMARK  status: ('A' for Active; 'I' for Inactive)
REMARK    1  A    between atoms: CG_4  and  CB_5 
REMARK    2  A    between atoms: CB_5  and  CA_6 
REMARK    3  A    between atoms: CA_6  and  N_7 
REMARK    4  A    between atoms: CA_6  and  C_8 
REMARK       I    between atoms: N_7  and  C_14 
REMARK    5  A    between atoms: C_8  and  O_9 
REMARK       I    between atoms: C_14  and  N_15 
REMARK    6  A    between atoms: N_15  and  C_16 
REMARK    7  A    between atoms: C_22  and  C_23 
ROOT
ATOM      1  N   PHE A   1      -5.694   2.260 -31.348  1.00  0.00    -0.336 N 
ATOM      2  H   PHE A   1      -5.376   2.589 -30.442  1.00  0.00     0.164 HD
HETATM    3  C   UNK A   0      -6.994   2.602 -31.572  1.00  0.00     0.321 C 
HETATM    4  N   UNK A   0      -7.477   2.326 -32.820  1.00  0.00    -0.309 N 
HETATM    5  O   UNK A   0      -7.612   3.114 -30.646  1.00  0.00    -0.247 OA
HETATM    6  H   UNK A   0      -6.791   2.187 -33.543  1.00  0.00     0.170 HD
ENDROOT
BRANCH   1   7
ATOM      7  CA  PHE A   1      -4.715   1.620 -32.227  1.00  0.00     0.113 C 
BRANCH   7   8
ATOM      8  CB  PHE A   1      -4.527   0.122 -31.892  1.00  0.00     0.065 C 
BRANCH   8   9
ATOM      9  CG  PHE A   1      -5.113  -0.858 -32.885  1.00  0.00    -0.056 A 
ATOM     10  CD1 PHE A   1      -6.495  -0.879 -33.125  1.00  0.00     0.007 A 
ATOM     11  CE1 PHE A   1      -7.045  -1.788 -34.030  1.00  0.00     0.001 A 
ATOM     12  CZ  PHE A   1      -6.220  -2.679 -34.711  1.00  0.00     0.000 A 
ATOM     13  CE2 PHE A   1      -4.844  -2.657 -34.493  1.00  0.00     0.001 A 
ATOM     14  CD2 PHE A   1      -4.293  -1.749 -33.588  1.00  0.00     0.007 A 
ENDBRANCH   8   9
ENDBRANCH   7   8
BRANCH   7  15
ATOM     15  C   PHE A   1      -3.399   2.417 -32.255  1.00  0.00     0.189 C 
BRANCH  15  16
ATOM     16  O   PHE A   1      -3.191   3.105 -31.026  1.00  0.00    -0.399 OA
ATOM     17  H   PHE A   1      -2.282   3.451 -31.032  1.00  0.00     0.209 HD
ENDBRANCH  15  16
ENDBRANCH   7  15
ENDBRANCH   1   7
BRANCH   4  18
HETATM   18  C   UNK A   0      -8.821   2.390 -33.250  1.00  0.00     0.038 A 
HETATM   19  C   UNK A   0      -9.749   1.363 -33.031  1.00  0.00     0.063 A 
HETATM   20  C   UNK A   0     -11.050   1.500 -33.541  1.00  0.00     0.087 A 
HETATM   21  C   UNK A   0     -11.392   2.650 -34.242  1.00  0.00     0.063 A 
HETATM   22  N   UNK A   0     -12.116   0.634 -33.475  1.00  0.00    -0.228 NA
HETATM   23  N   UNK A   0     -12.704   2.458 -34.592  1.00  0.00    -0.338 N 
HETATM   24  C   UNK A   0     -10.502   3.696 -34.475  1.00  0.00     0.034 A 
HETATM   25  H   UNK A   0     -13.284   3.098 -35.116  1.00  0.00     0.167 HD
HETATM   26  C   UNK A   0     -13.102   1.230 -34.120  1.00  0.00     0.170 A 
HETATM   27  C   UNK A   0      -9.204   3.535 -33.968  1.00  0.00     0.032 A 
BRANCH  26  28
HETATM   28  C   UNK A   0     -14.478   0.729 -34.364  1.00  0.00     0.422 C 
HETATM   29  F   UNK A   0     -14.667  -0.473 -33.751  1.00  0.00    -0.206 F 
HETATM   30  F   UNK A   0     -15.398   1.567 -33.811  1.00  0.00    -0.206 F 
ENDBRANCH  26  28
ENDBRANCH   4  18
TORSDOF 7
ENDMDL
MODEL 8
REMARK VINA RESULT:      -7.6      5.330      8.328
REMARK  7 active torsions:
REMARK  status: ('A' for Active; 'I' for Inactive)
REMARK    1  A    between atoms: CG_4  and  CB_5 
REMARK    2  A    between atoms: CB_5  and  CA_6 
REMARK    3  A    between atoms: CA_6  and  N_7 
REMARK    4  A    between atoms: CA_6  and  C_8 
REMARK       I    between atoms: N_7  and  C_14 
REMARK    5  A    between atoms: C_8  and  O_9 
REMARK       I    between atoms: C_14  and  N_15 
REMARK    6  A    between atoms: N_15  and  C_16 
REMARK    7  A    between atoms: C_22  and  C_23 
ROOT
ATOM      1  N   PHE A   1     -11.119   1.569 -33.675  1.00  0.00    -0.336 N 
ATOM      2  H   PHE A   1     -11.973   1.282 -33.210  1.00  0.00     0.164 HD
HETATM    3  C   UNK A   0     -10.130   0.645 -33.511  1.00  0.00     0.321 C 
HETATM    4  N   UNK A   0      -8.980   0.871 -34.215  1.00  0.00    -0.309 N 
HETATM    5  O   UNK A   0     -10.351  -0.292 -32.754  1.00  0.00    -0.247 OA
HETATM    6  H   UNK A   0      -9.053   1.496 -35.001  1.00  0.00     0.170 HD
ENDROOT
BRANCH   1   7
ATOM      7  CA  PHE A   1     -11.153   2.793 -34.476  1.00  0.00     0.113 C 
BRANCH   7   8
ATOM      8  CB  PHE A   1     -10.879   4.054 -33.622  1.00  0.00     0.065 C 
BRANCH   8   9
ATOM      9  CG  PHE A   1      -9.454   4.237 -33.148  1.00  0.00    -0.056 A 
ATOM     10  CD1 PHE A   1      -9.108   3.950 -31.820  1.00  0.00     0.007 A 
ATOM     11  CE1 PHE A   1      -7.798   4.130 -31.372  1.00  0.00     0.001 A 
ATOM     12  CZ  PHE A   1      -6.819   4.589 -32.250  1.00  0.00     0.000 A 
ATOM     13  CE2 PHE A   1      -7.147   4.862 -33.575  1.00  0.00     0.001 A 
ATOM     14  CD2 PHE A   1      -8.457   4.685 -34.024  1.00  0.00     0.007 A 
ENDBRANCH   8   9
ENDBRANCH   7   8
BRANCH   7  15
ATOM     15  C   PHE A   1     -12.449   2.874 -35.301  1.00  0.00     0.189 C 
BRANCH  15  16
ATOM     16  O   PHE A   1     -13.003   1.579 -35.511  1.00  0.00    -0.399 OA
ATOM     17  H   PHE A   1     -12.281   0.991 -35.791  1.00  0.00     0.209 HD
ENDBRANCH  15  16
ENDBRANCH   7  15
ENDBRANCH   1   7
BRANCH   4  18
HETATM   18  C   UNK A   0      -7.748   0.195 -34.079  1.00  0.00     0.038 A 
HETATM   19  C   UNK A   0      -7.558  -1.142 -34.452  1.00  0.00     0.063 A 
HETATM   20  C   UNK A   0      -6.307  -1.740 -34.232  1.00  0.00     0.087 A 
HETATM   21  C   UNK A   0      -5.284  -0.995 -33.658  1.00  0.00     0.063 A 
HETATM   22  N   UNK A   0      -5.888  -3.024 -34.490  1.00  0.00    -0.228 NA
HETATM   23  N   UNK A   0      -4.227  -1.865 -33.584  1.00  0.00    -0.338 N 
HETATM   24  C   UNK A   0      -5.430   0.338 -33.279  1.00  0.00     0.034 A 
HETATM   25  H   UNK A   0      -3.309  -1.663 -33.215  1.00  0.00     0.167 HD
HETATM   26  C   UNK A   0      -4.631  -3.079 -34.086  1.00  0.00     0.170 A 
HETATM   27  C   UNK A   0      -6.690   0.914 -33.497  1.00  0.00     0.032 A 
BRANCH  26  28
HETATM   28  C   UNK A   0      -3.704  -4.238 -34.119  1.00  0.00     0.422 C 
HETATM   29  F   UNK A   0      -3.115  -4.417 -32.904  1.00  0.00    -0.206 F 
HETATM   30  F   UNK A   0      -4.388  -5.391 -34.365  1.00  0.00    -0.206 F 
ENDBRANCH  26  28
ENDBRANCH   4  18
TORSDOF 7
ENDMDL
MODEL 9
REMARK VINA RESULT:      -7.5      1.827      2.388
REMARK  7 active torsions:
REMARK  status: ('A' for Active; 'I' for Inactive)
REMARK    1  A    between atoms: CG_4  and  CB_5 
REMARK    2  A    between atoms: CB_5  and  CA_6 
REMARK    3  A    between atoms: CA_6  and  N_7 
REMARK    4  A    between atoms: CA_6  and  C_8 
REMARK       I    between atoms: N_7  and  C_14 
REMARK    5  A    between atoms: C_8  and  O_9 
REMARK       I    between atoms: C_14  and  N_15 
REMARK    6  A    between atoms: N_15  and  C_16 
REMARK    7  A    between atoms: C_22  and  C_23 
ROOT
ATOM      1  N   PHE A   1      -5.455  -0.265 -31.561  1.00  0.00    -0.336 N 
ATOM      2  H   PHE A   1      -5.229  -1.093 -31.021  1.00  0.00     0.164 HD
HETATM    3  C   UNK A   0      -4.505   0.701 -31.408  1.00  0.00     0.321 C 
HETATM    4  N   UNK A   0      -4.644   1.806 -32.201  1.00  0.00    -0.309 N 
HETATM    5  O   UNK A   0      -3.623   0.502 -30.580  1.00  0.00    -0.247 OA
HETATM    6  H   UNK A   0      -5.224   1.699 -33.017  1.00  0.00     0.170 HD
ENDROOT
BRANCH   1   7
ATOM      7  CA  PHE A   1      -6.629  -0.313 -32.431  1.00  0.00     0.113 C 
BRANCH   7   8
ATOM      8  CB  PHE A   1      -6.251  -0.618 -33.900  1.00  0.00     0.065 C 
BRANCH   8   9
ATOM      9  CG  PHE A   1      -5.937  -2.064 -34.217  1.00  0.00    -0.056 A 
ATOM     10  CD1 PHE A   1      -6.949  -2.926 -34.663  1.00  0.00     0.007 A 
ATOM     11  CE1 PHE A   1      -6.669  -4.264 -34.944  1.00  0.00     0.001 A 
ATOM     12  CZ  PHE A   1      -5.374  -4.752 -34.792  1.00  0.00     0.000 A 
ATOM     13  CE2 PHE A   1      -4.357  -3.902 -34.366  1.00  0.00     0.001 A 
ATOM     14  CD2 PHE A   1      -4.635  -2.564 -34.082  1.00  0.00     0.007 A 
ENDBRANCH   8   9
ENDBRANCH   7   8
BRANCH   7  15
ATOM     15  C   PHE A   1      -7.489   0.952 -32.264  1.00  0.00     0.189 C 
BRANCH  15  16
ATOM     16  O   PHE A   1      -8.022   1.037 -30.947  1.00  0.00    -0.399 OA
ATOM     17  H   PHE A   1      -8.647   1.782 -30.929  1.00  0.00     0.209 HD
ENDBRANCH  15  16
ENDBRANCH   7  15
ENDBRANCH   1   7
BRANCH   4  18
HETATM   18  C   UNK A   0      -3.931   3.021 -32.107  1.00  0.00     0.038 A 
HETATM   19  C   UNK A   0      -4.225   4.015 -31.164  1.00  0.00     0.063 A 
HETATM   20  C   UNK A   0      -3.489   5.210 -31.182  1.00  0.00     0.087 A 
HETATM   21  C   UNK A   0      -2.483   5.380 -32.125  1.00  0.00     0.063 A 
HETATM   22  N   UNK A   0      -3.602   6.325 -30.384  1.00  0.00    -0.228 NA
HETATM   23  N   UNK A   0      -1.982   6.630 -31.869  1.00  0.00    -0.338 N 
HETATM   24  C   UNK A   0      -2.155   4.414 -33.074  1.00  0.00     0.034 A 
HETATM   25  H   UNK A   0      -1.233   7.090 -32.366  1.00  0.00     0.167 HD
HETATM   26  C   UNK A   0      -2.687   7.171 -30.820  1.00  0.00     0.170 A 
HETATM   27  C   UNK A   0      -2.910   3.232 -33.047  1.00  0.00     0.032 A 
BRANCH  26  28
HETATM   28  C   UNK A   0      -2.386   8.538 -30.322  1.00  0.00     0.422 C 
HETATM   29  F   UNK A   0      -1.232   8.542 -29.599  1.00  0.00    -0.206 F 
HETATM   30  F   UNK A   0      -2.166   9.389 -31.363  1.00  0.00    -0.206 F 
ENDBRANCH  26  28
ENDBRANCH   4  18
TORSDOF 7
ENDMDL
MODEL 10
REMARK VINA RESULT:      -7.4      2.027      3.782
REMARK  7 active torsions:
REMARK  status: ('A' for Active; 'I' for Inactive)
REMARK    1  A    between atoms: CG_4  and  CB_5 
REMARK    2  A    between atoms: CB_5  and  CA_6 
REMARK    3  A    between atoms: CA_6  and  N_7 
REMARK    4  A    between atoms: CA_6  and  C_8 
REMARK       I    between atoms: N_7  and  C_14 
REMARK    5  A    between atoms: C_8  and  O_9 
REMARK       I    between atoms: C_14  and  N_15 
REMARK    6  A    between atoms: N_15  and  C_16 
REMARK    7  A    between atoms: C_22  and  C_23 
ROOT
ATOM      1  N   PHE A   1      -5.065  -1.499 -32.914  1.00  0.00    -0.336 N 
ATOM      2  H   PHE A   1      -4.799  -2.380 -32.487  1.00  0.00     0.164 HD
HETATM    3  C   UNK A   0      -4.470  -0.444 -32.288  1.00  0.00     0.321 C 
HETATM    4  N   UNK A   0      -4.655   0.777 -32.873  1.00  0.00    -0.309 N 
HETATM    5  O   UNK A   0      -3.836  -0.677 -31.266  1.00  0.00    -0.247 OA
HETATM    6  H   UNK A   0      -4.936   0.771 -33.840  1.00  0.00     0.170 HD
ENDROOT
BRANCH   1   7
ATOM      7  CA  PHE A   1      -5.897  -1.545 -34.117  1.00  0.00     0.113 C 
BRANCH   7   8
ATOM      8  CB  PHE A   1      -7.407  -1.500 -33.780  1.00  0.00     0.065 C 
BRANCH   8   9
ATOM      9  CG  PHE A   1      -7.977  -0.132 -33.475  1.00  0.00    -0.056 A 
ATOM     10  CD1 PHE A   1      -8.185   0.794 -34.507  1.00  0.00     0.007 A 
ATOM     11  CE1 PHE A   1      -8.698   2.062 -34.231  1.00  0.00     0.001 A 
ATOM     12  CZ  PHE A   1      -9.018   2.414 -32.923  1.00  0.00     0.000 A 
ATOM     13  CE2 PHE A   1      -8.832   1.497 -31.891  1.00  0.00     0.001 A 
ATOM     14  CD2 PHE A   1      -8.317   0.230 -32.165  1.00  0.00     0.007 A 
ENDBRANCH   8   9
ENDBRANCH   7   8
BRANCH   7  15
ATOM     15  C   PHE A   1      -5.499  -2.728 -35.015  1.00  0.00     0.189 C 
BRANCH  15  16
ATOM     16  O   PHE A   1      -6.530  -3.709 -35.056  1.00  0.00    -0.399 OA
ATOM     17  H   PHE A   1      -6.162  -4.540 -34.710  1.00  0.00     0.209 HD
ENDBRANCH  15  16
ENDBRANCH   7  15
ENDBRANCH   1   7
BRANCH   4  18
HETATM   18  C   UNK A   0      -4.325   2.041 -32.336  1.00  0.00     0.038 A 
HETATM   19  C   UNK A   0      -3.039   2.592 -32.398  1.00  0.00     0.063 A 
HETATM   20  C   UNK A   0      -2.800   3.835 -31.791  1.00  0.00     0.087 A 
HETATM   21  C   UNK A   0      -3.841   4.495 -31.150  1.00  0.00     0.063 A 
HETATM   22  N   UNK A   0      -1.635   4.561 -31.701  1.00  0.00    -0.228 NA
HETATM   23  N   UNK A   0      -3.273   5.649 -30.676  1.00  0.00    -0.338 N 
HETATM   24  C   UNK A   0      -5.135   3.984 -31.071  1.00  0.00     0.034 A 
HETATM   25  H   UNK A   0      -3.740   6.376 -30.152  1.00  0.00     0.167 HD
HETATM   26  C   UNK A   0      -1.943   5.649 -31.019  1.00  0.00     0.170 A 
HETATM   27  C   UNK A   0      -5.350   2.737 -31.675  1.00  0.00     0.032 A 
BRANCH  26  28
HETATM   28  C   UNK A   0      -1.052   6.769 -30.622  1.00  0.00     0.422 C 
HETATM   29  F   UNK A   0       0.124   6.714 -31.309  1.00  0.00    -0.206 F 
HETATM   30  F   UNK A   0      -1.611   7.966 -30.953  1.00  0.00    -0.206 F 
ENDBRANCH  26  28
ENDBRANCH   4  18
TORSDOF 7
ENDMDL
