MODEL 1
REMARK VINA RESULT:      -8.2      0.000      0.000
REMARK  5 active torsions:
REMARK  status: ('A' for Active; 'I' for Inactive)
REMARK    1  A    between atoms: C_2  and  O_3 
REMARK    2  A    between atoms: C_2  and  C_4 
REMARK    3  A    between atoms: C_7  and  N_8 
REMARK    4  A    between atoms: N_12  and  C_13 
REMARK    5  A    between atoms: C_13  and  C_14 
ROOT
HETATM    1  N   UNL     1      -7.556  -0.480 -33.359  1.00  0.00    -0.367 N 
HETATM    2  C   UNL     1      -7.705   0.307 -32.118  1.00  0.00     0.127 C 
HETATM    3  C   UNL     1      -9.074   0.962 -32.020  1.00  0.00     0.057 C 
HETATM    4  C   UNL     1      -9.470   1.836 -33.234  1.00  0.00     0.075 C 
HETATM    5  N   UNL     1      -8.815   3.198 -33.315  1.00  0.00    -0.398 N 
HETATM    6  C   UNL     1      -9.130   4.090 -32.165  1.00  0.00     0.124 C 
HETATM    7  C   UNL     1     -10.630   4.471 -32.102  1.00  0.00     0.078 C 
HETATM    8  C   UNL     1     -11.447   3.327 -32.530  1.00  0.00     0.037 A 
HETATM    9  C   UNL     1     -10.960   2.150 -33.065  1.00  0.00     0.061 A 
HETATM   10  N   UNL     1     -12.078   1.374 -33.332  1.00  0.00    -0.352 N 
HETATM   11  H   UNL     1     -12.083   0.436 -33.723  1.00  0.00     0.166 HD
HETATM   12  C   UNL     1     -13.200   2.040 -33.021  1.00  0.00     0.181 A 
HETATM   13  N   UNL     1     -12.822   3.221 -32.524  1.00  0.00    -0.354 N 
HETATM   14  H   UNL     1     -13.467   3.942 -32.206  1.00  0.00     0.166 HD
HETATM   15  C   UNL     1      -9.286   0.955 -34.495  1.00  0.00     0.057 C 
HETATM   16  C   UNL     1      -7.959   0.200 -34.603  1.00  0.00     0.127 C 
ENDROOT
BRANCH   5  17
HETATM   17  C   UNL     1      -7.436   3.299 -33.799  1.00  0.00     0.122 C 
BRANCH  17  18
HETATM   18  C   UNL     1      -6.382   3.972 -32.883  1.00  0.00    -0.005 C 
HETATM   19  C   UNL     1      -5.229   2.993 -32.631  1.00  0.00     0.011 C 
HETATM   20  C   UNL     1      -5.832   5.267 -33.486  1.00  0.00     0.011 C 
ENDBRANCH  17  18
ENDBRANCH   5  17
BRANCH   1  21
HETATM   21  C   UNL     1      -6.363  -1.237 -33.424  1.00  0.00     0.103 A 
HETATM   22  N   UNL     1      -6.294  -2.380 -34.129  1.00  0.00    -0.344 N 
HETATM   23  C   UNL     1      -5.192  -3.136 -34.287  1.00  0.00     0.039 A 
HETATM   24  H   UNL     1      -7.110  -2.768 -34.606  1.00  0.00     0.167 HD
HETATM   25  C   UNL     1      -4.011  -2.773 -33.660  1.00  0.00     0.028 A 
HETATM   26  C   UNL     1      -4.010  -1.635 -32.869  1.00  0.00     0.006 A 
HETATM   27  C   UNL     1      -5.178  -0.877 -32.743  1.00  0.00     0.048 A 
BRANCH  23  28
HETATM   28  C   UNL     1      -5.366  -4.341 -35.167  1.00  0.00     0.163 C 
HETATM   29  C   UNL     1      -6.825  -4.621 -35.490  1.00  0.00     0.046 C 
BRANCH  28  30
HETATM   30  O   UNL     1      -4.846  -5.443 -34.397  1.00  0.00    -0.390 OA
HETATM   31  H   UNL     1      -3.890  -5.497 -34.612  1.00  0.00     0.210 HD
ENDBRANCH  28  30
ENDBRANCH  23  28
ENDBRANCH   1  21
TORSDOF 5
ENDMDL
MODEL 2
REMARK VINA RESULT:      -8.1      2.591      4.451
REMARK  5 active torsions:
REMARK  status: ('A' for Active; 'I' for Inactive)
REMARK    1  A    between atoms: C_2  and  O_3 
REMARK    2  A    between atoms: C_2  and  C_4 
REMARK    3  A    between atoms: C_7  and  N_8 
REMARK    4  A    between atoms: N_12  and  C_13 
REMARK    5  A    between atoms: C_13  and  C_14 
ROOT
HETATM    1  N   UNL     1      -4.437  -0.516 -31.825  1.00  0.00    -0.367 N 
HETATM    2  C   UNL     1      -3.658   0.566 -32.460  1.00  0.00     0.127 C 
HETATM    3  C   UNL     1      -3.914   1.914 -31.803  1.00  0.00     0.057 C 
HETATM    4  C   UNL     1      -5.403   2.329 -31.724  1.00  0.00     0.075 C 
HETATM    5  N   UNL     1      -6.023   2.829 -33.012  1.00  0.00    -0.398 N 
HETATM    6  C   UNL     1      -5.380   4.055 -33.557  1.00  0.00     0.124 C 
HETATM    7  C   UNL     1      -5.558   5.283 -32.631  1.00  0.00     0.078 C 
HETATM    8  C   UNL     1      -5.498   4.853 -31.227  1.00  0.00     0.037 A 
HETATM    9  C   UNL     1      -5.457   3.544 -30.791  1.00  0.00     0.061 A 
HETATM   10  N   UNL     1      -5.423   3.615 -29.406  1.00  0.00    -0.352 N 
HETATM   11  H   UNL     1      -5.378   2.830 -28.762  1.00  0.00     0.166 HD
HETATM   12  C   UNL     1      -5.481   4.891 -28.998  1.00  0.00     0.181 A 
HETATM   13  N   UNL     1      -5.515   5.646 -30.099  1.00  0.00    -0.354 N 
HETATM   14  H   UNL     1      -5.567   6.664 -30.095  1.00  0.00     0.166 HD
HETATM   15  C   UNL     1      -6.159   1.154 -31.057  1.00  0.00     0.057 C 
HETATM   16  C   UNL     1      -5.870  -0.241 -31.620  1.00  0.00     0.127 C 
ENDROOT
BRANCH   5  17
HETATM   17  C   UNL     1      -6.436   1.857 -34.028  1.00  0.00     0.122 C 
BRANCH  17  18
HETATM   18  C   UNL     1      -7.945   1.746 -34.368  1.00  0.00    -0.005 C 
HETATM   19  C   UNL     1      -8.281   0.290 -34.713  1.00  0.00     0.011 C 
HETATM   20  C   UNL     1      -8.835   2.217 -33.216  1.00  0.00     0.011 C 
ENDBRANCH  17  18
ENDBRANCH   5  17
BRANCH   1  21
HETATM   21  C   UNL     1      -4.114  -1.812 -32.292  1.00  0.00     0.103 A 
HETATM   22  N   UNL     1      -4.790  -2.381 -33.306  1.00  0.00    -0.344 N 
HETATM   23  C   UNL     1      -4.521  -3.584 -33.848  1.00  0.00     0.039 A 
HETATM   24  H   UNL     1      -5.590  -1.921 -33.745  1.00  0.00     0.167 HD
HETATM   25  C   UNL     1      -3.496  -4.359 -33.330  1.00  0.00     0.028 A 
HETATM   26  C   UNL     1      -2.783  -3.868 -32.248  1.00  0.00     0.006 A 
HETATM   27  C   UNL     1      -3.094  -2.609 -31.726  1.00  0.00     0.048 A 
BRANCH  23  28
HETATM   28  C   UNL     1      -5.394  -3.971 -35.007  1.00  0.00     0.163 C 
HETATM   29  C   UNL     1      -6.817  -3.453 -34.863  1.00  0.00     0.046 C 
BRANCH  28  30
HETATM   30  O   UNL     1      -5.425  -5.412 -34.985  1.00  0.00    -0.390 OA
HETATM   31  H   UNL     1      -4.519  -5.699 -34.739  1.00  0.00     0.210 HD
ENDBRANCH  28  30
ENDBRANCH  23  28
ENDBRANCH   1  21
TORSDOF 5
ENDMDL
MODEL 3
REMARK VINA RESULT:      -8.0      3.720      6.553
REMARK  5 active torsions:
REMARK  status: ('A' for Active; 'I' for Inactive)
REMARK    1  A    between atoms: C_2  and  O_3 
REMARK    2  A    between atoms: C_2  and  C_4 
REMARK    3  A    between atoms: C_7  and  N_8 
REMARK    4  A    between atoms: N_12  and  C_13 
REMARK    5  A    between atoms: C_13  and  C_14 
ROOT
HETATM    1  N   UNL     1      -5.018   4.606 -32.908  1.00  0.00    -0.367 N 
HETATM    2  C   UNL     1      -5.798   4.375 -34.141  1.00  0.00     0.127 C 
HETATM    3  C   UNL     1      -7.265   4.107 -33.845  1.00  0.00     0.057 C 
HETATM    4  C   UNL     1      -7.530   2.956 -32.845  1.00  0.00     0.075 C 
HETATM    5  N   UNL     1      -7.375   1.552 -33.389  1.00  0.00    -0.398 N 
HETATM    6  C   UNL     1      -8.309   1.228 -34.502  1.00  0.00     0.124 C 
HETATM    7  C   UNL     1      -9.791   1.222 -34.052  1.00  0.00     0.078 C 
HETATM    8  C   UNL     1     -10.004   2.277 -33.051  1.00  0.00     0.037 A 
HETATM    9  C   UNL     1      -9.015   3.047 -32.474  1.00  0.00     0.061 A 
HETATM   10  N   UNL     1      -9.669   3.890 -31.588  1.00  0.00    -0.352 N 
HETATM   11  H   UNL     1      -9.240   4.600 -31.000  1.00  0.00     0.166 HD
HETATM   12  C   UNL     1     -10.986   3.636 -31.580  1.00  0.00     0.181 A 
HETATM   13  N   UNL     1     -11.196   2.666 -32.475  1.00  0.00    -0.354 N 
HETATM   14  H   UNL     1     -12.109   2.264 -32.680  1.00  0.00     0.166 HD
HETATM   15  C   UNL     1      -6.682   3.257 -31.584  1.00  0.00     0.057 C 
HETATM   16  C   UNL     1      -5.215   3.622 -31.829  1.00  0.00     0.127 C 
ENDROOT
BRANCH   5  17
HETATM   17  C   UNL     1      -6.029   0.993 -33.546  1.00  0.00     0.122 C 
BRANCH  17  18
HETATM   18  C   UNL     1      -5.704  -0.348 -32.838  1.00  0.00    -0.005 C 
HETATM   19  C   UNL     1      -6.402  -0.384 -31.473  1.00  0.00     0.011 C 
HETATM   20  C   UNL     1      -6.136  -1.560 -33.667  1.00  0.00     0.011 C 
ENDBRANCH  17  18
ENDBRANCH   5  17
BRANCH   1  21
HETATM   21  C   UNL     1      -3.683   5.018 -33.137  1.00  0.00     0.103 A 
HETATM   22  N   UNL     1      -2.852   5.300 -32.118  1.00  0.00    -0.344 N 
HETATM   23  C   UNL     1      -1.557   5.649 -32.240  1.00  0.00     0.039 A 
HETATM   24  H   UNL     1      -3.163   5.273 -31.146  1.00  0.00     0.167 HD
HETATM   25  C   UNL     1      -0.994   5.780 -33.499  1.00  0.00     0.028 A 
HETATM   26  C   UNL     1      -1.799   5.559 -34.605  1.00  0.00     0.006 A 
HETATM   27  C   UNL     1      -3.136   5.190 -34.428  1.00  0.00     0.048 A 
BRANCH  23  28
HETATM   28  C   UNL     1      -0.830   5.862 -30.943  1.00  0.00     0.163 C 
HETATM   29  C   UNL     1       0.493   6.588 -31.130  1.00  0.00     0.046 C 
BRANCH  28  30
HETATM   30  O   UNL     1      -0.560   4.536 -30.445  1.00  0.00    -0.390 OA
HETATM   31  H   UNL     1      -0.051   4.657 -29.614  1.00  0.00     0.210 HD
ENDBRANCH  28  30
ENDBRANCH  23  28
ENDBRANCH   1  21
TORSDOF 5
ENDMDL
MODEL 4
REMARK VINA RESULT:      -7.9      1.291      2.189
REMARK  5 active torsions:
REMARK  status: ('A' for Active; 'I' for Inactive)
REMARK    1  A    between atoms: C_2  and  O_3 
REMARK    2  A    between atoms: C_2  and  C_4 
REMARK    3  A    between atoms: C_7  and  N_8 
REMARK    4  A    between atoms: N_12  and  C_13 
REMARK    5  A    between atoms: C_13  and  C_14 
ROOT
HETATM    1  N   UNL     1      -7.900  -0.201 -33.446  1.00  0.00    -0.367 N 
HETATM    2  C   UNL     1      -8.039   0.546 -32.180  1.00  0.00     0.127 C 
HETATM    3  C   UNL     1      -9.412   1.188 -32.045  1.00  0.00     0.057 C 
HETATM    4  C   UNL     1      -9.827   2.096 -33.227  1.00  0.00     0.075 C 
HETATM    5  N   UNL     1      -9.183   3.465 -33.273  1.00  0.00    -0.398 N 
HETATM    6  C   UNL     1      -9.491   4.318 -32.093  1.00  0.00     0.124 C 
HETATM    7  C   UNL     1     -10.992   4.686 -32.000  1.00  0.00     0.078 C 
HETATM    8  C   UNL     1     -11.806   3.550 -32.455  1.00  0.00     0.037 A 
HETATM    9  C   UNL     1     -11.318   2.395 -33.032  1.00  0.00     0.061 A 
HETATM   10  N   UNL     1     -12.434   1.619 -33.310  1.00  0.00    -0.352 N 
HETATM   11  H   UNL     1     -12.437   0.693 -33.730  1.00  0.00     0.166 HD
HETATM   12  C   UNL     1     -13.557   2.268 -32.966  1.00  0.00     0.181 A 
HETATM   13  N   UNL     1     -13.180   3.434 -32.437  1.00  0.00    -0.354 N 
HETATM   14  H   UNL     1     -13.827   4.141 -32.089  1.00  0.00     0.166 HD
HETATM   15  C   UNL     1      -9.653   1.257 -34.518  1.00  0.00     0.057 C 
HETATM   16  C   UNL     1      -8.321   0.514 -34.664  1.00  0.00     0.127 C 
ENDROOT
BRANCH   5  17
HETATM   17  C   UNL     1      -7.810   3.590 -33.770  1.00  0.00     0.122 C 
BRANCH  17  18
HETATM   18  C   UNL     1      -6.736   4.183 -32.821  1.00  0.00    -0.005 C 
HETATM   19  C   UNL     1      -5.591   3.176 -32.659  1.00  0.00     0.011 C 
HETATM   20  C   UNL     1      -6.180   5.513 -33.335  1.00  0.00     0.011 C 
ENDBRANCH  17  18
ENDBRANCH   5  17
BRANCH   1  21
HETATM   21  C   UNL     1      -6.702  -0.948 -33.548  1.00  0.00     0.103 A 
HETATM   22  N   UNL     1      -5.712  -0.812 -32.648  1.00  0.00    -0.344 N 
HETATM   23  C   UNL     1      -4.564  -1.515 -32.636  1.00  0.00     0.039 A 
HETATM   24  H   UNL     1      -5.767  -0.134 -31.886  1.00  0.00     0.167 HD
HETATM   25  C   UNL     1      -4.314  -2.442 -33.635  1.00  0.00     0.028 A 
HETATM   26  C   UNL     1      -5.261  -2.605 -34.633  1.00  0.00     0.006 A 
HETATM   27  C   UNL     1      -6.443  -1.858 -34.597  1.00  0.00     0.048 A 
BRANCH  23  28
HETATM   28  C   UNL     1      -3.641  -1.210 -31.491  1.00  0.00     0.163 C 
HETATM   29  C   UNL     1      -3.117   0.217 -31.530  1.00  0.00     0.046 C 
BRANCH  28  30
HETATM   30  O   UNL     1      -2.530  -2.112 -31.658  1.00  0.00    -0.390 OA
HETATM   31  H   UNL     1      -2.140  -2.232 -30.765  1.00  0.00     0.210 HD
ENDBRANCH  28  30
ENDBRANCH  23  28
ENDBRANCH   1  21
TORSDOF 5
ENDMDL
MODEL 5
REMARK VINA RESULT:      -7.9      2.620      7.123
REMARK  5 active torsions:
REMARK  status: ('A' for Active; 'I' for Inactive)
REMARK    1  A    between atoms: C_2  and  O_3 
REMARK    2  A    between atoms: C_2  and  C_4 
REMARK    3  A    between atoms: C_7  and  N_8 
REMARK    4  A    between atoms: N_12  and  C_13 
REMARK    5  A    between atoms: C_13  and  C_14 
ROOT
HETATM    1  N   UNL     1      -9.604   1.087 -34.121  1.00  0.00    -0.367 N 
HETATM    2  C   UNL     1      -8.304   1.615 -34.582  1.00  0.00     0.127 C 
HETATM    3  C   UNL     1      -7.274   0.511 -34.767  1.00  0.00     0.057 C 
HETATM    4  C   UNL     1      -7.053  -0.392 -33.529  1.00  0.00     0.075 C 
HETATM    5  N   UNL     1      -6.226   0.204 -32.410  1.00  0.00    -0.398 N 
HETATM    6  C   UNL     1      -4.833   0.547 -32.805  1.00  0.00     0.124 C 
HETATM    7  C   UNL     1      -3.995  -0.701 -33.179  1.00  0.00     0.078 C 
HETATM    8  C   UNL     1      -4.850  -1.679 -33.866  1.00  0.00     0.037 A 
HETATM    9  C   UNL     1      -6.219  -1.583 -34.013  1.00  0.00     0.061 A 
HETATM   10  N   UNL     1      -6.599  -2.723 -34.706  1.00  0.00    -0.352 N 
HETATM   11  H   UNL     1      -7.542  -2.969 -34.995  1.00  0.00     0.166 HD
HETATM   12  C   UNL     1      -5.536  -3.507 -34.942  1.00  0.00     0.181 A 
HETATM   13  N   UNL     1      -4.472  -2.872 -34.445  1.00  0.00    -0.354 N 
HETATM   14  H   UNL     1      -3.520  -3.237 -34.476  1.00  0.00     0.166 HD
HETATM   15  C   UNL     1      -8.450  -0.905 -33.097  1.00  0.00     0.057 C 
HETATM   16  C   UNL     1      -9.551   0.154 -32.981  1.00  0.00     0.127 C 
ENDROOT
BRANCH   5  17
HETATM   17  C   UNL     1      -6.850   1.162 -31.495  1.00  0.00     0.122 C 
BRANCH  17  18
HETATM   18  C   UNL     1      -6.302   2.613 -31.464  1.00  0.00    -0.005 C 
HETATM   19  C   UNL     1      -7.455   3.596 -31.709  1.00  0.00     0.011 C 
HETATM   20  C   UNL     1      -5.619   2.946 -30.136  1.00  0.00     0.011 C 
ENDBRANCH  17  18
ENDBRANCH   5  17
BRANCH   1  21
HETATM   21  C   UNL     1     -10.640   2.050 -34.087  1.00  0.00     0.103 A 
HETATM   22  N   UNL     1     -11.898   1.716 -33.752  1.00  0.00    -0.344 N 
HETATM   23  C   UNL     1     -12.932   2.571 -33.644  1.00  0.00     0.039 A 
HETATM   24  H   UNL     1     -12.164   0.750 -33.554  1.00  0.00     0.167 HD
HETATM   25  C   UNL     1     -12.747   3.915 -33.930  1.00  0.00     0.028 A 
HETATM   26  C   UNL     1     -11.491   4.334 -34.336  1.00  0.00     0.006 A 
HETATM   27  C   UNL     1     -10.446   3.409 -34.423  1.00  0.00     0.048 A 
BRANCH  23  28
HETATM   28  C   UNL     1     -14.228   1.954 -33.203  1.00  0.00     0.163 C 
HETATM   29  C   UNL     1     -14.765   2.577 -31.925  1.00  0.00     0.046 C 
BRANCH  28  30
HETATM   30  O   UNL     1     -13.912   0.571 -32.942  1.00  0.00    -0.390 OA
HETATM   31  H   UNL     1     -14.554   0.270 -32.263  1.00  0.00     0.210 HD
ENDBRANCH  28  30
ENDBRANCH  23  28
ENDBRANCH   1  21
TORSDOF 5
ENDMDL
MODEL 6
REMARK VINA RESULT:      -7.9      2.840      5.280
REMARK  5 active torsions:
REMARK  status: ('A' for Active; 'I' for Inactive)
REMARK    1  A    between atoms: C_2  and  O_3 
REMARK    2  A    between atoms: C_2  and  C_4 
REMARK    3  A    between atoms: C_7  and  N_8 
REMARK    4  A    between atoms: N_12  and  C_13 
REMARK    5  A    between atoms: C_13  and  C_14 
ROOT
HETATM    1  N   UNL     1      -5.004   0.823 -32.985  1.00  0.00    -0.367 N 
HETATM    2  C   UNL     1      -5.708   2.029 -33.465  1.00  0.00     0.127 C 
HETATM    3  C   UNL     1      -5.083   3.307 -32.926  1.00  0.00     0.057 C 
HETATM    4  C   UNL     1      -4.948   3.369 -31.386  1.00  0.00     0.075 C 
HETATM    5  N   UNL     1      -6.220   3.657 -30.617  1.00  0.00    -0.398 N 
HETATM    6  C   UNL     1      -6.833   4.975 -30.936  1.00  0.00     0.124 C 
HETATM    7  C   UNL     1      -5.939   6.166 -30.510  1.00  0.00     0.078 C 
HETATM    8  C   UNL     1      -4.526   5.819 -30.722  1.00  0.00     0.037 A 
HETATM    9  C   UNL     1      -4.052   4.575 -31.084  1.00  0.00     0.061 A 
HETATM   10  N   UNL     1      -2.673   4.709 -31.153  1.00  0.00    -0.352 N 
HETATM   11  H   UNL     1      -2.007   3.983 -31.405  1.00  0.00     0.166 HD
HETATM   12  C   UNL     1      -2.303   5.953 -30.814  1.00  0.00     0.181 A 
HETATM   13  N   UNL     1      -3.424   6.633 -30.563  1.00  0.00    -0.354 N 
HETATM   14  H   UNL     1      -3.450   7.610 -30.275  1.00  0.00     0.166 HD
HETATM   15  C   UNL     1      -4.210   2.078 -30.951  1.00  0.00     0.057 C 
HETATM   16  C   UNL     1      -4.742   0.767 -31.536  1.00  0.00     0.127 C 
ENDROOT
BRANCH   5  17
HETATM   17  C   UNL     1      -7.185   2.575 -30.405  1.00  0.00     0.122 C 
BRANCH  17  18
HETATM   18  C   UNL     1      -8.504   2.596 -31.220  1.00  0.00    -0.005 C 
HETATM   19  C   UNL     1      -8.835   1.172 -31.686  1.00  0.00     0.011 C 
HETATM   20  C   UNL     1      -9.676   3.155 -30.411  1.00  0.00     0.011 C 
ENDBRANCH  17  18
ENDBRANCH   5  17
BRANCH   1  21
HETATM   21  C   UNL     1      -5.445  -0.381 -33.584  1.00  0.00     0.103 A 
HETATM   22  N   UNL     1      -4.654  -1.466 -33.642  1.00  0.00    -0.344 N 
HETATM   23  C   UNL     1      -5.006  -2.664 -34.145  1.00  0.00     0.039 A 
HETATM   24  H   UNL     1      -3.692  -1.451 -33.300  1.00  0.00     0.167 HD
HETATM   25  C   UNL     1      -6.266  -2.836 -34.698  1.00  0.00     0.028 A 
HETATM   26  C   UNL     1      -7.125  -1.750 -34.726  1.00  0.00     0.006 A 
HETATM   27  C   UNL     1      -6.717  -0.528 -34.182  1.00  0.00     0.048 A 
BRANCH  23  28
HETATM   28  C   UNL     1      -3.955  -3.732 -34.046  1.00  0.00     0.163 C 
HETATM   29  C   UNL     1      -4.538  -5.134 -34.130  1.00  0.00     0.046 C 
BRANCH  28  30
HETATM   30  O   UNL     1      -3.368  -3.557 -32.741  1.00  0.00    -0.390 OA
HETATM   31  H   UNL     1      -3.953  -2.931 -32.262  1.00  0.00     0.210 HD
ENDBRANCH  28  30
ENDBRANCH  23  28
ENDBRANCH   1  21
TORSDOF 5
ENDMDL
MODEL 7
REMARK VINA RESULT:      -7.8      4.761      7.810
REMARK  5 active torsions:
REMARK  status: ('A' for Active; 'I' for Inactive)
REMARK    1  A    between atoms: C_2  and  O_3 
REMARK    2  A    between atoms: C_2  and  C_4 
REMARK    3  A    between atoms: C_7  and  N_8 
REMARK    4  A    between atoms: N_12  and  C_13 
REMARK    5  A    between atoms: C_13  and  C_14 
ROOT
HETATM    1  N   UNL     1      -3.008   4.078 -32.313  1.00  0.00    -0.367 N 
HETATM    2  C   UNL     1      -2.841   2.848 -31.513  1.00  0.00     0.127 C 
HETATM    3  C   UNL     1      -3.758   1.731 -31.989  1.00  0.00     0.057 C 
HETATM    4  C   UNL     1      -5.259   2.102 -32.057  1.00  0.00     0.075 C 
HETATM    5  N   UNL     1      -5.992   2.151 -30.733  1.00  0.00    -0.398 N 
HETATM    6  C   UNL     1      -6.018   0.852 -30.007  1.00  0.00     0.124 C 
HETATM    7  C   UNL     1      -6.818  -0.237 -30.764  1.00  0.00     0.078 C 
HETATM    8  C   UNL     1      -6.611  -0.083 -32.211  1.00  0.00     0.037 A 
HETATM    9  C   UNL     1      -5.945   0.962 -32.819  1.00  0.00     0.061 A 
HETATM   10  N   UNL     1      -6.007   0.701 -34.179  1.00  0.00    -0.352 N 
HETATM   11  H   UNL     1      -5.606   1.266 -34.922  1.00  0.00     0.166 HD
HETATM   12  C   UNL     1      -6.706  -0.420 -34.413  1.00  0.00     0.181 A 
HETATM   13  N   UNL     1      -7.064  -0.905 -33.221  1.00  0.00    -0.354 N 
HETATM   14  H   UNL     1      -7.613  -1.754 -33.089  1.00  0.00     0.166 HD
HETATM   15  C   UNL     1      -5.361   3.397 -32.900  1.00  0.00     0.057 C 
HETATM   16  C   UNL     1      -4.396   4.525 -32.522  1.00  0.00     0.127 C 
ENDROOT
BRANCH   5  17
HETATM   17  C   UNL     1      -5.828   3.324 -29.871  1.00  0.00     0.122 C 
BRANCH  17  18
HETATM   18  C   UNL     1      -7.085   4.166 -29.529  1.00  0.00    -0.005 C 
HETATM   19  C   UNL     1      -6.829   5.633 -29.898  1.00  0.00     0.011 C 
HETATM   20  C   UNL     1      -8.334   3.666 -30.258  1.00  0.00     0.011 C 
ENDBRANCH  17  18
ENDBRANCH   5  17
BRANCH   1  21
HETATM   21  C   UNL     1      -2.067   5.093 -32.015  1.00  0.00     0.103 A 
HETATM   22  N   UNL     1      -1.534   5.216 -30.787  1.00  0.00    -0.344 N 
HETATM   23  C   UNL     1      -0.598   6.115 -30.428  1.00  0.00     0.039 A 
HETATM   24  H   UNL     1      -1.819   4.614 -30.013  1.00  0.00     0.167 HD
HETATM   25  C   UNL     1      -0.140   7.040 -31.353  1.00  0.00     0.028 A 
HETATM   26  C   UNL     1      -0.679   7.015 -32.629  1.00  0.00     0.006 A 
HETATM   27  C   UNL     1      -1.642   6.056 -32.957  1.00  0.00     0.048 A 
BRANCH  23  28
HETATM   28  C   UNL     1      -0.127   6.012 -29.006  1.00  0.00     0.163 C 
HETATM   29  C   UNL     1       0.685   7.222 -28.572  1.00  0.00     0.046 C 
BRANCH  28  30
HETATM   30  O   UNL     1       0.727   4.852 -28.979  1.00  0.00    -0.390 OA
HETATM   31  H   UNL     1       1.610   5.171 -28.688  1.00  0.00     0.210 HD
ENDBRANCH  28  30
ENDBRANCH  23  28
ENDBRANCH   1  21
TORSDOF 5
ENDMDL
MODEL 8
REMARK VINA RESULT:      -7.6      2.851      7.271
REMARK  5 active torsions:
REMARK  status: ('A' for Active; 'I' for Inactive)
REMARK    1  A    between atoms: C_2  and  O_3 
REMARK    2  A    between atoms: C_2  and  C_4 
REMARK    3  A    between atoms: C_7  and  N_8 
REMARK    4  A    between atoms: N_12  and  C_13 
REMARK    5  A    between atoms: C_13  and  C_14 
ROOT
HETATM    1  N   UNL     1      -9.247   1.203 -34.273  1.00  0.00    -0.367 N 
HETATM    2  C   UNL     1      -7.896   1.615 -34.703  1.00  0.00     0.127 C 
HETATM    3  C   UNL     1      -6.956   0.428 -34.844  1.00  0.00     0.057 C 
HETATM    4  C   UNL     1      -6.845  -0.470 -33.588  1.00  0.00     0.075 C 
HETATM    5  N   UNL     1      -6.002   0.073 -32.454  1.00  0.00    -0.398 N 
HETATM    6  C   UNL     1      -4.575   0.295 -32.813  1.00  0.00     0.124 C 
HETATM    7  C   UNL     1      -3.833  -1.023 -33.146  1.00  0.00     0.078 C 
HETATM    8  C   UNL     1      -4.746  -1.939 -33.844  1.00  0.00     0.037 A 
HETATM    9  C   UNL     1      -6.098  -1.733 -34.032  1.00  0.00     0.061 A 
HETATM   10  N   UNL     1      -6.552  -2.849 -34.720  1.00  0.00    -0.352 N 
HETATM   11  H   UNL     1      -7.503  -3.021 -35.032  1.00  0.00     0.166 HD
HETATM   12  C   UNL     1      -5.551  -3.721 -34.915  1.00  0.00     0.181 A 
HETATM   13  N   UNL     1      -4.452  -3.168 -34.396  1.00  0.00    -0.354 N 
HETATM   14  H   UNL     1      -3.534  -3.610 -34.394  1.00  0.00     0.166 HD
HETATM   15  C   UNL     1      -8.290  -0.860 -33.189  1.00  0.00     0.057 C 
HETATM   16  C   UNL     1      -9.303   0.287 -33.120  1.00  0.00     0.127 C 
ENDROOT
BRANCH   5  17
HETATM   17  C   UNL     1      -6.570   1.094 -31.570  1.00  0.00     0.122 C 
BRANCH  17  18
HETATM   18  C   UNL     1      -5.937   2.510 -31.580  1.00  0.00    -0.005 C 
HETATM   19  C   UNL     1      -7.024   3.549 -31.883  1.00  0.00     0.011 C 
HETATM   20  C   UNL     1      -5.259   2.851 -30.251  1.00  0.00     0.011 C 
ENDBRANCH  17  18
ENDBRANCH   5  17
BRANCH   1  21
HETATM   21  C   UNL     1     -10.201   2.249 -34.282  1.00  0.00     0.103 A 
HETATM   22  N   UNL     1      -9.826   3.540 -34.309  1.00  0.00    -0.344 N 
HETATM   23  C   UNL     1     -10.659   4.595 -34.370  1.00  0.00     0.039 A 
HETATM   24  H   UNL     1      -8.843   3.816 -34.277  1.00  0.00     0.167 HD
HETATM   25  C   UNL     1     -12.030   4.391 -34.369  1.00  0.00     0.028 A 
HETATM   26  C   UNL     1     -12.501   3.090 -34.289  1.00  0.00     0.006 A 
HETATM   27  C   UNL     1     -11.595   2.027 -34.237  1.00  0.00     0.048 A 
BRANCH  23  28
HETATM   28  C   UNL     1      -9.987   5.936 -34.442  1.00  0.00     0.163 C 
HETATM   29  C   UNL     1     -10.457   6.761 -35.630  1.00  0.00     0.046 C 
BRANCH  28  30
HETATM   30  O   UNL     1      -8.586   5.642 -34.612  1.00  0.00    -0.390 OA
HETATM   31  H   UNL     1      -8.100   6.404 -34.228  1.00  0.00     0.210 HD
ENDBRANCH  28  30
ENDBRANCH  23  28
ENDBRANCH   1  21
TORSDOF 5
ENDMDL
MODEL 9
REMARK VINA RESULT:      -7.6     15.226     17.198
REMARK  5 active torsions:
REMARK  status: ('A' for Active; 'I' for Inactive)
REMARK    1  A    between atoms: C_2  and  O_3 
REMARK    2  A    between atoms: C_2  and  C_4 
REMARK    3  A    between atoms: C_7  and  N_8 
REMARK    4  A    between atoms: N_12  and  C_13 
REMARK    5  A    between atoms: C_13  and  C_14 
ROOT
HETATM    1  N   UNL     1      -7.010 -13.515 -40.286  1.00  0.00    -0.367 N 
HETATM    2  C   UNL     1      -6.355 -12.473 -39.471  1.00  0.00     0.127 C 
HETATM    3  C   UNL     1      -4.838 -12.554 -39.555  1.00  0.00     0.057 C 
HETATM    4  C   UNL     1      -4.237 -13.936 -39.203  1.00  0.00     0.075 C 
HETATM    5  N   UNL     1      -4.183 -14.282 -37.731  1.00  0.00    -0.398 N 
HETATM    6  C   UNL     1      -3.344 -13.356 -36.922  1.00  0.00     0.124 C 
HETATM    7  C   UNL     1      -1.846 -13.418 -37.310  1.00  0.00     0.078 C 
HETATM    8  C   UNL     1      -1.721 -13.620 -38.760  1.00  0.00     0.037 A 
HETATM    9  C   UNL     1      -2.765 -13.881 -39.626  1.00  0.00     0.061 A 
HETATM   10  N   UNL     1      -2.184 -14.011 -40.879  1.00  0.00    -0.352 N 
HETATM   11  H   UNL     1      -2.668 -14.196 -41.753  1.00  0.00     0.166 HD
HETATM   12  C   UNL     1      -0.852 -13.881 -40.796  1.00  0.00     0.181 A 
HETATM   13  N   UNL     1      -0.567 -13.632 -39.516  1.00  0.00    -0.354 N 
HETATM   14  H   UNL     1       0.375 -13.492 -39.154  1.00  0.00     0.166 HD
HETATM   15  C   UNL     1      -4.970 -14.978 -40.085  1.00  0.00     0.057 C 
HETATM   16  C   UNL     1      -6.498 -14.885 -40.109  1.00  0.00     0.127 C 
ENDROOT
BRANCH   5  17
HETATM   17  C   UNL     1      -5.403 -14.737 -37.060  1.00  0.00     0.122 C 
BRANCH  17  18
HETATM   18  C   UNL     1      -6.023 -13.828 -35.967  1.00  0.00    -0.005 C 
HETATM   19  C   UNL     1      -7.469 -13.489 -36.349  1.00  0.00     0.011 C 
HETATM   20  C   UNL     1      -5.999 -14.485 -34.585  1.00  0.00     0.011 C 
ENDBRANCH  17  18
ENDBRANCH   5  17
BRANCH   1  21
HETATM   21  C   UNL     1      -8.417 -13.384 -40.370  1.00  0.00     0.103 A 
HETATM   22  N   UNL     1      -9.189 -14.387 -40.823  1.00  0.00    -0.344 N 
HETATM   23  C   UNL     1     -10.534 -14.369 -40.889  1.00  0.00     0.039 A 
HETATM   24  H   UNL     1      -8.790 -15.262 -41.166  1.00  0.00     0.167 HD
HETATM   25  C   UNL     1     -11.228 -13.232 -40.508  1.00  0.00     0.028 A 
HETATM   26  C   UNL     1     -10.502 -12.132 -40.080  1.00  0.00     0.006 A 
HETATM   27  C   UNL     1      -9.107 -12.202 -40.018  1.00  0.00     0.048 A 
BRANCH  23  28
HETATM   28  C   UNL     1     -11.164 -15.639 -41.386  1.00  0.00     0.163 C 
HETATM   29  C   UNL     1     -10.693 -16.863 -40.617  1.00  0.00     0.046 C 
BRANCH  28  30
HETATM   30  O   UNL     1     -10.729 -15.761 -42.755  1.00  0.00    -0.390 OA
HETATM   31  H   UNL     1     -10.401 -14.873 -43.015  1.00  0.00     0.210 HD
ENDBRANCH  28  30
ENDBRANCH  23  28
ENDBRANCH   1  21
TORSDOF 5
ENDMDL
MODEL 10
REMARK VINA RESULT:      -7.6      2.445      4.391
REMARK  5 active torsions:
REMARK  status: ('A' for Active; 'I' for Inactive)
REMARK    1  A    between atoms: C_2  and  O_3 
REMARK    2  A    between atoms: C_2  and  C_4 
REMARK    3  A    between atoms: C_7  and  N_8 
REMARK    4  A    between atoms: N_12  and  C_13 
REMARK    5  A    between atoms: C_13  and  C_14 
ROOT
HETATM    1  N   UNL     1      -5.708   0.269 -32.446  1.00  0.00    -0.367 N 
HETATM    2  C   UNL     1      -5.998   1.522 -33.171  1.00  0.00     0.127 C 
HETATM    3  C   UNL     1      -5.917   2.738 -32.261  1.00  0.00     0.057 C 
HETATM    4  C   UNL     1      -6.797   2.663 -30.990  1.00  0.00     0.075 C 
HETATM    5  N   UNL     1      -8.278   2.902 -31.191  1.00  0.00    -0.398 N 
HETATM    6  C   UNL     1      -8.606   4.251 -31.725  1.00  0.00     0.124 C 
HETATM    7  C   UNL     1      -8.242   5.387 -30.737  1.00  0.00     0.078 C 
HETATM    8  C   UNL     1      -7.004   5.040 -30.024  1.00  0.00     0.037 A 
HETATM    9  C   UNL     1      -6.353   3.825 -30.094  1.00  0.00     0.061 A 
HETATM   10  N   UNL     1      -5.253   3.945 -29.257  1.00  0.00    -0.352 N 
HETATM   11  H   UNL     1      -4.548   3.234 -29.081  1.00  0.00     0.166 HD
HETATM   12  C   UNL     1      -5.240   5.148 -28.666  1.00  0.00     0.181 A 
HETATM   13  N   UNL     1      -6.293   5.821 -29.137  1.00  0.00    -0.354 N 
HETATM   14  H   UNL     1      -6.540   6.769 -28.857  1.00  0.00     0.166 HD
HETATM   15  C   UNL     1      -6.448   1.329 -30.284  1.00  0.00     0.057 C 
HETATM   16  C   UNL     1      -6.426   0.082 -31.173  1.00  0.00     0.127 C 
ENDROOT
BRANCH   5  17
HETATM   17  C   UNL     1      -9.108   1.819 -31.726  1.00  0.00     0.122 C 
BRANCH  17  18
HETATM   18  C   UNL     1      -9.713   1.990 -33.144  1.00  0.00    -0.005 C 
HETATM   19  C   UNL     1      -9.491   0.703 -33.949  1.00  0.00     0.011 C 
HETATM   20  C   UNL     1     -11.208   2.315 -33.100  1.00  0.00     0.011 C 
ENDBRANCH  17  18
ENDBRANCH   5  17
BRANCH   1  21
HETATM   21  C   UNL     1      -5.613  -0.872 -33.279  1.00  0.00     0.103 A 
HETATM   22  N   UNL     1      -4.648  -1.791 -33.101  1.00  0.00    -0.344 N 
HETATM   23  C   UNL     1      -4.512  -2.928 -33.809  1.00  0.00     0.039 A 
HETATM   24  H   UNL     1      -3.923  -1.681 -32.391  1.00  0.00     0.167 HD
HETATM   25  C   UNL     1      -5.389  -3.203 -34.847  1.00  0.00     0.028 A 
HETATM   26  C   UNL     1      -6.381  -2.279 -35.131  1.00  0.00     0.006 A 
HETATM   27  C   UNL     1      -6.489  -1.117 -34.360  1.00  0.00     0.048 A 
BRANCH  23  28
HETATM   28  C   UNL     1      -3.379  -3.816 -33.379  1.00  0.00     0.163 C 
HETATM   29  C   UNL     1      -3.730  -5.293 -33.470  1.00  0.00     0.046 C 
BRANCH  28  30
HETATM   30  O   UNL     1      -3.149  -3.483 -31.996  1.00  0.00    -0.390 OA
HETATM   31  H   UNL     1      -2.175  -3.473 -31.877  1.00  0.00     0.210 HD
ENDBRANCH  28  30
ENDBRANCH  23  28
ENDBRANCH   1  21
TORSDOF 5
ENDMDL
