MODEL 1
REMARK VINA RESULT:      -9.7      0.000      0.000
REMARK  6 active torsions:
REMARK  status: ('A' for Active; 'I' for Inactive)
REMARK    1  A    between atoms: O_2  and  C_3 
REMARK    2  A    between atoms: C_5  and  C_6 
REMARK    3  A    between atoms: C_12  and  C_13 
REMARK       I    between atoms: C_13  and  N_14 
REMARK    4  A    between atoms: N_14  and  C_15 
REMARK    5  A    between atoms: C_17  and  O_18 
REMARK    6  A    between atoms: C_23  and  C_24 
ROOT
HETATM    1  C   UNL     1      -7.341   0.077 -33.338  1.00  0.00     0.118 C 
HETATM    2  N   UNL     1      -6.674   1.386 -33.286  1.00  0.00    -0.365 N 
HETATM    3  C   UNL     1      -7.380   2.523 -33.561  1.00  0.00     0.138 A 
HETATM    4  N   UNL     1      -8.665   2.450 -34.051  1.00  0.00    -0.240 N 
HETATM    5  N   UNL     1      -9.222   3.637 -34.320  1.00  0.00    -0.181 NA
HETATM    6  C   UNL     1      -8.292   4.505 -33.919  1.00  0.00     0.160 A 
HETATM    7  C   UNL     1      -7.109   3.877 -33.449  1.00  0.00     0.096 A 
HETATM    8  C   UNL     1      -9.405   1.221 -34.255  1.00  0.00     0.221 C 
HETATM    9  C   UNL     1      -8.420   0.063 -34.435  1.00  0.00     0.066 C 
HETATM   10  H   UNL     1      -5.967   1.414 -32.549  1.00  0.00     0.161 HD
ENDROOT
BRANCH   7  11
HETATM   11  C   UNL     1      -5.933   4.582 -32.966  1.00  0.00     0.261 C 
HETATM   12  N   UNL     1      -4.742   4.154 -33.520  1.00  0.00    -0.323 N 
HETATM   13  H   UNL     1      -4.828   3.494 -34.284  1.00  0.00     0.169 HD
HETATM   14  O   UNL     1      -6.056   5.494 -32.155  1.00  0.00    -0.267 OA
BRANCH  12  15
HETATM   15  C   UNL     1      -3.440   4.593 -33.195  1.00  0.00     0.037 A 
HETATM   16  C   UNL     1      -2.801   4.304 -31.984  1.00  0.00     0.066 A 
HETATM   17  C   UNL     1      -1.509   4.772 -31.750  1.00  0.00     0.067 A 
HETATM   18  C   UNL     1      -0.833   5.519 -32.704  1.00  0.00     0.036 A 
HETATM   19  C   UNL     1      -1.459   5.807 -33.914  1.00  0.00     0.005 A 
HETATM   20  C   UNL     1      -2.757   5.347 -34.158  1.00  0.00     0.029 A 
BRANCH  17  21
HETATM   21  O   UNL     1      -0.864   4.510 -30.575  1.00  0.00    -0.361 OA
HETATM   22  H   UNL     1      -0.637   3.564 -30.554  1.00  0.00     0.217 HD
ENDBRANCH  17  21
ENDBRANCH  12  15
ENDBRANCH   7  11
BRANCH   1  23
HETATM   23  C   UNL     1      -6.332  -1.026 -33.589  1.00  0.00    -0.033 A 
HETATM   24  C   UNL     1      -5.173  -1.155 -32.803  1.00  0.00     0.046 A 
HETATM   25  C   UNL     1      -4.186  -2.094 -33.115  1.00  0.00     0.068 A 
HETATM   26  C   UNL     1      -4.370  -2.947 -34.202  1.00  0.00     0.037 A 
HETATM   27  C   UNL     1      -5.526  -2.849 -34.979  1.00  0.00     0.003 A 
HETATM   28  C   UNL     1      -6.497  -1.892 -34.681  1.00  0.00     0.009 A 
BRANCH  25  29
HETATM   29  O   UNL     1      -3.096  -2.078 -32.288  1.00  0.00    -0.356 OA
HETATM   30  C   UNL     1      -2.732  -0.814 -31.746  1.00  0.00     0.210 C 
ENDBRANCH  25  29
ENDBRANCH   1  23
BRANCH   8  31
HETATM   31  C   UNL     1     -10.360   0.997 -33.102  1.00  0.00     0.409 C 
HETATM   32  F   UNL     1     -10.596  -0.311 -32.858  1.00  0.00    -0.169 F 
HETATM   33  F   UNL     1      -9.943   1.561 -31.950  1.00  0.00    -0.169 F 
HETATM   34  F   UNL     1     -11.565   1.556 -33.390  1.00  0.00    -0.169 F 
ENDBRANCH   8  31
TORSDOF 6
ENDMDL
MODEL 2
REMARK VINA RESULT:      -9.6      1.311      2.088
REMARK  6 active torsions:
REMARK  status: ('A' for Active; 'I' for Inactive)
REMARK    1  A    between atoms: O_2  and  C_3 
REMARK    2  A    between atoms: C_5  and  C_6 
REMARK    3  A    between atoms: C_12  and  C_13 
REMARK       I    between atoms: C_13  and  N_14 
REMARK    4  A    between atoms: N_14  and  C_15 
REMARK    5  A    between atoms: C_17  and  O_18 
REMARK    6  A    between atoms: C_23  and  C_24 
ROOT
HETATM    1  C   UNL     1      -7.083  -0.032 -33.210  1.00  0.00     0.118 C 
HETATM    2  N   UNL     1      -6.536   1.334 -33.206  1.00  0.00    -0.365 N 
HETATM    3  C   UNL     1      -7.344   2.392 -33.513  1.00  0.00     0.138 A 
HETATM    4  N   UNL     1      -8.619   2.187 -33.991  1.00  0.00    -0.240 N 
HETATM    5  N   UNL     1      -9.283   3.309 -34.295  1.00  0.00    -0.181 NA
HETATM    6  C   UNL     1      -8.434   4.270 -33.930  1.00  0.00     0.160 A 
HETATM    7  C   UNL     1      -7.197   3.768 -33.448  1.00  0.00     0.096 A 
HETATM    8  C   UNL     1      -9.246   0.890 -34.149  1.00  0.00     0.221 C 
HETATM    9  C   UNL     1      -8.162  -0.180 -34.298  1.00  0.00     0.066 C 
HETATM   10  H   UNL     1      -5.831   1.450 -32.476  1.00  0.00     0.161 HD
ENDROOT
BRANCH   7  11
HETATM   11  C   UNL     1      -6.086   4.593 -32.998  1.00  0.00     0.261 C 
HETATM   12  N   UNL     1      -4.883   4.320 -33.620  1.00  0.00    -0.323 N 
HETATM   13  H   UNL     1      -4.931   3.675 -34.400  1.00  0.00     0.169 HD
HETATM   14  O   UNL     1      -6.274   5.462 -32.154  1.00  0.00    -0.267 OA
BRANCH  12  15
HETATM   15  C   UNL     1      -3.626   4.899 -33.341  1.00  0.00     0.037 A 
HETATM   16  C   UNL     1      -3.201   6.125 -33.863  1.00  0.00     0.066 A 
HETATM   17  C   UNL     1      -1.944   6.627 -33.528  1.00  0.00     0.067 A 
HETATM   18  C   UNL     1      -1.099   5.933 -32.674  1.00  0.00     0.036 A 
HETATM   19  C   UNL     1      -1.516   4.714 -32.145  1.00  0.00     0.005 A 
HETATM   20  C   UNL     1      -2.773   4.199 -32.479  1.00  0.00     0.029 A 
BRANCH  17  21
HETATM   21  O   UNL     1      -1.502   7.819 -34.028  1.00  0.00    -0.361 OA
HETATM   22  H   UNL     1      -1.332   7.707 -34.980  1.00  0.00     0.217 HD
ENDBRANCH  17  21
ENDBRANCH  12  15
ENDBRANCH   7  11
BRANCH   1  23
HETATM   23  C   UNL     1      -5.979  -1.047 -33.432  1.00  0.00    -0.033 A 
HETATM   24  C   UNL     1      -6.110  -2.081 -34.376  1.00  0.00     0.046 A 
HETATM   25  C   UNL     1      -5.145  -3.085 -34.490  1.00  0.00     0.068 A 
HETATM   26  C   UNL     1      -4.011  -3.041 -33.681  1.00  0.00     0.037 A 
HETATM   27  C   UNL     1      -3.854  -2.009 -32.755  1.00  0.00     0.003 A 
HETATM   28  C   UNL     1      -4.832  -1.023 -32.624  1.00  0.00     0.009 A 
BRANCH  25  29
HETATM   29  O   UNL     1      -5.425  -4.048 -35.421  1.00  0.00    -0.356 OA
HETATM   30  C   UNL     1      -6.737  -4.598 -35.388  1.00  0.00     0.210 C 
ENDBRANCH  25  29
ENDBRANCH   1  23
BRANCH   8  31
HETATM   31  C   UNL     1     -10.171   0.620 -32.981  1.00  0.00     0.409 C 
HETATM   32  F   UNL     1     -10.277  -0.695 -32.684  1.00  0.00    -0.169 F 
HETATM   33  F   UNL     1      -9.809   1.268 -31.855  1.00  0.00    -0.169 F 
HETATM   34  F   UNL     1     -11.427   1.045 -33.283  1.00  0.00    -0.169 F 
ENDBRANCH   8  31
TORSDOF 6
ENDMDL
MODEL 3
REMARK VINA RESULT:      -9.2      2.957      5.359
REMARK  6 active torsions:
REMARK  status: ('A' for Active; 'I' for Inactive)
REMARK    1  A    between atoms: O_2  and  C_3 
REMARK    2  A    between atoms: C_5  and  C_6 
REMARK    3  A    between atoms: C_12  and  C_13 
REMARK       I    between atoms: C_13  and  N_14 
REMARK    4  A    between atoms: N_14  and  C_15 
REMARK    5  A    between atoms: C_17  and  O_18 
REMARK    6  A    between atoms: C_23  and  C_24 
ROOT
HETATM    1  C   UNL     1      -8.090   0.865 -34.014  1.00  0.00     0.118 C 
HETATM    2  N   UNL     1      -7.086   1.770 -33.433  1.00  0.00    -0.365 N 
HETATM    3  C   UNL     1      -5.915   1.264 -32.945  1.00  0.00     0.138 A 
HETATM    4  N   UNL     1      -5.728  -0.096 -32.834  1.00  0.00    -0.240 N 
HETATM    5  N   UNL     1      -4.554  -0.452 -32.298  1.00  0.00    -0.181 NA
HETATM    6  C   UNL     1      -3.934   0.717 -32.129  1.00  0.00     0.160 A 
HETATM    7  C   UNL     1      -4.732   1.831 -32.497  1.00  0.00     0.096 A 
HETATM    8  C   UNL     1      -6.680  -1.100 -33.266  1.00  0.00     0.221 C 
HETATM    9  C   UNL     1      -8.084  -0.490 -33.284  1.00  0.00     0.066 C 
HETATM   10  H   UNL     1      -7.068   2.667 -33.920  1.00  0.00     0.161 HD
ENDROOT
BRANCH   7  11
HETATM   11  C   UNL     1      -4.311   3.219 -32.402  1.00  0.00     0.261 C 
HETATM   12  N   UNL     1      -3.023   3.457 -32.839  1.00  0.00    -0.323 N 
HETATM   13  H   UNL     1      -2.564   2.675 -33.291  1.00  0.00     0.169 HD
HETATM   14  O   UNL     1      -5.093   4.068 -31.986  1.00  0.00    -0.267 OA
BRANCH  12  15
HETATM   15  C   UNL     1      -2.317   4.679 -32.799  1.00  0.00     0.037 A 
HETATM   16  C   UNL     1      -2.550   5.742 -33.678  1.00  0.00     0.066 A 
HETATM   17  C   UNL     1      -1.811   6.918 -33.561  1.00  0.00     0.067 A 
HETATM   18  C   UNL     1      -0.844   7.062 -32.575  1.00  0.00     0.036 A 
HETATM   19  C   UNL     1      -0.609   6.012 -31.692  1.00  0.00     0.005 A 
HETATM   20  C   UNL     1      -1.342   4.825 -31.804  1.00  0.00     0.029 A 
BRANCH  17  21
HETATM   21  O   UNL     1      -2.013   7.969 -34.410  1.00  0.00    -0.361 OA
HETATM   22  H   UNL     1      -2.720   8.528 -34.042  1.00  0.00     0.217 HD
ENDBRANCH  17  21
ENDBRANCH  12  15
ENDBRANCH   7  11
BRANCH   1  23
HETATM   23  C   UNL     1      -9.472   1.486 -33.942  1.00  0.00    -0.033 A 
HETATM   24  C   UNL     1     -10.614   0.710 -33.679  1.00  0.00     0.046 A 
HETATM   25  C   UNL     1     -11.896   1.264 -33.737  1.00  0.00     0.068 A 
HETATM   26  C   UNL     1     -12.045   2.620 -34.022  1.00  0.00     0.037 A 
HETATM   27  C   UNL     1     -10.920   3.410 -34.262  1.00  0.00     0.003 A 
HETATM   28  C   UNL     1      -9.643   2.849 -34.231  1.00  0.00     0.009 A 
BRANCH  25  29
HETATM   29  O   UNL     1     -12.914   0.381 -33.500  1.00  0.00    -0.356 OA
HETATM   30  C   UNL     1     -14.171   0.691 -34.093  1.00  0.00     0.210 C 
ENDBRANCH  25  29
ENDBRANCH   1  23
BRANCH   8  31
HETATM   31  C   UNL     1      -6.270  -1.653 -34.614  1.00  0.00     0.409 C 
HETATM   32  F   UNL     1      -6.313  -0.729 -35.599  1.00  0.00    -0.169 F 
HETATM   33  F   UNL     1      -5.034  -2.194 -34.612  1.00  0.00    -0.169 F 
HETATM   34  F   UNL     1      -7.124  -2.644 -34.983  1.00  0.00    -0.169 F 
ENDBRANCH   8  31
TORSDOF 6
ENDMDL
MODEL 4
REMARK VINA RESULT:      -9.1      1.253      1.999
REMARK  6 active torsions:
REMARK  status: ('A' for Active; 'I' for Inactive)
REMARK    1  A    between atoms: O_2  and  C_3 
REMARK    2  A    between atoms: C_5  and  C_6 
REMARK    3  A    between atoms: C_12  and  C_13 
REMARK       I    between atoms: C_13  and  N_14 
REMARK    4  A    between atoms: N_14  and  C_15 
REMARK    5  A    between atoms: C_17  and  O_18 
REMARK    6  A    between atoms: C_23  and  C_24 
ROOT
HETATM    1  C   UNL     1      -6.846   0.476 -33.173  1.00  0.00     0.118 C 
HETATM    2  N   UNL     1      -6.131   1.746 -32.969  1.00  0.00    -0.365 N 
HETATM    3  C   UNL     1      -6.764   2.931 -33.217  1.00  0.00     0.138 A 
HETATM    4  N   UNL     1      -8.003   2.954 -33.817  1.00  0.00    -0.240 N 
HETATM    5  N   UNL     1      -8.486   4.182 -34.044  1.00  0.00    -0.181 NA
HETATM    6  C   UNL     1      -7.559   4.974 -33.502  1.00  0.00     0.160 A 
HETATM    7  C   UNL     1      -6.448   4.259 -32.983  1.00  0.00     0.096 A 
HETATM    8  C   UNL     1      -8.773   1.779 -34.173  1.00  0.00     0.221 C 
HETATM    9  C   UNL     1      -7.825   0.590 -34.355  1.00  0.00     0.066 C 
HETATM   10  H   UNL     1      -5.491   1.688 -32.176  1.00  0.00     0.161 HD
ENDROOT
BRANCH   7  11
HETATM   11  C   UNL     1      -5.290   4.873 -32.353  1.00  0.00     0.261 C 
HETATM   12  N   UNL     1      -4.208   5.050 -33.194  1.00  0.00    -0.323 N 
HETATM   13  H   UNL     1      -4.380   4.855 -34.173  1.00  0.00     0.169 HD
HETATM   14  O   UNL     1      -5.342   5.209 -31.175  1.00  0.00    -0.267 OA
BRANCH  12  15
HETATM   15  C   UNL     1      -2.931   5.545 -32.852  1.00  0.00     0.037 A 
HETATM   16  C   UNL     1      -1.977   4.812 -32.140  1.00  0.00     0.066 A 
HETATM   17  C   UNL     1      -0.735   5.377 -31.853  1.00  0.00     0.067 A 
HETATM   18  C   UNL     1      -0.420   6.663 -32.269  1.00  0.00     0.036 A 
HETATM   19  C   UNL     1      -1.362   7.399 -32.983  1.00  0.00     0.005 A 
HETATM   20  C   UNL     1      -2.612   6.843 -33.272  1.00  0.00     0.029 A 
BRANCH  17  21
HETATM   21  O   UNL     1       0.213   4.685 -31.155  1.00  0.00    -0.361 OA
HETATM   22  H   UNL     1      -0.240   4.087 -30.535  1.00  0.00     0.217 HD
ENDBRANCH  17  21
ENDBRANCH  12  15
ENDBRANCH   7  11
BRANCH   1  23
HETATM   23  C   UNL     1      -5.864  -0.653 -33.420  1.00  0.00    -0.033 A 
HETATM   24  C   UNL     1      -6.077  -1.603 -34.434  1.00  0.00     0.046 A 
HETATM   25  C   UNL     1      -5.238  -2.711 -34.578  1.00  0.00     0.068 A 
HETATM   26  C   UNL     1      -4.145  -2.859 -33.725  1.00  0.00     0.037 A 
HETATM   27  C   UNL     1      -3.906  -1.913 -32.727  1.00  0.00     0.003 A 
HETATM   28  C   UNL     1      -4.761  -0.822 -32.569  1.00  0.00     0.009 A 
BRANCH  25  29
HETATM   29  O   UNL     1      -5.590  -3.573 -35.581  1.00  0.00    -0.356 OA
HETATM   30  C   UNL     1      -6.575  -4.549 -35.260  1.00  0.00     0.210 C 
ENDBRANCH  25  29
ENDBRANCH   1  23
BRANCH   8  31
HETATM   31  C   UNL     1      -9.833   1.520 -33.123  1.00  0.00     0.409 C 
HETATM   32  F   UNL     1      -9.454   1.905 -31.884  1.00  0.00    -0.169 F 
HETATM   33  F   UNL     1     -11.009   2.119 -33.398  1.00  0.00    -0.169 F 
HETATM   34  F   UNL     1     -10.087   0.187 -33.047  1.00  0.00    -0.169 F 
ENDBRANCH   8  31
TORSDOF 6
ENDMDL
MODEL 5
REMARK VINA RESULT:      -9.0      3.672      6.935
REMARK  6 active torsions:
REMARK  status: ('A' for Active; 'I' for Inactive)
REMARK    1  A    between atoms: O_2  and  C_3 
REMARK    2  A    between atoms: C_5  and  C_6 
REMARK    3  A    between atoms: C_12  and  C_13 
REMARK       I    between atoms: C_13  and  N_14 
REMARK    4  A    between atoms: N_14  and  C_15 
REMARK    5  A    between atoms: C_17  and  O_18 
REMARK    6  A    between atoms: C_23  and  C_24 
ROOT
HETATM    1  C   UNL     1      -4.621   0.260 -32.673  1.00  0.00     0.118 C 
HETATM    2  N   UNL     1      -6.077   0.381 -32.507  1.00  0.00    -0.365 N 
HETATM    3  C   UNL     1      -6.600   1.451 -31.838  1.00  0.00     0.138 A 
HETATM    4  N   UNL     1      -5.779   2.332 -31.170  1.00  0.00    -0.240 N 
HETATM    5  N   UNL     1      -6.426   3.307 -30.519  1.00  0.00    -0.181 NA
HETATM    6  C   UNL     1      -7.701   3.090 -30.843  1.00  0.00     0.160 A 
HETATM    7  C   UNL     1      -7.884   1.937 -31.650  1.00  0.00     0.096 A 
HETATM    8  C   UNL     1      -4.331   2.268 -31.158  1.00  0.00     0.221 C 
HETATM    9  C   UNL     1      -3.887   0.832 -31.447  1.00  0.00     0.066 C 
HETATM   10  H   UNL     1      -6.575   0.021 -33.323  1.00  0.00     0.161 HD
ENDROOT
BRANCH   7  11
HETATM   11  C   UNL     1      -9.169   1.460 -32.135  1.00  0.00     0.261 C 
HETATM   12  N   UNL     1      -9.918   2.411 -32.801  1.00  0.00    -0.323 N 
HETATM   13  H   UNL     1      -9.444   3.287 -32.989  1.00  0.00     0.169 HD
HETATM   14  O   UNL     1      -9.492   0.290 -31.960  1.00  0.00    -0.267 OA
BRANCH  12  15
HETATM   15  C   UNL     1     -11.226   2.266 -33.313  1.00  0.00     0.037 A 
HETATM   16  C   UNL     1     -12.344   2.920 -32.787  1.00  0.00     0.066 A 
HETATM   17  C   UNL     1     -13.600   2.725 -33.361  1.00  0.00     0.067 A 
HETATM   18  C   UNL     1     -13.764   1.892 -34.459  1.00  0.00     0.036 A 
HETATM   19  C   UNL     1     -12.655   1.241 -34.993  1.00  0.00     0.005 A 
HETATM   20  C   UNL     1     -11.392   1.426 -34.421  1.00  0.00     0.029 A 
BRANCH  17  21
HETATM   21  O   UNL     1     -14.709   3.347 -32.864  1.00  0.00    -0.361 OA
HETATM   22  H   UNL     1     -15.394   3.352 -33.556  1.00  0.00     0.217 HD
ENDBRANCH  17  21
ENDBRANCH  12  15
ENDBRANCH   7  11
BRANCH   1  23
HETATM   23  C   UNL     1      -4.227  -1.189 -32.884  1.00  0.00    -0.033 A 
HETATM   24  C   UNL     1      -4.761  -1.949 -33.940  1.00  0.00     0.046 A 
HETATM   25  C   UNL     1      -4.492  -3.315 -34.057  1.00  0.00     0.068 A 
HETATM   26  C   UNL     1      -3.647  -3.930 -33.135  1.00  0.00     0.037 A 
HETATM   27  C   UNL     1      -3.091  -3.186 -32.093  1.00  0.00     0.003 A 
HETATM   28  C   UNL     1      -3.382  -1.827 -31.963  1.00  0.00     0.009 A 
BRANCH  25  29
HETATM   29  O   UNL     1      -5.111  -3.935 -35.109  1.00  0.00    -0.356 OA
HETATM   30  C   UNL     1      -6.452  -4.360 -34.892  1.00  0.00     0.210 C 
ENDBRANCH  25  29
ENDBRANCH   1  23
BRANCH   8  31
HETATM   31  C   UNL     1      -3.763   3.261 -32.149  1.00  0.00     0.409 C 
HETATM   32  F   UNL     1      -2.606   2.845 -32.710  1.00  0.00    -0.169 F 
HETATM   33  F   UNL     1      -4.618   3.562 -33.148  1.00  0.00    -0.169 F 
HETATM   34  F   UNL     1      -3.483   4.431 -31.517  1.00  0.00    -0.169 F 
ENDBRANCH   8  31
TORSDOF 6
ENDMDL
MODEL 6
REMARK VINA RESULT:      -8.8      3.261      7.158
REMARK  6 active torsions:
REMARK  status: ('A' for Active; 'I' for Inactive)
REMARK    1  A    between atoms: O_2  and  C_3 
REMARK    2  A    between atoms: C_5  and  C_6 
REMARK    3  A    between atoms: C_12  and  C_13 
REMARK       I    between atoms: C_13  and  N_14 
REMARK    4  A    between atoms: N_14  and  C_15 
REMARK    5  A    between atoms: C_17  and  O_18 
REMARK    6  A    between atoms: C_23  and  C_24 
ROOT
HETATM    1  C   UNL     1      -8.299   2.930 -32.485  1.00  0.00     0.118 C 
HETATM    2  N   UNL     1      -7.354   1.819 -32.675  1.00  0.00    -0.365 N 
HETATM    3  C   UNL     1      -6.013   2.033 -32.525  1.00  0.00     0.138 A 
HETATM    4  N   UNL     1      -5.518   3.307 -32.366  1.00  0.00    -0.240 N 
HETATM    5  N   UNL     1      -4.184   3.377 -32.278  1.00  0.00    -0.181 NA
HETATM    6  C   UNL     1      -3.814   2.095 -32.305  1.00  0.00     0.160 A 
HETATM    7  C   UNL     1      -4.905   1.203 -32.475  1.00  0.00     0.096 A 
HETATM    8  C   UNL     1      -6.329   4.505 -32.273  1.00  0.00     0.221 C 
HETATM    9  C   UNL     1      -7.677   4.257 -32.955  1.00  0.00     0.066 C 
HETATM   10  H   UNL     1      -7.749   0.935 -32.350  1.00  0.00     0.161 HD
ENDROOT
BRANCH   7  11
HETATM   11  C   UNL     1      -4.787  -0.244 -32.554  1.00  0.00     0.261 C 
HETATM   12  N   UNL     1      -5.212  -0.788 -33.751  1.00  0.00    -0.323 N 
HETATM   13  H   UNL     1      -5.436  -0.119 -34.479  1.00  0.00     0.169 HD
HETATM   14  O   UNL     1      -4.313  -0.871 -31.613  1.00  0.00    -0.267 OA
BRANCH  12  15
HETATM   15  C   UNL     1      -5.288  -2.156 -34.090  1.00  0.00     0.037 A 
HETATM   16  C   UNL     1      -4.239  -3.063 -33.908  1.00  0.00     0.066 A 
HETATM   17  C   UNL     1      -4.404  -4.401 -34.264  1.00  0.00     0.067 A 
HETATM   18  C   UNL     1      -5.602  -4.858 -34.794  1.00  0.00     0.036 A 
HETATM   19  C   UNL     1      -6.654  -3.964 -34.974  1.00  0.00     0.005 A 
HETATM   20  C   UNL     1      -6.497  -2.619 -34.625  1.00  0.00     0.029 A 
BRANCH  17  21
HETATM   21  O   UNL     1      -3.394  -5.305 -34.102  1.00  0.00    -0.361 OA
HETATM   22  H   UNL     1      -2.636  -5.018 -34.639  1.00  0.00     0.217 HD
ENDBRANCH  17  21
ENDBRANCH  12  15
ENDBRANCH   7  11
BRANCH   1  23
HETATM   23  C   UNL     1      -9.589   2.667 -33.239  1.00  0.00    -0.033 A 
HETATM   24  C   UNL     1     -10.370   1.527 -32.982  1.00  0.00     0.046 A 
HETATM   25  C   UNL     1     -11.490   1.224 -33.762  1.00  0.00     0.068 A 
HETATM   26  C   UNL     1     -11.864   2.089 -34.790  1.00  0.00     0.037 A 
HETATM   27  C   UNL     1     -11.112   3.238 -35.043  1.00  0.00     0.003 A 
HETATM   28  C   UNL     1      -9.979   3.523 -34.280  1.00  0.00     0.009 A 
BRANCH  25  29
HETATM   29  O   UNL     1     -12.129   0.062 -33.424  1.00  0.00    -0.356 OA
HETATM   30  C   UNL     1     -13.510  -0.020 -33.761  1.00  0.00     0.210 C 
ENDBRANCH  25  29
ENDBRANCH   1  23
BRANCH   8  31
HETATM   31  C   UNL     1      -6.479   4.914 -30.823  1.00  0.00     0.409 C 
HETATM   32  F   UNL     1      -7.675   5.484 -30.556  1.00  0.00    -0.169 F 
HETATM   33  F   UNL     1      -6.310   3.889 -29.962  1.00  0.00    -0.169 F 
HETATM   34  F   UNL     1      -5.536   5.841 -30.508  1.00  0.00    -0.169 F 
ENDBRANCH   8  31
TORSDOF 6
ENDMDL
MODEL 7
REMARK VINA RESULT:      -8.8      3.491      6.642
REMARK  6 active torsions:
REMARK  status: ('A' for Active; 'I' for Inactive)
REMARK    1  A    between atoms: O_2  and  C_3 
REMARK    2  A    between atoms: C_5  and  C_6 
REMARK    3  A    between atoms: C_12  and  C_13 
REMARK       I    between atoms: C_13  and  N_14 
REMARK    4  A    between atoms: N_14  and  C_15 
REMARK    5  A    between atoms: C_17  and  O_18 
REMARK    6  A    between atoms: C_23  and  C_24 
ROOT
HETATM    1  C   UNL     1      -5.368   0.823 -32.839  1.00  0.00     0.118 C 
HETATM    2  N   UNL     1      -6.697   1.223 -32.354  1.00  0.00    -0.365 N 
HETATM    3  C   UNL     1      -6.810   2.187 -31.393  1.00  0.00     0.138 A 
HETATM    4  N   UNL     1      -5.693   2.672 -30.750  1.00  0.00    -0.240 N 
HETATM    5  N   UNL     1      -5.952   3.579 -29.799  1.00  0.00    -0.181 NA
HETATM    6  C   UNL     1      -7.273   3.738 -29.886  1.00  0.00     0.160 A 
HETATM    7  C   UNL     1      -7.875   2.887 -30.850  1.00  0.00     0.096 A 
HETATM    8  C   UNL     1      -4.330   2.285 -31.052  1.00  0.00     0.221 C 
HETATM    9  C   UNL     1      -4.331   0.900 -31.705  1.00  0.00     0.066 C 
HETATM   10  H   UNL     1      -7.391   1.194 -33.103  1.00  0.00     0.161 HD
ENDROOT
BRANCH   7  11
HETATM   11  C   UNL     1      -9.300   2.842 -31.140  1.00  0.00     0.261 C 
HETATM   12  N   UNL     1      -9.610   2.377 -32.404  1.00  0.00    -0.323 N 
HETATM   13  H   UNL     1      -8.832   2.004 -32.935  1.00  0.00     0.169 HD
HETATM   14  O   UNL     1     -10.109   3.174 -30.282  1.00  0.00    -0.267 OA
BRANCH  12  15
HETATM   15  C   UNL     1     -10.890   2.293 -32.993  1.00  0.00     0.037 A 
HETATM   16  C   UNL     1     -11.755   3.383 -33.136  1.00  0.00     0.066 A 
HETATM   17  C   UNL     1     -13.000   3.210 -33.739  1.00  0.00     0.067 A 
HETATM   18  C   UNL     1     -13.402   1.969 -34.212  1.00  0.00     0.036 A 
HETATM   19  C   UNL     1     -12.545   0.879 -34.079  1.00  0.00     0.005 A 
HETATM   20  C   UNL     1     -11.296   1.040 -33.471  1.00  0.00     0.029 A 
BRANCH  17  21
HETATM   21  O   UNL     1     -13.866   4.256 -33.886  1.00  0.00    -0.361 OA
HETATM   22  H   UNL     1     -14.446   4.070 -34.645  1.00  0.00     0.217 HD
ENDBRANCH  17  21
ENDBRANCH  12  15
ENDBRANCH   7  11
BRANCH   1  23
HETATM   23  C   UNL     1      -5.409  -0.581 -33.410  1.00  0.00    -0.033 A 
HETATM   24  C   UNL     1      -4.437  -1.539 -33.074  1.00  0.00     0.046 A 
HETATM   25  C   UNL     1      -4.407  -2.791 -33.697  1.00  0.00     0.068 A 
HETATM   26  C   UNL     1      -5.382  -3.111 -34.639  1.00  0.00     0.037 A 
HETATM   27  C   UNL     1      -6.369  -2.180 -34.967  1.00  0.00     0.003 A 
HETATM   28  C   UNL     1      -6.380  -0.921 -34.364  1.00  0.00     0.009 A 
BRANCH  25  29
HETATM   29  O   UNL     1      -3.381  -3.605 -33.301  1.00  0.00    -0.356 OA
HETATM   30  C   UNL     1      -3.371  -4.920 -33.846  1.00  0.00     0.210 C 
ENDBRANCH  25  29
ENDBRANCH   1  23
BRANCH   8  31
HETATM   31  C   UNL     1      -3.677   3.337 -31.923  1.00  0.00     0.409 C 
HETATM   32  F   UNL     1      -4.563   4.016 -32.685  1.00  0.00    -0.169 F 
HETATM   33  F   UNL     1      -2.962   4.239 -31.221  1.00  0.00    -0.169 F 
HETATM   34  F   UNL     1      -2.809   2.744 -32.785  1.00  0.00    -0.169 F 
ENDBRANCH   8  31
TORSDOF 6
ENDMDL
MODEL 8
REMARK VINA RESULT:      -8.8      1.813      2.017
REMARK  6 active torsions:
REMARK  status: ('A' for Active; 'I' for Inactive)
REMARK    1  A    between atoms: O_2  and  C_3 
REMARK    2  A    between atoms: C_5  and  C_6 
REMARK    3  A    between atoms: C_12  and  C_13 
REMARK       I    between atoms: C_13  and  N_14 
REMARK    4  A    between atoms: N_14  and  C_15 
REMARK    5  A    between atoms: C_17  and  O_18 
REMARK    6  A    between atoms: C_23  and  C_24 
ROOT
HETATM    1  C   UNL     1      -7.214   0.151 -33.278  1.00  0.00     0.118 C 
HETATM    2  N   UNL     1      -6.408   1.377 -33.176  1.00  0.00    -0.365 N 
HETATM    3  C   UNL     1      -6.988   2.593 -33.398  1.00  0.00     0.138 A 
HETATM    4  N   UNL     1      -8.274   2.681 -33.881  1.00  0.00    -0.240 N 
HETATM    5  N   UNL     1      -8.701   3.932 -34.097  1.00  0.00    -0.181 NA
HETATM    6  C   UNL     1      -7.681   4.676 -33.667  1.00  0.00     0.160 A 
HETATM    7  C   UNL     1      -6.572   3.904 -33.232  1.00  0.00     0.096 A 
HETATM    8  C   UNL     1      -9.144   1.549 -34.131  1.00  0.00     0.221 C 
HETATM    9  C   UNL     1      -8.291   0.300 -34.367  1.00  0.00     0.066 C 
HETATM   10  H   UNL     1      -5.700   1.297 -32.444  1.00  0.00     0.161 HD
ENDROOT
BRANCH   7  11
HETATM   11  C   UNL     1      -5.324   4.457 -32.728  1.00  0.00     0.261 C 
HETATM   12  N   UNL     1      -5.464   5.643 -32.034  1.00  0.00    -0.323 N 
HETATM   13  H   UNL     1      -6.418   5.928 -31.843  1.00  0.00     0.169 HD
HETATM   14  O   UNL     1      -4.271   3.857 -32.913  1.00  0.00    -0.267 OA
BRANCH  12  15
HETATM   15  C   UNL     1      -4.435   6.447 -31.497  1.00  0.00     0.037 A 
HETATM   16  C   UNL     1      -3.602   7.263 -32.269  1.00  0.00     0.066 A 
HETATM   17  C   UNL     1      -2.615   8.032 -31.654  1.00  0.00     0.067 A 
HETATM   18  C   UNL     1      -2.444   8.010 -30.277  1.00  0.00     0.036 A 
HETATM   19  C   UNL     1      -3.271   7.204 -29.500  1.00  0.00     0.005 A 
HETATM   20  C   UNL     1      -4.262   6.425 -30.107  1.00  0.00     0.029 A 
BRANCH  17  21
HETATM   21  O   UNL     1      -1.785   8.833 -32.385  1.00  0.00    -0.361 OA
HETATM   22  H   UNL     1      -2.187   8.974 -33.260  1.00  0.00     0.217 HD
ENDBRANCH  17  21
ENDBRANCH  12  15
ENDBRANCH   7  11
BRANCH   1  23
HETATM   23  C   UNL     1      -6.331  -1.044 -33.582  1.00  0.00    -0.033 A 
HETATM   24  C   UNL     1      -5.147  -1.284 -32.863  1.00  0.00     0.046 A 
HETATM   25  C   UNL     1      -4.274  -2.313 -33.227  1.00  0.00     0.068 A 
HETATM   26  C   UNL     1      -4.600  -3.143 -34.298  1.00  0.00     0.037 A 
HETATM   27  C   UNL     1      -5.783  -2.932 -35.009  1.00  0.00     0.003 A 
HETATM   28  C   UNL     1      -6.640  -1.888 -34.660  1.00  0.00     0.009 A 
BRANCH  25  29
HETATM   29  O   UNL     1      -3.142  -2.403 -32.464  1.00  0.00    -0.356 OA
HETATM   30  C   UNL     1      -2.681  -1.194 -31.871  1.00  0.00     0.210 C 
ENDBRANCH  25  29
ENDBRANCH   1  23
BRANCH   8  31
HETATM   31  C   UNL     1     -10.114   1.381 -32.982  1.00  0.00     0.409 C 
HETATM   32  F   UNL     1     -10.486   0.096 -32.787  1.00  0.00    -0.169 F 
HETATM   33  F   UNL     1      -9.638   1.853 -31.812  1.00  0.00    -0.169 F 
HETATM   34  F   UNL     1     -11.256   2.073 -33.240  1.00  0.00    -0.169 F 
ENDBRANCH   8  31
TORSDOF 6
ENDMDL
MODEL 9
REMARK VINA RESULT:      -8.7      3.370      7.391
REMARK  6 active torsions:
REMARK  status: ('A' for Active; 'I' for Inactive)
REMARK    1  A    between atoms: O_2  and  C_3 
REMARK    2  A    between atoms: C_5  and  C_6 
REMARK    3  A    between atoms: C_12  and  C_13 
REMARK       I    between atoms: C_13  and  N_14 
REMARK    4  A    between atoms: N_14  and  C_15 
REMARK    5  A    between atoms: C_17  and  O_18 
REMARK    6  A    between atoms: C_23  and  C_24 
ROOT
HETATM    1  C   UNL     1      -9.500   2.992 -32.694  1.00  0.00     0.118 C 
HETATM    2  N   UNL     1      -8.558   1.871 -32.831  1.00  0.00    -0.365 N 
HETATM    3  C   UNL     1      -7.213   2.100 -32.764  1.00  0.00     0.138 A 
HETATM    4  N   UNL     1      -6.719   3.385 -32.739  1.00  0.00    -0.240 N 
HETATM    5  N   UNL     1      -5.382   3.465 -32.720  1.00  0.00    -0.181 NA
HETATM    6  C   UNL     1      -5.006   2.187 -32.654  1.00  0.00     0.160 A 
HETATM    7  C   UNL     1      -6.098   1.281 -32.695  1.00  0.00     0.096 A 
HETATM    8  C   UNL     1      -7.532   4.585 -32.711  1.00  0.00     0.221 C 
HETATM    9  C   UNL     1      -8.909   4.275 -33.304  1.00  0.00     0.066 C 
HETATM   10  H   UNL     1      -8.932   1.018 -32.413  1.00  0.00     0.161 HD
ENDROOT
BRANCH   7  11
HETATM   11  C   UNL     1      -5.974  -0.168 -32.654  1.00  0.00     0.261 C 
HETATM   12  N   UNL     1      -5.679  -0.750 -33.872  1.00  0.00    -0.323 N 
HETATM   13  H   UNL     1      -5.458  -0.106 -34.622  1.00  0.00     0.169 HD
HETATM   14  O   UNL     1      -6.103  -0.763 -31.590  1.00  0.00    -0.267 OA
BRANCH  12  15
HETATM   15  C   UNL     1      -5.574  -2.129 -34.157  1.00  0.00     0.037 A 
HETATM   16  C   UNL     1      -4.411  -2.879 -33.956  1.00  0.00     0.066 A 
HETATM   17  C   UNL     1      -4.398  -4.240 -34.258  1.00  0.00     0.067 A 
HETATM   18  C   UNL     1      -5.528  -4.875 -34.754  1.00  0.00     0.036 A 
HETATM   19  C   UNL     1      -6.692  -4.137 -34.953  1.00  0.00     0.005 A 
HETATM   20  C   UNL     1      -6.714  -2.770 -34.657  1.00  0.00     0.029 A 
BRANCH  17  21
HETATM   21  O   UNL     1      -3.274  -4.994 -34.076  1.00  0.00    -0.361 OA
HETATM   22  H   UNL     1      -3.129  -5.527 -34.877  1.00  0.00     0.217 HD
ENDBRANCH  17  21
ENDBRANCH  12  15
ENDBRANCH   7  11
BRANCH   1  23
HETATM   23  C   UNL     1     -10.822   2.662 -33.360  1.00  0.00    -0.033 A 
HETATM   24  C   UNL     1     -12.043   3.123 -32.838  1.00  0.00     0.046 A 
HETATM   25  C   UNL     1     -13.264   2.715 -33.382  1.00  0.00     0.068 A 
HETATM   26  C   UNL     1     -13.273   1.866 -34.487  1.00  0.00     0.037 A 
HETATM   27  C   UNL     1     -12.069   1.417 -35.032  1.00  0.00     0.003 A 
HETATM   28  C   UNL     1     -10.852   1.804 -34.470  1.00  0.00     0.009 A 
BRANCH  25  29
HETATM   29  O   UNL     1     -14.371   3.211 -32.747  1.00  0.00    -0.356 OA
HETATM   30  C   UNL     1     -15.151   2.274 -32.013  1.00  0.00     0.210 C 
ENDBRANCH  25  29
ENDBRANCH   1  23
BRANCH   8  31
HETATM   31  C   UNL     1      -7.617   5.117 -31.296  1.00  0.00     0.409 C 
HETATM   32  F   UNL     1      -7.563   4.142 -30.361  1.00  0.00    -0.169 F 
HETATM   33  F   UNL     1      -6.653   6.016 -31.009  1.00  0.00    -0.169 F 
HETATM   34  F   UNL     1      -8.804   5.754 -31.116  1.00  0.00    -0.169 F 
ENDBRANCH   8  31
TORSDOF 6
ENDMDL
MODEL 10
REMARK VINA RESULT:      -8.7      1.604      2.361
REMARK  6 active torsions:
REMARK  status: ('A' for Active; 'I' for Inactive)
REMARK    1  A    between atoms: O_2  and  C_3 
REMARK    2  A    between atoms: C_5  and  C_6 
REMARK    3  A    between atoms: C_12  and  C_13 
REMARK       I    between atoms: C_13  and  N_14 
REMARK    4  A    between atoms: N_14  and  C_15 
REMARK    5  A    between atoms: C_17  and  O_18 
REMARK    6  A    between atoms: C_23  and  C_24 
ROOT
HETATM    1  C   UNL     1      -7.186   0.739 -33.352  1.00  0.00     0.118 C 
HETATM    2  N   UNL     1      -6.371   1.961 -33.425  1.00  0.00    -0.365 N 
HETATM    3  C   UNL     1      -6.975   3.173 -33.605  1.00  0.00     0.138 A 
HETATM    4  N   UNL     1      -8.321   3.252 -33.887  1.00  0.00    -0.240 N 
HETATM    5  N   UNL     1      -8.773   4.497 -34.085  1.00  0.00    -0.181 NA
HETATM    6  C   UNL     1      -7.697   5.249 -33.847  1.00  0.00     0.160 A 
HETATM    7  C   UNL     1      -6.536   4.486 -33.558  1.00  0.00     0.096 A 
HETATM    8  C   UNL     1      -9.221   2.119 -33.953  1.00  0.00     0.221 C 
HETATM    9  C   UNL     1      -8.418   0.854 -34.266  1.00  0.00     0.066 C 
HETATM   10  H   UNL     1      -5.559   1.905 -32.809  1.00  0.00     0.161 HD
ENDROOT
BRANCH   7  11
HETATM   11  C   UNL     1      -5.224   5.048 -33.276  1.00  0.00     0.261 C 
HETATM   12  N   UNL     1      -4.739   4.760 -32.015  1.00  0.00    -0.323 N 
HETATM   13  H   UNL     1      -5.283   4.094 -31.479  1.00  0.00     0.169 HD
HETATM   14  O   UNL     1      -4.635   5.690 -34.139  1.00  0.00    -0.267 OA
BRANCH  12  15
HETATM   15  C   UNL     1      -3.540   5.226 -31.433  1.00  0.00     0.037 A 
HETATM   16  C   UNL     1      -2.289   4.640 -31.652  1.00  0.00     0.066 A 
HETATM   17  C   UNL     1      -1.154   5.171 -31.042  1.00  0.00     0.067 A 
HETATM   18  C   UNL     1      -1.237   6.285 -30.218  1.00  0.00     0.036 A 
HETATM   19  C   UNL     1      -2.478   6.878 -29.998  1.00  0.00     0.005 A 
HETATM   20  C   UNL     1      -3.624   6.350 -30.601  1.00  0.00     0.029 A 
BRANCH  17  21
HETATM   21  O   UNL     1       0.079   4.615 -31.235  1.00  0.00    -0.361 OA
HETATM   22  H   UNL     1       0.369   4.216 -30.397  1.00  0.00     0.217 HD
ENDBRANCH  17  21
ENDBRANCH  12  15
ENDBRANCH   7  11
BRANCH   1  23
HETATM   23  C   UNL     1      -6.363  -0.474 -33.740  1.00  0.00    -0.033 A 
HETATM   24  C   UNL     1      -6.971  -1.673 -34.153  1.00  0.00     0.046 A 
HETATM   25  C   UNL     1      -6.215  -2.825 -34.390  1.00  0.00     0.068 A 
HETATM   26  C   UNL     1      -4.829  -2.776 -34.253  1.00  0.00     0.037 A 
HETATM   27  C   UNL     1      -4.207  -1.587 -33.866  1.00  0.00     0.003 A 
HETATM   28  C   UNL     1      -4.966  -0.446 -33.604  1.00  0.00     0.009 A 
BRANCH  25  29
HETATM   29  O   UNL     1      -6.944  -3.927 -34.746  1.00  0.00    -0.356 OA
HETATM   30  C   UNL     1      -6.338  -4.809 -35.685  1.00  0.00     0.210 C 
ENDBRANCH  25  29
ENDBRANCH   1  23
BRANCH   8  31
HETATM   31  C   UNL     1     -10.003   2.005 -32.662  1.00  0.00     0.409 C 
HETATM   32  F   UNL     1     -11.172   2.683 -32.690  1.00  0.00    -0.169 F 
HETATM   33  F   UNL     1     -10.276   0.730 -32.317  1.00  0.00    -0.169 F 
HETATM   34  F   UNL     1      -9.279   2.534 -31.640  1.00  0.00    -0.169 F 
ENDBRANCH   8  31
TORSDOF 6
ENDMDL
