MODEL 1
REMARK VINA RESULT:      -9.3      0.000      0.000
REMARK  6 active torsions:
REMARK  status: ('A' for Active; 'I' for Inactive)
REMARK    1  A    between atoms: O_2  and  C_3 
REMARK    2  A    between atoms: C_6  and  C_7 
REMARK    3  A    between atoms: C_7  and  N_8 
REMARK       I    between atoms: N_8  and  C_9 
REMARK    4  A    between atoms: C_9  and  C_10 
REMARK    5  A    between atoms: C_13  and  C_14 
REMARK    6  A    between atoms: C_19  and  C_20 
ROOT
HETATM    1  C   UNL     1      -4.948   1.539 -31.740  1.00  0.00     0.096 A 
HETATM    2  C   UNL     1      -5.653   0.818 -32.687  1.00  0.00     0.138 A 
HETATM    3  N   UNL     1      -6.867   0.522 -32.106  1.00  0.00    -0.240 N 
HETATM    4  C   UNL     1      -7.939  -0.193 -32.775  1.00  0.00     0.221 C 
HETATM    5  C   UNL     1      -7.755  -0.090 -34.301  1.00  0.00     0.066 C 
HETATM    6  C   UNL     1      -6.314  -0.417 -34.715  1.00  0.00     0.118 C 
HETATM    7  N   UNL     1      -5.388   0.430 -33.962  1.00  0.00    -0.365 N 
HETATM    8  N   UNL     1      -6.967   0.926 -30.832  1.00  0.00    -0.181 NA
HETATM    9  C   UNL     1      -5.824   1.585 -30.627  1.00  0.00     0.160 A 
HETATM   10  H   UNL     1      -4.612   0.812 -34.498  1.00  0.00     0.161 HD
ENDROOT
BRANCH   1  11
HETATM   11  C   UNL     1      -3.634   2.147 -31.810  1.00  0.00     0.257 C 
HETATM   12  N   UNL     1      -3.523   3.197 -32.692  1.00  0.00    -0.352 N 
HETATM   13  H   UNL     1      -4.263   3.322 -33.369  1.00  0.00     0.163 HD
HETATM   14  O   UNL     1      -2.693   1.728 -31.144  1.00  0.00    -0.267 OA
BRANCH  12  15
HETATM   15  C   UNL     1      -2.291   3.928 -32.861  1.00  0.00     0.161 C 
BRANCH  15  16
HETATM   16  C   UNL     1      -2.443   5.393 -32.546  1.00  0.00    -0.040 A 
HETATM   17  C   UNL     1      -3.294   5.819 -31.517  1.00  0.00     0.011 A 
HETATM   18  C   UNL     1      -3.384   7.174 -31.175  1.00  0.00     0.037 A 
HETATM   19  C   UNL     1      -2.622   8.121 -31.857  1.00  0.00     0.068 A 
HETATM   20  C   UNL     1      -1.794   7.707 -32.902  1.00  0.00     0.037 A 
HETATM   21  C   UNL     1      -1.697   6.355 -33.241  1.00  0.00     0.011 A 
BRANCH  19  22
HETATM   22  O   UNL     1      -2.608   9.465 -31.605  1.00  0.00    -0.356 OA
HETATM   23  C   UNL     1      -2.713   9.852 -30.240  1.00  0.00     0.210 C 
ENDBRANCH  19  22
ENDBRANCH  15  16
ENDBRANCH  12  15
ENDBRANCH   1  11
BRANCH   4  24
HETATM   24  C   UNL     1      -9.310   0.335 -32.404  1.00  0.00     0.409 C 
HETATM   25  F   UNL     1      -9.419   1.671 -32.590  1.00  0.00    -0.169 F 
HETATM   26  F   UNL     1     -10.248  -0.239 -33.209  1.00  0.00    -0.169 F 
HETATM   27  F   UNL     1      -9.681   0.047 -31.141  1.00  0.00    -0.169 F 
ENDBRANCH   4  24
BRANCH   6  28
HETATM   28  C   UNL     1      -5.991  -1.901 -34.599  1.00  0.00    -0.035 A 
HETATM   29  C   UNL     1      -4.686  -2.290 -34.240  1.00  0.00     0.009 A 
HETATM   30  C   UNL     1      -4.335  -3.639 -34.150  1.00  0.00     0.001 A 
HETATM   31  C   UNL     1      -5.282  -4.624 -34.409  1.00  0.00     0.000 A 
HETATM   32  C   UNL     1      -6.581  -4.262 -34.755  1.00  0.00     0.001 A 
HETATM   33  C   UNL     1      -6.932  -2.913 -34.850  1.00  0.00     0.009 A 
ENDBRANCH   6  28
TORSDOF 6
ENDMDL
MODEL 2
REMARK VINA RESULT:      -9.2      2.099      2.559
REMARK  6 active torsions:
REMARK  status: ('A' for Active; 'I' for Inactive)
REMARK    1  A    between atoms: O_2  and  C_3 
REMARK    2  A    between atoms: C_6  and  C_7 
REMARK    3  A    between atoms: C_7  and  N_8 
REMARK       I    between atoms: N_8  and  C_9 
REMARK    4  A    between atoms: C_9  and  C_10 
REMARK    5  A    between atoms: C_13  and  C_14 
REMARK    6  A    between atoms: C_19  and  C_20 
ROOT
HETATM    1  C   UNL     1      -6.061   3.175 -33.126  1.00  0.00     0.096 A 
HETATM    2  C   UNL     1      -6.569   1.986 -33.618  1.00  0.00     0.138 A 
HETATM    3  N   UNL     1      -7.413   1.506 -32.640  1.00  0.00    -0.240 N 
HETATM    4  C   UNL     1      -8.196   0.289 -32.763  1.00  0.00     0.221 C 
HETATM    5  C   UNL     1      -8.368  -0.065 -34.252  1.00  0.00     0.066 C 
HETATM    6  C   UNL     1      -7.031   0.001 -35.002  1.00  0.00     0.118 C 
HETATM    7  N   UNL     1      -6.416   1.310 -34.787  1.00  0.00    -0.365 N 
HETATM    8  N   UNL     1      -7.426   2.251 -31.526  1.00  0.00    -0.181 NA
HETATM    9  C   UNL     1      -6.645   3.288 -31.840  1.00  0.00     0.160 A 
HETATM   10  H   UNL     1      -5.989   1.732 -35.608  1.00  0.00     0.161 HD
ENDROOT
BRANCH   1  11
HETATM   11  C   UNL     1      -5.160   4.134 -33.735  1.00  0.00     0.257 C 
HETATM   12  N   UNL     1      -3.843   4.021 -33.353  1.00  0.00    -0.352 N 
HETATM   13  H   UNL     1      -3.636   3.458 -32.540  1.00  0.00     0.163 HD
HETATM   14  O   UNL     1      -5.561   4.994 -34.512  1.00  0.00    -0.267 OA
BRANCH  12  15
HETATM   15  C   UNL     1      -2.815   4.882 -33.886  1.00  0.00     0.161 C 
BRANCH  15  16
HETATM   16  C   UNL     1      -1.861   5.365 -32.825  1.00  0.00    -0.040 A 
HETATM   17  C   UNL     1      -1.175   6.577 -32.980  1.00  0.00     0.011 A 
HETATM   18  C   UNL     1      -0.342   7.064 -31.965  1.00  0.00     0.037 A 
HETATM   19  C   UNL     1      -0.187   6.346 -30.779  1.00  0.00     0.068 A 
HETATM   20  C   UNL     1      -0.846   5.124 -30.631  1.00  0.00     0.037 A 
HETATM   21  C   UNL     1      -1.683   4.639 -31.640  1.00  0.00     0.011 A 
BRANCH  19  22
HETATM   22  O   UNL     1       0.579   6.724 -29.712  1.00  0.00    -0.356 OA
HETATM   23  C   UNL     1       0.497   5.901 -28.554  1.00  0.00     0.210 C 
ENDBRANCH  19  22
ENDBRANCH  15  16
ENDBRANCH  12  15
ENDBRANCH   1  11
BRANCH   4  24
HETATM   24  C   UNL     1      -9.563   0.411 -32.121  1.00  0.00     0.409 C 
HETATM   25  F   UNL     1      -9.503   0.407 -30.769  1.00  0.00    -0.169 F 
HETATM   26  F   UNL     1     -10.121   1.604 -32.472  1.00  0.00    -0.169 F 
HETATM   27  F   UNL     1     -10.437  -0.536 -32.515  1.00  0.00    -0.169 F 
ENDBRANCH   4  24
BRANCH   6  28
HETATM   28  C   UNL     1      -6.103  -1.157 -34.652  1.00  0.00    -0.035 A 
HETATM   29  C   UNL     1      -6.444  -2.456 -35.077  1.00  0.00     0.009 A 
HETATM   30  C   UNL     1      -5.641  -3.553 -34.755  1.00  0.00     0.001 A 
HETATM   31  C   UNL     1      -4.479  -3.372 -34.012  1.00  0.00     0.000 A 
HETATM   32  C   UNL     1      -4.118  -2.095 -33.591  1.00  0.00     0.001 A 
HETATM   33  C   UNL     1      -4.923  -0.998 -33.909  1.00  0.00     0.009 A 
ENDBRANCH   6  28
TORSDOF 6
ENDMDL
MODEL 3
REMARK VINA RESULT:      -8.6      4.151     10.017
REMARK  6 active torsions:
REMARK  status: ('A' for Active; 'I' for Inactive)
REMARK    1  A    between atoms: O_2  and  C_3 
REMARK    2  A    between atoms: C_6  and  C_7 
REMARK    3  A    between atoms: C_7  and  N_8 
REMARK       I    between atoms: N_8  and  C_9 
REMARK    4  A    between atoms: C_9  and  C_10 
REMARK    5  A    between atoms: C_13  and  C_14 
REMARK    6  A    between atoms: C_19  and  C_20 
ROOT
HETATM    1  C   UNL     1      -3.579   4.179 -32.425  1.00  0.00     0.096 A 
HETATM    2  C   UNL     1      -3.035   5.444 -32.299  1.00  0.00     0.138 A 
HETATM    3  N   UNL     1      -1.939   5.301 -31.477  1.00  0.00    -0.240 N 
HETATM    4  C   UNL     1      -1.045   6.387 -31.113  1.00  0.00     0.221 C 
HETATM    5  C   UNL     1      -1.160   7.520 -32.150  1.00  0.00     0.066 C 
HETATM    6  C   UNL     1      -2.627   7.870 -32.436  1.00  0.00     0.118 C 
HETATM    7  N   UNL     1      -3.350   6.659 -32.821  1.00  0.00    -0.365 N 
HETATM    8  N   UNL     1      -1.782   4.059 -31.000  1.00  0.00    -0.181 NA
HETATM    9  C   UNL     1      -2.745   3.369 -31.614  1.00  0.00     0.160 A 
HETATM   10  H   UNL     1      -4.002   6.767 -33.595  1.00  0.00     0.161 HD
ENDROOT
BRANCH   1  11
HETATM   11  C   UNL     1      -4.714   3.717 -33.200  1.00  0.00     0.257 C 
HETATM   12  N   UNL     1      -5.190   2.474 -32.854  1.00  0.00    -0.352 N 
HETATM   13  H   UNL     1      -4.605   1.892 -32.269  1.00  0.00     0.163 HD
HETATM   14  O   UNL     1      -5.188   4.386 -34.112  1.00  0.00    -0.267 OA
BRANCH  12  15
HETATM   15  C   UNL     1      -6.330   1.880 -33.510  1.00  0.00     0.161 C 
BRANCH  15  16
HETATM   16  C   UNL     1      -6.130   0.416 -33.800  1.00  0.00    -0.040 A 
HETATM   17  C   UNL     1      -7.049  -0.289 -34.589  1.00  0.00     0.011 A 
HETATM   18  C   UNL     1      -6.829  -1.632 -34.919  1.00  0.00     0.037 A 
HETATM   19  C   UNL     1      -5.685  -2.288 -34.465  1.00  0.00     0.068 A 
HETATM   20  C   UNL     1      -4.781  -1.600 -33.654  1.00  0.00     0.037 A 
HETATM   21  C   UNL     1      -4.994  -0.257 -33.329  1.00  0.00     0.011 A 
BRANCH  19  22
HETATM   22  O   UNL     1      -5.351  -3.586 -34.734  1.00  0.00    -0.356 OA
HETATM   23  C   UNL     1      -6.420  -4.449 -35.105  1.00  0.00     0.210 C 
ENDBRANCH  19  22
ENDBRANCH  15  16
ENDBRANCH  12  15
ENDBRANCH   1  11
BRANCH   4  24
HETATM   24  C   UNL     1       0.400   5.941 -31.022  1.00  0.00     0.409 C 
HETATM   25  F   UNL     1       1.267   6.916 -31.380  1.00  0.00    -0.169 F 
HETATM   26  F   UNL     1       0.695   5.627 -29.729  1.00  0.00    -0.169 F 
HETATM   27  F   UNL     1       0.676   4.836 -31.743  1.00  0.00    -0.169 F 
ENDBRANCH   4  24
BRANCH   6  28
HETATM   28  C   UNL     1      -3.287   8.618 -31.285  1.00  0.00    -0.035 A 
HETATM   29  C   UNL     1      -4.599   8.271 -30.909  1.00  0.00     0.009 A 
HETATM   30  C   UNL     1      -5.258   8.947 -29.880  1.00  0.00     0.001 A 
HETATM   31  C   UNL     1      -4.616   9.978 -29.201  1.00  0.00     0.000 A 
HETATM   32  C   UNL     1      -3.315  10.330 -29.549  1.00  0.00     0.001 A 
HETATM   33  C   UNL     1      -2.657   9.657 -30.581  1.00  0.00     0.009 A 
ENDBRANCH   6  28
TORSDOF 6
ENDMDL
MODEL 4
REMARK VINA RESULT:      -8.5      2.163      2.966
REMARK  6 active torsions:
REMARK  status: ('A' for Active; 'I' for Inactive)
REMARK    1  A    between atoms: O_2  and  C_3 
REMARK    2  A    between atoms: C_6  and  C_7 
REMARK    3  A    between atoms: C_7  and  N_8 
REMARK       I    between atoms: N_8  and  C_9 
REMARK    4  A    between atoms: C_9  and  C_10 
REMARK    5  A    between atoms: C_13  and  C_14 
REMARK    6  A    between atoms: C_19  and  C_20 
ROOT
HETATM    1  C   UNL     1      -7.569   3.311 -31.098  1.00  0.00     0.096 A 
HETATM    2  C   UNL     1      -7.592   2.571 -32.266  1.00  0.00     0.138 A 
HETATM    3  N   UNL     1      -8.764   1.847 -32.230  1.00  0.00    -0.240 N 
HETATM    4  C   UNL     1      -9.210   0.962 -33.292  1.00  0.00     0.221 C 
HETATM    5  C   UNL     1      -8.517   1.349 -34.611  1.00  0.00     0.066 C 
HETATM    6  C   UNL     1      -7.004   1.526 -34.419  1.00  0.00     0.118 C 
HETATM    7  N   UNL     1      -6.760   2.479 -33.337  1.00  0.00    -0.365 N 
HETATM    8  N   UNL     1      -9.457   2.002 -31.094  1.00  0.00    -0.181 NA
HETATM    9  C   UNL     1      -8.758   2.926 -30.430  1.00  0.00     0.160 A 
HETATM   10  H   UNL     1      -6.013   3.149 -33.506  1.00  0.00     0.161 HD
ENDROOT
BRANCH   1  11
HETATM   11  C   UNL     1      -6.603   4.279 -30.618  1.00  0.00     0.257 C 
HETATM   12  N   UNL     1      -6.628   5.495 -31.261  1.00  0.00    -0.352 N 
HETATM   13  H   UNL     1      -7.133   5.555 -32.134  1.00  0.00     0.163 HD
HETATM   14  O   UNL     1      -5.811   4.011 -29.721  1.00  0.00    -0.267 OA
BRANCH  12  15
HETATM   15  C   UNL     1      -5.750   6.578 -30.886  1.00  0.00     0.161 C 
BRANCH  15  16
HETATM   16  C   UNL     1      -4.570   6.709 -31.814  1.00  0.00    -0.040 A 
HETATM   17  C   UNL     1      -3.551   7.633 -31.548  1.00  0.00     0.011 A 
HETATM   18  C   UNL     1      -2.419   7.708 -32.369  1.00  0.00     0.037 A 
HETATM   19  C   UNL     1      -2.291   6.858 -33.466  1.00  0.00     0.068 A 
HETATM   20  C   UNL     1      -3.316   5.955 -33.753  1.00  0.00     0.037 A 
HETATM   21  C   UNL     1      -4.444   5.873 -32.931  1.00  0.00     0.011 A 
BRANCH  19  22
HETATM   22  O   UNL     1      -1.230   6.822 -34.328  1.00  0.00    -0.356 OA
HETATM   23  C   UNL     1      -0.947   5.563 -34.927  1.00  0.00     0.210 C 
ENDBRANCH  19  22
ENDBRANCH  15  16
ENDBRANCH  12  15
ENDBRANCH   1  11
BRANCH   4  24
HETATM   24  C   UNL     1     -10.711   1.003 -33.488  1.00  0.00     0.409 C 
HETATM   25  F   UNL     1     -11.271   2.126 -32.981  1.00  0.00    -0.169 F 
HETATM   26  F   UNL     1     -10.991   1.009 -34.823  1.00  0.00    -0.169 F 
HETATM   27  F   UNL     1     -11.357  -0.065 -32.981  1.00  0.00    -0.169 F 
ENDBRANCH   4  24
BRANCH   6  28
HETATM   28  C   UNL     1      -6.278   0.201 -34.222  1.00  0.00    -0.035 A 
HETATM   29  C   UNL     1      -5.174   0.152 -33.350  1.00  0.00     0.009 A 
HETATM   30  C   UNL     1      -4.458  -1.032 -33.159  1.00  0.00     0.001 A 
HETATM   31  C   UNL     1      -4.837  -2.191 -33.829  1.00  0.00     0.000 A 
HETATM   32  C   UNL     1      -5.932  -2.167 -34.688  1.00  0.00     0.001 A 
HETATM   33  C   UNL     1      -6.646  -0.982 -34.883  1.00  0.00     0.009 A 
ENDBRANCH   6  28
TORSDOF 6
ENDMDL
MODEL 5
REMARK VINA RESULT:      -8.5      5.338      8.533
REMARK  6 active torsions:
REMARK  status: ('A' for Active; 'I' for Inactive)
REMARK    1  A    between atoms: O_2  and  C_3 
REMARK    2  A    between atoms: C_6  and  C_7 
REMARK    3  A    between atoms: C_7  and  N_8 
REMARK       I    between atoms: N_8  and  C_9 
REMARK    4  A    between atoms: C_9  and  C_10 
REMARK    5  A    between atoms: C_13  and  C_14 
REMARK    6  A    between atoms: C_19  and  C_20 
ROOT
HETATM    1  C   UNL     1     -10.034   1.364 -33.604  1.00  0.00     0.096 A 
HETATM    2  C   UNL     1      -8.769   1.027 -33.156  1.00  0.00     0.138 A 
HETATM    3  N   UNL     1      -7.920   1.977 -33.680  1.00  0.00    -0.240 N 
HETATM    4  C   UNL     1      -6.491   2.025 -33.423  1.00  0.00     0.221 C 
HETATM    5  C   UNL     1      -6.174   1.256 -32.127  1.00  0.00     0.066 C 
HETATM    6  C   UNL     1      -6.855  -0.119 -32.110  1.00  0.00     0.118 C 
HETATM    7  N   UNL     1      -8.288   0.045 -32.349  1.00  0.00    -0.365 N 
HETATM    8  N   UNL     1      -8.527   2.852 -34.494  1.00  0.00    -0.181 NA
HETATM    9  C   UNL     1      -9.814   2.510 -34.408  1.00  0.00     0.160 A 
HETATM   10  H   UNL     1      -8.896  -0.532 -31.771  1.00  0.00     0.161 HD
ENDROOT
BRANCH   1  11
HETATM   11  C   UNL     1     -11.319   0.750 -33.336  1.00  0.00     0.257 C 
HETATM   12  N   UNL     1     -12.407   1.571 -33.518  1.00  0.00    -0.352 N 
HETATM   13  H   UNL     1     -12.238   2.565 -33.598  1.00  0.00     0.163 HD
HETATM   14  O   UNL     1     -11.412  -0.411 -32.952  1.00  0.00    -0.267 OA
BRANCH  12  15
HETATM   15  C   UNL     1     -13.759   1.107 -33.320  1.00  0.00     0.161 C 
BRANCH  15  16
HETATM   16  C   UNL     1     -14.657   2.174 -32.751  1.00  0.00    -0.040 A 
HETATM   17  C   UNL     1     -14.141   3.428 -32.398  1.00  0.00     0.011 A 
HETATM   18  C   UNL     1     -14.984   4.446 -31.934  1.00  0.00     0.037 A 
HETATM   19  C   UNL     1     -16.356   4.222 -31.819  1.00  0.00     0.068 A 
HETATM   20  C   UNL     1     -16.871   2.966 -32.142  1.00  0.00     0.037 A 
HETATM   21  C   UNL     1     -16.033   1.951 -32.611  1.00  0.00     0.011 A 
BRANCH  19  22
HETATM   22  O   UNL     1     -17.281   5.137 -31.399  1.00  0.00    -0.356 OA
HETATM   23  C   UNL     1     -18.611   4.659 -31.233  1.00  0.00     0.210 C 
ENDBRANCH  19  22
ENDBRANCH  15  16
ENDBRANCH  12  15
ENDBRANCH   1  11
BRANCH   4  24
HETATM   24  C   UNL     1      -5.972   3.443 -33.298  1.00  0.00     0.409 C 
HETATM   25  F   UNL     1      -6.760   4.218 -32.518  1.00  0.00    -0.169 F 
HETATM   26  F   UNL     1      -4.747   3.425 -32.701  1.00  0.00    -0.169 F 
HETATM   27  F   UNL     1      -5.796   4.064 -34.481  1.00  0.00    -0.169 F 
ENDBRANCH   4  24
BRANCH   6  28
HETATM   28  C   UNL     1      -6.201  -1.110 -33.066  1.00  0.00    -0.035 A 
HETATM   29  C   UNL     1      -4.806  -1.295 -33.008  1.00  0.00     0.009 A 
HETATM   30  C   UNL     1      -4.158  -2.169 -33.884  1.00  0.00     0.001 A 
HETATM   31  C   UNL     1      -4.891  -2.881 -34.827  1.00  0.00     0.000 A 
HETATM   32  C   UNL     1      -6.272  -2.721 -34.895  1.00  0.00     0.001 A 
HETATM   33  C   UNL     1      -6.921  -1.844 -34.023  1.00  0.00     0.009 A 
ENDBRANCH   6  28
TORSDOF 6
ENDMDL
MODEL 6
REMARK VINA RESULT:      -8.4      4.350      9.938
REMARK  6 active torsions:
REMARK  status: ('A' for Active; 'I' for Inactive)
REMARK    1  A    between atoms: O_2  and  C_3 
REMARK    2  A    between atoms: C_6  and  C_7 
REMARK    3  A    between atoms: C_7  and  N_8 
REMARK       I    between atoms: N_8  and  C_9 
REMARK    4  A    between atoms: C_9  and  C_10 
REMARK    5  A    between atoms: C_13  and  C_14 
REMARK    6  A    between atoms: C_19  and  C_20 
ROOT
HETATM    1  C   UNL     1      -3.868   4.066 -31.727  1.00  0.00     0.096 A 
HETATM    2  C   UNL     1      -3.535   5.317 -31.241  1.00  0.00     0.138 A 
HETATM    3  N   UNL     1      -2.171   5.293 -31.046  1.00  0.00    -0.240 N 
HETATM    4  C   UNL     1      -1.393   6.428 -30.580  1.00  0.00     0.221 C 
HETATM    5  C   UNL     1      -2.168   7.731 -30.852  1.00  0.00     0.066 C 
HETATM    6  C   UNL     1      -3.625   7.625 -30.383  1.00  0.00     0.118 C 
HETATM    7  N   UNL     1      -4.246   6.447 -30.987  1.00  0.00    -0.365 N 
HETATM    8  N   UNL     1      -1.613   4.100 -31.292  1.00  0.00    -0.181 NA
HETATM    9  C   UNL     1      -2.632   3.372 -31.752  1.00  0.00     0.160 A 
HETATM   10  H   UNL     1      -5.198   6.578 -31.322  1.00  0.00     0.161 HD
ENDROOT
BRANCH   1  11
HETATM   11  C   UNL     1      -5.148   3.532 -32.149  1.00  0.00     0.257 C 
HETATM   12  N   UNL     1      -5.092   2.309 -32.776  1.00  0.00    -0.352 N 
HETATM   13  H   UNL     1      -4.189   1.984 -33.094  1.00  0.00     0.163 HD
HETATM   14  O   UNL     1      -6.193   4.150 -31.976  1.00  0.00    -0.267 OA
BRANCH  12  15
HETATM   15  C   UNL     1      -6.280   1.628 -33.233  1.00  0.00     0.161 C 
BRANCH  15  16
HETATM   16  C   UNL     1      -5.995   0.223 -33.698  1.00  0.00    -0.040 A 
HETATM   17  C   UNL     1      -4.783  -0.403 -33.377  1.00  0.00     0.011 A 
HETATM   18  C   UNL     1      -4.544  -1.733 -33.746  1.00  0.00     0.037 A 
HETATM   19  C   UNL     1      -5.515  -2.454 -34.440  1.00  0.00     0.068 A 
HETATM   20  C   UNL     1      -6.712  -1.826 -34.787  1.00  0.00     0.037 A 
HETATM   21  C   UNL     1      -6.957  -0.501 -34.414  1.00  0.00     0.011 A 
BRANCH  19  22
HETATM   22  O   UNL     1      -5.408  -3.757 -34.838  1.00  0.00    -0.356 OA
HETATM   23  C   UNL     1      -6.629  -4.436 -35.110  1.00  0.00     0.210 C 
ENDBRANCH  19  22
ENDBRANCH  15  16
ENDBRANCH  12  15
ENDBRANCH   1  11
BRANCH   4  24
HETATM   24  C   UNL     1      -0.034   6.511 -31.244  1.00  0.00     0.409 C 
HETATM   25  F   UNL     1      -0.112   6.877 -32.543  1.00  0.00    -0.169 F 
HETATM   26  F   UNL     1       0.714   7.467 -30.623  1.00  0.00    -0.169 F 
HETATM   27  F   UNL     1       0.683   5.372 -31.161  1.00  0.00    -0.169 F 
ENDBRANCH   4  24
BRANCH   6  28
HETATM   28  C   UNL     1      -3.757   7.656 -28.865  1.00  0.00    -0.035 A 
HETATM   29  C   UNL     1      -3.023   8.611 -28.136  1.00  0.00     0.009 A 
HETATM   30  C   UNL     1      -3.088   8.660 -26.742  1.00  0.00     0.001 A 
HETATM   31  C   UNL     1      -3.894   7.762 -26.050  1.00  0.00     0.000 A 
HETATM   32  C   UNL     1      -4.637   6.816 -26.752  1.00  0.00     0.001 A 
HETATM   33  C   UNL     1      -4.569   6.764 -28.147  1.00  0.00     0.009 A 
ENDBRANCH   6  28
TORSDOF 6
ENDMDL
MODEL 7
REMARK VINA RESULT:      -8.3      4.641      7.785
REMARK  6 active torsions:
REMARK  status: ('A' for Active; 'I' for Inactive)
REMARK    1  A    between atoms: O_2  and  C_3 
REMARK    2  A    between atoms: C_6  and  C_7 
REMARK    3  A    between atoms: C_7  and  N_8 
REMARK       I    between atoms: N_8  and  C_9 
REMARK    4  A    between atoms: C_9  and  C_10 
REMARK    5  A    between atoms: C_13  and  C_14 
REMARK    6  A    between atoms: C_19  and  C_20 
ROOT
HETATM    1  C   UNL     1      -7.672   4.205 -33.065  1.00  0.00     0.096 A 
HETATM    2  C   UNL     1      -6.921   3.137 -32.608  1.00  0.00     0.138 A 
HETATM    3  N   UNL     1      -5.614   3.435 -32.926  1.00  0.00    -0.240 N 
HETATM    4  C   UNL     1      -4.479   2.593 -32.586  1.00  0.00     0.221 C 
HETATM    5  C   UNL     1      -4.856   1.669 -31.413  1.00  0.00     0.066 C 
HETATM    6  C   UNL     1      -6.207   0.981 -31.653  1.00  0.00     0.118 C 
HETATM    7  N   UNL     1      -7.223   1.992 -31.941  1.00  0.00    -0.365 N 
HETATM    8  N   UNL     1      -5.474   4.571 -33.623  1.00  0.00    -0.181 NA
HETATM    9  C   UNL     1      -6.715   5.061 -33.663  1.00  0.00     0.160 A 
HETATM   10  H   UNL     1      -8.126   1.842 -31.497  1.00  0.00     0.161 HD
ENDROOT
BRANCH   1  11
HETATM   11  C   UNL     1      -9.096   4.461 -32.970  1.00  0.00     0.257 C 
HETATM   12  N   UNL     1      -9.642   5.124 -34.044  1.00  0.00    -0.352 N 
HETATM   13  H   UNL     1      -9.009   5.573 -34.692  1.00  0.00     0.163 HD
HETATM   14  O   UNL     1      -9.747   4.127 -31.986  1.00  0.00    -0.267 OA
BRANCH  12  15
HETATM   15  C   UNL     1     -11.050   5.432 -34.119  1.00  0.00     0.161 C 
BRANCH  15  16
HETATM   16  C   UNL     1     -11.897   4.205 -34.338  1.00  0.00    -0.040 A 
HETATM   17  C   UNL     1     -11.679   3.375 -35.445  1.00  0.00     0.011 A 
HETATM   18  C   UNL     1     -12.416   2.196 -35.614  1.00  0.00     0.037 A 
HETATM   19  C   UNL     1     -13.381   1.832 -34.675  1.00  0.00     0.068 A 
HETATM   20  C   UNL     1     -13.622   2.669 -33.585  1.00  0.00     0.037 A 
HETATM   21  C   UNL     1     -12.883   3.842 -33.410  1.00  0.00     0.011 A 
BRANCH  19  22
HETATM   22  O   UNL     1     -14.149   0.702 -34.719  1.00  0.00    -0.356 OA
HETATM   23  C   UNL     1     -13.987  -0.213 -33.641  1.00  0.00     0.210 C 
ENDBRANCH  19  22
ENDBRANCH  15  16
ENDBRANCH  12  15
ENDBRANCH   1  11
BRANCH   4  24
HETATM   24  C   UNL     1      -3.253   3.399 -32.209  1.00  0.00     0.409 C 
HETATM   25  F   UNL     1      -3.565   4.614 -31.703  1.00  0.00    -0.169 F 
HETATM   26  F   UNL     1      -2.567   2.745 -31.229  1.00  0.00    -0.169 F 
HETATM   27  F   UNL     1      -2.379   3.567 -33.221  1.00  0.00    -0.169 F 
ENDBRANCH   4  24
BRANCH   6  28
HETATM   28  C   UNL     1      -6.131  -0.108 -32.717  1.00  0.00    -0.035 A 
HETATM   29  C   UNL     1      -7.225  -0.292 -33.584  1.00  0.00     0.009 A 
HETATM   30  C   UNL     1      -7.214  -1.295 -34.555  1.00  0.00     0.001 A 
HETATM   31  C   UNL     1      -6.107  -2.128 -34.685  1.00  0.00     0.000 A 
HETATM   32  C   UNL     1      -5.010  -1.956 -33.845  1.00  0.00     0.001 A 
HETATM   33  C   UNL     1      -5.022  -0.956 -32.870  1.00  0.00     0.009 A 
ENDBRANCH   6  28
TORSDOF 6
ENDMDL
MODEL 8
REMARK VINA RESULT:      -8.1      4.380      7.650
REMARK  6 active torsions:
REMARK  status: ('A' for Active; 'I' for Inactive)
REMARK    1  A    between atoms: O_2  and  C_3 
REMARK    2  A    between atoms: C_6  and  C_7 
REMARK    3  A    between atoms: C_7  and  N_8 
REMARK       I    between atoms: N_8  and  C_9 
REMARK    4  A    between atoms: C_9  and  C_10 
REMARK    5  A    between atoms: C_13  and  C_14 
REMARK    6  A    between atoms: C_19  and  C_20 
ROOT
HETATM    1  C   UNL     1      -8.418   3.388 -31.605  1.00  0.00     0.096 A 
HETATM    2  C   UNL     1      -9.297   3.341 -32.672  1.00  0.00     0.138 A 
HETATM    3  N   UNL     1     -10.189   4.372 -32.469  1.00  0.00    -0.240 N 
HETATM    4  C   UNL     1     -11.264   4.713 -33.384  1.00  0.00     0.221 C 
HETATM    5  C   UNL     1     -10.946   4.157 -34.785  1.00  0.00     0.066 C 
HETATM    6  C   UNL     1     -10.505   2.689 -34.719  1.00  0.00     0.118 C 
HETATM    7  N   UNL     1      -9.393   2.557 -33.778  1.00  0.00    -0.365 N 
HETATM    8  N   UNL     1     -10.001   5.027 -31.316  1.00  0.00    -0.181 NA
HETATM    9  C   UNL     1      -8.899   4.463 -30.817  1.00  0.00     0.160 A 
HETATM   10  H   UNL     1      -8.640   1.941 -34.076  1.00  0.00     0.161 HD
ENDROOT
BRANCH   1  11
HETATM   11  C   UNL     1      -7.253   2.576 -31.312  1.00  0.00     0.257 C 
HETATM   12  N   UNL     1      -6.606   2.066 -32.413  1.00  0.00    -0.352 N 
HETATM   13  H   UNL     1      -7.091   2.095 -33.300  1.00  0.00     0.163 HD
HETATM   14  O   UNL     1      -6.898   2.349 -30.161  1.00  0.00    -0.267 OA
BRANCH  12  15
HETATM   15  C   UNL     1      -5.414   1.260 -32.296  1.00  0.00     0.161 C 
BRANCH  15  16
HETATM   16  C   UNL     1      -5.515  -0.032 -33.064  1.00  0.00    -0.040 A 
HETATM   17  C   UNL     1      -6.694  -0.370 -33.741  1.00  0.00     0.011 A 
HETATM   18  C   UNL     1      -6.768  -1.536 -34.514  1.00  0.00     0.037 A 
HETATM   19  C   UNL     1      -5.662  -2.378 -34.621  1.00  0.00     0.068 A 
HETATM   20  C   UNL     1      -4.494  -2.061 -33.926  1.00  0.00     0.037 A 
HETATM   21  C   UNL     1      -4.415  -0.894 -33.160  1.00  0.00     0.011 A 
BRANCH  19  22
HETATM   22  O   UNL     1      -5.603  -3.529 -35.356  1.00  0.00    -0.356 OA
HETATM   23  C   UNL     1      -6.630  -4.484 -35.115  1.00  0.00     0.210 C 
ENDBRANCH  19  22
ENDBRANCH  15  16
ENDBRANCH  12  15
ENDBRANCH   1  11
BRANCH   4  24
HETATM   24  C   UNL     1     -11.490   6.208 -33.482  1.00  0.00     0.409 C 
HETATM   25  F   UNL     1     -12.181   6.557 -34.592  1.00  0.00    -0.169 F 
HETATM   26  F   UNL     1     -12.241   6.621 -32.422  1.00  0.00    -0.169 F 
HETATM   27  F   UNL     1     -10.356   6.934 -33.437  1.00  0.00    -0.169 F 
ENDBRANCH   4  24
BRANCH   6  28
HETATM   28  C   UNL     1     -11.659   1.742 -34.413  1.00  0.00    -0.035 A 
HETATM   29  C   UNL     1     -12.936   2.034 -34.931  1.00  0.00     0.009 A 
HETATM   30  C   UNL     1     -14.031   1.213 -34.653  1.00  0.00     0.001 A 
HETATM   31  C   UNL     1     -13.870   0.080 -33.862  1.00  0.00     0.000 A 
HETATM   32  C   UNL     1     -12.615  -0.233 -33.349  1.00  0.00     0.001 A 
HETATM   33  C   UNL     1     -11.519   0.591 -33.622  1.00  0.00     0.009 A 
ENDBRANCH   6  28
TORSDOF 6
ENDMDL
MODEL 9
REMARK VINA RESULT:      -8.0     16.085     17.829
REMARK  6 active torsions:
REMARK  status: ('A' for Active; 'I' for Inactive)
REMARK    1  A    between atoms: O_2  and  C_3 
REMARK    2  A    between atoms: C_6  and  C_7 
REMARK    3  A    between atoms: C_7  and  N_8 
REMARK       I    between atoms: N_8  and  C_9 
REMARK    4  A    between atoms: C_9  and  C_10 
REMARK    5  A    between atoms: C_13  and  C_14 
REMARK    6  A    between atoms: C_19  and  C_20 
ROOT
HETATM    1  C   UNL     1      -5.024 -13.427 -40.651  1.00  0.00     0.096 A 
HETATM    2  C   UNL     1      -5.838 -13.831 -39.608  1.00  0.00     0.138 A 
HETATM    3  N   UNL     1      -6.953 -13.023 -39.666  1.00  0.00    -0.240 N 
HETATM    4  C   UNL     1      -8.091 -13.137 -38.772  1.00  0.00     0.221 C 
HETATM    5  C   UNL     1      -8.123 -14.548 -38.155  1.00  0.00     0.066 C 
HETATM    6  C   UNL     1      -6.747 -14.953 -37.611  1.00  0.00     0.118 C 
HETATM    7  N   UNL     1      -5.745 -14.806 -38.666  1.00  0.00    -0.365 N 
HETATM    8  N   UNL     1      -6.883 -12.078 -40.614  1.00  0.00    -0.181 NA
HETATM    9  C   UNL     1      -5.738 -12.355 -41.241  1.00  0.00     0.160 A 
HETATM   10  H   UNL     1      -5.059 -15.556 -38.724  1.00  0.00     0.161 HD
ENDROOT
BRANCH   1  11
HETATM   11  C   UNL     1      -3.747 -13.944 -41.099  1.00  0.00     0.257 C 
HETATM   12  N   UNL     1      -2.666 -13.573 -40.334  1.00  0.00    -0.352 N 
HETATM   13  H   UNL     1      -2.792 -12.814 -39.678  1.00  0.00     0.163 HD
HETATM   14  O   UNL     1      -3.649 -14.639 -42.105  1.00  0.00    -0.267 OA
BRANCH  12  15
HETATM   15  C   UNL     1      -1.327 -14.024 -40.629  1.00  0.00     0.161 C 
BRANCH  15  16
HETATM   16  C   UNL     1      -0.610 -14.538 -39.408  1.00  0.00    -0.040 A 
HETATM   17  C   UNL     1      -1.326 -14.906 -38.262  1.00  0.00     0.011 A 
HETATM   18  C   UNL     1      -0.671 -15.450 -37.150  1.00  0.00     0.037 A 
HETATM   19  C   UNL     1       0.711 -15.635 -37.173  1.00  0.00     0.068 A 
HETATM   20  C   UNL     1       1.434 -15.243 -38.301  1.00  0.00     0.037 A 
HETATM   21  C   UNL     1       0.781 -14.706 -39.414  1.00  0.00     0.011 A 
BRANCH  19  22
HETATM   22  O   UNL     1       1.461 -16.172 -36.163  1.00  0.00    -0.356 OA
HETATM   23  C   UNL     1       0.920 -16.065 -34.851  1.00  0.00     0.210 C 
ENDBRANCH  19  22
ENDBRANCH  15  16
ENDBRANCH  12  15
ENDBRANCH   1  11
BRANCH   4  24
HETATM   24  C   UNL     1      -9.408 -12.872 -39.473  1.00  0.00     0.409 C 
HETATM   25  F   UNL     1      -9.536 -11.584 -39.867  1.00  0.00    -0.169 F 
HETATM   26  F   UNL     1      -9.474 -13.624 -40.608  1.00  0.00    -0.169 F 
HETATM   27  F   UNL     1     -10.490 -13.208 -38.744  1.00  0.00    -0.169 F 
ENDBRANCH   4  24
BRANCH   6  28
HETATM   28  C   UNL     1      -6.378 -14.211 -36.332  1.00  0.00    -0.035 A 
HETATM   29  C   UNL     1      -5.029 -13.883 -36.098  1.00  0.00     0.009 A 
HETATM   30  C   UNL     1      -4.638 -13.230 -34.927  1.00  0.00     0.001 A 
HETATM   31  C   UNL     1      -5.589 -12.883 -33.972  1.00  0.00     0.000 A 
HETATM   32  C   UNL     1      -6.930 -13.187 -34.189  1.00  0.00     0.001 A 
HETATM   33  C   UNL     1      -7.321 -13.845 -35.357  1.00  0.00     0.009 A 
ENDBRANCH   6  28
TORSDOF 6
ENDMDL
MODEL 10
REMARK VINA RESULT:      -7.9      5.478      6.893
REMARK  6 active torsions:
REMARK  status: ('A' for Active; 'I' for Inactive)
REMARK    1  A    between atoms: O_2  and  C_3 
REMARK    2  A    between atoms: C_6  and  C_7 
REMARK    3  A    between atoms: C_7  and  N_8 
REMARK       I    between atoms: N_8  and  C_9 
REMARK    4  A    between atoms: C_9  and  C_10 
REMARK    5  A    between atoms: C_13  and  C_14 
REMARK    6  A    between atoms: C_19  and  C_20 
ROOT
HETATM    1  C   UNL     1      -8.060   3.087 -33.370  1.00  0.00     0.096 A 
HETATM    2  C   UNL     1      -7.249   2.100 -32.839  1.00  0.00     0.138 A 
HETATM    3  N   UNL     1      -5.958   2.558 -32.983  1.00  0.00    -0.240 N 
HETATM    4  C   UNL     1      -4.782   1.844 -32.515  1.00  0.00     0.221 C 
HETATM    5  C   UNL     1      -5.188   0.845 -31.416  1.00  0.00     0.066 C 
HETATM    6  C   UNL     1      -6.406   0.012 -31.838  1.00  0.00     0.118 C 
HETATM    7  N   UNL     1      -7.493   0.906 -32.237  1.00  0.00    -0.365 N 
HETATM    8  N   UNL     1      -5.869   3.724 -33.636  1.00  0.00    -0.181 NA
HETATM    9  C   UNL     1      -7.145   4.068 -33.826  1.00  0.00     0.160 A 
HETATM   10  H   UNL     1      -8.419   0.638 -31.914  1.00  0.00     0.161 HD
ENDROOT
BRANCH   1  11
HETATM   11  C   UNL     1      -9.505   3.171 -33.453  1.00  0.00     0.257 C 
HETATM   12  N   UNL     1     -10.002   4.426 -33.718  1.00  0.00    -0.352 N 
HETATM   13  H   UNL     1      -9.374   5.212 -33.614  1.00  0.00     0.163 HD
HETATM   14  O   UNL     1     -10.220   2.192 -33.271  1.00  0.00    -0.267 OA
BRANCH  12  15
HETATM   15  C   UNL     1     -11.416   4.676 -33.859  1.00  0.00     0.161 C 
BRANCH  15  16
HETATM   16  C   UNL     1     -11.711   5.765 -34.858  1.00  0.00    -0.040 A 
HETATM   17  C   UNL     1     -12.979   5.871 -35.444  1.00  0.00     0.011 A 
HETATM   18  C   UNL     1     -13.279   6.923 -36.319  1.00  0.00     0.037 A 
HETATM   19  C   UNL     1     -12.313   7.884 -36.617  1.00  0.00     0.068 A 
HETATM   20  C   UNL     1     -11.039   7.767 -36.058  1.00  0.00     0.037 A 
HETATM   21  C   UNL     1     -10.740   6.722 -35.179  1.00  0.00     0.011 A 
BRANCH  19  22
HETATM   22  O   UNL     1     -12.489   8.964 -37.437  1.00  0.00    -0.356 OA
HETATM   23  C   UNL     1     -12.981   8.690 -38.743  1.00  0.00     0.210 C 
ENDBRANCH  19  22
ENDBRANCH  15  16
ENDBRANCH  12  15
ENDBRANCH   1  11
BRANCH   4  24
HETATM   24  C   UNL     1      -3.717   2.775 -31.971  1.00  0.00     0.409 C 
HETATM   25  F   UNL     1      -2.965   3.331 -32.948  1.00  0.00    -0.169 F 
HETATM   26  F   UNL     1      -4.315   3.810 -31.316  1.00  0.00    -0.169 F 
HETATM   27  F   UNL     1      -2.895   2.196 -31.073  1.00  0.00    -0.169 F 
ENDBRANCH   4  24
BRANCH   6  28
HETATM   28  C   UNL     1      -6.068  -1.025 -32.902  1.00  0.00    -0.035 A 
HETATM   29  C   UNL     1      -4.751  -1.517 -32.982  1.00  0.00     0.009 A 
HETATM   30  C   UNL     1      -4.386  -2.446 -33.959  1.00  0.00     0.001 A 
HETATM   31  C   UNL     1      -5.331  -2.908 -34.869  1.00  0.00     0.000 A 
HETATM   32  C   UNL     1      -6.641  -2.443 -34.801  1.00  0.00     0.001 A 
HETATM   33  C   UNL     1      -7.007  -1.511 -33.827  1.00  0.00     0.009 A 
ENDBRANCH   6  28
TORSDOF 6
ENDMDL
