MODEL 1
REMARK VINA RESULT:      -9.2      0.000      0.000
REMARK  4 active torsions:
REMARK  status: ('A' for Active; 'I' for Inactive)
REMARK    1  A    between atoms: C_9  and  C_10 
REMARK    2  A    between atoms: C_13  and  O_14 
REMARK    3  A    between atoms: C_18  and  C_19 
REMARK       I    between atoms: C_19  and  N_20 
REMARK    4  A    between atoms: N_20  and  C_21 
ROOT
HETATM    1  C   UNL     1      -5.857   0.721 -29.600  1.00  0.00     0.070 C 
HETATM    2  C   UNL     1      -5.768   2.109 -30.183  1.00  0.00     0.037 C 
HETATM    3  N   UNL     1      -5.549   3.128 -29.257  1.00  0.00    -0.192 N 
HETATM    4  C   UNL     1      -5.771   4.427 -29.541  1.00  0.00     0.725 A 
HETATM    5  N   UNL     1      -6.012   4.799 -30.835  1.00  0.00    -0.084 N 
HETATM    6  N   UNL     1      -6.317   6.111 -30.921  1.00  0.00    -0.149 NA
HETATM    7  C   UNL     1      -6.185   6.477 -29.640  1.00  0.00     0.275 A 
HETATM    8  N   UNL     1      -5.850   5.476 -28.763  1.00  0.00    -0.054 NA
HETATM    9  C   UNL     1      -5.991   3.870 -31.971  1.00  0.00     0.202 C 
HETATM   10  C   UNL     1      -5.967   2.420 -31.489  1.00  0.00     0.062 C 
HETATM   11  H   UNL     1      -5.506   2.867 -28.275  1.00  0.00     0.184 HD
ENDROOT
BRANCH  10  12
HETATM   12  C   UNL     1      -6.347   1.436 -32.540  1.00  0.00     0.256 C 
HETATM   13  N   UNL     1      -5.506   0.348 -32.627  1.00  0.00    -0.323 N 
HETATM   14  H   UNL     1      -4.679   0.358 -32.043  1.00  0.00     0.169 HD
HETATM   15  O   UNL     1      -7.325   1.673 -33.240  1.00  0.00    -0.267 OA
BRANCH  13  16
HETATM   16  C   UNL     1      -5.710  -0.823 -33.389  1.00  0.00     0.035 A 
HETATM   17  C   UNL     1      -6.968  -1.332 -33.717  1.00  0.00     0.031 A 
HETATM   18  C   UNL     1      -7.088  -2.530 -34.433  1.00  0.00     0.026 A 
HETATM   19  C   UNL     1      -5.948  -3.224 -34.821  1.00  0.00     0.034 A 
HETATM   20 CL   UNL     1      -6.097  -4.706 -35.683  1.00  0.00    -0.084 Cl
HETATM   21  C   UNL     1      -4.687  -2.728 -34.507  1.00  0.00     0.026 A 
HETATM   22  C   UNL     1      -4.568  -1.528 -33.798  1.00  0.00     0.031 A 
ENDBRANCH  13  16
ENDBRANCH  10  12
BRANCH   9  23
HETATM   23  C   UNL     1      -4.814   4.194 -32.890  1.00  0.00    -0.028 A 
HETATM   24  C   UNL     1      -3.487   3.912 -32.524  1.00  0.00     0.012 A 
HETATM   25  C   UNL     1      -2.429   4.259 -33.368  1.00  0.00     0.037 A 
HETATM   26  C   UNL     1      -2.669   4.887 -34.591  1.00  0.00     0.068 A 
HETATM   27  C   UNL     1      -3.984   5.139 -34.980  1.00  0.00     0.037 A 
HETATM   28  C   UNL     1      -5.046   4.793 -34.137  1.00  0.00     0.012 A 
BRANCH  26  29
HETATM   29  O   UNL     1      -1.545   5.193 -35.308  1.00  0.00    -0.356 OA
HETATM   30  C   UNL     1      -0.565   5.984 -34.647  1.00  0.00     0.210 C 
ENDBRANCH  26  29
ENDBRANCH   9  23
TORSDOF 4
ENDMDL
MODEL 2
REMARK VINA RESULT:      -9.0      3.452      5.878
REMARK  4 active torsions:
REMARK  status: ('A' for Active; 'I' for Inactive)
REMARK    1  A    between atoms: C_9  and  C_10 
REMARK    2  A    between atoms: C_13  and  O_14 
REMARK    3  A    between atoms: C_18  and  C_19 
REMARK       I    between atoms: C_19  and  N_20 
REMARK    4  A    between atoms: N_20  and  C_21 
ROOT
HETATM    1  C   UNL     1      -5.532   3.999 -34.478  1.00  0.00     0.070 C 
HETATM    2  C   UNL     1      -6.749   3.706 -33.637  1.00  0.00     0.037 C 
HETATM    3  N   UNL     1      -7.184   4.759 -32.835  1.00  0.00    -0.192 N 
HETATM    4  C   UNL     1      -8.026   4.583 -31.797  1.00  0.00     0.725 A 
HETATM    5  N   UNL     1      -8.653   3.377 -31.640  1.00  0.00    -0.084 N 
HETATM    6  N   UNL     1      -9.370   3.342 -30.497  1.00  0.00    -0.149 NA
HETATM    7  C   UNL     1      -9.171   4.585 -30.044  1.00  0.00     0.275 A 
HETATM    8  N   UNL     1      -8.355   5.378 -30.812  1.00  0.00    -0.054 NA
HETATM    9  C   UNL     1      -8.514   2.254 -32.574  1.00  0.00     0.202 C 
HETATM   10  C   UNL     1      -7.367   2.500 -33.554  1.00  0.00     0.062 C 
HETATM   11  H   UNL     1      -6.635   5.616 -32.849  1.00  0.00     0.184 HD
ENDROOT
BRANCH  10  12
HETATM   12  C   UNL     1      -6.905   1.268 -34.252  1.00  0.00     0.256 C 
HETATM   13  N   UNL     1      -6.336   0.327 -33.422  1.00  0.00    -0.323 N 
HETATM   14  H   UNL     1      -6.209   0.586 -32.452  1.00  0.00     0.169 HD
HETATM   15  O   UNL     1      -7.035   1.199 -35.469  1.00  0.00    -0.267 OA
BRANCH  13  16
HETATM   16  C   UNL     1      -5.979  -0.997 -33.760  1.00  0.00     0.035 A 
HETATM   17  C   UNL     1      -4.673  -1.491 -33.712  1.00  0.00     0.031 A 
HETATM   18  C   UNL     1      -4.392  -2.802 -34.112  1.00  0.00     0.026 A 
HETATM   19  C   UNL     1      -5.417  -3.625 -34.566  1.00  0.00     0.034 A 
HETATM   20 CL   UNL     1      -5.067  -5.230 -35.078  1.00  0.00    -0.084 Cl
HETATM   21  C   UNL     1      -6.724  -3.151 -34.615  1.00  0.00     0.026 A 
HETATM   22  C   UNL     1      -7.005  -1.842 -34.206  1.00  0.00     0.031 A 
ENDBRANCH  13  16
ENDBRANCH  10  12
BRANCH   9  23
HETATM   23  C   UNL     1      -9.840   2.001 -33.288  1.00  0.00    -0.028 A 
HETATM   24  C   UNL     1     -10.408   2.946 -34.158  1.00  0.00     0.012 A 
HETATM   25  C   UNL     1     -11.644   2.702 -34.763  1.00  0.00     0.037 A 
HETATM   26  C   UNL     1     -12.335   1.514 -34.519  1.00  0.00     0.068 A 
HETATM   27  C   UNL     1     -11.764   0.554 -33.686  1.00  0.00     0.037 A 
HETATM   28  C   UNL     1     -10.526   0.794 -33.078  1.00  0.00     0.012 A 
BRANCH  26  29
HETATM   29  O   UNL     1     -13.542   1.413 -35.154  1.00  0.00    -0.356 OA
HETATM   30  C   UNL     1     -14.626   0.909 -34.384  1.00  0.00     0.210 C 
ENDBRANCH  26  29
ENDBRANCH   9  23
TORSDOF 4
ENDMDL
MODEL 3
REMARK VINA RESULT:      -8.8      4.191      6.104
REMARK  4 active torsions:
REMARK  status: ('A' for Active; 'I' for Inactive)
REMARK    1  A    between atoms: C_9  and  C_10 
REMARK    2  A    between atoms: C_13  and  O_14 
REMARK    3  A    between atoms: C_18  and  C_19 
REMARK       I    between atoms: C_19  and  N_20 
REMARK    4  A    between atoms: N_20  and  C_21 
ROOT
HETATM    1  C   UNL     1      -8.092   3.923 -29.870  1.00  0.00     0.070 C 
HETATM    2  C   UNL     1      -7.368   3.665 -31.167  1.00  0.00     0.037 C 
HETATM    3  N   UNL     1      -6.157   4.340 -31.315  1.00  0.00    -0.192 N 
HETATM    4  C   UNL     1      -5.552   4.494 -32.509  1.00  0.00     0.725 A 
HETATM    5  N   UNL     1      -6.011   3.791 -33.589  1.00  0.00    -0.084 N 
HETATM    6  N   UNL     1      -5.362   4.145 -34.719  1.00  0.00    -0.149 NA
HETATM    7  C   UNL     1      -4.485   5.030 -34.229  1.00  0.00     0.275 A 
HETATM    8  N   UNL     1      -4.567   5.271 -32.881  1.00  0.00    -0.054 NA
HETATM    9  C   UNL     1      -7.107   2.817 -33.526  1.00  0.00     0.202 C 
HETATM   10  C   UNL     1      -7.847   2.916 -32.193  1.00  0.00     0.062 C 
HETATM   11  H   UNL     1      -5.879   4.972 -30.567  1.00  0.00     0.184 HD
ENDROOT
BRANCH  10  12
HETATM   12  C   UNL     1      -9.188   2.267 -32.205  1.00  0.00     0.256 C 
HETATM   13  N   UNL     1     -10.135   2.939 -32.947  1.00  0.00    -0.323 N 
HETATM   14  H   UNL     1      -9.864   3.834 -33.336  1.00  0.00     0.169 HD
HETATM   15  O   UNL     1      -9.349   1.240 -31.557  1.00  0.00    -0.267 OA
BRANCH  13  16
HETATM   16  C   UNL     1     -11.424   2.480 -33.293  1.00  0.00     0.035 A 
HETATM   17  C   UNL     1     -12.604   2.960 -32.721  1.00  0.00     0.031 A 
HETATM   18  C   UNL     1     -13.844   2.416 -33.080  1.00  0.00     0.026 A 
HETATM   19  C   UNL     1     -13.906   1.386 -34.013  1.00  0.00     0.034 A 
HETATM   20 CL   UNL     1     -15.428   0.705 -34.438  1.00  0.00    -0.084 Cl
HETATM   21  C   UNL     1     -12.741   0.900 -34.597  1.00  0.00     0.026 A 
HETATM   22  C   UNL     1     -11.504   1.451 -34.242  1.00  0.00     0.031 A 
ENDBRANCH  13  16
ENDBRANCH  10  12
BRANCH   9  23
HETATM   23  C   UNL     1      -6.572   1.410 -33.788  1.00  0.00    -0.028 A 
HETATM   24  C   UNL     1      -7.114   0.583 -34.785  1.00  0.00     0.012 A 
HETATM   25  C   UNL     1      -6.630  -0.715 -34.971  1.00  0.00     0.037 A 
HETATM   26  C   UNL     1      -5.598  -1.212 -34.175  1.00  0.00     0.068 A 
HETATM   27  C   UNL     1      -5.028  -0.387 -33.207  1.00  0.00     0.037 A 
HETATM   28  C   UNL     1      -5.509   0.914 -33.017  1.00  0.00     0.012 A 
BRANCH  26  29
HETATM   29  O   UNL     1      -5.236  -2.503 -34.446  1.00  0.00    -0.356 OA
HETATM   30  C   UNL     1      -6.250  -3.351 -34.970  1.00  0.00     0.210 C 
ENDBRANCH  26  29
ENDBRANCH   9  23
TORSDOF 4
ENDMDL
MODEL 4
REMARK VINA RESULT:      -8.7      2.783      4.186
REMARK  4 active torsions:
REMARK  status: ('A' for Active; 'I' for Inactive)
REMARK    1  A    between atoms: C_9  and  C_10 
REMARK    2  A    between atoms: C_13  and  O_14 
REMARK    3  A    between atoms: C_18  and  C_19 
REMARK       I    between atoms: C_19  and  N_20 
REMARK    4  A    between atoms: N_20  and  C_21 
ROOT
HETATM    1  C   UNL     1      -3.338   1.938 -31.285  1.00  0.00     0.070 C 
HETATM    2  C   UNL     1      -4.653   2.605 -30.965  1.00  0.00     0.037 C 
HETATM    3  N   UNL     1      -4.554   3.901 -30.465  1.00  0.00    -0.192 N 
HETATM    4  C   UNL     1      -5.570   4.514 -29.825  1.00  0.00     0.725 A 
HETATM    5  N   UNL     1      -6.814   3.945 -29.844  1.00  0.00    -0.084 N 
HETATM    6  N   UNL     1      -7.680   4.630 -29.069  1.00  0.00    -0.149 NA
HETATM    7  C   UNL     1      -6.898   5.635 -28.657  1.00  0.00     0.275 A 
HETATM    8  N   UNL     1      -5.599   5.601 -29.098  1.00  0.00    -0.054 NA
HETATM    9  C   UNL     1      -7.140   2.715 -30.576  1.00  0.00     0.202 C 
HETATM   10  C   UNL     1      -5.870   2.009 -31.049  1.00  0.00     0.062 C 
HETATM   11  H   UNL     1      -3.619   4.278 -30.321  1.00  0.00     0.184 HD
ENDROOT
BRANCH  10  12
HETATM   12  C   UNL     1      -6.086   0.586 -31.431  1.00  0.00     0.256 C 
HETATM   13  N   UNL     1      -5.939   0.334 -32.778  1.00  0.00    -0.323 N 
HETATM   14  H   UNL     1      -5.787   1.133 -33.381  1.00  0.00     0.169 HD
HETATM   15  O   UNL     1      -6.393  -0.217 -30.558  1.00  0.00    -0.267 OA
BRANCH  13  16
HETATM   16  C   UNL     1      -5.900  -0.931 -33.405  1.00  0.00     0.035 A 
HETATM   17  C   UNL     1      -4.729  -1.661 -33.619  1.00  0.00     0.031 A 
HETATM   18  C   UNL     1      -4.767  -2.886 -34.295  1.00  0.00     0.026 A 
HETATM   19  C   UNL     1      -5.977  -3.384 -34.764  1.00  0.00     0.034 A 
HETATM   20 CL   UNL     1      -6.019  -4.880 -35.613  1.00  0.00    -0.084 Cl
HETATM   21  C   UNL     1      -7.154  -2.672 -34.554  1.00  0.00     0.026 A 
HETATM   22  C   UNL     1      -7.116  -1.452 -33.871  1.00  0.00     0.031 A 
ENDBRANCH  13  16
ENDBRANCH  10  12
BRANCH   9  23
HETATM   23  C   UNL     1      -8.091   3.030 -31.730  1.00  0.00    -0.028 A 
HETATM   24  C   UNL     1      -9.369   2.455 -31.817  1.00  0.00     0.012 A 
HETATM   25  C   UNL     1     -10.199   2.730 -32.907  1.00  0.00     0.037 A 
HETATM   26  C   UNL     1      -9.776   3.584 -33.927  1.00  0.00     0.068 A 
HETATM   27  C   UNL     1      -8.524   4.189 -33.832  1.00  0.00     0.037 A 
HETATM   28  C   UNL     1      -7.690   3.916 -32.741  1.00  0.00     0.012 A 
BRANCH  26  29
HETATM   29  O   UNL     1     -10.674   3.749 -34.945  1.00  0.00    -0.356 OA
HETATM   30  C   UNL     1     -11.791   2.869 -34.957  1.00  0.00     0.210 C 
ENDBRANCH  26  29
ENDBRANCH   9  23
TORSDOF 4
ENDMDL
MODEL 5
REMARK VINA RESULT:      -8.7      3.061      3.945
REMARK  4 active torsions:
REMARK  status: ('A' for Active; 'I' for Inactive)
REMARK    1  A    between atoms: C_9  and  C_10 
REMARK    2  A    between atoms: C_13  and  O_14 
REMARK    3  A    between atoms: C_18  and  C_19 
REMARK       I    between atoms: C_19  and  N_20 
REMARK    4  A    between atoms: N_20  and  C_21 
ROOT
HETATM    1  C   UNL     1     -10.426  -0.371 -32.798  1.00  0.00     0.070 C 
HETATM    2  C   UNL     1      -9.908   1.023 -33.049  1.00  0.00     0.037 C 
HETATM    3  N   UNL     1     -10.749   2.053 -32.631  1.00  0.00    -0.192 N 
HETATM    4  C   UNL     1     -10.614   3.323 -33.062  1.00  0.00     0.725 A 
HETATM    5  N   UNL     1      -9.494   3.677 -33.764  1.00  0.00    -0.084 N 
HETATM    6  N   UNL     1      -9.573   4.949 -34.208  1.00  0.00    -0.149 NA
HETATM    7  C   UNL     1     -10.749   5.317 -33.685  1.00  0.00     0.275 A 
HETATM    8  N   UNL     1     -11.417   4.352 -32.975  1.00  0.00    -0.054 NA
HETATM    9  C   UNL     1      -8.378   2.764 -34.040  1.00  0.00     0.202 C 
HETATM   10  C   UNL     1      -8.761   1.321 -33.711  1.00  0.00     0.062 C 
HETATM   11  H   UNL     1     -11.647   1.791 -32.230  1.00  0.00     0.184 HD
ENDROOT
BRANCH  10  12
HETATM   12  C   UNL     1      -7.858   0.309 -34.327  1.00  0.00     0.256 C 
HETATM   13  N   UNL     1      -6.952  -0.248 -33.452  1.00  0.00    -0.323 N 
HETATM   14  H   UNL     1      -6.925   0.131 -32.514  1.00  0.00     0.169 HD
HETATM   15  O   UNL     1      -7.967   0.079 -35.526  1.00  0.00    -0.267 OA
BRANCH  13  16
HETATM   16  C   UNL     1      -6.105  -1.352 -33.696  1.00  0.00     0.035 A 
HETATM   17  C   UNL     1      -6.459  -2.449 -34.483  1.00  0.00     0.031 A 
HETATM   18  C   UNL     1      -5.582  -3.530 -34.636  1.00  0.00     0.026 A 
HETATM   19  C   UNL     1      -4.346  -3.516 -33.998  1.00  0.00     0.034 A 
HETATM   20 CL   UNL     1      -3.277  -4.854 -34.171  1.00  0.00    -0.084 Cl
HETATM   21  C   UNL     1      -3.975  -2.428 -33.216  1.00  0.00     0.026 A 
HETATM   22  C   UNL     1      -4.850  -1.346 -33.071  1.00  0.00     0.031 A 
ENDBRANCH  13  16
ENDBRANCH  10  12
BRANCH   9  23
HETATM   23  C   UNL     1      -7.131   3.218 -33.284  1.00  0.00    -0.028 A 
HETATM   24  C   UNL     1      -5.971   3.643 -33.952  1.00  0.00     0.012 A 
HETATM   25  C   UNL     1      -4.832   4.013 -33.232  1.00  0.00     0.037 A 
HETATM   26  C   UNL     1      -4.826   3.973 -31.837  1.00  0.00     0.068 A 
HETATM   27  C   UNL     1      -5.984   3.587 -31.163  1.00  0.00     0.037 A 
HETATM   28  C   UNL     1      -7.127   3.216 -31.880  1.00  0.00     0.012 A 
BRANCH  26  29
HETATM   29  O   UNL     1      -3.642   4.337 -31.258  1.00  0.00    -0.356 OA
HETATM   30  C   UNL     1      -2.479   4.235 -32.070  1.00  0.00     0.210 C 
ENDBRANCH  26  29
ENDBRANCH   9  23
TORSDOF 4
ENDMDL
MODEL 6
REMARK VINA RESULT:      -8.5      4.060      7.059
REMARK  4 active torsions:
REMARK  status: ('A' for Active; 'I' for Inactive)
REMARK    1  A    between atoms: C_9  and  C_10 
REMARK    2  A    between atoms: C_13  and  O_14 
REMARK    3  A    between atoms: C_18  and  C_19 
REMARK       I    between atoms: C_19  and  N_20 
REMARK    4  A    between atoms: N_20  and  C_21 
ROOT
HETATM    1  C   UNL     1      -9.050   5.224 -34.507  1.00  0.00     0.070 C 
HETATM    2  C   UNL     1      -9.327   3.774 -34.197  1.00  0.00     0.037 C 
HETATM    3  N   UNL     1     -10.486   3.256 -34.772  1.00  0.00    -0.192 N 
HETATM    4  C   UNL     1     -11.060   2.112 -34.348  1.00  0.00     0.725 A 
HETATM    5  N   UNL     1     -10.383   1.308 -33.472  1.00  0.00    -0.084 N 
HETATM    6  N   UNL     1     -11.144   0.267 -33.072  1.00  0.00    -0.149 NA
HETATM    7  C   UNL     1     -12.249   0.481 -33.794  1.00  0.00     0.275 A 
HETATM    8  N   UNL     1     -12.238   1.599 -34.590  1.00  0.00    -0.054 NA
HETATM    9  C   UNL     1      -9.023   1.581 -32.993  1.00  0.00     0.202 C 
HETATM   10  C   UNL     1      -8.593   3.002 -33.355  1.00  0.00     0.062 C 
HETATM   11  H   UNL     1     -11.065   3.893 -35.315  1.00  0.00     0.184 HD
ENDROOT
BRANCH  10  12
HETATM   12  C   UNL     1      -7.421   3.488 -32.575  1.00  0.00     0.256 C 
HETATM   13  N   UNL     1      -6.208   3.300 -33.201  1.00  0.00    -0.323 N 
HETATM   14  H   UNL     1      -6.215   2.785 -34.073  1.00  0.00     0.169 HD
HETATM   15  O   UNL     1      -7.614   3.974 -31.467  1.00  0.00    -0.267 OA
BRANCH  13  16
HETATM   16  C   UNL     1      -4.956   3.816 -32.799  1.00  0.00     0.035 A 
HETATM   17  C   UNL     1      -4.451   5.051 -33.211  1.00  0.00     0.031 A 
HETATM   18  C   UNL     1      -3.178   5.471 -32.809  1.00  0.00     0.026 A 
HETATM   19  C   UNL     1      -2.402   4.654 -31.994  1.00  0.00     0.034 A 
HETATM   20 CL   UNL     1      -0.829   5.162 -31.517  1.00  0.00    -0.084 Cl
HETATM   21  C   UNL     1      -2.892   3.423 -31.569  1.00  0.00     0.026 A 
HETATM   22  C   UNL     1      -4.169   3.009 -31.966  1.00  0.00     0.031 A 
ENDBRANCH  13  16
ENDBRANCH  10  12
BRANCH   9  23
HETATM   23  C   UNL     1      -8.057   0.529 -33.535  1.00  0.00    -0.028 A 
HETATM   24  C   UNL     1      -7.976   0.230 -34.905  1.00  0.00     0.012 A 
HETATM   25  C   UNL     1      -7.112  -0.768 -35.364  1.00  0.00     0.037 A 
HETATM   26  C   UNL     1      -6.311  -1.482 -34.473  1.00  0.00     0.068 A 
HETATM   27  C   UNL     1      -6.356  -1.169 -33.115  1.00  0.00     0.037 A 
HETATM   28  C   UNL     1      -7.220  -0.170 -32.651  1.00  0.00     0.012 A 
BRANCH  26  29
HETATM   29  O   UNL     1      -5.530  -2.446 -35.050  1.00  0.00    -0.356 OA
HETATM   30  C   UNL     1      -4.426  -2.913 -34.285  1.00  0.00     0.210 C 
ENDBRANCH  26  29
ENDBRANCH   9  23
TORSDOF 4
ENDMDL
MODEL 7
REMARK VINA RESULT:      -8.3      3.515      5.381
REMARK  4 active torsions:
REMARK  status: ('A' for Active; 'I' for Inactive)
REMARK    1  A    between atoms: C_9  and  C_10 
REMARK    2  A    between atoms: C_13  and  O_14 
REMARK    3  A    between atoms: C_18  and  C_19 
REMARK       I    between atoms: C_19  and  N_20 
REMARK    4  A    between atoms: N_20  and  C_21 
ROOT
HETATM    1  C   UNL     1      -6.565   4.495 -29.325  1.00  0.00     0.070 C 
HETATM    2  C   UNL     1      -5.583   3.981 -30.347  1.00  0.00     0.037 C 
HETATM    3  N   UNL     1      -4.333   4.597 -30.331  1.00  0.00    -0.192 N 
HETATM    4  C   UNL     1      -3.464   4.507 -31.358  1.00  0.00     0.725 A 
HETATM    5  N   UNL     1      -3.709   3.614 -32.366  1.00  0.00    -0.084 N 
HETATM    6  N   UNL     1      -2.802   3.734 -33.358  1.00  0.00    -0.149 NA
HETATM    7  C   UNL     1      -2.007   4.683 -32.851  1.00  0.00     0.275 A 
HETATM    8  N   UNL     1      -2.377   5.182 -31.628  1.00  0.00    -0.054 NA
HETATM    9  C   UNL     1      -4.846   2.687 -32.381  1.00  0.00     0.202 C 
HETATM   10  C   UNL     1      -5.861   3.053 -31.299  1.00  0.00     0.062 C 
HETATM   11  H   UNL     1      -4.194   5.357 -29.669  1.00  0.00     0.184 HD
ENDROOT
BRANCH  10  12
HETATM   12  C   UNL     1      -7.200   2.434 -31.503  1.00  0.00     0.256 C 
HETATM   13  N   UNL     1      -8.023   3.135 -32.357  1.00  0.00    -0.323 N 
HETATM   14  H   UNL     1      -7.685   4.028 -32.693  1.00  0.00     0.169 HD
HETATM   15  O   UNL     1      -7.468   1.403 -30.897  1.00  0.00    -0.267 OA
BRANCH  13  16
HETATM   16  C   UNL     1      -9.263   2.707 -32.882  1.00  0.00     0.035 A 
HETATM   17  C   UNL     1     -10.490   3.293 -32.563  1.00  0.00     0.031 A 
HETATM   18  C   UNL     1     -11.683   2.777 -33.085  1.00  0.00     0.026 A 
HETATM   19  C   UNL     1     -11.651   1.671 -33.928  1.00  0.00     0.034 A 
HETATM   20 CL   UNL     1     -13.119   1.027 -34.552  1.00  0.00    -0.084 Cl
HETATM   21  C   UNL     1     -10.437   1.080 -34.260  1.00  0.00     0.026 A 
HETATM   22  C   UNL     1      -9.246   1.601 -33.744  1.00  0.00     0.031 A 
ENDBRANCH  13  16
ENDBRANCH  10  12
BRANCH   9  23
HETATM   23  C   UNL     1      -4.349   1.249 -32.245  1.00  0.00    -0.028 A 
HETATM   24  C   UNL     1      -3.382   0.884 -31.293  1.00  0.00     0.012 A 
HETATM   25  C   UNL     1      -2.918  -0.432 -31.222  1.00  0.00     0.037 A 
HETATM   26  C   UNL     1      -3.408  -1.409 -32.090  1.00  0.00     0.068 A 
HETATM   27  C   UNL     1      -4.394  -1.066 -33.014  1.00  0.00     0.037 A 
HETATM   28  C   UNL     1      -4.863   0.251 -33.088  1.00  0.00     0.012 A 
BRANCH  26  29
HETATM   29  O   UNL     1      -2.852  -2.649 -31.930  1.00  0.00    -0.356 OA
HETATM   30  C   UNL     1      -3.366  -3.687 -32.755  1.00  0.00     0.210 C 
ENDBRANCH  26  29
ENDBRANCH   9  23
TORSDOF 4
ENDMDL
MODEL 8
REMARK VINA RESULT:      -8.1      3.829      7.048
REMARK  4 active torsions:
REMARK  status: ('A' for Active; 'I' for Inactive)
REMARK    1  A    between atoms: C_9  and  C_10 
REMARK    2  A    between atoms: C_13  and  O_14 
REMARK    3  A    between atoms: C_18  and  C_19 
REMARK       I    between atoms: C_19  and  N_20 
REMARK    4  A    between atoms: N_20  and  C_21 
ROOT
HETATM    1  C   UNL     1      -7.428   4.986 -33.811  1.00  0.00     0.070 C 
HETATM    2  C   UNL     1      -7.757   3.559 -33.451  1.00  0.00     0.037 C 
HETATM    3  N   UNL     1      -8.865   3.023 -34.105  1.00  0.00    -0.192 N 
HETATM    4  C   UNL     1      -9.495   1.911 -33.677  1.00  0.00     0.725 A 
HETATM    5  N   UNL     1      -8.916   1.148 -32.699  1.00  0.00    -0.084 N 
HETATM    6  N   UNL     1      -9.728   0.139 -32.318  1.00  0.00    -0.149 NA
HETATM    7  C   UNL     1     -10.758   0.326 -33.152  1.00  0.00     0.275 A 
HETATM    8  N   UNL     1     -10.653   1.398 -34.001  1.00  0.00    -0.054 NA
HETATM    9  C   UNL     1      -7.603   1.432 -32.108  1.00  0.00     0.202 C 
HETATM   10  C   UNL     1      -7.118   2.826 -32.504  1.00  0.00     0.062 C 
HETATM   11  H   UNL     1      -9.379   3.636 -34.734  1.00  0.00     0.184 HD
ENDROOT
BRANCH  10  12
HETATM   12  C   UNL     1      -6.016   3.341 -31.643  1.00  0.00     0.256 C 
HETATM   13  N   UNL     1      -4.942   3.847 -32.342  1.00  0.00    -0.323 N 
HETATM   14  H   UNL     1      -4.961   3.748 -33.350  1.00  0.00     0.169 HD
HETATM   15  O   UNL     1      -6.132   3.252 -30.427  1.00  0.00    -0.267 OA
BRANCH  13  16
HETATM   16  C   UNL     1      -3.847   4.563 -31.812  1.00  0.00     0.035 A 
HETATM   17  C   UNL     1      -3.963   5.778 -31.133  1.00  0.00     0.031 A 
HETATM   18  C   UNL     1      -2.823   6.454 -30.681  1.00  0.00     0.026 A 
HETATM   19  C   UNL     1      -1.561   5.917 -30.911  1.00  0.00     0.034 A 
HETATM   20 CL   UNL     1      -0.159   6.759 -30.374  1.00  0.00    -0.084 Cl
HETATM   21  C   UNL     1      -1.428   4.705 -31.580  1.00  0.00     0.026 A 
HETATM   22  C   UNL     1      -2.568   4.027 -32.024  1.00  0.00     0.031 A 
ENDBRANCH  13  16
ENDBRANCH  10  12
BRANCH   9  23
HETATM   23  C   UNL     1      -6.608   0.341 -32.499  1.00  0.00    -0.028 A 
HETATM   24  C   UNL     1      -5.682  -0.183 -31.581  1.00  0.00     0.012 A 
HETATM   25  C   UNL     1      -4.756  -1.151 -31.981  1.00  0.00     0.037 A 
HETATM   26  C   UNL     1      -4.736  -1.619 -33.295  1.00  0.00     0.068 A 
HETATM   27  C   UNL     1      -5.674  -1.132 -34.205  1.00  0.00     0.037 A 
HETATM   28  C   UNL     1      -6.603  -0.163 -33.809  1.00  0.00     0.012 A 
BRANCH  26  29
HETATM   29  O   UNL     1      -3.766  -2.546 -33.559  1.00  0.00    -0.356 OA
HETATM   30  C   UNL     1      -4.193  -3.758 -34.167  1.00  0.00     0.210 C 
ENDBRANCH  26  29
ENDBRANCH   9  23
TORSDOF 4
ENDMDL
MODEL 9
REMARK VINA RESULT:      -8.1      1.717      2.203
REMARK  4 active torsions:
REMARK  status: ('A' for Active; 'I' for Inactive)
REMARK    1  A    between atoms: C_9  and  C_10 
REMARK    2  A    between atoms: C_13  and  O_14 
REMARK    3  A    between atoms: C_18  and  C_19 
REMARK       I    between atoms: C_19  and  N_20 
REMARK    4  A    between atoms: N_20  and  C_21 
ROOT
HETATM    1  C   UNL     1      -8.296   2.111 -30.833  1.00  0.00     0.070 C 
HETATM    2  C   UNL     1      -7.513   3.324 -31.270  1.00  0.00     0.037 C 
HETATM    3  N   UNL     1      -7.773   4.489 -30.550  1.00  0.00    -0.192 N 
HETATM    4  C   UNL     1      -7.430   5.713 -30.999  1.00  0.00     0.725 A 
HETATM    5  N   UNL     1      -6.612   5.822 -32.090  1.00  0.00    -0.084 N 
HETATM    6  N   UNL     1      -6.461   7.110 -32.464  1.00  0.00    -0.149 NA
HETATM    7  C   UNL     1      -7.175   7.725 -31.515  1.00  0.00     0.275 A 
HETATM    8  N   UNL     1      -7.784   6.907 -30.598  1.00  0.00    -0.054 NA
HETATM    9  C   UNL     1      -6.022   4.673 -32.789  1.00  0.00     0.202 C 
HETATM   10  C   UNL     1      -6.672   3.367 -32.335  1.00  0.00     0.062 C 
HETATM   11  H   UNL     1      -8.484   4.442 -29.824  1.00  0.00     0.184 HD
ENDROOT
BRANCH  10  12
HETATM   12  C   UNL     1      -6.428   2.226 -33.261  1.00  0.00     0.256 C 
HETATM   13  N   UNL     1      -5.982   1.080 -32.640  1.00  0.00    -0.323 N 
HETATM   14  H   UNL     1      -5.784   1.140 -31.649  1.00  0.00     0.169 HD
HETATM   15  O   UNL     1      -6.609   2.396 -34.461  1.00  0.00    -0.267 OA
BRANCH  13  16
HETATM   16  C   UNL     1      -5.844  -0.200 -33.221  1.00  0.00     0.035 A 
HETATM   17  C   UNL     1      -4.625  -0.867 -33.361  1.00  0.00     0.031 A 
HETATM   18  C   UNL     1      -4.563  -2.114 -33.995  1.00  0.00     0.026 A 
HETATM   19  C   UNL     1      -5.722  -2.697 -34.495  1.00  0.00     0.034 A 
HETATM   20 CL   UNL     1      -5.641  -4.219 -35.293  1.00  0.00    -0.084 Cl
HETATM   21  C   UNL     1      -6.945  -2.049 -34.359  1.00  0.00     0.026 A 
HETATM   22  C   UNL     1      -7.006  -0.807 -33.717  1.00  0.00     0.031 A 
ENDBRANCH  13  16
ENDBRANCH  10  12
BRANCH   9  23
HETATM   23  C   UNL     1      -4.507   4.664 -32.593  1.00  0.00    -0.028 A 
HETATM   24  C   UNL     1      -3.923   4.583 -31.318  1.00  0.00     0.012 A 
HETATM   25  C   UNL     1      -2.534   4.619 -31.170  1.00  0.00     0.037 A 
HETATM   26  C   UNL     1      -1.701   4.733 -32.283  1.00  0.00     0.068 A 
HETATM   27  C   UNL     1      -2.269   4.778 -33.556  1.00  0.00     0.037 A 
HETATM   28  C   UNL     1      -3.659   4.741 -33.709  1.00  0.00     0.012 A 
BRANCH  26  29
HETATM   29  O   UNL     1      -0.365   4.782 -31.996  1.00  0.00    -0.356 OA
HETATM   30  C   UNL     1      -0.011   5.187 -30.680  1.00  0.00     0.210 C 
ENDBRANCH  26  29
ENDBRANCH   9  23
TORSDOF 4
ENDMDL
MODEL 10
REMARK VINA RESULT:      -7.8      4.019      6.030
REMARK  4 active torsions:
REMARK  status: ('A' for Active; 'I' for Inactive)
REMARK    1  A    between atoms: C_9  and  C_10 
REMARK    2  A    between atoms: C_13  and  O_14 
REMARK    3  A    between atoms: C_18  and  C_19 
REMARK       I    between atoms: C_19  and  N_20 
REMARK    4  A    between atoms: N_20  and  C_21 
ROOT
HETATM    1  C   UNL     1      -7.654  -0.600 -34.941  1.00  0.00     0.070 C 
HETATM    2  C   UNL     1      -6.804  -0.080 -33.808  1.00  0.00     0.037 C 
HETATM    3  N   UNL     1      -5.434  -0.285 -33.951  1.00  0.00    -0.192 N 
HETATM    4  C   UNL     1      -4.573  -0.194 -32.918  1.00  0.00     0.725 A 
HETATM    5  N   UNL     1      -5.006   0.326 -31.728  1.00  0.00    -0.084 N 
HETATM    6  N   UNL     1      -4.050   0.244 -30.779  1.00  0.00    -0.149 NA
HETATM    7  C   UNL     1      -3.047  -0.288 -31.487  1.00  0.00     0.275 A 
HETATM    8  N   UNL     1      -3.325  -0.569 -32.801  1.00  0.00    -0.054 NA
HETATM    9  C   UNL     1      -6.358   0.854 -31.510  1.00  0.00     0.202 C 
HETATM   10  C   UNL     1      -7.284   0.476 -32.665  1.00  0.00     0.062 C 
HETATM   11  H   UNL     1      -5.120  -0.795 -34.774  1.00  0.00     0.184 HD
ENDROOT
BRANCH  10  12
HETATM   12  C   UNL     1      -8.731   0.615 -32.341  1.00  0.00     0.256 C 
HETATM   13  N   UNL     1      -9.446   1.359 -33.253  1.00  0.00    -0.323 N 
HETATM   14  H   UNL     1      -8.921   1.804 -33.996  1.00  0.00     0.169 HD
HETATM   15  O   UNL     1      -9.153   0.101 -31.312  1.00  0.00    -0.267 OA
BRANCH  13  16
HETATM   16  C   UNL     1     -10.849   1.508 -33.313  1.00  0.00     0.035 A 
HETATM   17  C   UNL     1     -11.520   2.702 -33.039  1.00  0.00     0.031 A 
HETATM   18  C   UNL     1     -12.919   2.757 -33.069  1.00  0.00     0.026 A 
HETATM   19  C   UNL     1     -13.652   1.614 -33.371  1.00  0.00     0.034 A 
HETATM   20 CL   UNL     1     -15.371   1.678 -33.387  1.00  0.00    -0.084 Cl
HETATM   21  C   UNL     1     -12.999   0.419 -33.652  1.00  0.00     0.026 A 
HETATM   22  C   UNL     1     -11.601   0.368 -33.629  1.00  0.00     0.031 A 
ENDBRANCH  13  16
ENDBRANCH  10  12
BRANCH   9  23
HETATM   23  C   UNL     1      -6.300   2.364 -31.286  1.00  0.00    -0.028 A 
HETATM   24  C   UNL     1      -5.952   3.254 -32.315  1.00  0.00     0.012 A 
HETATM   25  C   UNL     1      -5.867   4.627 -32.068  1.00  0.00     0.037 A 
HETATM   26  C   UNL     1      -6.129   5.140 -30.797  1.00  0.00     0.068 A 
HETATM   27  C   UNL     1      -6.509   4.269 -29.777  1.00  0.00     0.037 A 
HETATM   28  C   UNL     1      -6.597   2.893 -30.021  1.00  0.00     0.012 A 
BRANCH  26  29
HETATM   29  O   UNL     1      -5.986   6.495 -30.685  1.00  0.00    -0.356 OA
HETATM   30  C   UNL     1      -5.130   7.125 -31.631  1.00  0.00     0.210 C 
ENDBRANCH  26  29
ENDBRANCH   9  23
TORSDOF 4
ENDMDL
