MODEL 1
REMARK VINA RESULT:      -9.2      0.000      0.000
REMARK  3 active torsions:
REMARK  status: ('A' for Active; 'I' for Inactive)
REMARK    1  A    between atoms: N_4  and  C_5 
REMARK    2  A    between atoms: C_5  and  C_6 
REMARK       I    between atoms: C_6  and  N_7 
REMARK    3  A    between atoms: N_7  and  C_8 
ROOT
HETATM    1  C   UNL     1      -5.681   1.391 -29.920  1.00  0.00     0.257 C 
ENDROOT
BRANCH   1   2
HETATM    2  N   UNL     1      -5.891   0.597 -31.127  1.00  0.00    -0.225 N 
HETATM    3  N   UNL     1      -7.159   0.626 -31.657  1.00  0.00    -0.173 NA
HETATM    4  C   UNL     1      -7.442  -0.132 -32.671  1.00  0.00     0.062 A 
HETATM    5  C   UNL     1      -8.852  -0.079 -33.208  1.00  0.00     0.073 C 
HETATM    6  C   UNL     1      -6.463  -1.037 -33.304  1.00  0.00     0.006 A 
HETATM    7  C   UNL     1      -5.195  -1.096 -32.737  1.00  0.00     0.046 A 
HETATM    8  C   UNL     1      -6.763  -1.823 -34.424  1.00  0.00     0.014 A 
HETATM    9  C   UNL     1      -4.890  -0.269 -31.557  1.00  0.00     0.275 A 
HETATM   10  C   UNL     1      -4.217  -1.936 -33.283  1.00  0.00     0.018 A 
HETATM   11  O   UNL     1      -3.789  -0.360 -31.016  1.00  0.00    -0.266 OA
HETATM   12  C   UNL     1      -4.515  -2.718 -34.400  1.00  0.00     0.001 A 
HETATM   13  C   UNL     1      -5.787  -2.662 -34.968  1.00  0.00     0.001 A 
ENDBRANCH   1   2
BRANCH   1  14
HETATM   14  C   UNL     1      -5.236   2.818 -30.244  1.00  0.00     0.238 C 
HETATM   15  N   UNL     1      -3.997   2.895 -30.845  1.00  0.00    -0.351 N 
HETATM   16  H   UNL     1      -3.642   2.041 -31.274  1.00  0.00     0.163 HD
HETATM   17  O   UNL     1      -5.920   3.807 -29.989  1.00  0.00    -0.272 OA
BRANCH  15  18
HETATM   18  C   UNL     1      -3.427   4.155 -31.255  1.00  0.00     0.118 C 
HETATM   19  C   UNL     1      -3.676   4.467 -32.706  1.00  0.00    -0.029 A 
HETATM   20  C   UNL     1      -2.520   4.977 -33.310  1.00  0.00    -0.050 A 
HETATM   21  C   UNL     1      -4.858   4.357 -33.425  1.00  0.00     0.010 A 
HETATM   22  C   UNL     1      -2.517   5.369 -34.639  1.00  0.00     0.007 A 
HETATM   23  C   UNL     1      -1.399   5.074 -32.325  1.00  0.00     0.041 C 
HETATM   24  C   UNL     1      -3.698   5.238 -35.372  1.00  0.00     0.001 A 
HETATM   25  C   UNL     1      -4.861   4.738 -34.769  1.00  0.00     0.001 A 
HETATM   26  C   UNL     1      -1.883   4.127 -31.221  1.00  0.00     0.034 C 
ENDBRANCH  15  18
ENDBRANCH   1  14
TORSDOF 3
ENDMDL
MODEL 2
REMARK VINA RESULT:      -9.1      1.094      2.112
REMARK  3 active torsions:
REMARK  status: ('A' for Active; 'I' for Inactive)
REMARK    1  A    between atoms: N_4  and  C_5 
REMARK    2  A    between atoms: C_5  and  C_6 
REMARK       I    between atoms: C_6  and  N_7 
REMARK    3  A    between atoms: N_7  and  C_8 
ROOT
HETATM    1  C   UNL     1      -5.804   1.657 -29.705  1.00  0.00     0.257 C 
ENDROOT
BRANCH   1   2
HETATM    2  N   UNL     1      -5.562   0.652 -30.735  1.00  0.00    -0.225 N 
HETATM    3  N   UNL     1      -4.277   0.175 -30.825  1.00  0.00    -0.173 NA
HETATM    4  C   UNL     1      -3.968  -0.646 -31.781  1.00  0.00     0.062 A 
HETATM    5  C   UNL     1      -2.540  -1.133 -31.849  1.00  0.00     0.073 C 
HETATM    6  C   UNL     1      -4.936  -1.110 -32.795  1.00  0.00     0.006 A 
HETATM    7  C   UNL     1      -6.223  -0.589 -32.727  1.00  0.00     0.046 A 
HETATM    8  C   UNL     1      -4.608  -2.028 -33.800  1.00  0.00     0.014 A 
HETATM    9  C   UNL     1      -6.558   0.379 -31.668  1.00  0.00     0.275 A 
HETATM   10  C   UNL     1      -7.193  -0.981 -33.659  1.00  0.00     0.018 A 
HETATM   11  O   UNL     1      -7.679   0.887 -31.638  1.00  0.00    -0.266 OA
HETATM   12  C   UNL     1      -6.866  -1.896 -34.659  1.00  0.00     0.001 A 
HETATM   13  C   UNL     1      -5.576  -2.418 -34.730  1.00  0.00     0.001 A 
ENDBRANCH   1   2
BRANCH   1  14
HETATM   14  C   UNL     1      -5.329   3.046 -30.136  1.00  0.00     0.238 C 
HETATM   15  N   UNL     1      -4.082   3.052 -30.726  1.00  0.00    -0.351 N 
HETATM   16  H   UNL     1      -3.738   2.160 -31.080  1.00  0.00     0.163 HD
HETATM   17  O   UNL     1      -5.997   4.064 -29.972  1.00  0.00    -0.272 OA
BRANCH  15  18
HETATM   18  C   UNL     1      -3.483   4.264 -31.229  1.00  0.00     0.118 C 
HETATM   19  C   UNL     1      -3.768   4.497 -32.689  1.00  0.00    -0.029 A 
HETATM   20  C   UNL     1      -2.616   4.929 -33.357  1.00  0.00    -0.050 A 
HETATM   21  C   UNL     1      -4.976   4.385 -33.364  1.00  0.00     0.010 A 
HETATM   22  C   UNL     1      -2.642   5.241 -34.707  1.00  0.00     0.007 A 
HETATM   23  C   UNL     1      -1.461   5.046 -32.413  1.00  0.00     0.041 C 
HETATM   24  C   UNL     1      -3.850   5.107 -35.395  1.00  0.00     0.001 A 
HETATM   25  C   UNL     1      -5.009   4.685 -34.728  1.00  0.00     0.001 A 
HETATM   26  C   UNL     1      -1.941   4.184 -31.240  1.00  0.00     0.034 C 
ENDBRANCH  15  18
ENDBRANCH   1  14
TORSDOF 3
ENDMDL
MODEL 3
REMARK VINA RESULT:      -9.0      3.253      6.488
REMARK  3 active torsions:
REMARK  status: ('A' for Active; 'I' for Inactive)
REMARK    1  A    between atoms: N_4  and  C_5 
REMARK    2  A    between atoms: C_5  and  C_6 
REMARK       I    between atoms: C_6  and  N_7 
REMARK    3  A    between atoms: N_7  and  C_8 
ROOT
HETATM    1  C   UNL     1      -5.085   0.950 -30.906  1.00  0.00     0.257 C 
ENDROOT
BRANCH   1   2
HETATM    2  N   UNL     1      -6.413   1.285 -31.411  1.00  0.00    -0.225 N 
HETATM    3  N   UNL     1      -6.723   0.806 -32.661  1.00  0.00    -0.173 NA
HETATM    4  C   UNL     1      -7.847   1.148 -33.213  1.00  0.00     0.062 A 
HETATM    5  C   UNL     1      -8.137   0.611 -34.594  1.00  0.00     0.073 C 
HETATM    6  C   UNL     1      -8.832   2.033 -32.561  1.00  0.00     0.006 A 
HETATM    7  C   UNL     1      -8.494   2.550 -31.316  1.00  0.00     0.046 A 
HETATM    8  C   UNL     1     -10.062   2.366 -33.144  1.00  0.00     0.014 A 
HETATM    9  C   UNL     1      -7.197   2.198 -30.713  1.00  0.00     0.275 A 
HETATM   10  C   UNL     1      -9.380   3.400 -30.642  1.00  0.00     0.018 A 
HETATM   11  O   UNL     1      -6.868   2.699 -29.638  1.00  0.00    -0.266 OA
HETATM   12  C   UNL     1     -10.605   3.730 -31.221  1.00  0.00     0.001 A 
HETATM   13  C   UNL     1     -10.945   3.214 -32.471  1.00  0.00     0.001 A 
ENDBRANCH   1   2
BRANCH   1  14
HETATM   14  C   UNL     1      -4.264   0.166 -31.931  1.00  0.00     0.238 C 
HETATM   15  N   UNL     1      -4.538  -1.186 -31.951  1.00  0.00    -0.351 N 
HETATM   16  H   UNL     1      -5.418  -1.481 -31.531  1.00  0.00     0.163 HD
HETATM   17  O   UNL     1      -3.434   0.692 -32.670  1.00  0.00    -0.272 OA
BRANCH  15  18
HETATM   18  C   UNL     1      -3.887  -2.081 -32.876  1.00  0.00     0.118 C 
HETATM   19  C   UNL     1      -4.858  -2.818 -33.760  1.00  0.00    -0.029 A 
HETATM   20  C   UNL     1      -4.498  -4.166 -33.878  1.00  0.00    -0.050 A 
HETATM   21  C   UNL     1      -5.950  -2.316 -34.454  1.00  0.00     0.010 A 
HETATM   22  C   UNL     1      -5.226  -5.038 -34.671  1.00  0.00     0.007 A 
HETATM   23  C   UNL     1      -3.250  -4.456 -33.105  1.00  0.00     0.041 C 
HETATM   24  C   UNL     1      -6.339  -4.542 -35.352  1.00  0.00     0.001 A 
HETATM   25  C   UNL     1      -6.697  -3.191 -35.247  1.00  0.00     0.001 A 
HETATM   26  C   UNL     1      -3.198  -3.258 -32.151  1.00  0.00     0.034 C 
ENDBRANCH  15  18
ENDBRANCH   1  14
TORSDOF 3
ENDMDL
MODEL 4
REMARK VINA RESULT:      -8.9      1.790      2.588
REMARK  3 active torsions:
REMARK  status: ('A' for Active; 'I' for Inactive)
REMARK    1  A    between atoms: N_4  and  C_5 
REMARK    2  A    between atoms: C_5  and  C_6 
REMARK       I    between atoms: C_6  and  N_7 
REMARK    3  A    between atoms: N_7  and  C_8 
ROOT
HETATM    1  C   UNL     1      -4.825   1.940 -31.561  1.00  0.00     0.257 C 
ENDROOT
BRANCH   1   2
HETATM    2  N   UNL     1      -4.986   0.811 -32.471  1.00  0.00    -0.225 N 
HETATM    3  N   UNL     1      -5.939   0.956 -33.451  1.00  0.00    -0.173 NA
HETATM    4  C   UNL     1      -6.204  -0.045 -34.234  1.00  0.00     0.062 A 
HETATM    5  C   UNL     1      -7.269   0.155 -35.285  1.00  0.00     0.073 C 
HETATM    6  C   UNL     1      -5.527  -1.353 -34.134  1.00  0.00     0.006 A 
HETATM    7  C   UNL     1      -4.597  -1.509 -33.113  1.00  0.00     0.046 A 
HETATM    8  C   UNL     1      -5.788  -2.417 -35.007  1.00  0.00     0.014 A 
HETATM    9  C   UNL     1      -4.331  -0.386 -32.197  1.00  0.00     0.275 A 
HETATM   10  C   UNL     1      -3.918  -2.724 -32.956  1.00  0.00     0.018 A 
HETATM   11  O   UNL     1      -3.552  -0.537 -31.256  1.00  0.00    -0.266 OA
HETATM   12  C   UNL     1      -4.177  -3.783 -33.827  1.00  0.00     0.001 A 
HETATM   13  C   UNL     1      -5.112  -3.629 -34.850  1.00  0.00     0.001 A 
ENDBRANCH   1   2
BRANCH   1  14
HETATM   14  C   UNL     1      -3.459   2.610 -31.716  1.00  0.00     0.238 C 
HETATM   15  N   UNL     1      -3.415   3.568 -32.707  1.00  0.00    -0.351 N 
HETATM   16  H   UNL     1      -4.310   3.942 -33.022  1.00  0.00     0.163 HD
HETATM   17  O   UNL     1      -2.487   2.320 -31.022  1.00  0.00    -0.272 OA
BRANCH  15  18
HETATM   18  C   UNL     1      -2.222   4.331 -32.977  1.00  0.00     0.118 C 
HETATM   19  C   UNL     1      -2.212   5.669 -32.286  1.00  0.00    -0.029 A 
HETATM   20  C   UNL     1      -1.749   6.670 -33.149  1.00  0.00    -0.050 A 
HETATM   21  C   UNL     1      -2.540   5.967 -30.971  1.00  0.00     0.010 A 
HETATM   22  C   UNL     1      -1.620   7.982 -32.724  1.00  0.00     0.007 A 
HETATM   23  C   UNL     1      -1.387   6.101 -34.484  1.00  0.00     0.041 C 
HETATM   24  C   UNL     1      -1.971   8.291 -31.408  1.00  0.00     0.001 A 
HETATM   25  C   UNL     1      -2.425   7.290 -30.537  1.00  0.00     0.001 A 
HETATM   26  C   UNL     1      -2.136   4.764 -34.457  1.00  0.00     0.034 C 
ENDBRANCH  15  18
ENDBRANCH   1  14
TORSDOF 3
ENDMDL
MODEL 5
REMARK VINA RESULT:      -8.9      2.591      4.181
REMARK  3 active torsions:
REMARK  status: ('A' for Active; 'I' for Inactive)
REMARK    1  A    between atoms: N_4  and  C_5 
REMARK    2  A    between atoms: C_5  and  C_6 
REMARK       I    between atoms: C_6  and  N_7 
REMARK    3  A    between atoms: N_7  and  C_8 
ROOT
HETATM    1  C   UNL     1      -3.816   0.999 -32.314  1.00  0.00     0.257 C 
ENDROOT
BRANCH   1   2
HETATM    2  N   UNL     1      -4.251  -0.220 -32.988  1.00  0.00    -0.225 N 
HETATM    3  N   UNL     1      -5.397  -0.119 -33.740  1.00  0.00    -0.173 NA
HETATM    4  C   UNL     1      -5.896  -1.186 -34.285  1.00  0.00     0.062 A 
HETATM    5  C   UNL     1      -7.165  -1.030 -35.089  1.00  0.00     0.073 C 
HETATM    6  C   UNL     1      -5.290  -2.525 -34.148  1.00  0.00     0.006 A 
HETATM    7  C   UNL     1      -4.156  -2.629 -33.351  1.00  0.00     0.046 A 
HETATM    8  C   UNL     1      -5.809  -3.666 -34.773  1.00  0.00     0.014 A 
HETATM    9  C   UNL     1      -3.619  -1.424 -32.694  1.00  0.00     0.275 A 
HETATM   10  C   UNL     1      -3.531  -3.869 -33.172  1.00  0.00     0.018 A 
HETATM   11  O   UNL     1      -2.651  -1.520 -31.941  1.00  0.00    -0.266 OA
HETATM   12  C   UNL     1      -4.047  -5.005 -33.796  1.00  0.00     0.001 A 
HETATM   13  C   UNL     1      -5.185  -4.903 -34.594  1.00  0.00     0.001 A 
ENDBRANCH   1   2
BRANCH   1  14
HETATM   14  C   UNL     1      -4.999   1.860 -31.868  1.00  0.00     0.238 C 
HETATM   15  N   UNL     1      -5.599   2.561 -32.893  1.00  0.00    -0.351 N 
HETATM   16  H   UNL     1      -5.415   2.233 -33.841  1.00  0.00     0.163 HD
HETATM   17  O   UNL     1      -5.380   1.923 -30.701  1.00  0.00    -0.272 OA
BRANCH  15  18
HETATM   18  C   UNL     1      -6.752   3.399 -32.671  1.00  0.00     0.118 C 
HETATM   19  C   UNL     1      -8.051   2.701 -32.974  1.00  0.00    -0.029 A 
HETATM   20  C   UNL     1      -8.916   3.547 -33.678  1.00  0.00    -0.050 A 
HETATM   21  C   UNL     1      -8.456   1.426 -32.604  1.00  0.00     0.010 A 
HETATM   22  C   UNL     1     -10.189   3.135 -34.039  1.00  0.00     0.007 A 
HETATM   23  C   UNL     1      -8.293   4.890 -33.896  1.00  0.00     0.041 C 
HETATM   24  C   UNL     1     -10.592   1.845 -33.690  1.00  0.00     0.001 A 
HETATM   25  C   UNL     1      -9.733   0.997 -32.975  1.00  0.00     0.001 A 
HETATM   26  C   UNL     1      -6.810   4.576 -33.668  1.00  0.00     0.034 C 
ENDBRANCH  15  18
ENDBRANCH   1  14
TORSDOF 3
ENDMDL
MODEL 6
REMARK VINA RESULT:      -8.8      2.026      3.020
REMARK  3 active torsions:
REMARK  status: ('A' for Active; 'I' for Inactive)
REMARK    1  A    between atoms: N_4  and  C_5 
REMARK    2  A    between atoms: C_5  and  C_6 
REMARK       I    between atoms: C_6  and  N_7 
REMARK    3  A    between atoms: N_7  and  C_8 
ROOT
HETATM    1  C   UNL     1      -3.751   1.411 -31.200  1.00  0.00     0.257 C 
ENDROOT
BRANCH   1   2
HETATM    2  N   UNL     1      -4.589   0.548 -32.027  1.00  0.00    -0.225 N 
HETATM    3  N   UNL     1      -5.942   0.777 -31.961  1.00  0.00    -0.173 NA
HETATM    4  C   UNL     1      -6.753  -0.016 -32.593  1.00  0.00     0.062 A 
HETATM    5  C   UNL     1      -8.232   0.265 -32.478  1.00  0.00     0.073 C 
HETATM    6  C   UNL     1      -6.297  -1.166 -33.398  1.00  0.00     0.006 A 
HETATM    7  C   UNL     1      -4.931  -1.420 -33.425  1.00  0.00     0.046 A 
HETATM    8  C   UNL     1      -7.174  -1.994 -34.111  1.00  0.00     0.014 A 
HETATM    9  C   UNL     1      -4.017  -0.546 -32.669  1.00  0.00     0.275 A 
HETATM   10  C   UNL     1      -4.428  -2.498 -34.165  1.00  0.00     0.018 A 
HETATM   11  O   UNL     1      -2.813  -0.800 -32.641  1.00  0.00    -0.266 OA
HETATM   12  C   UNL     1      -5.301  -3.321 -34.876  1.00  0.00     0.001 A 
HETATM   13  C   UNL     1      -6.672  -3.069 -34.848  1.00  0.00     0.001 A 
ENDBRANCH   1   2
BRANCH   1  14
HETATM   14  C   UNL     1      -3.637   2.823 -31.778  1.00  0.00     0.238 C 
HETATM   15  N   UNL     1      -3.506   3.809 -30.821  1.00  0.00    -0.351 N 
HETATM   16  H   UNL     1      -3.206   3.510 -29.894  1.00  0.00     0.163 HD
HETATM   17  O   UNL     1      -3.662   3.059 -32.983  1.00  0.00    -0.272 OA
BRANCH  15  18
HETATM   18  C   UNL     1      -3.351   5.198 -31.176  1.00  0.00     0.118 C 
HETATM   19  C   UNL     1      -1.956   5.711 -30.938  1.00  0.00    -0.029 A 
HETATM   20  C   UNL     1      -1.988   6.981 -30.349  1.00  0.00    -0.050 A 
HETATM   21  C   UNL     1      -0.746   5.118 -31.270  1.00  0.00     0.010 A 
HETATM   22  C   UNL     1      -0.821   7.673 -30.065  1.00  0.00     0.007 A 
HETATM   23  C   UNL     1      -3.397   7.446 -30.154  1.00  0.00     0.041 C 
HETATM   24  C   UNL     1       0.399   7.069 -30.376  1.00  0.00     0.001 A 
HETATM   25  C   UNL     1       0.437   5.803 -30.977  1.00  0.00     0.001 A 
HETATM   26  C   UNL     1      -4.168   6.125 -30.250  1.00  0.00     0.034 C 
ENDBRANCH  15  18
ENDBRANCH   1  14
TORSDOF 3
ENDMDL
MODEL 7
REMARK VINA RESULT:      -8.8      3.644      6.804
REMARK  3 active torsions:
REMARK  status: ('A' for Active; 'I' for Inactive)
REMARK    1  A    between atoms: N_4  and  C_5 
REMARK    2  A    between atoms: C_5  and  C_6 
REMARK       I    between atoms: C_6  and  N_7 
REMARK    3  A    between atoms: N_7  and  C_8 
ROOT
HETATM    1  C   UNL     1      -7.722   1.296 -31.657  1.00  0.00     0.257 C 
ENDROOT
BRANCH   1   2
HETATM    2  N   UNL     1      -8.683   1.829 -32.617  1.00  0.00    -0.225 N 
HETATM    3  N   UNL     1      -8.476   3.125 -33.024  1.00  0.00    -0.173 NA
HETATM    4  C   UNL     1      -9.347   3.695 -33.799  1.00  0.00     0.062 A 
HETATM    5  C   UNL     1      -9.085   5.125 -34.208  1.00  0.00     0.073 C 
HETATM    6  C   UNL     1     -10.567   3.018 -34.282  1.00  0.00     0.006 A 
HETATM    7  C   UNL     1     -10.795   1.723 -33.831  1.00  0.00     0.046 A 
HETATM    8  C   UNL     1     -11.482   3.625 -35.152  1.00  0.00     0.014 A 
HETATM    9  C   UNL     1      -9.828   1.095 -32.914  1.00  0.00     0.275 A 
HETATM   10  C   UNL     1     -11.934   1.022 -34.245  1.00  0.00     0.018 A 
HETATM   11  O   UNL     1     -10.053  -0.028 -32.465  1.00  0.00    -0.266 OA
HETATM   12  C   UNL     1     -12.845   1.626 -35.113  1.00  0.00     0.001 A 
HETATM   13  C   UNL     1     -12.620   2.925 -35.564  1.00  0.00     0.001 A 
ENDBRANCH   1   2
BRANCH   1  14
HETATM   14  C   UNL     1      -6.417   0.868 -32.331  1.00  0.00     0.238 C 
HETATM   15  N   UNL     1      -6.317  -0.493 -32.540  1.00  0.00    -0.351 N 
HETATM   16  H   UNL     1      -7.185  -1.026 -32.513  1.00  0.00     0.163 HD
HETATM   17  O   UNL     1      -5.537   1.662 -32.656  1.00  0.00    -0.272 OA
BRANCH  15  18
HETATM   18  C   UNL     1      -5.174  -1.080 -33.195  1.00  0.00     0.118 C 
HETATM   19  C   UNL     1      -5.490  -2.391 -33.863  1.00  0.00    -0.029 A 
HETATM   20  C   UNL     1      -4.478  -3.328 -33.622  1.00  0.00    -0.050 A 
HETATM   21  C   UNL     1      -6.572  -2.712 -34.671  1.00  0.00     0.010 A 
HETATM   22  C   UNL     1      -4.533  -4.602 -34.166  1.00  0.00     0.007 A 
HETATM   23  C   UNL     1      -3.385  -2.734 -32.792  1.00  0.00     0.041 C 
HETATM   24  C   UNL     1      -5.631  -4.936 -34.960  1.00  0.00     0.001 A 
HETATM   25  C   UNL     1      -6.642  -3.998 -35.214  1.00  0.00     0.001 A 
HETATM   26  C   UNL     1      -4.092  -1.519 -32.183  1.00  0.00     0.034 C 
ENDBRANCH  15  18
ENDBRANCH   1  14
TORSDOF 3
ENDMDL
MODEL 8
REMARK VINA RESULT:      -8.5      2.333      3.223
REMARK  3 active torsions:
REMARK  status: ('A' for Active; 'I' for Inactive)
REMARK    1  A    between atoms: N_4  and  C_5 
REMARK    2  A    between atoms: C_5  and  C_6 
REMARK       I    between atoms: C_6  and  N_7 
REMARK    3  A    between atoms: N_7  and  C_8 
ROOT
HETATM    1  C   UNL     1      -7.786   3.055 -32.609  1.00  0.00     0.257 C 
ENDROOT
BRANCH   1   2
HETATM    2  N   UNL     1      -6.968   1.866 -32.826  1.00  0.00    -0.225 N 
HETATM    3  N   UNL     1      -5.665   1.941 -32.394  1.00  0.00    -0.173 NA
HETATM    4  C   UNL     1      -4.855   0.958 -32.643  1.00  0.00     0.062 A 
HETATM    5  C   UNL     1      -3.429   1.092 -32.164  1.00  0.00     0.073 C 
HETATM    6  C   UNL     1      -5.260  -0.261 -33.372  1.00  0.00     0.006 A 
HETATM    7  C   UNL     1      -6.566  -0.312 -33.845  1.00  0.00     0.046 A 
HETATM    8  C   UNL     1      -4.392  -1.336 -33.602  1.00  0.00     0.014 A 
HETATM    9  C   UNL     1      -7.470   0.825 -33.601  1.00  0.00     0.275 A 
HETATM   10  C   UNL     1      -7.017  -1.436 -34.548  1.00  0.00     0.018 A 
HETATM   11  O   UNL     1      -8.609   0.810 -34.068  1.00  0.00    -0.266 OA
HETATM   12  C   UNL     1      -6.154  -2.507 -34.776  1.00  0.00     0.001 A 
HETATM   13  C   UNL     1      -4.843  -2.456 -34.304  1.00  0.00     0.001 A 
ENDBRANCH   1   2
BRANCH   1  14
HETATM   14  C   UNL     1      -7.111   4.319 -33.143  1.00  0.00     0.238 C 
HETATM   15  N   UNL     1      -6.182   4.864 -32.280  1.00  0.00    -0.351 N 
HETATM   16  H   UNL     1      -5.825   4.253 -31.547  1.00  0.00     0.163 HD
HETATM   17  O   UNL     1      -7.372   4.807 -34.240  1.00  0.00    -0.272 OA
BRANCH  15  18
HETATM   18  C   UNL     1      -5.418   6.038 -32.626  1.00  0.00     0.118 C 
HETATM   19  C   UNL     1      -3.976   5.731 -32.929  1.00  0.00    -0.029 A 
HETATM   20  C   UNL     1      -3.132   6.677 -32.334  1.00  0.00    -0.050 A 
HETATM   21  C   UNL     1      -3.454   4.717 -33.720  1.00  0.00     0.010 A 
HETATM   22  C   UNL     1      -1.757   6.620 -32.502  1.00  0.00     0.007 A 
HETATM   23  C   UNL     1      -3.922   7.712 -31.598  1.00  0.00     0.041 C 
HETATM   24  C   UNL     1      -1.227   5.588 -33.278  1.00  0.00     0.001 A 
HETATM   25  C   UNL     1      -2.069   4.645 -33.885  1.00  0.00     0.001 A 
HETATM   26  C   UNL     1      -5.269   7.002 -31.428  1.00  0.00     0.034 C 
ENDBRANCH  15  18
ENDBRANCH   1  14
TORSDOF 3
ENDMDL
MODEL 9
REMARK VINA RESULT:      -8.5      3.012      5.960
REMARK  3 active torsions:
REMARK  status: ('A' for Active; 'I' for Inactive)
REMARK    1  A    between atoms: N_4  and  C_5 
REMARK    2  A    between atoms: C_5  and  C_6 
REMARK       I    between atoms: C_6  and  N_7 
REMARK    3  A    between atoms: N_7  and  C_8 
ROOT
HETATM    1  C   UNL     1      -7.444   3.664 -31.886  1.00  0.00     0.257 C 
ENDROOT
BRANCH   1   2
HETATM    2  N   UNL     1      -8.656   3.180 -32.539  1.00  0.00    -0.225 N 
HETATM    3  N   UNL     1      -8.937   1.844 -32.379  1.00  0.00    -0.173 NA
HETATM    4  C   UNL     1      -9.943   1.325 -33.013  1.00  0.00     0.062 A 
HETATM    5  C   UNL     1     -10.203  -0.150 -32.819  1.00  0.00     0.073 C 
HETATM    6  C   UNL     1     -10.825   2.101 -33.907  1.00  0.00     0.006 A 
HETATM    7  C   UNL     1     -10.510   3.441 -34.101  1.00  0.00     0.046 A 
HETATM    8  C   UNL     1     -11.934   1.545 -34.556  1.00  0.00     0.014 A 
HETATM    9  C   UNL     1      -9.339   4.016 -33.416  1.00  0.00     0.275 A 
HETATM   10  C   UNL     1     -11.300   4.237 -34.939  1.00  0.00     0.018 A 
HETATM   11  O   UNL     1      -9.021   5.186 -33.629  1.00  0.00    -0.266 OA
HETATM   12  C   UNL     1     -12.406   3.684 -35.584  1.00  0.00     0.001 A 
HETATM   13  C   UNL     1     -12.721   2.339 -35.394  1.00  0.00     0.001 A 
ENDBRANCH   1   2
BRANCH   1  14
HETATM   14  C   UNL     1      -6.179   3.117 -32.549  1.00  0.00     0.238 C 
HETATM   15  N   UNL     1      -5.827   1.852 -32.123  1.00  0.00    -0.351 N 
HETATM   16  H   UNL     1      -6.554   1.303 -31.667  1.00  0.00     0.163 HD
HETATM   17  O   UNL     1      -5.533   3.746 -33.384  1.00  0.00    -0.272 OA
BRANCH  15  18
HETATM   18  C   UNL     1      -4.683   1.159 -32.662  1.00  0.00     0.118 C 
HETATM   19  C   UNL     1      -5.046  -0.140 -33.331  1.00  0.00    -0.029 A 
HETATM   20  C   UNL     1      -4.139  -1.148 -32.983  1.00  0.00    -0.050 A 
HETATM   21  C   UNL     1      -6.075  -0.394 -34.227  1.00  0.00     0.010 A 
HETATM   22  C   UNL     1      -4.250  -2.427 -33.505  1.00  0.00     0.007 A 
HETATM   23  C   UNL     1      -3.077  -0.622 -32.069  1.00  0.00     0.041 C 
HETATM   24  C   UNL     1      -5.298  -2.693 -34.388  1.00  0.00     0.001 A 
HETATM   25  C   UNL     1      -6.202  -1.684 -34.749  1.00  0.00     0.001 A 
HETATM   26  C   UNL     1      -3.733   0.662 -31.549  1.00  0.00     0.034 C 
ENDBRANCH  15  18
ENDBRANCH   1  14
TORSDOF 3
ENDMDL
MODEL 10
REMARK VINA RESULT:      -8.5      2.323      7.060
REMARK  3 active torsions:
REMARK  status: ('A' for Active; 'I' for Inactive)
REMARK    1  A    between atoms: N_4  and  C_5 
REMARK    2  A    between atoms: C_5  and  C_6 
REMARK       I    between atoms: C_6  and  N_7 
REMARK    3  A    between atoms: N_7  and  C_8 
ROOT
HETATM    1  C   UNL     1      -6.678   4.775 -33.848  1.00  0.00     0.257 C 
ENDROOT
BRANCH   1   2
HETATM    2  N   UNL     1      -5.417   5.234 -33.274  1.00  0.00    -0.225 N 
HETATM    3  N   UNL     1      -5.449   5.585 -31.946  1.00  0.00    -0.173 NA
HETATM    4  C   UNL     1      -4.389   6.095 -31.397  1.00  0.00     0.062 A 
HETATM    5  C   UNL     1      -4.477   6.480 -29.939  1.00  0.00     0.073 C 
HETATM    6  C   UNL     1      -3.126   6.319 -32.127  1.00  0.00     0.006 A 
HETATM    7  C   UNL     1      -3.112   6.004 -33.481  1.00  0.00     0.046 A 
HETATM    8  C   UNL     1      -1.973   6.831 -31.519  1.00  0.00     0.014 A 
HETATM    9  C   UNL     1      -4.331   5.469 -34.113  1.00  0.00     0.275 A 
HETATM   10  C   UNL     1      -1.949   6.194 -34.237  1.00  0.00     0.018 A 
HETATM   11  O   UNL     1      -4.343   5.243 -35.322  1.00  0.00    -0.266 OA
HETATM   12  C   UNL     1      -0.801   6.702 -33.631  1.00  0.00     0.001 A 
HETATM   13  C   UNL     1      -0.813   7.021 -32.274  1.00  0.00     0.001 A 
ENDBRANCH   1   2
BRANCH   1  14
HETATM   14  C   UNL     1      -7.054   3.376 -33.359  1.00  0.00     0.238 C 
HETATM   15  N   UNL     1      -6.606   2.359 -34.176  1.00  0.00    -0.351 N 
HETATM   16  H   UNL     1      -5.853   2.589 -34.824  1.00  0.00     0.163 HD
HETATM   17  O   UNL     1      -7.697   3.175 -32.331  1.00  0.00    -0.272 OA
BRANCH  15  18
HETATM   18  C   UNL     1      -6.834   0.970 -33.859  1.00  0.00     0.118 C 
HETATM   19  C   UNL     1      -5.607   0.281 -33.325  1.00  0.00    -0.029 A 
HETATM   20  C   UNL     1      -5.463  -0.989 -33.896  1.00  0.00    -0.050 A 
HETATM   21  C   UNL     1      -4.714   0.728 -32.361  1.00  0.00     0.010 A 
HETATM   22  C   UNL     1      -4.421  -1.827 -33.532  1.00  0.00     0.007 A 
HETATM   23  C   UNL     1      -6.581  -1.280 -34.846  1.00  0.00     0.041 C 
HETATM   24  C   UNL     1      -3.506  -1.372 -32.579  1.00  0.00     0.001 A 
HETATM   25  C   UNL     1      -3.653  -0.105 -31.997  1.00  0.00     0.001 A 
HETATM   26  C   UNL     1      -7.117   0.129 -35.123  1.00  0.00     0.034 C 
ENDBRANCH  15  18
ENDBRANCH   1  14
TORSDOF 3
ENDMDL
