MODEL 1
REMARK VINA RESULT:      -9.6      0.000      0.000
REMARK  9 active torsions:
REMARK  status: ('A' for Active; 'I' for Inactive)
REMARK    1  A    between atoms: C_4  and  C_5 
REMARK    2  A    between atoms: C_5  and  N_6 
REMARK    3  A    between atoms: C_12  and  N_13 
REMARK       I    between atoms: N_13  and  C_14 
REMARK    4  A    between atoms: N_13  and  C_27 
REMARK    5  A    between atoms: C_14  and  C_15 
REMARK    6  A    between atoms: C_15  and  C_16 
REMARK    7  A    between atoms: C_27  and  C_28 
REMARK    8  A    between atoms: C_28  and  C_29 
REMARK    9  A    between atoms: C_35  and  N_36 
ROOT
HETATM    1  N   UNL     1      -5.214   4.456 -32.788  1.00  0.00    -0.310 N 
HETATM    2  C   UNL     1      -6.179   5.198 -32.078  1.00  0.00     0.228 C 
HETATM    3  O   UNL     1      -6.142   6.435 -31.996  1.00  0.00    -0.273 OA
ENDROOT
BRANCH   1   4
HETATM    4  C   UNL     1      -3.927   5.045 -33.022  1.00  0.00     0.144 C 
HETATM    5  C   UNL     1      -3.676   5.641 -34.386  1.00  0.00     0.279 C 
HETATM    6  N   UNL     1      -2.680   6.555 -34.465  1.00  0.00    -0.273 N 
HETATM    7  O   UNL     1      -4.317   5.326 -35.386  1.00  0.00    -0.265 OA
HETATM    8  C   UNL     1      -1.522   6.322 -33.800  1.00  0.00     0.331 C 
HETATM    9  H   UNL     1      -2.525   6.923 -35.392  1.00  0.00     0.173 HD
HETATM   10  N   UNL     1      -1.637   5.599 -32.622  1.00  0.00    -0.284 N 
HETATM   11  O   UNL     1      -0.466   6.714 -34.290  1.00  0.00    -0.246 OA
HETATM   12  C   UNL     1      -2.863   5.091 -32.166  1.00  0.00     0.117 C 
BRANCH  10  13
HETATM   13  C   UNL     1      -0.375   5.246 -31.964  1.00  0.00     0.173 C 
BRANCH  13  14
HETATM   14  C   UNL     1      -0.064   5.934 -30.653  1.00  0.00    -0.040 A 
HETATM   15  C   UNL     1      -0.219   7.309 -30.441  1.00  0.00     0.009 A 
HETATM   16  C   UNL     1       0.110   7.879 -29.207  1.00  0.00     0.001 A 
HETATM   17  C   UNL     1       0.598   7.084 -28.172  1.00  0.00     0.000 A 
HETATM   18  C   UNL     1       0.762   5.715 -28.367  1.00  0.00     0.001 A 
HETATM   19  C   UNL     1       0.433   5.145 -29.598  1.00  0.00     0.009 A 
ENDBRANCH  13  14
ENDBRANCH  10  13
BRANCH  12  20
HETATM   20  N   UNL     1      -2.982   4.677 -30.845  1.00  0.00    -0.286 NA
HETATM   21  H   UNL     1      -2.546   3.755 -30.719  1.00  0.00     0.125 HD
HETATM   22  H   UNL     1      -2.607   5.323 -30.163  1.00  0.00     0.125 HD
ENDBRANCH  12  20
ENDBRANCH   1   4
BRANCH   1  23
HETATM   23  C   UNL     1      -5.269   2.976 -32.963  1.00  0.00     0.137 C 
BRANCH  23  24
HETATM   24  C   UNL     1      -5.950   2.321 -34.189  1.00  0.00     0.054 C 
BRANCH  24  25
HETATM   25  C   UNL     1      -6.325   0.860 -34.251  1.00  0.00    -0.082 C 
HETATM   26  C   UNL     1      -5.583   0.007 -33.236  1.00  0.00     0.034 C 
HETATM   27  C   UNL     1      -6.126  -1.413 -33.087  1.00  0.00     0.005 C 
HETATM   28  C   UNL     1      -6.447  -2.017 -34.446  1.00  0.00     0.004 C 
HETATM   29  C   UNL     1      -7.478  -1.165 -35.188  1.00  0.00     0.027 C 
HETATM   30  C   UNL     1      -7.193   0.311 -35.118  1.00  0.00    -0.024 C 
ENDBRANCH  24  25
ENDBRANCH  23  24
ENDBRANCH   1  23
BRANCH   2  31
HETATM   31  C   UNL     1      -7.295   4.465 -31.345  1.00  0.00     0.144 C 
BRANCH  31  32
HETATM   32  C   UNL     1      -8.384   4.003 -32.265  1.00  0.00    -0.021 A 
HETATM   33  C   UNL     1      -8.908   2.672 -32.347  1.00  0.00    -0.001 A 
HETATM   34  C   UNL     1      -9.828   2.649 -33.395  1.00  0.00     0.042 A 
HETATM   35  C   UNL     1      -8.668   1.477 -31.637  1.00  0.00     0.014 A 
HETATM   36  C   UNL     1     -10.509   1.486 -33.777  1.00  0.00     0.030 A 
HETATM   37  N   UNL     1      -9.889   3.923 -33.907  1.00  0.00    -0.365 N 
HETATM   38  C   UNL     1     -10.247   0.315 -33.060  1.00  0.00     0.002 A 
HETATM   39  C   UNL     1      -9.344   0.308 -32.001  1.00  0.00     0.001 A 
HETATM   40  H   UNL     1     -10.482   4.201 -34.677  1.00  0.00     0.165 HD
HETATM   41  C   UNL     1      -9.019   4.745 -33.242  1.00  0.00     0.097 A 
ENDBRANCH  31  32
ENDBRANCH   2  31
TORSDOF 9
ENDMDL
MODEL 2
REMARK VINA RESULT:      -9.2      2.815      4.507
REMARK  9 active torsions:
REMARK  status: ('A' for Active; 'I' for Inactive)
REMARK    1  A    between atoms: C_4  and  C_5 
REMARK    2  A    between atoms: C_5  and  N_6 
REMARK    3  A    between atoms: C_12  and  N_13 
REMARK       I    between atoms: N_13  and  C_14 
REMARK    4  A    between atoms: N_13  and  C_27 
REMARK    5  A    between atoms: C_14  and  C_15 
REMARK    6  A    between atoms: C_15  and  C_16 
REMARK    7  A    between atoms: C_27  and  C_28 
REMARK    8  A    between atoms: C_28  and  C_29 
REMARK    9  A    between atoms: C_35  and  N_36 
ROOT
HETATM    1  N   UNL     1      -7.093   1.140 -33.601  1.00  0.00    -0.310 N 
HETATM    2  C   UNL     1      -8.302   1.308 -32.897  1.00  0.00     0.228 C 
HETATM    3  O   UNL     1      -8.434   2.140 -31.987  1.00  0.00    -0.273 OA
ENDROOT
BRANCH   1   4
HETATM    4  C   UNL     1      -5.871   1.569 -32.984  1.00  0.00     0.144 C 
HETATM    5  C   UNL     1      -5.131   0.561 -32.138  1.00  0.00     0.279 C 
HETATM    6  N   UNL     1      -3.815   0.803 -31.934  1.00  0.00    -0.273 N 
HETATM    7  O   UNL     1      -5.669  -0.428 -31.645  1.00  0.00    -0.265 OA
HETATM    8  C   UNL     1      -3.416   2.069 -31.665  1.00  0.00     0.331 C 
HETATM    9  H   UNL     1      -3.351   0.120 -31.352  1.00  0.00     0.173 HD
HETATM   10  N   UNL     1      -4.170   3.078 -32.246  1.00  0.00    -0.284 N 
HETATM   11  O   UNL     1      -2.465   2.245 -30.906  1.00  0.00    -0.246 OA
HETATM   12  C   UNL     1      -5.309   2.813 -33.023  1.00  0.00     0.117 C 
BRANCH  10  13
HETATM   13  C   UNL     1      -3.812   4.446 -31.861  1.00  0.00     0.173 C 
BRANCH  13  14
HETATM   14  C   UNL     1      -2.788   5.158 -32.718  1.00  0.00    -0.040 A 
HETATM   15  C   UNL     1      -2.345   4.681 -33.958  1.00  0.00     0.009 A 
HETATM   16  C   UNL     1      -1.378   5.383 -34.684  1.00  0.00     0.001 A 
HETATM   17  C   UNL     1      -0.842   6.567 -34.183  1.00  0.00     0.000 A 
HETATM   18  C   UNL     1      -1.269   7.053 -32.951  1.00  0.00     0.001 A 
HETATM   19  C   UNL     1      -2.234   6.354 -32.225  1.00  0.00     0.009 A 
ENDBRANCH  13  14
ENDBRANCH  10  13
BRANCH  12  20
HETATM   20  N   UNL     1      -5.821   3.811 -33.845  1.00  0.00    -0.286 NA
HETATM   21  H   UNL     1      -6.663   3.476 -34.330  1.00  0.00     0.125 HD
HETATM   22  H   UNL     1      -6.027   4.683 -33.375  1.00  0.00     0.125 HD
ENDBRANCH  12  20
ENDBRANCH   1   4
BRANCH   1  23
HETATM   23  C   UNL     1      -6.923   0.199 -34.745  1.00  0.00     0.137 C 
BRANCH  23  24
HETATM   24  C   UNL     1      -7.313  -1.296 -34.640  1.00  0.00     0.054 C 
BRANCH  24  25
HETATM   25  C   UNL     1      -6.307  -2.421 -34.641  1.00  0.00    -0.082 C 
HETATM   26  C   UNL     1      -6.932  -3.785 -34.881  1.00  0.00     0.034 C 
HETATM   27  C   UNL     1      -5.926  -4.902 -35.155  1.00  0.00     0.005 C 
HETATM   28  C   UNL     1      -4.737  -4.804 -34.210  1.00  0.00     0.004 C 
HETATM   29  C   UNL     1      -4.035  -3.455 -34.360  1.00  0.00     0.027 C 
HETATM   30  C   UNL     1      -4.987  -2.291 -34.422  1.00  0.00    -0.024 C 
ENDBRANCH  24  25
ENDBRANCH  23  24
ENDBRANCH   1  23
BRANCH   2  31
HETATM   31  C   UNL     1      -9.490   0.414 -33.228  1.00  0.00     0.144 C 
BRANCH  31  32
HETATM   32  C   UNL     1     -10.657   1.182 -33.769  1.00  0.00    -0.021 A 
HETATM   33  C   UNL     1     -12.019   0.735 -33.797  1.00  0.00    -0.001 A 
HETATM   34  C   UNL     1     -12.762   1.702 -34.473  1.00  0.00     0.042 A 
HETATM   35  C   UNL     1     -12.684  -0.416 -33.328  1.00  0.00     0.014 A 
HETATM   36  C   UNL     1     -14.135   1.568 -34.715  1.00  0.00     0.030 A 
HETATM   37  N   UNL     1     -11.895   2.715 -34.810  1.00  0.00    -0.365 N 
HETATM   38  C   UNL     1     -14.767   0.414 -34.243  1.00  0.00     0.002 A 
HETATM   39  C   UNL     1     -14.056  -0.564 -33.554  1.00  0.00     0.001 A 
HETATM   40  H   UNL     1     -12.163   3.554 -35.307  1.00  0.00     0.165 HD
HETATM   41  C   UNL     1     -10.625   2.410 -34.400  1.00  0.00     0.097 A 
ENDBRANCH  31  32
ENDBRANCH   2  31
TORSDOF 9
ENDMDL
MODEL 3
REMARK VINA RESULT:      -8.9      1.960      4.010
REMARK  9 active torsions:
REMARK  status: ('A' for Active; 'I' for Inactive)
REMARK    1  A    between atoms: C_4  and  C_5 
REMARK    2  A    between atoms: C_5  and  N_6 
REMARK    3  A    between atoms: C_12  and  N_13 
REMARK       I    between atoms: N_13  and  C_14 
REMARK    4  A    between atoms: N_13  and  C_27 
REMARK    5  A    between atoms: C_14  and  C_15 
REMARK    6  A    between atoms: C_15  and  C_16 
REMARK    7  A    between atoms: C_27  and  C_28 
REMARK    8  A    between atoms: C_28  and  C_29 
REMARK    9  A    between atoms: C_35  and  N_36 
ROOT
HETATM    1  N   UNL     1      -4.807   3.662 -31.317  1.00  0.00    -0.310 N 
HETATM    2  C   UNL     1      -4.190   2.403 -31.172  1.00  0.00     0.228 C 
HETATM    3  O   UNL     1      -2.959   2.261 -31.163  1.00  0.00    -0.273 OA
ENDROOT
BRANCH   1   4
HETATM    4  C   UNL     1      -4.065   4.726 -31.929  1.00  0.00     0.144 C 
HETATM    5  C   UNL     1      -3.930   4.700 -33.433  1.00  0.00     0.279 C 
HETATM    6  N   UNL     1      -3.635   5.880 -34.027  1.00  0.00    -0.273 N 
HETATM    7  O   UNL     1      -4.066   3.679 -34.103  1.00  0.00    -0.265 OA
HETATM    8  C   UNL     1      -2.709   6.688 -33.456  1.00  0.00     0.331 C 
HETATM    9  H   UNL     1      -3.536   5.829 -35.030  1.00  0.00     0.173 HD
HETATM   10  N   UNL     1      -2.624   6.628 -32.073  1.00  0.00    -0.284 N 
HETATM   11  O   UNL     1      -1.988   7.371 -34.180  1.00  0.00    -0.246 OA
HETATM   12  C   UNL     1      -3.409   5.750 -31.308  1.00  0.00     0.117 C 
BRANCH  10  13
HETATM   13  C   UNL     1      -1.546   7.412 -31.464  1.00  0.00     0.173 C 
BRANCH  13  14
HETATM   14  C   UNL     1      -0.595   6.681 -30.541  1.00  0.00    -0.040 A 
HETATM   15  C   UNL     1       0.044   5.481 -30.877  1.00  0.00     0.009 A 
HETATM   16  C   UNL     1       0.894   4.850 -29.963  1.00  0.00     0.001 A 
HETATM   17  C   UNL     1       1.113   5.406 -28.706  1.00  0.00     0.000 A 
HETATM   18  C   UNL     1       0.482   6.596 -28.354  1.00  0.00     0.001 A 
HETATM   19  C   UNL     1      -0.365   7.228 -29.266  1.00  0.00     0.009 A 
ENDBRANCH  13  14
ENDBRANCH  10  13
BRANCH  12  20
HETATM   20  N   UNL     1      -3.532   5.961 -29.940  1.00  0.00    -0.286 NA
HETATM   21  H   UNL     1      -2.636   6.275 -29.545  1.00  0.00     0.125 HD
HETATM   22  H   UNL     1      -4.263   6.607 -29.674  1.00  0.00     0.125 HD
ENDBRANCH  12  20
ENDBRANCH   1   4
BRANCH   1  23
HETATM   23  C   UNL     1      -6.282   3.874 -31.263  1.00  0.00     0.137 C 
BRANCH  23  24
HETATM   24  C   UNL     1      -7.188   3.650 -32.498  1.00  0.00     0.054 C 
BRANCH  24  25
HETATM   25  C   UNL     1      -8.083   2.447 -32.666  1.00  0.00    -0.082 C 
HETATM   26  C   UNL     1      -8.646   2.309 -34.071  1.00  0.00     0.034 C 
HETATM   27  C   UNL     1      -9.330   0.972 -34.349  1.00  0.00     0.005 C 
HETATM   28  C   UNL     1     -10.201   0.553 -33.174  1.00  0.00     0.004 C 
HETATM   29  C   UNL     1      -9.367   0.429 -31.898  1.00  0.00     0.027 C 
HETATM   30  C   UNL     1      -8.410   1.573 -31.699  1.00  0.00    -0.024 C 
ENDBRANCH  24  25
ENDBRANCH  23  24
ENDBRANCH   1  23
BRANCH   2  31
HETATM   31  C   UNL     1      -5.057   1.155 -31.059  1.00  0.00     0.144 C 
BRANCH  31  32
HETATM   32  C   UNL     1      -4.449  -0.033 -31.742  1.00  0.00    -0.021 A 
HETATM   33  C   UNL     1      -5.022  -0.757 -32.838  1.00  0.00    -0.001 A 
HETATM   34  C   UNL     1      -4.189  -1.844 -33.100  1.00  0.00     0.042 A 
HETATM   35  C   UNL     1      -6.185  -0.598 -33.619  1.00  0.00     0.014 A 
HETATM   36  C   UNL     1      -4.470  -2.789 -34.095  1.00  0.00     0.030 A 
HETATM   37  N   UNL     1      -3.133  -1.765 -32.224  1.00  0.00    -0.365 N 
HETATM   38  C   UNL     1      -5.633  -2.611 -34.850  1.00  0.00     0.002 A 
HETATM   39  C   UNL     1      -6.479  -1.529 -34.621  1.00  0.00     0.001 A 
HETATM   40  H   UNL     1      -2.368  -2.425 -32.190  1.00  0.00     0.165 HD
HETATM   41  C   UNL     1      -3.282  -0.685 -31.396  1.00  0.00     0.097 A 
ENDBRANCH  31  32
ENDBRANCH   2  31
TORSDOF 9
ENDMDL
MODEL 4
REMARK VINA RESULT:      -8.9      5.807      8.335
REMARK  9 active torsions:
REMARK  status: ('A' for Active; 'I' for Inactive)
REMARK    1  A    between atoms: C_4  and  C_5 
REMARK    2  A    between atoms: C_5  and  N_6 
REMARK    3  A    between atoms: C_12  and  N_13 
REMARK       I    between atoms: N_13  and  C_14 
REMARK    4  A    between atoms: N_13  and  C_27 
REMARK    5  A    between atoms: C_14  and  C_15 
REMARK    6  A    between atoms: C_15  and  C_16 
REMARK    7  A    between atoms: C_27  and  C_28 
REMARK    8  A    between atoms: C_28  and  C_29 
REMARK    9  A    between atoms: C_35  and  N_36 
ROOT
HETATM    1  N   UNL     1      -9.632   1.776 -33.592  1.00  0.00    -0.310 N 
HETATM    2  C   UNL     1     -10.858   1.102 -33.767  1.00  0.00     0.228 C 
HETATM    3  O   UNL     1     -11.136   0.058 -33.159  1.00  0.00    -0.273 OA
ENDROOT
BRANCH   1   4
HETATM    4  C   UNL     1      -8.507   1.041 -33.094  1.00  0.00     0.144 C 
HETATM    5  C   UNL     1      -8.151   1.223 -31.638  1.00  0.00     0.279 C 
HETATM    6  N   UNL     1      -7.410   0.239 -31.076  1.00  0.00    -0.273 N 
HETATM    7  O   UNL     1      -8.493   2.202 -30.978  1.00  0.00    -0.265 OA
HETATM    8  C   UNL     1      -6.380  -0.289 -31.779  1.00  0.00     0.331 C 
HETATM    9  H   UNL     1      -7.175   0.396 -30.106  1.00  0.00     0.173 HD
HETATM   10  N   UNL     1      -6.538  -0.313 -33.157  1.00  0.00    -0.284 N 
HETATM   11  O   UNL     1      -5.376  -0.661 -31.176  1.00  0.00    -0.246 OA
HETATM   12  C   UNL     1      -7.669   0.221 -33.794  1.00  0.00     0.117 C 
BRANCH  10  13
HETATM   13  C   UNL     1      -5.378  -0.775 -33.925  1.00  0.00     0.173 C 
BRANCH  13  14
HETATM   14  C   UNL     1      -5.234  -2.268 -34.128  1.00  0.00    -0.040 A 
HETATM   15  C   UNL     1      -6.209  -3.067 -34.736  1.00  0.00     0.009 A 
HETATM   16  C   UNL     1      -6.016  -4.446 -34.869  1.00  0.00     0.001 A 
HETATM   17  C   UNL     1      -4.849  -5.042 -34.395  1.00  0.00     0.000 A 
HETATM   18  C   UNL     1      -3.871  -4.262 -33.784  1.00  0.00     0.001 A 
HETATM   19  C   UNL     1      -4.063  -2.886 -33.652  1.00  0.00     0.009 A 
ENDBRANCH  13  14
ENDBRANCH  10  13
BRANCH  12  20
HETATM   20  N   UNL     1      -7.934  -0.123 -35.115  1.00  0.00    -0.286 NA
HETATM   21  H   UNL     1      -7.558  -1.056 -35.323  1.00  0.00     0.125 HD
HETATM   22  H   UNL     1      -8.911  -0.087 -35.374  1.00  0.00     0.125 HD
ENDBRANCH  12  20
ENDBRANCH   1   4
BRANCH   1  23
HETATM   23  C   UNL     1      -9.296   3.069 -34.255  1.00  0.00     0.137 C 
BRANCH  23  24
HETATM   24  C   UNL     1      -9.491   4.430 -33.544  1.00  0.00     0.054 C 
BRANCH  24  25
HETATM   25  C   UNL     1     -10.601   5.394 -33.882  1.00  0.00    -0.082 C 
HETATM   26  C   UNL     1     -11.196   5.165 -35.262  1.00  0.00     0.034 C 
HETATM   27  C   UNL     1     -12.486   5.937 -35.531  1.00  0.00     0.005 C 
HETATM   28  C   UNL     1     -12.383   7.364 -35.013  1.00  0.00     0.004 C 
HETATM   29  C   UNL     1     -12.099   7.377 -33.511  1.00  0.00     0.027 C 
HETATM   30  C   UNL     1     -11.037   6.394 -33.097  1.00  0.00    -0.024 C 
ENDBRANCH  24  25
ENDBRANCH  23  24
ENDBRANCH   1  23
BRANCH   2  31
HETATM   31  C   UNL     1     -11.874   1.642 -34.765  1.00  0.00     0.144 C 
BRANCH  31  32
HETATM   32  C   UNL     1     -13.279   1.576 -34.251  1.00  0.00    -0.021 A 
HETATM   33  C   UNL     1     -13.883   2.495 -33.331  1.00  0.00    -0.001 A 
HETATM   34  C   UNL     1     -15.159   2.015 -33.039  1.00  0.00     0.042 A 
HETATM   35  C   UNL     1     -13.451   3.682 -32.704  1.00  0.00     0.014 A 
HETATM   36  C   UNL     1     -16.020   2.655 -32.138  1.00  0.00     0.030 A 
HETATM   37  N   UNL     1     -15.339   0.871 -33.779  1.00  0.00    -0.365 N 
HETATM   38  C   UNL     1     -15.564   3.827 -31.526  1.00  0.00     0.002 A 
HETATM   39  C   UNL     1     -14.300   4.339 -31.806  1.00  0.00     0.001 A 
HETATM   40  H   UNL     1     -16.181   0.311 -33.768  1.00  0.00     0.165 HD
HETATM   41  C   UNL     1     -14.213   0.592 -34.506  1.00  0.00     0.097 A 
ENDBRANCH  31  32
ENDBRANCH   2  31
TORSDOF 9
ENDMDL
MODEL 5
REMARK VINA RESULT:      -8.9      2.230      8.454
REMARK  9 active torsions:
REMARK  status: ('A' for Active; 'I' for Inactive)
REMARK    1  A    between atoms: C_4  and  C_5 
REMARK    2  A    between atoms: C_5  and  N_6 
REMARK    3  A    between atoms: C_12  and  N_13 
REMARK       I    between atoms: N_13  and  C_14 
REMARK    4  A    between atoms: N_13  and  C_27 
REMARK    5  A    between atoms: C_14  and  C_15 
REMARK    6  A    between atoms: C_15  and  C_16 
REMARK    7  A    between atoms: C_27  and  C_28 
REMARK    8  A    between atoms: C_28  and  C_29 
REMARK    9  A    between atoms: C_35  and  N_36 
ROOT
HETATM    1  N   UNL     1      -5.421   2.268 -32.239  1.00  0.00    -0.310 N 
HETATM    2  C   UNL     1      -4.321   3.108 -31.968  1.00  0.00     0.228 C 
HETATM    3  O   UNL     1      -4.338   3.954 -31.062  1.00  0.00    -0.273 OA
ENDROOT
BRANCH   1   4
HETATM    4  C   UNL     1      -6.726   2.682 -31.814  1.00  0.00     0.144 C 
HETATM    5  C   UNL     1      -7.164   2.276 -30.427  1.00  0.00     0.279 C 
HETATM    6  N   UNL     1      -8.158   3.010 -29.875  1.00  0.00    -0.273 N 
HETATM    7  O   UNL     1      -6.669   1.333 -29.814  1.00  0.00    -0.265 OA
HETATM    8  C   UNL     1      -9.213   3.370 -30.647  1.00  0.00     0.331 C 
HETATM    9  H   UNL     1      -8.441   2.705 -28.955  1.00  0.00     0.173 HD
HETATM   10  N   UNL     1      -8.937   3.571 -31.991  1.00  0.00    -0.284 N 
HETATM   11  O   UNL     1     -10.327   3.448 -30.133  1.00  0.00    -0.246 OA
HETATM   12  C   UNL     1      -7.660   3.368 -32.537  1.00  0.00     0.117 C 
BRANCH  10  13
HETATM   13  C   UNL     1     -10.096   3.846 -32.846  1.00  0.00     0.173 C 
BRANCH  13  14
HETATM   14  C   UNL     1     -11.048   2.699 -33.109  1.00  0.00    -0.040 A 
HETATM   15  C   UNL     1     -10.632   1.383 -33.347  1.00  0.00     0.009 A 
HETATM   16  C   UNL     1     -11.569   0.378 -33.605  1.00  0.00     0.001 A 
HETATM   17  C   UNL     1     -12.930   0.675 -33.630  1.00  0.00     0.000 A 
HETATM   18  C   UNL     1     -13.360   1.978 -33.400  1.00  0.00     0.001 A 
HETATM   19  C   UNL     1     -12.426   2.982 -33.141  1.00  0.00     0.009 A 
ENDBRANCH  13  14
ENDBRANCH  10  13
BRANCH  12  20
HETATM   20  N   UNL     1      -7.360   3.896 -33.787  1.00  0.00    -0.286 NA
HETATM   21  H   UNL     1      -7.948   3.461 -34.508  1.00  0.00     0.125 HD
HETATM   22  H   UNL     1      -7.436   4.903 -33.851  1.00  0.00     0.125 HD
ENDBRANCH  12  20
ENDBRANCH   1   4
BRANCH   1  23
HETATM   23  C   UNL     1      -5.408   1.194 -33.274  1.00  0.00     0.137 C 
BRANCH  23  24
HETATM   24  C   UNL     1      -6.251  -0.096 -33.127  1.00  0.00     0.054 C 
BRANCH  24  25
HETATM   25  C   UNL     1      -5.868  -1.416 -33.750  1.00  0.00    -0.082 C 
HETATM   26  C   UNL     1      -7.066  -2.252 -34.169  1.00  0.00     0.034 C 
HETATM   27  C   UNL     1      -6.722  -3.460 -35.038  1.00  0.00     0.005 C 
HETATM   28  C   UNL     1      -5.487  -4.175 -34.508  1.00  0.00     0.004 C 
HETATM   29  C   UNL     1      -4.286  -3.229 -34.472  1.00  0.00     0.027 C 
HETATM   30  C   UNL     1      -4.614  -1.871 -33.912  1.00  0.00    -0.024 C 
ENDBRANCH  24  25
ENDBRANCH  23  24
ENDBRANCH   1  23
BRANCH   2  31
HETATM   31  C   UNL     1      -3.074   3.010 -32.835  1.00  0.00     0.144 C 
BRANCH  31  32
HETATM   32  C   UNL     1      -2.493   4.351 -33.165  1.00  0.00    -0.021 A 
HETATM   33  C   UNL     1      -1.509   5.054 -32.395  1.00  0.00    -0.001 A 
HETATM   34  C   UNL     1      -1.324   6.300 -32.994  1.00  0.00     0.042 A 
HETATM   35  C   UNL     1      -0.774   4.752 -31.231  1.00  0.00     0.014 A 
HETATM   36  C   UNL     1      -0.450   7.265 -32.476  1.00  0.00     0.030 A 
HETATM   37  N   UNL     1      -2.135   6.340 -34.104  1.00  0.00    -0.365 N 
HETATM   38  C   UNL     1       0.261   6.941 -31.317  1.00  0.00     0.002 A 
HETATM   39  C   UNL     1       0.108   5.701 -30.704  1.00  0.00     0.001 A 
HETATM   40  H   UNL     1      -2.201   7.127 -34.734  1.00  0.00     0.165 HD
HETATM   41  C   UNL     1      -2.849   5.177 -34.213  1.00  0.00     0.097 A 
ENDBRANCH  31  32
ENDBRANCH   2  31
TORSDOF 9
ENDMDL
MODEL 6
REMARK VINA RESULT:      -8.8      2.053      4.550
REMARK  9 active torsions:
REMARK  status: ('A' for Active; 'I' for Inactive)
REMARK    1  A    between atoms: C_4  and  C_5 
REMARK    2  A    between atoms: C_5  and  N_6 
REMARK    3  A    between atoms: C_12  and  N_13 
REMARK       I    between atoms: N_13  and  C_14 
REMARK    4  A    between atoms: N_13  and  C_27 
REMARK    5  A    between atoms: C_14  and  C_15 
REMARK    6  A    between atoms: C_15  and  C_16 
REMARK    7  A    between atoms: C_27  and  C_28 
REMARK    8  A    between atoms: C_28  and  C_29 
REMARK    9  A    between atoms: C_35  and  N_36 
ROOT
HETATM    1  N   UNL     1      -6.859   2.839 -32.029  1.00  0.00    -0.310 N 
HETATM    2  C   UNL     1      -6.802   1.888 -30.990  1.00  0.00     0.228 C 
HETATM    3  O   UNL     1      -6.471   2.184 -29.833  1.00  0.00    -0.273 OA
ENDROOT
BRANCH   1   4
HETATM    4  C   UNL     1      -6.090   4.043 -31.903  1.00  0.00     0.144 C 
HETATM    5  C   UNL     1      -6.817   5.283 -31.440  1.00  0.00     0.279 C 
HETATM    6  N   UNL     1      -6.049   6.263 -30.909  1.00  0.00    -0.273 N 
HETATM    7  O   UNL     1      -8.034   5.425 -31.536  1.00  0.00    -0.265 OA
HETATM    8  C   UNL     1      -4.870   6.568 -31.504  1.00  0.00     0.331 C 
HETATM    9  H   UNL     1      -6.560   7.086 -30.623  1.00  0.00     0.173 HD
HETATM   10  N   UNL     1      -4.222   5.516 -32.135  1.00  0.00    -0.284 N 
HETATM   11  O   UNL     1      -4.481   7.733 -31.490  1.00  0.00    -0.246 OA
HETATM   12  C   UNL     1      -4.770   4.226 -32.202  1.00  0.00     0.117 C 
BRANCH  10  13
HETATM   13  C   UNL     1      -3.008   5.868 -32.878  1.00  0.00     0.173 C 
BRANCH  13  14
HETATM   14  C   UNL     1      -1.725   5.995 -32.085  1.00  0.00    -0.040 A 
HETATM   15  C   UNL     1      -0.844   7.076 -32.203  1.00  0.00     0.009 A 
HETATM   16  C   UNL     1       0.336   7.114 -31.453  1.00  0.00     0.001 A 
HETATM   17  C   UNL     1       0.650   6.076 -30.580  1.00  0.00     0.000 A 
HETATM   18  C   UNL     1      -0.214   4.992 -30.454  1.00  0.00     0.001 A 
HETATM   19  C   UNL     1      -1.393   4.952 -31.201  1.00  0.00     0.009 A 
ENDBRANCH  13  14
ENDBRANCH  10  13
BRANCH  12  20
HETATM   20  N   UNL     1      -3.952   3.153 -32.537  1.00  0.00    -0.286 NA
HETATM   21  H   UNL     1      -4.218   2.320 -31.999  1.00  0.00     0.125 HD
HETATM   22  H   UNL     1      -3.933   2.926 -33.523  1.00  0.00     0.125 HD
ENDBRANCH  12  20
ENDBRANCH   1   4
BRANCH   1  23
HETATM   23  C   UNL     1      -7.319   2.529 -33.413  1.00  0.00     0.137 C 
BRANCH  23  24
HETATM   24  C   UNL     1      -8.709   2.971 -33.933  1.00  0.00     0.054 C 
BRANCH  24  25
HETATM   25  C   UNL     1      -9.919   2.070 -33.942  1.00  0.00    -0.082 C 
HETATM   26  C   UNL     1     -11.080   2.632 -34.746  1.00  0.00     0.034 C 
HETATM   27  C   UNL     1     -12.213   1.639 -34.999  1.00  0.00     0.005 C 
HETATM   28  C   UNL     1     -12.520   0.835 -33.745  1.00  0.00     0.004 C 
HETATM   29  C   UNL     1     -11.283   0.069 -33.274  1.00  0.00     0.027 C 
HETATM   30  C   UNL     1     -10.027   0.897 -33.295  1.00  0.00    -0.024 C 
ENDBRANCH  24  25
ENDBRANCH  23  24
ENDBRANCH   1  23
BRANCH   2  31
HETATM   31  C   UNL     1      -7.120   0.430 -31.294  1.00  0.00     0.144 C 
BRANCH  31  32
HETATM   32  C   UNL     1      -5.961  -0.299 -31.904  1.00  0.00    -0.021 A 
HETATM   33  C   UNL     1      -6.021  -1.175 -33.037  1.00  0.00    -0.001 A 
HETATM   34  C   UNL     1      -4.749  -1.720 -33.210  1.00  0.00     0.042 A 
HETATM   35  C   UNL     1      -7.047  -1.571 -33.919  1.00  0.00     0.014 A 
HETATM   36  C   UNL     1      -4.456  -2.653 -34.213  1.00  0.00     0.030 A 
HETATM   37  N   UNL     1      -3.939  -1.170 -32.245  1.00  0.00    -0.365 N 
HETATM   38  C   UNL     1      -5.494  -3.031 -35.070  1.00  0.00     0.002 A 
HETATM   39  C   UNL     1      -6.772  -2.496 -34.931  1.00  0.00     0.001 A 
HETATM   40  H   UNL     1      -2.957  -1.382 -32.135  1.00  0.00     0.165 HD
HETATM   41  C   UNL     1      -4.658  -0.320 -31.448  1.00  0.00     0.097 A 
ENDBRANCH  31  32
ENDBRANCH   2  31
TORSDOF 9
ENDMDL
MODEL 7
REMARK VINA RESULT:      -8.8      2.471      4.965
REMARK  9 active torsions:
REMARK  status: ('A' for Active; 'I' for Inactive)
REMARK    1  A    between atoms: C_4  and  C_5 
REMARK    2  A    between atoms: C_5  and  N_6 
REMARK    3  A    between atoms: C_12  and  N_13 
REMARK       I    between atoms: N_13  and  C_14 
REMARK    4  A    between atoms: N_13  and  C_27 
REMARK    5  A    between atoms: C_14  and  C_15 
REMARK    6  A    between atoms: C_15  and  C_16 
REMARK    7  A    between atoms: C_27  and  C_28 
REMARK    8  A    between atoms: C_28  and  C_29 
REMARK    9  A    between atoms: C_35  and  N_36 
ROOT
HETATM    1  N   UNL     1      -5.514   3.529 -30.969  1.00  0.00    -0.310 N 
HETATM    2  C   UNL     1      -6.678   2.773 -30.718  1.00  0.00     0.228 C 
HETATM    3  O   UNL     1      -7.807   3.282 -30.678  1.00  0.00    -0.273 OA
ENDROOT
BRANCH   1   4
HETATM    4  C   UNL     1      -5.540   4.939 -30.711  1.00  0.00     0.144 C 
HETATM    5  C   UNL     1      -5.785   5.854 -31.887  1.00  0.00     0.279 C 
HETATM    6  N   UNL     1      -6.241   7.095 -31.595  1.00  0.00    -0.273 N 
HETATM    7  O   UNL     1      -5.583   5.520 -33.053  1.00  0.00    -0.265 OA
HETATM    8  C   UNL     1      -5.699   7.762 -30.548  1.00  0.00     0.331 C 
HETATM    9  H   UNL     1      -6.380   7.688 -32.400  1.00  0.00     0.173 HD
HETATM   10  N   UNL     1      -5.257   6.976 -29.494  1.00  0.00    -0.284 N 
HETATM   11  O   UNL     1      -5.591   8.985 -30.613  1.00  0.00    -0.246 OA
HETATM   12  C   UNL     1      -5.317   5.574 -29.523  1.00  0.00     0.117 C 
BRANCH  10  13
HETATM   13  C   UNL     1      -4.566   7.687 -28.413  1.00  0.00     0.173 C 
BRANCH  13  14
HETATM   14  C   UNL     1      -3.053   7.684 -28.442  1.00  0.00    -0.040 A 
HETATM   15  C   UNL     1      -2.295   8.229 -29.486  1.00  0.00     0.009 A 
HETATM   16  C   UNL     1      -0.898   8.170 -29.455  1.00  0.00     0.001 A 
HETATM   17  C   UNL     1      -0.243   7.567 -28.384  1.00  0.00     0.000 A 
HETATM   18  C   UNL     1      -0.981   7.017 -27.340  1.00  0.00     0.001 A 
HETATM   19  C   UNL     1      -2.375   7.076 -27.370  1.00  0.00     0.009 A 
ENDBRANCH  13  14
ENDBRANCH  10  13
BRANCH  12  20
HETATM   20  N   UNL     1      -5.183   4.860 -28.338  1.00  0.00    -0.286 NA
HETATM   21  H   UNL     1      -5.079   3.857 -28.536  1.00  0.00     0.125 HD
HETATM   22  H   UNL     1      -4.426   5.167 -27.741  1.00  0.00     0.125 HD
ENDBRANCH  12  20
ENDBRANCH   1   4
BRANCH   1  23
HETATM   23  C   UNL     1      -4.151   2.937 -31.091  1.00  0.00     0.137 C 
BRANCH  23  24
HETATM   24  C   UNL     1      -3.347   2.996 -32.413  1.00  0.00     0.054 C 
BRANCH  24  25
HETATM   25  C   UNL     1      -2.421   4.131 -32.773  1.00  0.00    -0.082 C 
HETATM   26  C   UNL     1      -1.734   4.751 -31.567  1.00  0.00     0.034 C 
HETATM   27  C   UNL     1      -0.598   5.712 -31.912  1.00  0.00     0.005 C 
HETATM   28  C   UNL     1      -0.986   6.618 -33.071  1.00  0.00     0.004 C 
HETATM   29  C   UNL     1      -1.333   5.793 -34.311  1.00  0.00     0.027 C 
HETATM   30  C   UNL     1      -2.212   4.609 -34.012  1.00  0.00    -0.024 C 
ENDBRANCH  24  25
ENDBRANCH  23  24
ENDBRANCH   1  23
BRANCH   2  31
HETATM   31  C   UNL     1      -6.554   1.280 -30.444  1.00  0.00     0.144 C 
BRANCH  31  32
HETATM   32  C   UNL     1      -6.953   0.442 -31.621  1.00  0.00    -0.021 A 
HETATM   33  C   UNL     1      -6.098  -0.451 -32.345  1.00  0.00    -0.001 A 
HETATM   34  C   UNL     1      -6.832  -0.950 -33.421  1.00  0.00     0.042 A 
HETATM   35  C   UNL     1      -4.758  -0.865 -32.196  1.00  0.00     0.014 A 
HETATM   36  C   UNL     1      -6.287  -1.832 -34.364  1.00  0.00     0.030 A 
HETATM   37  N   UNL     1      -8.094  -0.411 -33.334  1.00  0.00    -0.365 N 
HETATM   38  C   UNL     1      -4.955  -2.221 -34.195  1.00  0.00     0.002 A 
HETATM   39  C   UNL     1      -4.200  -1.751 -33.124  1.00  0.00     0.001 A 
HETATM   40  H   UNL     1      -8.843  -0.603 -33.985  1.00  0.00     0.165 HD
HETATM   41  C   UNL     1      -8.177   0.435 -32.260  1.00  0.00     0.097 A 
ENDBRANCH  31  32
ENDBRANCH   2  31
TORSDOF 9
ENDMDL
MODEL 8
REMARK VINA RESULT:      -8.8      2.453      8.718
REMARK  9 active torsions:
REMARK  status: ('A' for Active; 'I' for Inactive)
REMARK    1  A    between atoms: C_4  and  C_5 
REMARK    2  A    between atoms: C_5  and  N_6 
REMARK    3  A    between atoms: C_12  and  N_13 
REMARK       I    between atoms: N_13  and  C_14 
REMARK    4  A    between atoms: N_13  and  C_27 
REMARK    5  A    between atoms: C_14  and  C_15 
REMARK    6  A    between atoms: C_15  and  C_16 
REMARK    7  A    between atoms: C_27  and  C_28 
REMARK    8  A    between atoms: C_28  and  C_29 
REMARK    9  A    between atoms: C_35  and  N_36 
ROOT
HETATM    1  N   UNL     1      -7.359   2.618 -33.190  1.00  0.00    -0.310 N 
HETATM    2  C   UNL     1      -6.431   3.142 -32.266  1.00  0.00     0.228 C 
HETATM    3  O   UNL     1      -6.771   3.860 -31.315  1.00  0.00    -0.273 OA
ENDROOT
BRANCH   1   4
HETATM    4  C   UNL     1      -8.625   3.274 -33.341  1.00  0.00     0.144 C 
HETATM    5  C   UNL     1      -8.648   4.564 -34.124  1.00  0.00     0.279 C 
HETATM    6  N   UNL     1      -9.847   4.933 -34.633  1.00  0.00    -0.273 N 
HETATM    7  O   UNL     1      -7.652   5.263 -34.299  1.00  0.00    -0.265 OA
HETATM    8  C   UNL     1     -10.955   4.796 -33.865  1.00  0.00     0.331 C 
HETATM    9  H   UNL     1      -9.834   5.808 -35.138  1.00  0.00     0.173 HD
HETATM   10  N   UNL     1     -10.938   3.742 -32.963  1.00  0.00    -0.284 N 
HETATM   11  O   UNL     1     -11.863   5.617 -33.978  1.00  0.00    -0.246 OA
HETATM   12  C   UNL     1      -9.827   2.898 -32.812  1.00  0.00     0.117 C 
BRANCH  10  13
HETATM   13  C   UNL     1     -12.085   3.663 -32.053  1.00  0.00     0.173 C 
BRANCH  13  14
HETATM   14  C   UNL     1     -13.290   2.879 -32.526  1.00  0.00    -0.040 A 
HETATM   15  C   UNL     1     -14.515   2.855 -31.849  1.00  0.00     0.009 A 
HETATM   16  C   UNL     1     -15.579   2.088 -32.335  1.00  0.00     0.001 A 
HETATM   17  C   UNL     1     -15.433   1.338 -33.499  1.00  0.00     0.000 A 
HETATM   18  C   UNL     1     -14.221   1.348 -34.182  1.00  0.00     0.001 A 
HETATM   19  C   UNL     1     -13.158   2.113 -33.699  1.00  0.00     0.009 A 
ENDBRANCH  13  14
ENDBRANCH  10  13
BRANCH  12  20
HETATM   20  N   UNL     1      -9.979   1.681 -32.158  1.00  0.00    -0.286 NA
HETATM   21  H   UNL     1      -9.919   1.812 -31.141  1.00  0.00     0.125 HD
HETATM   22  H   UNL     1     -10.829   1.181 -32.384  1.00  0.00     0.125 HD
ENDBRANCH  12  20
ENDBRANCH   1   4
BRANCH   1  23
HETATM   23  C   UNL     1      -6.990   1.697 -34.303  1.00  0.00     0.137 C 
BRANCH  23  24
HETATM   24  C   UNL     1      -7.493   0.233 -34.356  1.00  0.00     0.054 C 
BRANCH  24  25
HETATM   25  C   UNL     1      -6.577  -0.964 -34.299  1.00  0.00    -0.082 C 
HETATM   26  C   UNL     1      -5.220  -0.653 -33.688  1.00  0.00     0.034 C 
HETATM   27  C   UNL     1      -4.373  -1.884 -33.370  1.00  0.00     0.005 C 
HETATM   28  C   UNL     1      -4.445  -2.899 -34.500  1.00  0.00     0.004 C 
HETATM   29  C   UNL     1      -5.889  -3.339 -34.744  1.00  0.00     0.027 C 
HETATM   30  C   UNL     1      -6.865  -2.194 -34.757  1.00  0.00    -0.024 C 
ENDBRANCH  24  25
ENDBRANCH  23  24
ENDBRANCH   1  23
BRANCH   2  31
HETATM   31  C   UNL     1      -4.947   2.856 -32.454  1.00  0.00     0.144 C 
BRANCH  31  32
HETATM   32  C   UNL     1      -4.232   3.962 -33.169  1.00  0.00    -0.021 A 
HETATM   33  C   UNL     1      -3.020   4.596 -32.739  1.00  0.00    -0.001 A 
HETATM   34  C   UNL     1      -2.754   5.635 -33.630  1.00  0.00     0.042 A 
HETATM   35  C   UNL     1      -2.135   4.393 -31.660  1.00  0.00     0.014 A 
HETATM   36  C   UNL     1      -1.654   6.491 -33.487  1.00  0.00     0.030 A 
HETATM   37  N   UNL     1      -3.743   5.612 -34.585  1.00  0.00    -0.365 N 
HETATM   38  C   UNL     1      -0.797   6.271 -32.404  1.00  0.00     0.002 A 
HETATM   39  C   UNL     1      -1.028   5.234 -31.505  1.00  0.00     0.001 A 
HETATM   40  H   UNL     1      -3.801   6.255 -35.363  1.00  0.00     0.165 HD
HETATM   41  C   UNL     1      -4.643   4.616 -34.314  1.00  0.00     0.097 A 
ENDBRANCH  31  32
ENDBRANCH   2  31
TORSDOF 9
ENDMDL
MODEL 9
REMARK VINA RESULT:      -8.8      1.813      3.569
REMARK  9 active torsions:
REMARK  status: ('A' for Active; 'I' for Inactive)
REMARK    1  A    between atoms: C_4  and  C_5 
REMARK    2  A    between atoms: C_5  and  N_6 
REMARK    3  A    between atoms: C_12  and  N_13 
REMARK       I    between atoms: N_13  and  C_14 
REMARK    4  A    between atoms: N_13  and  C_27 
REMARK    5  A    between atoms: C_14  and  C_15 
REMARK    6  A    between atoms: C_15  and  C_16 
REMARK    7  A    between atoms: C_27  and  C_28 
REMARK    8  A    between atoms: C_28  and  C_29 
REMARK    9  A    between atoms: C_35  and  N_36 
ROOT
HETATM    1  N   UNL     1      -4.504   3.783 -32.949  1.00  0.00    -0.310 N 
HETATM    2  C   UNL     1      -3.945   2.627 -32.367  1.00  0.00     0.228 C 
HETATM    3  O   UNL     1      -3.043   2.679 -31.518  1.00  0.00    -0.273 OA
ENDROOT
BRANCH   1   4
HETATM    4  C   UNL     1      -3.739   4.996 -32.943  1.00  0.00     0.144 C 
HETATM    5  C   UNL     1      -2.976   5.340 -34.200  1.00  0.00     0.279 C 
HETATM    6  N   UNL     1      -2.636   6.641 -34.356  1.00  0.00    -0.273 N 
HETATM    7  O   UNL     1      -2.662   4.506 -35.046  1.00  0.00    -0.265 OA
HETATM    8  C   UNL     1      -2.171   7.330 -33.285  1.00  0.00     0.331 C 
HETATM    9  H   UNL     1      -2.114   6.838 -35.197  1.00  0.00     0.173 HD
HETATM   10  N   UNL     1      -2.673   6.941 -32.052  1.00  0.00    -0.284 N 
HETATM   11  O   UNL     1      -1.321   8.200 -33.461  1.00  0.00    -0.246 OA
HETATM   12  C   UNL     1      -3.568   5.870 -31.907  1.00  0.00     0.117 C 
BRANCH  10  13
HETATM   13  C   UNL     1      -2.084   7.605 -30.885  1.00  0.00     0.173 C 
BRANCH  13  14
HETATM   14  C   UNL     1      -1.071   6.819 -30.081  1.00  0.00    -0.040 A 
HETATM   15  C   UNL     1      -0.875   6.984 -28.704  1.00  0.00     0.009 A 
HETATM   16  C   UNL     1       0.097   6.237 -28.031  1.00  0.00     0.001 A 
HETATM   17  C   UNL     1       0.883   5.319 -28.723  1.00  0.00     0.000 A 
HETATM   18  C   UNL     1       0.704   5.145 -30.092  1.00  0.00     0.001 A 
HETATM   19  C   UNL     1      -0.267   5.889 -30.765  1.00  0.00     0.009 A 
ENDBRANCH  13  14
ENDBRANCH  10  13
BRANCH  12  20
HETATM   20  N   UNL     1      -4.290   5.738 -30.726  1.00  0.00    -0.286 NA
HETATM   21  H   UNL     1      -5.284   5.577 -30.932  1.00  0.00     0.125 HD
HETATM   22  H   UNL     1      -3.954   5.017 -30.102  1.00  0.00     0.125 HD
ENDBRANCH  12  20
ENDBRANCH   1   4
BRANCH   1  23
HETATM   23  C   UNL     1      -5.635   3.758 -33.920  1.00  0.00     0.137 C 
BRANCH  23  24
HETATM   24  C   UNL     1      -6.950   4.536 -33.666  1.00  0.00     0.054 C 
BRANCH  24  25
HETATM   25  C   UNL     1      -7.906   4.211 -32.545  1.00  0.00    -0.082 C 
HETATM   26  C   UNL     1      -9.363   4.216 -32.978  1.00  0.00     0.034 C 
HETATM   27  C   UNL     1     -10.331   3.635 -31.949  1.00  0.00     0.005 C 
HETATM   28  C   UNL     1      -9.988   4.119 -30.548  1.00  0.00     0.004 C 
HETATM   29  C   UNL     1      -8.561   3.720 -30.170  1.00  0.00     0.027 C 
HETATM   30  C   UNL     1      -7.563   3.967 -31.269  1.00  0.00    -0.024 C 
ENDBRANCH  24  25
ENDBRANCH  23  24
ENDBRANCH   1  23
BRANCH   2  31
HETATM   31  C   UNL     1      -4.430   1.255 -32.815  1.00  0.00     0.144 C 
BRANCH  31  32
HETATM   32  C   UNL     1      -5.678   0.824 -32.105  1.00  0.00    -0.021 A 
HETATM   33  C   UNL     1      -6.972   0.666 -32.701  1.00  0.00    -0.001 A 
HETATM   34  C   UNL     1      -7.867   0.354 -31.677  1.00  0.00     0.042 A 
HETATM   35  C   UNL     1      -7.468   0.781 -34.015  1.00  0.00     0.014 A 
HETATM   36  C   UNL     1      -9.236   0.166 -31.902  1.00  0.00     0.030 A 
HETATM   37  N   UNL     1      -7.140   0.289 -30.512  1.00  0.00    -0.365 N 
HETATM   38  C   UNL     1      -9.702   0.292 -33.214  1.00  0.00     0.002 A 
HETATM   39  C   UNL     1      -8.832   0.590 -34.260  1.00  0.00     0.001 A 
HETATM   40  H   UNL     1      -7.533   0.075 -29.606  1.00  0.00     0.165 HD
HETATM   41  C   UNL     1      -5.824   0.578 -30.755  1.00  0.00     0.097 A 
ENDBRANCH  31  32
ENDBRANCH   2  31
TORSDOF 9
ENDMDL
MODEL 10
REMARK VINA RESULT:      -8.7      2.798      6.111
REMARK  9 active torsions:
REMARK  status: ('A' for Active; 'I' for Inactive)
REMARK    1  A    between atoms: C_4  and  C_5 
REMARK    2  A    between atoms: C_5  and  N_6 
REMARK    3  A    between atoms: C_12  and  N_13 
REMARK       I    between atoms: N_13  and  C_14 
REMARK    4  A    between atoms: N_13  and  C_27 
REMARK    5  A    between atoms: C_14  and  C_15 
REMARK    6  A    between atoms: C_15  and  C_16 
REMARK    7  A    between atoms: C_27  and  C_28 
REMARK    8  A    between atoms: C_28  and  C_29 
REMARK    9  A    between atoms: C_35  and  N_36 
ROOT
HETATM    1  N   UNL     1      -4.854   3.029 -32.454  1.00  0.00    -0.310 N 
HETATM    2  C   UNL     1      -5.548   1.855 -32.097  1.00  0.00     0.228 C 
HETATM    3  O   UNL     1      -6.783   1.817 -31.988  1.00  0.00    -0.273 OA
ENDROOT
BRANCH   1   4
HETATM    4  C   UNL     1      -5.487   4.297 -32.233  1.00  0.00     0.144 C 
HETATM    5  C   UNL     1      -5.992   5.039 -33.447  1.00  0.00     0.279 C 
HETATM    6  N   UNL     1      -6.945   5.973 -33.222  1.00  0.00    -0.273 N 
HETATM    7  O   UNL     1      -5.573   4.833 -34.584  1.00  0.00    -0.265 OA
HETATM    8  C   UNL     1      -6.819   6.794 -32.151  1.00  0.00     0.331 C 
HETATM    9  H   UNL     1      -7.251   6.464 -34.050  1.00  0.00     0.173 HD
HETATM   10  N   UNL     1      -6.179   6.252 -31.046  1.00  0.00    -0.284 N 
HETATM   11  O   UNL     1      -7.225   7.951 -32.237  1.00  0.00    -0.246 OA
HETATM   12  C   UNL     1      -5.647   4.953 -31.046  1.00  0.00     0.117 C 
BRANCH  10  13
HETATM   13  C   UNL     1      -5.939   7.174 -29.932  1.00  0.00     0.173 C 
BRANCH  13  14
HETATM   14  C   UNL     1      -4.578   7.832 -29.861  1.00  0.00    -0.040 A 
HETATM   15  C   UNL     1      -3.507   7.324 -29.115  1.00  0.00     0.009 A 
HETATM   16  C   UNL     1      -2.284   8.000 -29.079  1.00  0.00     0.001 A 
HETATM   17  C   UNL     1      -2.115   9.189 -29.784  1.00  0.00     0.000 A 
HETATM   18  C   UNL     1      -3.170   9.709 -30.528  1.00  0.00     0.001 A 
HETATM   19  C   UNL     1      -4.392   9.035 -30.566  1.00  0.00     0.009 A 
ENDBRANCH  13  14
ENDBRANCH  10  13
BRANCH  12  20
HETATM   20  N   UNL     1      -5.327   4.347 -29.838  1.00  0.00    -0.286 NA
HETATM   21  H   UNL     1      -4.433   3.846 -29.916  1.00  0.00     0.125 HD
HETATM   22  H   UNL     1      -5.293   4.974 -29.044  1.00  0.00     0.125 HD
ENDBRANCH  12  20
ENDBRANCH   1   4
BRANCH   1  23
HETATM   23  C   UNL     1      -3.379   3.089 -32.660  1.00  0.00     0.137 C 
BRANCH  23  24
HETATM   24  C   UNL     1      -2.430   3.720 -31.612  1.00  0.00     0.054 C 
BRANCH  24  25
HETATM   25  C   UNL     1      -1.727   5.040 -31.814  1.00  0.00    -0.082 C 
HETATM   26  C   UNL     1      -2.379   5.911 -32.875  1.00  0.00     0.034 C 
HETATM   27  C   UNL     1      -1.863   7.349 -32.917  1.00  0.00     0.005 C 
HETATM   28  C   UNL     1      -0.348   7.386 -32.777  1.00  0.00     0.004 C 
HETATM   29  C   UNL     1       0.091   6.737 -31.464  1.00  0.00     0.027 C 
HETATM   30  C   UNL     1      -0.615   5.441 -31.174  1.00  0.00    -0.024 C 
ENDBRANCH  24  25
ENDBRANCH  23  24
ENDBRANCH   1  23
BRANCH   2  31
HETATM   31  C   UNL     1      -4.763   0.585 -31.792  1.00  0.00     0.144 C 
BRANCH  31  32
HETATM   32  C   UNL     1      -4.999  -0.495 -32.803  1.00  0.00    -0.021 A 
HETATM   33  C   UNL     1      -4.391  -1.794 -32.803  1.00  0.00    -0.001 A 
HETATM   34  C   UNL     1      -4.801  -2.446 -33.966  1.00  0.00     0.042 A 
HETATM   35  C   UNL     1      -3.513  -2.466 -31.930  1.00  0.00     0.014 A 
HETATM   36  C   UNL     1      -4.363  -3.732 -34.305  1.00  0.00     0.030 A 
HETATM   37  N   UNL     1      -5.653  -1.593 -34.628  1.00  0.00    -0.365 N 
HETATM   38  C   UNL     1      -3.487  -4.373 -33.424  1.00  0.00     0.002 A 
HETATM   39  C   UNL     1      -3.070  -3.754 -32.249  1.00  0.00     0.001 A 
HETATM   40  H   UNL     1      -6.107  -1.808 -35.505  1.00  0.00     0.165 HD
HETATM   41  C   UNL     1      -5.773  -0.414 -33.943  1.00  0.00     0.097 A 
ENDBRANCH  31  32
ENDBRANCH   2  31
TORSDOF 9
ENDMDL
