MODEL 1
REMARK VINA RESULT:      -8.5      0.000      0.000
REMARK  7 active torsions:
REMARK  status: ('A' for Active; 'I' for Inactive)
REMARK    1  A    between atoms: O_2  and  C_3 
REMARK    2  A    between atoms: C_4  and  O_5 
REMARK    3  A    between atoms: C_13  and  C_14 
REMARK       I    between atoms: C_14  and  N_15 
REMARK    4  A    between atoms: N_15  and  C_16 
REMARK    5  A    between atoms: C_16  and  C_17 
REMARK    6  A    between atoms: C_17  and  C_18 
REMARK    7  A    between atoms: C_18  and  C_19 
ROOT
HETATM    1  C   UNL     1      -7.318   0.995 -31.831  1.00  0.00     0.268 C 
HETATM    2  N   UNL     1      -6.473   2.075 -31.916  1.00  0.00    -0.356 N 
HETATM    3  O   UNL     1      -7.025  -0.030 -31.222  1.00  0.00    -0.266 OA
HETATM    4  H   UNL     1      -6.695   2.832 -32.548  1.00  0.00     0.162 HD
ENDROOT
BRANCH   1   5
HETATM    5  C   UNL     1      -8.563   1.127 -32.553  1.00  0.00     0.102 A 
HETATM    6  N   UNL     1      -8.789   2.198 -33.393  1.00  0.00    -0.351 N 
HETATM    7  C   UNL     1     -10.056   2.154 -33.919  1.00  0.00     0.045 A 
HETATM    8  H   UNL     1      -8.107   2.927 -33.563  1.00  0.00     0.166 HD
HETATM    9  C   UNL     1     -10.712   3.039 -34.779  1.00  0.00     0.070 A 
HETATM   10  C   UNL     1     -10.655   0.995 -33.441  1.00  0.00    -0.004 A 
HETATM   11  C   UNL     1     -12.029   2.744 -35.168  1.00  0.00     0.103 A 
HETATM   12  C   UNL     1     -12.675   1.600 -34.670  1.00  0.00     0.102 A 
HETATM   13  C   UNL     1     -11.977   0.707 -33.835  1.00  0.00     0.053 A 
HETATM   14  C   UNL     1      -9.707   0.349 -32.598  1.00  0.00     0.049 A 
BRANCH  11  15
HETATM   15  O   UNL     1     -12.556   3.708 -35.992  1.00  0.00    -0.353 OA
HETATM   16  C   UNL     1     -12.670   5.026 -35.472  1.00  0.00     0.210 C 
ENDBRANCH  11  15
BRANCH  12  17
HETATM   17  O   UNL     1     -13.977   1.360 -35.034  1.00  0.00    -0.353 OA
HETATM   18  C   UNL     1     -14.778   0.722 -34.044  1.00  0.00     0.210 C 
ENDBRANCH  12  17
ENDBRANCH   1   5
BRANCH   2  19
HETATM   19  C   UNL     1      -5.127   2.042 -31.390  1.00  0.00     0.123 C 
BRANCH  19  20
HETATM   20  C   UNL     1      -4.113   1.473 -32.386  1.00  0.00     0.027 C 
BRANCH  20  21
HETATM   21  C   UNL     1      -3.372   0.226 -31.898  1.00  0.00     0.080 C 
BRANCH  21  22
HETATM   22  C   UNL     1      -3.818  -1.011 -32.596  1.00  0.00     0.105 A 
HETATM   23  N   UNL     1      -3.270  -2.206 -32.502  1.00  0.00    -0.233 NA
HETATM   24  C   UNL     1      -4.028  -3.023 -33.310  1.00  0.00     0.085 A 
HETATM   25  C   UNL     1      -5.061  -2.310 -33.907  1.00  0.00     0.062 A 
HETATM   26  C   UNL     1      -3.893  -4.390 -33.584  1.00  0.00     0.034 A 
HETATM   27  N   UNL     1      -4.903  -1.031 -33.439  1.00  0.00    -0.343 N 
HETATM   28  C   UNL     1      -5.991  -2.885 -34.774  1.00  0.00     0.032 A 
HETATM   29  H   UNL     1      -5.485  -0.240 -33.673  1.00  0.00     0.167 HD
HETATM   30  C   UNL     1      -5.843  -4.252 -35.035  1.00  0.00     0.002 A 
HETATM   31  C   UNL     1      -4.812  -4.995 -34.453  1.00  0.00     0.002 A 
ENDBRANCH  21  22
ENDBRANCH  20  21
ENDBRANCH  19  20
ENDBRANCH   2  19
TORSDOF 7
ENDMDL
MODEL 2
REMARK VINA RESULT:      -8.1      0.639      1.914
REMARK  7 active torsions:
REMARK  status: ('A' for Active; 'I' for Inactive)
REMARK    1  A    between atoms: O_2  and  C_3 
REMARK    2  A    between atoms: C_4  and  O_5 
REMARK    3  A    between atoms: C_13  and  C_14 
REMARK       I    between atoms: C_14  and  N_15 
REMARK    4  A    between atoms: N_15  and  C_16 
REMARK    5  A    between atoms: C_16  and  C_17 
REMARK    6  A    between atoms: C_17  and  C_18 
REMARK    7  A    between atoms: C_18  and  C_19 
ROOT
HETATM    1  C   UNL     1      -7.101   1.104 -31.807  1.00  0.00     0.268 C 
HETATM    2  N   UNL     1      -6.198   2.066 -31.423  1.00  0.00    -0.356 N 
HETATM    3  O   UNL     1      -6.945  -0.088 -31.560  1.00  0.00    -0.266 OA
HETATM    4  H   UNL     1      -6.293   3.008 -31.776  1.00  0.00     0.162 HD
ENDROOT
BRANCH   1   5
HETATM    5  C   UNL     1      -8.228   1.587 -32.572  1.00  0.00     0.102 A 
HETATM    6  N   UNL     1      -9.381   0.840 -32.689  1.00  0.00    -0.351 N 
HETATM    7  C   UNL     1     -10.290   1.461 -33.509  1.00  0.00     0.045 A 
HETATM    8  H   UNL     1      -9.510  -0.060 -32.244  1.00  0.00     0.166 HD
HETATM    9  C   UNL     1     -11.559   1.053 -33.929  1.00  0.00     0.070 A 
HETATM   10  C   UNL     1      -9.727   2.668 -33.901  1.00  0.00    -0.004 A 
HETATM   11  C   UNL     1     -12.287   1.899 -34.783  1.00  0.00     0.103 A 
HETATM   12  C   UNL     1     -11.728   3.108 -35.226  1.00  0.00     0.102 A 
HETATM   13  C   UNL     1     -10.462   3.511 -34.758  1.00  0.00     0.053 A 
HETATM   14  C   UNL     1      -8.441   2.748 -33.296  1.00  0.00     0.049 A 
BRANCH  11  15
HETATM   15  O   UNL     1     -13.503   1.363 -35.132  1.00  0.00    -0.353 OA
HETATM   16  C   UNL     1     -14.378   0.982 -34.078  1.00  0.00     0.210 C 
ENDBRANCH  11  15
BRANCH  12  17
HETATM   17  O   UNL     1     -12.445   3.894 -36.095  1.00  0.00    -0.353 OA
HETATM   18  C   UNL     1     -12.907   5.130 -35.559  1.00  0.00     0.210 C 
ENDBRANCH  12  17
ENDBRANCH   1   5
BRANCH   2  19
HETATM   19  C   UNL     1      -4.939   1.733 -30.796  1.00  0.00     0.123 C 
BRANCH  19  20
HETATM   20  C   UNL     1      -3.879   1.266 -31.799  1.00  0.00     0.027 C 
BRANCH  20  21
HETATM   21  C   UNL     1      -3.159  -0.027 -31.409  1.00  0.00     0.080 C 
BRANCH  21  22
HETATM   22  C   UNL     1      -3.612  -1.195 -32.215  1.00  0.00     0.105 A 
HETATM   23  N   UNL     1      -3.144  -2.425 -32.145  1.00  0.00    -0.233 NA
HETATM   24  C   UNL     1      -3.872  -3.148 -33.061  1.00  0.00     0.085 A 
HETATM   25  C   UNL     1      -4.806  -2.342 -33.701  1.00  0.00     0.062 A 
HETATM   26  C   UNL     1      -3.792  -4.505 -33.402  1.00  0.00     0.034 A 
HETATM   27  N   UNL     1      -4.617  -1.102 -33.147  1.00  0.00    -0.343 N 
HETATM   28  C   UNL     1      -5.686  -2.811 -34.676  1.00  0.00     0.032 A 
HETATM   29  H   UNL     1      -5.130  -0.265 -33.383  1.00  0.00     0.167 HD
HETATM   30  C   UNL     1      -5.593  -4.169 -35.004  1.00  0.00     0.002 A 
HETATM   31  C   UNL     1      -4.663  -5.005 -34.380  1.00  0.00     0.002 A 
ENDBRANCH  21  22
ENDBRANCH  20  21
ENDBRANCH  19  20
ENDBRANCH   2  19
TORSDOF 7
ENDMDL
MODEL 3
REMARK VINA RESULT:      -8.1      2.919      7.066
REMARK  7 active torsions:
REMARK  status: ('A' for Active; 'I' for Inactive)
REMARK    1  A    between atoms: O_2  and  C_3 
REMARK    2  A    between atoms: C_4  and  O_5 
REMARK    3  A    between atoms: C_13  and  C_14 
REMARK       I    between atoms: C_14  and  N_15 
REMARK    4  A    between atoms: N_15  and  C_16 
REMARK    5  A    between atoms: C_16  and  C_17 
REMARK    6  A    between atoms: C_17  and  C_18 
REMARK    7  A    between atoms: C_18  and  C_19 
ROOT
HETATM    1  C   UNL     1      -6.592   3.805 -33.365  1.00  0.00     0.268 C 
HETATM    2  N   UNL     1      -6.321   4.213 -32.081  1.00  0.00    -0.356 N 
HETATM    3  O   UNL     1      -7.012   4.570 -34.228  1.00  0.00    -0.266 OA
HETATM    4  H   UNL     1      -6.120   3.522 -31.371  1.00  0.00     0.162 HD
ENDROOT
BRANCH   1   5
HETATM    5  C   UNL     1      -6.396   2.396 -33.619  1.00  0.00     0.102 A 
HETATM    6  N   UNL     1      -5.477   1.664 -32.898  1.00  0.00    -0.351 N 
HETATM    7  C   UNL     1      -5.412   0.370 -33.350  1.00  0.00     0.045 A 
HETATM    8  H   UNL     1      -4.911   2.056 -32.154  1.00  0.00     0.166 HD
HETATM    9  C   UNL     1      -4.606  -0.696 -32.939  1.00  0.00     0.070 A 
HETATM   10  C   UNL     1      -6.350   0.247 -34.367  1.00  0.00    -0.004 A 
HETATM   11  C   UNL     1      -4.751  -1.935 -33.585  1.00  0.00     0.103 A 
HETATM   12  C   UNL     1      -5.664  -2.079 -34.642  1.00  0.00     0.102 A 
HETATM   13  C   UNL     1      -6.489  -0.999 -35.011  1.00  0.00     0.053 A 
HETATM   14  C   UNL     1      -6.974   1.517 -34.519  1.00  0.00     0.049 A 
BRANCH  11  15
HETATM   15  O   UNL     1      -3.884  -2.881 -33.095  1.00  0.00    -0.353 OA
HETATM   16  C   UNL     1      -3.098  -2.528 -31.965  1.00  0.00     0.210 C 
ENDBRANCH  11  15
BRANCH  12  17
HETATM   17  O   UNL     1      -5.754  -3.290 -35.283  1.00  0.00    -0.353 OA
HETATM   18  C   UNL     1      -6.785  -4.153 -34.815  1.00  0.00     0.210 C 
ENDBRANCH  12  17
ENDBRANCH   1   5
BRANCH   2  19
HETATM   19  C   UNL     1      -6.618   5.550 -31.619  1.00  0.00     0.123 C 
BRANCH  19  20
HETATM   20  C   UNL     1      -7.187   5.576 -30.197  1.00  0.00     0.027 C 
BRANCH  20  21
HETATM   21  C   UNL     1      -8.679   5.248 -30.102  1.00  0.00     0.080 C 
BRANCH  21  22
HETATM   22  C   UNL     1      -9.031   3.989 -30.816  1.00  0.00     0.105 A 
HETATM   23  N   UNL     1      -8.568   2.784 -30.554  1.00  0.00    -0.233 NA
HETATM   24  C   UNL     1      -9.183   1.948 -31.458  1.00  0.00     0.085 A 
HETATM   25  C   UNL     1     -10.042   2.661 -32.287  1.00  0.00     0.062 A 
HETATM   26  C   UNL     1      -9.057   0.563 -31.632  1.00  0.00     0.034 A 
HETATM   27  N   UNL     1      -9.923   3.958 -31.860  1.00  0.00    -0.343 N 
HETATM   28  C   UNL     1     -10.802   2.069 -33.296  1.00  0.00     0.032 A 
HETATM   29  H   UNL     1     -10.410   4.754 -32.246  1.00  0.00     0.167 HD
HETATM   30  C   UNL     1     -10.666   0.685 -33.455  1.00  0.00     0.002 A 
HETATM   31  C   UNL     1      -9.808  -0.058 -32.639  1.00  0.00     0.002 A 
ENDBRANCH  21  22
ENDBRANCH  20  21
ENDBRANCH  19  20
ENDBRANCH   2  19
TORSDOF 7
ENDMDL
MODEL 4
REMARK VINA RESULT:      -8.0      6.817     10.577
REMARK  7 active torsions:
REMARK  status: ('A' for Active; 'I' for Inactive)
REMARK    1  A    between atoms: O_2  and  C_3 
REMARK    2  A    between atoms: C_4  and  O_5 
REMARK    3  A    between atoms: C_13  and  C_14 
REMARK       I    between atoms: C_14  and  N_15 
REMARK    4  A    between atoms: N_15  and  C_16 
REMARK    5  A    between atoms: C_16  and  C_17 
REMARK    6  A    between atoms: C_17  and  C_18 
REMARK    7  A    between atoms: C_18  and  C_19 
ROOT
HETATM    1  C   UNL     1      -1.369   5.219 -31.480  1.00  0.00     0.268 C 
HETATM    2  N   UNL     1      -2.419   4.384 -31.180  1.00  0.00    -0.356 N 
HETATM    3  O   UNL     1      -0.864   5.274 -32.597  1.00  0.00    -0.266 OA
HETATM    4  H   UNL     1      -2.702   4.267 -30.217  1.00  0.00     0.162 HD
ENDROOT
BRANCH   1   5
HETATM    5  C   UNL     1      -0.864   5.997 -30.371  1.00  0.00     0.102 A 
HETATM    6  N   UNL     1      -1.631   6.215 -29.246  1.00  0.00    -0.351 N 
HETATM    7  C   UNL     1      -0.980   7.030 -28.355  1.00  0.00     0.045 A 
HETATM    8  H   UNL     1      -2.563   5.838 -29.125  1.00  0.00     0.166 HD
HETATM    9  C   UNL     1      -1.391   7.531 -27.116  1.00  0.00     0.070 A 
HETATM   10  C   UNL     1       0.266   7.315 -28.898  1.00  0.00    -0.004 A 
HETATM   11  C   UNL     1      -0.508   8.356 -26.400  1.00  0.00     0.103 A 
HETATM   12  C   UNL     1       0.743   8.692 -26.942  1.00  0.00     0.102 A 
HETATM   13  C   UNL     1       1.146   8.144 -28.175  1.00  0.00     0.053 A 
HETATM   14  C   UNL     1       0.337   6.650 -30.155  1.00  0.00     0.049 A 
BRANCH  11  15
HETATM   15  O   UNL     1      -1.050   8.793 -25.215  1.00  0.00    -0.353 OA
HETATM   16  C   UNL     1      -2.178   9.653 -25.288  1.00  0.00     0.210 C 
ENDBRANCH  11  15
BRANCH  12  17
HETATM   17  O   UNL     1       1.568   9.536 -26.239  1.00  0.00    -0.353 OA
HETATM   18  C   UNL     1       2.483   8.896 -25.354  1.00  0.00     0.210 C 
ENDBRANCH  12  17
ENDBRANCH   1   5
BRANCH   2  19
HETATM   19  C   UNL     1      -2.933   3.424 -32.130  1.00  0.00     0.123 C 
BRANCH  19  20
HETATM   20  C   UNL     1      -3.885   2.408 -31.492  1.00  0.00     0.027 C 
BRANCH  20  21
HETATM   21  C   UNL     1      -3.329   0.984 -31.400  1.00  0.00     0.080 C 
BRANCH  21  22
HETATM   22  C   UNL     1      -4.102   0.018 -32.229  1.00  0.00     0.105 A 
HETATM   23  N   UNL     1      -5.402   0.031 -32.441  1.00  0.00    -0.233 NA
HETATM   24  C   UNL     1      -5.651  -1.038 -33.270  1.00  0.00     0.085 A 
HETATM   25  C   UNL     1      -4.476  -1.715 -33.572  1.00  0.00     0.062 A 
HETATM   26  C   UNL     1      -6.861  -1.494 -33.810  1.00  0.00     0.034 A 
HETATM   27  N   UNL     1      -3.505  -1.026 -32.894  1.00  0.00    -0.343 N 
HETATM   28  C   UNL     1      -4.427  -2.839 -34.398  1.00  0.00     0.032 A 
HETATM   29  H   UNL     1      -2.519  -1.247 -32.885  1.00  0.00     0.167 HD
HETATM   30  C   UNL     1      -5.644  -3.280 -34.930  1.00  0.00     0.002 A 
HETATM   31  C   UNL     1      -6.844  -2.622 -34.642  1.00  0.00     0.002 A 
ENDBRANCH  21  22
ENDBRANCH  20  21
ENDBRANCH  19  20
ENDBRANCH   2  19
TORSDOF 7
ENDMDL
MODEL 5
REMARK VINA RESULT:      -7.9      4.185      7.640
REMARK  7 active torsions:
REMARK  status: ('A' for Active; 'I' for Inactive)
REMARK    1  A    between atoms: O_2  and  C_3 
REMARK    2  A    between atoms: C_4  and  O_5 
REMARK    3  A    between atoms: C_13  and  C_14 
REMARK       I    between atoms: C_14  and  N_15 
REMARK    4  A    between atoms: N_15  and  C_16 
REMARK    5  A    between atoms: C_16  and  C_17 
REMARK    6  A    between atoms: C_17  and  C_18 
REMARK    7  A    between atoms: C_18  and  C_19 
ROOT
HETATM    1  C   UNL     1      -6.376   1.747 -30.621  1.00  0.00     0.268 C 
HETATM    2  N   UNL     1      -7.659   2.132 -30.926  1.00  0.00    -0.356 N 
HETATM    3  O   UNL     1      -5.700   2.312 -29.767  1.00  0.00    -0.266 OA
HETATM    4  H   UNL     1      -8.120   1.735 -31.734  1.00  0.00     0.162 HD
ENDROOT
BRANCH   1   5
HETATM    5  C   UNL     1      -5.855   0.656 -31.413  1.00  0.00     0.102 A 
HETATM    6  N   UNL     1      -6.545   0.178 -32.507  1.00  0.00    -0.351 N 
HETATM    7  C   UNL     1      -5.899  -0.896 -33.067  1.00  0.00     0.045 A 
HETATM    8  H   UNL     1      -7.426   0.564 -32.823  1.00  0.00     0.166 HD
HETATM    9  C   UNL     1      -6.251  -1.700 -34.155  1.00  0.00     0.070 A 
HETATM   10  C   UNL     1      -4.731  -1.093 -32.341  1.00  0.00    -0.004 A 
HETATM   11  C   UNL     1      -5.390  -2.749 -34.520  1.00  0.00     0.103 A 
HETATM   12  C   UNL     1      -4.222  -2.996 -33.781  1.00  0.00     0.102 A 
HETATM   13  C   UNL     1      -3.873  -2.147 -32.713  1.00  0.00     0.053 A 
HETATM   14  C   UNL     1      -4.703  -0.105 -31.316  1.00  0.00     0.049 A 
BRANCH  11  15
HETATM   15  O   UNL     1      -5.871  -3.467 -35.588  1.00  0.00    -0.353 OA
HETATM   16  C   UNL     1      -6.789  -4.517 -35.312  1.00  0.00     0.210 C 
ENDBRANCH  11  15
BRANCH  12  17
HETATM   17  O   UNL     1      -3.422  -4.054 -34.135  1.00  0.00    -0.353 OA
HETATM   18  C   UNL     1      -3.694  -5.277 -33.457  1.00  0.00     0.210 C 
ENDBRANCH  12  17
ENDBRANCH   1   5
BRANCH   2  19
HETATM   19  C   UNL     1      -8.270   3.306 -30.343  1.00  0.00     0.123 C 
BRANCH  19  20
HETATM   20  C   UNL     1      -8.056   4.568 -31.184  1.00  0.00     0.027 C 
BRANCH  20  21
HETATM   21  C   UNL     1      -7.857   4.311 -32.680  1.00  0.00     0.080 C 
BRANCH  21  22
HETATM   22  C   UNL     1      -6.443   4.505 -33.107  1.00  0.00     0.105 A 
HETATM   23  N   UNL     1      -6.028   4.856 -34.307  1.00  0.00    -0.233 NA
HETATM   24  C   UNL     1      -4.656   4.919 -34.218  1.00  0.00     0.085 A 
HETATM   25  C   UNL     1      -4.228   4.603 -32.934  1.00  0.00     0.062 A 
HETATM   26  C   UNL     1      -3.706   5.243 -35.196  1.00  0.00     0.034 A 
HETATM   27  N   UNL     1      -5.384   4.339 -32.248  1.00  0.00    -0.343 N 
HETATM   28  C   UNL     1      -2.885   4.592 -32.553  1.00  0.00     0.032 A 
HETATM   29  H   UNL     1      -5.446   4.070 -31.276  1.00  0.00     0.167 HD
HETATM   30  C   UNL     1      -1.950   4.919 -33.542  1.00  0.00     0.002 A 
HETATM   31  C   UNL     1      -2.350   5.238 -34.843  1.00  0.00     0.002 A 
ENDBRANCH  21  22
ENDBRANCH  20  21
ENDBRANCH  19  20
ENDBRANCH   2  19
TORSDOF 7
ENDMDL
MODEL 6
REMARK VINA RESULT:      -7.8      6.027      9.648
REMARK  7 active torsions:
REMARK  status: ('A' for Active; 'I' for Inactive)
REMARK    1  A    between atoms: O_2  and  C_3 
REMARK    2  A    between atoms: C_4  and  O_5 
REMARK    3  A    between atoms: C_13  and  C_14 
REMARK       I    between atoms: C_14  and  N_15 
REMARK    4  A    between atoms: N_15  and  C_16 
REMARK    5  A    between atoms: C_16  and  C_17 
REMARK    6  A    between atoms: C_17  and  C_18 
REMARK    7  A    between atoms: C_18  and  C_19 
ROOT
HETATM    1  C   UNL     1      -2.466   4.091 -31.962  1.00  0.00     0.268 C 
HETATM    2  N   UNL     1      -3.080   3.078 -31.266  1.00  0.00    -0.356 N 
HETATM    3  O   UNL     1      -2.272   4.040 -33.172  1.00  0.00    -0.266 OA
HETATM    4  H   UNL     1      -3.084   3.100 -30.254  1.00  0.00     0.162 HD
ENDROOT
BRANCH   1   5
HETATM    5  C   UNL     1      -2.017   5.207 -31.160  1.00  0.00     0.102 A 
HETATM    6  N   UNL     1      -0.768   5.207 -30.576  1.00  0.00    -0.351 N 
HETATM    7  C   UNL     1      -0.581   6.331 -29.811  1.00  0.00     0.045 A 
HETATM    8  H   UNL     1      -0.101   4.453 -30.686  1.00  0.00     0.166 HD
HETATM    9  C   UNL     1       0.507   6.723 -29.025  1.00  0.00     0.070 A 
HETATM   10  C   UNL     1      -1.727   7.105 -29.937  1.00  0.00    -0.004 A 
HETATM   11  C   UNL     1       0.431   7.945 -28.337  1.00  0.00     0.103 A 
HETATM   12  C   UNL     1      -0.730   8.731 -28.416  1.00  0.00     0.102 A 
HETATM   13  C   UNL     1      -1.796   8.330 -29.243  1.00  0.00     0.053 A 
HETATM   14  C   UNL     1      -2.616   6.402 -30.798  1.00  0.00     0.049 A 
BRANCH  11  15
HETATM   15  O   UNL     1       1.558   8.191 -27.590  1.00  0.00    -0.353 OA
HETATM   16  C   UNL     1       1.576   7.709 -26.253  1.00  0.00     0.210 C 
ENDBRANCH  11  15
BRANCH  12  17
HETATM   17  O   UNL     1      -0.792   9.900 -27.697  1.00  0.00    -0.353 OA
HETATM   18  C   UNL     1      -1.987  10.656 -27.866  1.00  0.00     0.210 C 
ENDBRANCH  12  17
ENDBRANCH   1   5
BRANCH   2  19
HETATM   19  C   UNL     1      -3.441   1.825 -31.889  1.00  0.00     0.123 C 
BRANCH  19  20
HETATM   20  C   UNL     1      -4.946   1.545 -31.835  1.00  0.00     0.027 C 
BRANCH  20  21
HETATM   21  C   UNL     1      -5.584   1.233 -33.191  1.00  0.00     0.080 C 
BRANCH  21  22
HETATM   22  C   UNL     1      -5.491  -0.211 -33.544  1.00  0.00     0.105 A 
HETATM   23  N   UNL     1      -4.443  -0.993 -33.378  1.00  0.00    -0.233 NA
HETATM   24  C   UNL     1      -4.832  -2.231 -33.835  1.00  0.00     0.085 A 
HETATM   25  C   UNL     1      -6.147  -2.203 -34.286  1.00  0.00     0.062 A 
HETATM   26  C   UNL     1      -4.114  -3.433 -33.895  1.00  0.00     0.034 A 
HETATM   27  N   UNL     1      -6.541  -0.905 -34.094  1.00  0.00    -0.343 N 
HETATM   28  C   UNL     1      -6.807  -3.320 -34.801  1.00  0.00     0.032 A 
HETATM   29  H   UNL     1      -7.450  -0.524 -34.318  1.00  0.00     0.167 HD
HETATM   30  C   UNL     1      -6.075  -4.512 -34.852  1.00  0.00     0.002 A 
HETATM   31  C   UNL     1      -4.751  -4.571 -34.409  1.00  0.00     0.002 A 
ENDBRANCH  21  22
ENDBRANCH  20  21
ENDBRANCH  19  20
ENDBRANCH   2  19
TORSDOF 7
ENDMDL
MODEL 7
REMARK VINA RESULT:      -7.7      3.407      7.665
REMARK  7 active torsions:
REMARK  status: ('A' for Active; 'I' for Inactive)
REMARK    1  A    between atoms: O_2  and  C_3 
REMARK    2  A    between atoms: C_4  and  O_5 
REMARK    3  A    between atoms: C_13  and  C_14 
REMARK       I    between atoms: C_14  and  N_15 
REMARK    4  A    between atoms: N_15  and  C_16 
REMARK    5  A    between atoms: C_16  and  C_17 
REMARK    6  A    between atoms: C_17  and  C_18 
REMARK    7  A    between atoms: C_18  and  C_19 
ROOT
HETATM    1  C   UNL     1      -8.860   2.642 -33.960  1.00  0.00     0.268 C 
HETATM    2  N   UNL     1      -8.311   3.680 -33.247  1.00  0.00    -0.356 N 
HETATM    3  O   UNL     1      -9.958   2.718 -34.501  1.00  0.00    -0.266 OA
HETATM    4  H   UNL     1      -7.477   3.521 -32.697  1.00  0.00     0.162 HD
ENDROOT
BRANCH   1   5
HETATM    5  C   UNL     1      -8.074   1.429 -33.987  1.00  0.00     0.102 A 
HETATM    6  N   UNL     1      -6.936   1.301 -33.219  1.00  0.00    -0.351 N 
HETATM    7  C   UNL     1      -6.316   0.098 -33.451  1.00  0.00     0.045 A 
HETATM    8  H   UNL     1      -6.600   2.024 -32.595  1.00  0.00     0.166 HD
HETATM    9  C   UNL     1      -5.134  -0.429 -32.925  1.00  0.00     0.070 A 
HETATM   10  C   UNL     1      -7.101  -0.594 -34.364  1.00  0.00    -0.004 A 
HETATM   11  C   UNL     1      -4.726  -1.708 -33.342  1.00  0.00     0.103 A 
HETATM   12  C   UNL     1      -5.479  -2.416 -34.292  1.00  0.00     0.102 A 
HETATM   13  C   UNL     1      -6.686  -1.876 -34.778  1.00  0.00     0.053 A 
HETATM   14  C   UNL     1      -8.210   0.240 -34.682  1.00  0.00     0.049 A 
BRANCH  11  15
HETATM   15  O   UNL     1      -3.540  -2.089 -32.764  1.00  0.00    -0.353 OA
HETATM   16  C   UNL     1      -2.885  -1.145 -31.927  1.00  0.00     0.210 C 
ENDBRANCH  11  15
BRANCH  12  17
HETATM   17  O   UNL     1      -5.033  -3.645 -34.713  1.00  0.00    -0.353 OA
HETATM   18  C   UNL     1      -6.033  -4.504 -35.254  1.00  0.00     0.210 C 
ENDBRANCH  12  17
ENDBRANCH   1   5
BRANCH   2  19
HETATM   19  C   UNL     1      -9.037   4.903 -32.985  1.00  0.00     0.123 C 
BRANCH  19  20
HETATM   20  C   UNL     1      -8.148   6.148 -33.053  1.00  0.00     0.027 C 
BRANCH  20  21
HETATM   21  C   UNL     1      -7.020   6.183 -32.019  1.00  0.00     0.080 C 
BRANCH  21  22
HETATM   22  C   UNL     1      -5.683   5.938 -32.628  1.00  0.00     0.105 A 
HETATM   23  N   UNL     1      -5.442   5.602 -33.879  1.00  0.00    -0.233 NA
HETATM   24  C   UNL     1      -4.073   5.499 -33.975  1.00  0.00     0.085 A 
HETATM   25  C   UNL     1      -3.468   5.781 -32.755  1.00  0.00     0.062 A 
HETATM   26  C   UNL     1      -3.271   5.168 -35.076  1.00  0.00     0.034 A 
HETATM   27  N   UNL     1      -4.515   6.053 -31.914  1.00  0.00    -0.343 N 
HETATM   28  C   UNL     1      -2.086   5.757 -32.559  1.00  0.00     0.032 A 
HETATM   29  H   UNL     1      -4.440   6.297 -30.937  1.00  0.00     0.167 HD
HETATM   30  C   UNL     1      -1.301   5.426 -33.670  1.00  0.00     0.002 A 
HETATM   31  C   UNL     1      -1.880   5.135 -34.908  1.00  0.00     0.002 A 
ENDBRANCH  21  22
ENDBRANCH  20  21
ENDBRANCH  19  20
ENDBRANCH   2  19
TORSDOF 7
ENDMDL
MODEL 8
REMARK VINA RESULT:      -7.6      4.168      8.194
REMARK  7 active torsions:
REMARK  status: ('A' for Active; 'I' for Inactive)
REMARK    1  A    between atoms: O_2  and  C_3 
REMARK    2  A    between atoms: C_4  and  O_5 
REMARK    3  A    between atoms: C_13  and  C_14 
REMARK       I    between atoms: C_14  and  N_15 
REMARK    4  A    between atoms: N_15  and  C_16 
REMARK    5  A    between atoms: C_16  and  C_17 
REMARK    6  A    between atoms: C_17  and  C_18 
REMARK    7  A    between atoms: C_18  and  C_19 
ROOT
HETATM    1  C   UNL     1      -7.664   3.371 -33.668  1.00  0.00     0.268 C 
HETATM    2  N   UNL     1      -6.670   4.319 -33.622  1.00  0.00    -0.356 N 
HETATM    3  O   UNL     1      -8.850   3.647 -33.517  1.00  0.00    -0.266 OA
HETATM    4  H   UNL     1      -5.702   4.025 -33.604  1.00  0.00     0.162 HD
ENDROOT
BRANCH   1   5
HETATM    5  C   UNL     1      -7.211   2.011 -33.858  1.00  0.00     0.102 A 
HETATM    6  N   UNL     1      -6.140   1.512 -33.148  1.00  0.00    -0.351 N 
HETATM    7  C   UNL     1      -5.847   0.228 -33.534  1.00  0.00     0.045 A 
HETATM    8  H   UNL     1      -5.630   2.048 -32.456  1.00  0.00     0.166 HD
HETATM    9  C   UNL     1      -4.835  -0.639 -33.110  1.00  0.00     0.070 A 
HETATM   10  C   UNL     1      -6.785  -0.133 -34.494  1.00  0.00    -0.004 A 
HETATM   11  C   UNL     1      -4.767  -1.920 -33.682  1.00  0.00     0.103 A 
HETATM   12  C   UNL     1      -5.678  -2.299 -34.681  1.00  0.00     0.102 A 
HETATM   13  C   UNL     1      -6.709  -1.420 -35.063  1.00  0.00     0.053 A 
HETATM   14  C   UNL     1      -7.647   0.985 -34.679  1.00  0.00     0.049 A 
BRANCH  11  15
HETATM   15  O   UNL     1      -3.714  -2.653 -33.189  1.00  0.00    -0.353 OA
HETATM   16  C   UNL     1      -3.187  -2.275 -31.925  1.00  0.00     0.210 C 
ENDBRANCH  11  15
BRANCH  12  17
HETATM   17  O   UNL     1      -5.559  -3.542 -35.253  1.00  0.00    -0.353 OA
HETATM   18  C   UNL     1      -6.592  -4.466 -34.922  1.00  0.00     0.210 C 
ENDBRANCH  12  17
ENDBRANCH   1   5
BRANCH   2  19
HETATM   19  C   UNL     1      -6.936   5.697 -33.279  1.00  0.00     0.123 C 
BRANCH  19  20
HETATM   20  C   UNL     1      -6.023   6.220 -32.166  1.00  0.00     0.027 C 
BRANCH  20  21
HETATM   21  C   UNL     1      -5.178   5.145 -31.477  1.00  0.00     0.080 C 
BRANCH  21  22
HETATM   22  C   UNL     1      -3.767   5.575 -31.273  1.00  0.00     0.105 A 
HETATM   23  N   UNL     1      -2.804   5.557 -32.173  1.00  0.00    -0.233 NA
HETATM   24  C   UNL     1      -1.692   6.053 -31.532  1.00  0.00     0.085 A 
HETATM   25  C   UNL     1      -1.986   6.382 -30.213  1.00  0.00     0.062 A 
HETATM   26  C   UNL     1      -0.392   6.253 -32.013  1.00  0.00     0.034 A 
HETATM   27  N   UNL     1      -3.311   6.064 -30.073  1.00  0.00    -0.343 N 
HETATM   28  C   UNL     1      -1.048   6.913 -29.327  1.00  0.00     0.032 A 
HETATM   29  H   UNL     1      -3.860   6.173 -29.232  1.00  0.00     0.167 HD
HETATM   30  C   UNL     1       0.246   7.107 -29.825  1.00  0.00     0.002 A 
HETATM   31  C   UNL     1       0.573   6.783 -31.145  1.00  0.00     0.002 A 
ENDBRANCH  21  22
ENDBRANCH  20  21
ENDBRANCH  19  20
ENDBRANCH   2  19
TORSDOF 7
ENDMDL
MODEL 9
REMARK VINA RESULT:      -7.5      5.136      9.371
REMARK  7 active torsions:
REMARK  status: ('A' for Active; 'I' for Inactive)
REMARK    1  A    between atoms: O_2  and  C_3 
REMARK    2  A    between atoms: C_4  and  O_5 
REMARK    3  A    between atoms: C_13  and  C_14 
REMARK       I    between atoms: C_14  and  N_15 
REMARK    4  A    between atoms: N_15  and  C_16 
REMARK    5  A    between atoms: C_16  and  C_17 
REMARK    6  A    between atoms: C_17  and  C_18 
REMARK    7  A    between atoms: C_18  and  C_19 
ROOT
HETATM    1  C   UNL     1      -5.616   3.072 -32.603  1.00  0.00     0.268 C 
HETATM    2  N   UNL     1      -4.648   3.504 -31.728  1.00  0.00    -0.356 N 
HETATM    3  O   UNL     1      -6.513   3.803 -33.012  1.00  0.00    -0.266 OA
HETATM    4  H   UNL     1      -4.022   2.831 -31.307  1.00  0.00     0.162 HD
ENDROOT
BRANCH   1   5
HETATM    5  C   UNL     1      -5.535   1.677 -32.973  1.00  0.00     0.102 A 
HETATM    6  N   UNL     1      -4.624   0.833 -32.373  1.00  0.00    -0.351 N 
HETATM    7  C   UNL     1      -4.679  -0.423 -32.923  1.00  0.00     0.045 A 
HETATM    8  H   UNL     1      -3.985   1.129 -31.645  1.00  0.00     0.166 HD
HETATM    9  C   UNL     1      -3.924  -1.567 -32.648  1.00  0.00     0.070 A 
HETATM   10  C   UNL     1      -5.687  -0.406 -33.878  1.00  0.00    -0.004 A 
HETATM   11  C   UNL     1      -4.197  -2.740 -33.372  1.00  0.00     0.103 A 
HETATM   12  C   UNL     1      -5.184  -2.743 -34.370  1.00  0.00     0.102 A 
HETATM   13  C   UNL     1      -5.954  -1.587 -34.600  1.00  0.00     0.053 A 
HETATM   14  C   UNL     1      -6.230   0.910 -33.892  1.00  0.00     0.049 A 
BRANCH  11  15
HETATM   15  O   UNL     1      -3.367  -3.775 -33.015  1.00  0.00    -0.353 OA
HETATM   16  C   UNL     1      -2.846  -3.773 -31.693  1.00  0.00     0.210 C 
ENDBRANCH  11  15
BRANCH  12  17
HETATM   17  O   UNL     1      -5.399  -3.892 -35.091  1.00  0.00    -0.353 OA
HETATM   18  C   UNL     1      -6.746  -4.353 -35.115  1.00  0.00     0.210 C 
ENDBRANCH  12  17
ENDBRANCH   1   5
BRANCH   2  19
HETATM   19  C   UNL     1      -4.680   4.821 -31.134  1.00  0.00     0.123 C 
BRANCH  19  20
HETATM   20  C   UNL     1      -3.508   5.702 -31.576  1.00  0.00     0.027 C 
BRANCH  20  21
HETATM   21  C   UNL     1      -3.448   7.071 -30.894  1.00  0.00     0.080 C 
BRANCH  21  22
HETATM   22  C   UNL     1      -2.327   7.171 -29.917  1.00  0.00     0.105 A 
HETATM   23  N   UNL     1      -1.154   7.734 -30.125  1.00  0.00    -0.233 NA
HETATM   24  C   UNL     1      -0.464   7.594 -28.943  1.00  0.00     0.085 A 
HETATM   25  C   UNL     1      -1.235   6.932 -27.994  1.00  0.00     0.062 A 
HETATM   26  C   UNL     1       0.831   8.008 -28.604  1.00  0.00     0.034 A 
HETATM   27  N   UNL     1      -2.415   6.671 -28.641  1.00  0.00    -0.343 N 
HETATM   28  C   UNL     1      -0.791   6.655 -26.701  1.00  0.00     0.032 A 
HETATM   29  H   UNL     1      -3.212   6.193 -28.246  1.00  0.00     0.167 HD
HETATM   30  C   UNL     1       0.504   7.078 -26.379  1.00  0.00     0.002 A 
HETATM   31  C   UNL     1       1.305   7.742 -27.312  1.00  0.00     0.002 A 
ENDBRANCH  21  22
ENDBRANCH  20  21
ENDBRANCH  19  20
ENDBRANCH   2  19
TORSDOF 7
ENDMDL
MODEL 10
REMARK VINA RESULT:      -7.4      3.754      7.436
REMARK  7 active torsions:
REMARK  status: ('A' for Active; 'I' for Inactive)
REMARK    1  A    between atoms: O_2  and  C_3 
REMARK    2  A    between atoms: C_4  and  O_5 
REMARK    3  A    between atoms: C_13  and  C_14 
REMARK       I    between atoms: C_14  and  N_15 
REMARK    4  A    between atoms: N_15  and  C_16 
REMARK    5  A    between atoms: C_16  and  C_17 
REMARK    6  A    between atoms: C_17  and  C_18 
REMARK    7  A    between atoms: C_18  and  C_19 
ROOT
HETATM    1  C   UNL     1      -6.443   2.033 -32.471  1.00  0.00     0.268 C 
HETATM    2  N   UNL     1      -7.006   2.339 -33.686  1.00  0.00    -0.356 N 
HETATM    3  O   UNL     1      -6.892   1.160 -31.734  1.00  0.00    -0.266 OA
HETATM    4  H   UNL     1      -6.693   3.160 -34.187  1.00  0.00     0.162 HD
ENDROOT
BRANCH   1   5
HETATM    5  C   UNL     1      -5.310   2.846 -32.093  1.00  0.00     0.102 A 
HETATM    6  N   UNL     1      -5.481   4.128 -31.614  1.00  0.00    -0.351 N 
HETATM    7  C   UNL     1      -4.272   4.734 -31.382  1.00  0.00     0.045 A 
HETATM    8  H   UNL     1      -6.389   4.558 -31.485  1.00  0.00     0.166 HD
HETATM    9  C   UNL     1      -3.975   6.024 -30.933  1.00  0.00     0.070 A 
HETATM   10  C   UNL     1      -3.285   3.802 -31.679  1.00  0.00    -0.004 A 
HETATM   11  C   UNL     1      -2.627   6.387 -30.780  1.00  0.00     0.103 A 
HETATM   12  C   UNL     1      -1.607   5.479 -31.108  1.00  0.00     0.102 A 
HETATM   13  C   UNL     1      -1.935   4.174 -31.524  1.00  0.00     0.053 A 
HETATM   14  C   UNL     1      -3.945   2.615 -32.108  1.00  0.00     0.049 A 
BRANCH  11  15
HETATM   15  O   UNL     1      -2.484   7.686 -30.355  1.00  0.00    -0.353 OA
HETATM   16  C   UNL     1      -2.417   8.698 -31.350  1.00  0.00     0.210 C 
ENDBRANCH  11  15
BRANCH  12  17
HETATM   17  O   UNL     1      -0.298   5.877 -30.990  1.00  0.00    -0.353 OA
HETATM   18  C   UNL     1       0.389   5.380 -29.846  1.00  0.00     0.210 C 
ENDBRANCH  12  17
ENDBRANCH   1   5
BRANCH   2  19
HETATM   19  C   UNL     1      -8.238   1.734 -34.138  1.00  0.00     0.123 C 
BRANCH  19  20
HETATM   20  C   UNL     1      -8.120   0.220 -34.338  1.00  0.00     0.027 C 
BRANCH  20  21
HETATM   21  C   UNL     1      -6.999  -0.211 -35.288  1.00  0.00     0.080 C 
BRANCH  21  22
HETATM   22  C   UNL     1      -6.072  -1.195 -34.663  1.00  0.00     0.105 A 
HETATM   23  N   UNL     1      -5.864  -2.435 -35.057  1.00  0.00    -0.233 NA
HETATM   24  C   UNL     1      -4.925  -2.943 -34.190  1.00  0.00     0.085 A 
HETATM   25  C   UNL     1      -4.551  -1.990 -33.249  1.00  0.00     0.062 A 
HETATM   26  C   UNL     1      -4.339  -4.216 -34.143  1.00  0.00     0.034 A 
HETATM   27  N   UNL     1      -5.299  -0.888 -33.570  1.00  0.00    -0.343 N 
HETATM   28  C   UNL     1      -3.609  -2.228 -32.247  1.00  0.00     0.032 A 
HETATM   29  H   UNL     1      -5.283  -0.001 -33.086  1.00  0.00     0.167 HD
HETATM   30  C   UNL     1      -3.033  -3.504 -32.217  1.00  0.00     0.002 A 
HETATM   31  C   UNL     1      -3.391  -4.484 -33.147  1.00  0.00     0.002 A 
ENDBRANCH  21  22
ENDBRANCH  20  21
ENDBRANCH  19  20
ENDBRANCH   2  19
TORSDOF 7
ENDMDL
