MODEL 1
REMARK VINA RESULT:      -9.0      0.000      0.000
REMARK  8 active torsions:
REMARK  status: ('A' for Active; 'I' for Inactive)
REMARK    1  A    between atoms: C_2  and  C_3 
REMARK    2  A    between atoms: C_3  and  O_4 
REMARK    3  A    between atoms: O_4  and  C_5 
REMARK    4  A    between atoms: C_7  and  C_8 
REMARK    5  A    between atoms: N_9  and  C_10 
REMARK    6  A    between atoms: C_10  and  C_11 
REMARK    7  A    between atoms: C_24  and  C_25 
REMARK    8  A    between atoms: C_26  and  O_27 
ROOT
HETATM    1  C   UNL     1      -6.316   2.489 -32.854  1.00  0.00     0.159 C 
HETATM    2  N   UNL     1      -5.199   2.477 -31.872  1.00  0.00    -0.329 N 
HETATM    3  C   UNL     1      -5.599   2.898 -30.594  1.00  0.00     0.273 C 
HETATM    4  O   UNL     1      -4.914   3.212 -29.638  1.00  0.00    -0.266 OA
HETATM    5  C   UNL     1      -7.010   2.919 -30.682  1.00  0.00     0.129 A 
HETATM    6  C   UNL     1      -7.468   2.671 -31.942  1.00  0.00     0.034 A 
HETATM    7  N   UNL     1      -8.066   3.085 -29.876  1.00  0.00    -0.272 N 
HETATM    8  H   UNL     1      -8.088   3.283 -28.879  1.00  0.00     0.189 HD
HETATM    9  N   UNL     1      -9.233   2.908 -30.548  1.00  0.00    -0.173 NA
HETATM   10  C   UNL     1      -8.871   2.666 -31.837  1.00  0.00     0.101 A 
ENDROOT
BRANCH   1  11
HETATM   11  C   UNL     1      -6.485   1.216 -33.639  1.00  0.00    -0.028 A 
HETATM   12  C   UNL     1      -5.819   0.022 -33.315  1.00  0.00     0.046 A 
HETATM   13  C   UNL     1      -6.031  -1.151 -34.048  1.00  0.00     0.069 A 
HETATM   14  C   UNL     1      -6.910  -1.133 -35.131  1.00  0.00     0.037 A 
HETATM   15  C   UNL     1      -7.562   0.047 -35.484  1.00  0.00     0.003 A 
HETATM   16  C   UNL     1      -7.348   1.212 -34.749  1.00  0.00     0.010 A 
BRANCH  13  17
HETATM   17  O   UNL     1      -5.318  -2.235 -33.613  1.00  0.00    -0.348 OA
BRANCH  17  18
HETATM   18  C   UNL     1      -4.671  -3.022 -34.613  1.00  0.00     0.202 C 
BRANCH  18  19
HETATM   19  C   UNL     1      -5.344  -4.361 -34.640  1.00  0.00    -0.011 C 
HETATM   20  C   UNL     1      -6.439  -4.650 -35.356  1.00  0.00     0.009 C 
ENDBRANCH  18  19
ENDBRANCH  17  18
ENDBRANCH  13  17
ENDBRANCH   1  11
BRANCH   2  21
HETATM   21  C   UNL     1      -3.817   2.514 -32.298  1.00  0.00     0.165 C 
BRANCH  21  22
HETATM   22  C   UNL     1      -3.323   3.916 -32.550  1.00  0.00    -0.037 A 
HETATM   23  C   UNL     1      -3.814   4.674 -33.617  1.00  0.00     0.028 A 
HETATM   24  C   UNL     1      -3.307   5.949 -33.817  1.00  0.00     0.116 A 
HETATM   25  N   UNL     1      -2.365   6.517 -33.035  1.00  0.00    -0.273 NA
HETATM   26  C   UNL     1      -1.895   5.766 -32.017  1.00  0.00     0.116 A 
HETATM   27  C   UNL     1      -2.337   4.482 -31.737  1.00  0.00     0.028 A 
ENDBRANCH  21  22
ENDBRANCH   2  21
BRANCH  10  28
HETATM   28  C   UNL     1      -9.889   2.384 -32.852  1.00  0.00     0.028 A 
HETATM   29  C   UNL     1     -10.430   1.094 -33.002  1.00  0.00     0.078 A 
HETATM   30  C   UNL     1     -11.345   0.803 -34.012  1.00  0.00     0.037 A 
HETATM   31  C   UNL     1     -11.757   1.809 -34.882  1.00  0.00     0.003 A 
HETATM   32  C   UNL     1     -11.261   3.103 -34.732  1.00  0.00     0.001 A 
HETATM   33  C   UNL     1     -10.338   3.390 -33.720  1.00  0.00     0.017 A 
BRANCH  29  34
HETATM   34  O   UNL     1     -10.095   0.054 -32.173  1.00  0.00    -0.360 OA
HETATM   35  H   UNL     1     -10.924  -0.459 -32.033  1.00  0.00     0.217 HD
ENDBRANCH  29  34
ENDBRANCH  10  28
TORSDOF 8
ENDMDL
MODEL 2
REMARK VINA RESULT:      -8.9      1.718      2.284
REMARK  8 active torsions:
REMARK  status: ('A' for Active; 'I' for Inactive)
REMARK    1  A    between atoms: C_2  and  C_3 
REMARK    2  A    between atoms: C_3  and  O_4 
REMARK    3  A    between atoms: O_4  and  C_5 
REMARK    4  A    between atoms: C_7  and  C_8 
REMARK    5  A    between atoms: N_9  and  C_10 
REMARK    6  A    between atoms: C_10  and  C_11 
REMARK    7  A    between atoms: C_24  and  C_25 
REMARK    8  A    between atoms: C_26  and  O_27 
ROOT
HETATM    1  C   UNL     1      -5.155   3.567 -32.189  1.00  0.00     0.159 C 
HETATM    2  N   UNL     1      -4.159   4.162 -31.259  1.00  0.00    -0.329 N 
HETATM    3  C   UNL     1      -4.680   5.241 -30.528  1.00  0.00     0.273 C 
HETATM    4  O   UNL     1      -4.094   6.072 -29.860  1.00  0.00    -0.266 OA
HETATM    5  C   UNL     1      -6.070   5.169 -30.781  1.00  0.00     0.129 A 
HETATM    6  C   UNL     1      -6.393   4.218 -31.704  1.00  0.00     0.034 A 
HETATM    7  N   UNL     1      -7.200   5.747 -30.359  1.00  0.00    -0.272 N 
HETATM    8  H   UNL     1      -7.325   6.491 -29.677  1.00  0.00     0.189 HD
HETATM    9  N   UNL     1      -8.291   5.179 -30.936  1.00  0.00    -0.173 NA
HETATM   10  C   UNL     1      -7.797   4.238 -31.786  1.00  0.00     0.101 A 
ENDROOT
BRANCH   1  11
HETATM   11  C   UNL     1      -5.298   2.072 -32.097  1.00  0.00    -0.028 A 
HETATM   12  C   UNL     1      -5.519   1.253 -33.218  1.00  0.00     0.046 A 
HETATM   13  C   UNL     1      -5.610  -0.137 -33.096  1.00  0.00     0.069 A 
HETATM   14  C   UNL     1      -5.494  -0.724 -31.836  1.00  0.00     0.037 A 
HETATM   15  C   UNL     1      -5.298   0.072 -30.709  1.00  0.00     0.003 A 
HETATM   16  C   UNL     1      -5.206   1.457 -30.837  1.00  0.00     0.010 A 
BRANCH  13  17
HETATM   17  O   UNL     1      -5.822  -0.803 -34.273  1.00  0.00    -0.348 OA
BRANCH  17  18
HETATM   18  C   UNL     1      -5.455  -2.182 -34.308  1.00  0.00     0.202 C 
BRANCH  18  19
HETATM   19  C   UNL     1      -6.684  -2.969 -34.650  1.00  0.00    -0.011 C 
HETATM   20  C   UNL     1      -6.685  -4.249 -35.044  1.00  0.00     0.009 C 
ENDBRANCH  18  19
ENDBRANCH  17  18
ENDBRANCH  13  17
ENDBRANCH   1  11
BRANCH   2  21
HETATM   21  C   UNL     1      -2.738   3.980 -31.456  1.00  0.00     0.165 C 
BRANCH  21  22
HETATM   22  C   UNL     1      -2.173   4.896 -32.512  1.00  0.00    -0.037 A 
HETATM   23  C   UNL     1      -2.206   4.545 -33.865  1.00  0.00     0.028 A 
HETATM   24  C   UNL     1      -1.651   5.415 -34.792  1.00  0.00     0.116 A 
HETATM   25  N   UNL     1      -1.082   6.596 -34.471  1.00  0.00    -0.273 NA
HETATM   26  C   UNL     1      -1.050   6.912 -33.159  1.00  0.00     0.116 A 
HETATM   27  C   UNL     1      -1.576   6.109 -32.159  1.00  0.00     0.028 A 
ENDBRANCH  21  22
ENDBRANCH   2  21
BRANCH  10  28
HETATM   28  C   UNL     1      -8.707   3.388 -32.559  1.00  0.00     0.028 A 
HETATM   29  C   UNL     1      -9.060   2.103 -32.110  1.00  0.00     0.078 A 
HETATM   30  C   UNL     1      -9.866   1.263 -32.876  1.00  0.00     0.037 A 
HETATM   31  C   UNL     1     -10.357   1.705 -34.102  1.00  0.00     0.003 A 
HETATM   32  C   UNL     1     -10.049   2.987 -34.551  1.00  0.00     0.001 A 
HETATM   33  C   UNL     1      -9.234   3.826 -33.783  1.00  0.00     0.017 A 
BRANCH  29  34
HETATM   34  O   UNL     1      -8.638   1.602 -30.905  1.00  0.00    -0.360 OA
HETATM   35  H   UNL     1      -7.705   1.899 -30.800  1.00  0.00     0.217 HD
ENDBRANCH  29  34
ENDBRANCH  10  28
TORSDOF 8
ENDMDL
MODEL 3
REMARK VINA RESULT:      -8.7      2.929      7.176
REMARK  8 active torsions:
REMARK  status: ('A' for Active; 'I' for Inactive)
REMARK    1  A    between atoms: C_2  and  C_3 
REMARK    2  A    between atoms: C_3  and  O_4 
REMARK    3  A    between atoms: O_4  and  C_5 
REMARK    4  A    between atoms: C_7  and  C_8 
REMARK    5  A    between atoms: N_9  and  C_10 
REMARK    6  A    between atoms: C_10  and  C_11 
REMARK    7  A    between atoms: C_24  and  C_25 
REMARK    8  A    between atoms: C_26  and  O_27 
ROOT
HETATM    1  C   UNL     1      -4.348   2.739 -31.227  1.00  0.00     0.159 C 
HETATM    2  N   UNL     1      -5.009   1.444 -31.537  1.00  0.00    -0.329 N 
HETATM    3  C   UNL     1      -6.132   1.203 -30.729  1.00  0.00     0.273 C 
HETATM    4  O   UNL     1      -6.756   0.172 -30.568  1.00  0.00    -0.266 OA
HETATM    5  C   UNL     1      -6.353   2.448 -30.096  1.00  0.00     0.129 A 
HETATM    6  C   UNL     1      -5.378   3.363 -30.365  1.00  0.00     0.034 A 
HETATM    7  N   UNL     1      -7.270   3.030 -29.313  1.00  0.00    -0.272 N 
HETATM    8  H   UNL     1      -8.125   2.639 -28.926  1.00  0.00     0.189 HD
HETATM    9  N   UNL     1      -6.967   4.334 -29.082  1.00  0.00    -0.173 NA
HETATM   10  C   UNL     1      -5.783   4.545 -29.719  1.00  0.00     0.101 A 
ENDROOT
BRANCH   1  11
HETATM   11  C   UNL     1      -4.083   3.619 -32.419  1.00  0.00    -0.028 A 
HETATM   12  C   UNL     1      -2.824   4.180 -32.692  1.00  0.00     0.046 A 
HETATM   13  C   UNL     1      -2.608   4.963 -33.831  1.00  0.00     0.069 A 
HETATM   14  C   UNL     1      -3.666   5.207 -34.706  1.00  0.00     0.037 A 
HETATM   15  C   UNL     1      -4.929   4.681 -34.441  1.00  0.00     0.003 A 
HETATM   16  C   UNL     1      -5.138   3.899 -33.305  1.00  0.00     0.010 A 
BRANCH  13  17
HETATM   17  O   UNL     1      -1.331   5.436 -33.968  1.00  0.00    -0.348 OA
BRANCH  17  18
HETATM   18  C   UNL     1      -1.172   6.853 -34.016  1.00  0.00     0.202 C 
BRANCH  18  19
HETATM   19  C   UNL     1      -1.279   7.369 -32.612  1.00  0.00    -0.011 C 
HETATM   20  C   UNL     1      -0.468   7.015 -31.606  1.00  0.00     0.009 C 
ENDBRANCH  18  19
ENDBRANCH  17  18
ENDBRANCH  13  17
ENDBRANCH   1  11
BRANCH   2  21
HETATM   21  C   UNL     1      -4.303   0.377 -32.211  1.00  0.00     0.165 C 
BRANCH  21  22
HETATM   22  C   UNL     1      -5.137  -0.297 -33.271  1.00  0.00    -0.037 A 
HETATM   23  C   UNL     1      -6.044   0.432 -34.047  1.00  0.00     0.028 A 
HETATM   24  C   UNL     1      -6.803  -0.242 -34.992  1.00  0.00     0.116 A 
HETATM   25  N   UNL     1      -6.718  -1.570 -35.219  1.00  0.00    -0.273 NA
HETATM   26  C   UNL     1      -5.846  -2.258 -34.453  1.00  0.00     0.116 A 
HETATM   27  C   UNL     1      -5.044  -1.675 -33.483  1.00  0.00     0.028 A 
ENDBRANCH  21  22
ENDBRANCH   2  21
BRANCH  10  28
HETATM   28  C   UNL     1      -5.167   5.874 -29.716  1.00  0.00     0.028 A 
HETATM   29  C   UNL     1      -4.678   6.447 -28.528  1.00  0.00     0.078 A 
HETATM   30  C   UNL     1      -4.157   7.739 -28.506  1.00  0.00     0.037 A 
HETATM   31  C   UNL     1      -4.094   8.479 -29.685  1.00  0.00     0.003 A 
HETATM   32  C   UNL     1      -4.541   7.920 -30.880  1.00  0.00     0.001 A 
HETATM   33  C   UNL     1      -5.069   6.624 -30.897  1.00  0.00     0.017 A 
BRANCH  29  34
HETATM   34  O   UNL     1      -4.683   5.777 -27.331  1.00  0.00    -0.360 OA
HETATM   35  H   UNL     1      -3.795   5.928 -26.933  1.00  0.00     0.217 HD
ENDBRANCH  29  34
ENDBRANCH  10  28
TORSDOF 8
ENDMDL
MODEL 4
REMARK VINA RESULT:      -8.5      2.119      2.831
REMARK  8 active torsions:
REMARK  status: ('A' for Active; 'I' for Inactive)
REMARK    1  A    between atoms: C_2  and  C_3 
REMARK    2  A    between atoms: C_3  and  O_4 
REMARK    3  A    between atoms: O_4  and  C_5 
REMARK    4  A    between atoms: C_7  and  C_8 
REMARK    5  A    between atoms: N_9  and  C_10 
REMARK    6  A    between atoms: C_10  and  C_11 
REMARK    7  A    between atoms: C_24  and  C_25 
REMARK    8  A    between atoms: C_26  and  O_27 
ROOT
HETATM    1  C   UNL     1      -7.248   3.388 -34.116  1.00  0.00     0.159 C 
HETATM    2  N   UNL     1      -6.207   4.361 -33.695  1.00  0.00    -0.329 N 
HETATM    3  C   UNL     1      -6.711   5.355 -32.840  1.00  0.00     0.273 C 
HETATM    4  O   UNL     1      -6.200   6.404 -32.494  1.00  0.00    -0.266 OA
HETATM    5  C   UNL     1      -7.995   4.871 -32.496  1.00  0.00     0.129 A 
HETATM    6  C   UNL     1      -8.339   3.742 -33.179  1.00  0.00     0.034 A 
HETATM    7  N   UNL     1      -8.993   5.177 -31.659  1.00  0.00    -0.272 N 
HETATM    8  H   UNL     1      -9.068   5.951 -31.003  1.00  0.00     0.189 HD
HETATM    9  N   UNL     1      -9.989   4.254 -31.720  1.00  0.00    -0.173 NA
HETATM   10  C   UNL     1      -9.597   3.368 -32.675  1.00  0.00     0.101 A 
ENDROOT
BRANCH   1  11
HETATM   11  C   UNL     1      -6.875   1.941 -33.938  1.00  0.00    -0.028 A 
HETATM   12  C   UNL     1      -6.358   1.426 -32.736  1.00  0.00     0.046 A 
HETATM   13  C   UNL     1      -6.058   0.067 -32.597  1.00  0.00     0.069 A 
HETATM   14  C   UNL     1      -6.259  -0.794 -33.676  1.00  0.00     0.037 A 
HETATM   15  C   UNL     1      -6.749  -0.299 -34.884  1.00  0.00     0.003 A 
HETATM   16  C   UNL     1      -7.048   1.056 -35.016  1.00  0.00     0.010 A 
BRANCH  13  17
HETATM   17  O   UNL     1      -5.568  -0.289 -31.370  1.00  0.00    -0.348 OA
BRANCH  17  18
HETATM   18  C   UNL     1      -4.426   0.427 -30.901  1.00  0.00     0.202 C 
BRANCH  18  19
HETATM   19  C   UNL     1      -3.228  -0.102 -31.631  1.00  0.00    -0.011 C 
HETATM   20  C   UNL     1      -2.969  -1.402 -31.829  1.00  0.00     0.009 C 
ENDBRANCH  18  19
ENDBRANCH  17  18
ENDBRANCH  13  17
ENDBRANCH   1  11
BRANCH   2  21
HETATM   21  C   UNL     1      -4.991   4.545 -34.456  1.00  0.00     0.165 C 
BRANCH  21  22
HETATM   22  C   UNL     1      -3.757   4.551 -33.591  1.00  0.00    -0.037 A 
HETATM   23  C   UNL     1      -2.641   5.324 -33.929  1.00  0.00     0.028 A 
HETATM   24  C   UNL     1      -1.523   5.273 -33.110  1.00  0.00     0.116 A 
HETATM   25  N   UNL     1      -1.443   4.525 -31.989  1.00  0.00    -0.273 NA
HETATM   26  C   UNL     1      -2.525   3.778 -31.685  1.00  0.00     0.116 A 
HETATM   27  C   UNL     1      -3.687   3.760 -32.441  1.00  0.00     0.028 A 
ENDBRANCH  21  22
ENDBRANCH   2  21
BRANCH  10  28
HETATM   28  C   UNL     1     -10.424   2.198 -32.983  1.00  0.00     0.028 A 
HETATM   29  C   UNL     1     -11.727   2.341 -33.492  1.00  0.00     0.078 A 
HETATM   30  C   UNL     1     -12.544   1.235 -33.719  1.00  0.00     0.037 A 
HETATM   31  C   UNL     1     -12.060  -0.046 -33.462  1.00  0.00     0.003 A 
HETATM   32  C   UNL     1     -10.760  -0.214 -32.990  1.00  0.00     0.001 A 
HETATM   33  C   UNL     1      -9.944   0.899 -32.758  1.00  0.00     0.017 A 
BRANCH  29  34
HETATM   34  O   UNL     1     -12.269   3.565 -33.793  1.00  0.00    -0.360 OA
HETATM   35  H   UNL     1     -12.972   3.392 -34.461  1.00  0.00     0.217 HD
ENDBRANCH  29  34
ENDBRANCH  10  28
TORSDOF 8
ENDMDL
MODEL 5
REMARK VINA RESULT:      -8.5      2.184      6.062
REMARK  8 active torsions:
REMARK  status: ('A' for Active; 'I' for Inactive)
REMARK    1  A    between atoms: C_2  and  C_3 
REMARK    2  A    between atoms: C_3  and  O_4 
REMARK    3  A    between atoms: O_4  and  C_5 
REMARK    4  A    between atoms: C_7  and  C_8 
REMARK    5  A    between atoms: N_9  and  C_10 
REMARK    6  A    between atoms: C_10  and  C_11 
REMARK    7  A    between atoms: C_24  and  C_25 
REMARK    8  A    between atoms: C_26  and  O_27 
ROOT
HETATM    1  C   UNL     1      -6.888   1.779 -30.894  1.00  0.00     0.159 C 
HETATM    2  N   UNL     1      -6.843   3.163 -30.353  1.00  0.00    -0.329 N 
HETATM    3  C   UNL     1      -5.562   3.732 -30.430  1.00  0.00     0.273 C 
HETATM    4  O   UNL     1      -5.131   4.735 -29.892  1.00  0.00    -0.266 OA
HETATM    5  C   UNL     1      -4.852   2.831 -31.259  1.00  0.00     0.129 A 
HETATM    6  C   UNL     1      -5.571   1.714 -31.568  1.00  0.00     0.034 A 
HETATM    7  N   UNL     1      -3.666   2.751 -31.873  1.00  0.00    -0.272 N 
HETATM    8  H   UNL     1      -2.890   3.408 -31.860  1.00  0.00     0.189 HD
HETATM    9  N   UNL     1      -3.578   1.629 -32.634  1.00  0.00    -0.173 NA
HETATM   10  C   UNL     1      -4.753   0.971 -32.437  1.00  0.00     0.101 A 
ENDROOT
BRANCH   1  11
HETATM   11  C   UNL     1      -7.984   1.523 -31.894  1.00  0.00    -0.028 A 
HETATM   12  C   UNL     1      -8.295   2.416 -32.934  1.00  0.00     0.046 A 
HETATM   13  C   UNL     1      -9.297   2.126 -33.866  1.00  0.00     0.069 A 
HETATM   14  C   UNL     1     -10.013   0.934 -33.755  1.00  0.00     0.037 A 
HETATM   15  C   UNL     1      -9.736   0.046 -32.716  1.00  0.00     0.003 A 
HETATM   16  C   UNL     1      -8.735   0.340 -31.791  1.00  0.00     0.010 A 
BRANCH  13  17
HETATM   17  O   UNL     1      -9.484   3.085 -34.824  1.00  0.00    -0.348 OA
BRANCH  17  18
HETATM   18  C   UNL     1     -10.532   4.027 -34.594  1.00  0.00     0.202 C 
BRANCH  18  19
HETATM   19  C   UNL     1     -11.590   3.788 -35.628  1.00  0.00    -0.011 C 
HETATM   20  C   UNL     1     -12.629   2.955 -35.477  1.00  0.00     0.009 C 
ENDBRANCH  18  19
ENDBRANCH  17  18
ENDBRANCH  13  17
ENDBRANCH   1  11
BRANCH   2  21
HETATM   21  C   UNL     1      -7.845   3.648 -29.430  1.00  0.00     0.165 C 
BRANCH  21  22
HETATM   22  C   UNL     1      -8.902   4.485 -30.104  1.00  0.00    -0.037 A 
HETATM   23  C   UNL     1      -8.645   5.808 -30.479  1.00  0.00     0.028 A 
HETATM   24  C   UNL     1      -9.660   6.541 -31.075  1.00  0.00     0.116 A 
HETATM   25  N   UNL     1     -10.894   6.053 -31.325  1.00  0.00    -0.273 NA
HETATM   26  C   UNL     1     -11.127   4.779 -30.946  1.00  0.00     0.116 A 
HETATM   27  C   UNL     1     -10.178   3.967 -30.344  1.00  0.00     0.028 A 
ENDBRANCH  21  22
ENDBRANCH   2  21
BRANCH  10  28
HETATM   28  C   UNL     1      -5.027  -0.283 -33.146  1.00  0.00     0.028 A 
HETATM   29  C   UNL     1      -4.211  -1.414 -32.966  1.00  0.00     0.078 A 
HETATM   30  C   UNL     1      -4.424  -2.585 -33.691  1.00  0.00     0.037 A 
HETATM   31  C   UNL     1      -5.479  -2.654 -34.598  1.00  0.00     0.003 A 
HETATM   32  C   UNL     1      -6.321  -1.558 -34.768  1.00  0.00     0.001 A 
HETATM   33  C   UNL     1      -6.101  -0.381 -34.043  1.00  0.00     0.017 A 
BRANCH  29  34
HETATM   34  O   UNL     1      -3.168  -1.435 -32.075  1.00  0.00    -0.360 OA
HETATM   35  H   UNL     1      -3.478  -1.969 -31.308  1.00  0.00     0.217 HD
ENDBRANCH  29  34
ENDBRANCH  10  28
TORSDOF 8
ENDMDL
MODEL 6
REMARK VINA RESULT:      -8.3     16.078     17.527
REMARK  8 active torsions:
REMARK  status: ('A' for Active; 'I' for Inactive)
REMARK    1  A    between atoms: C_2  and  C_3 
REMARK    2  A    between atoms: C_3  and  O_4 
REMARK    3  A    between atoms: O_4  and  C_5 
REMARK    4  A    between atoms: C_7  and  C_8 
REMARK    5  A    between atoms: N_9  and  C_10 
REMARK    6  A    between atoms: C_10  and  C_11 
REMARK    7  A    between atoms: C_24  and  C_25 
REMARK    8  A    between atoms: C_26  and  O_27 
ROOT
HETATM    1  C   UNL     1      -5.989 -13.728 -37.224  1.00  0.00     0.159 C 
HETATM    2  N   UNL     1      -4.842 -14.258 -36.442  1.00  0.00    -0.329 N 
HETATM    3  C   UNL     1      -5.166 -15.424 -35.730  1.00  0.00     0.273 C 
HETATM    4  O   UNL     1      -4.549 -15.980 -34.841  1.00  0.00    -0.266 OA
HETATM    5  C   UNL     1      -6.424 -15.795 -36.262  1.00  0.00     0.129 A 
HETATM    6  C   UNL     1      -6.925 -14.873 -37.133  1.00  0.00     0.034 A 
HETATM    7  N   UNL     1      -7.284 -16.817 -36.191  1.00  0.00    -0.272 N 
HETATM    8  H   UNL     1      -7.224 -17.670 -35.641  1.00  0.00     0.189 HD
HETATM    9  N   UNL     1      -8.336 -16.636 -37.031  1.00  0.00    -0.173 NA
HETATM   10  C   UNL     1      -8.129 -15.422 -37.609  1.00  0.00     0.101 A 
ENDROOT
BRANCH   1  11
HETATM   11  C   UNL     1      -5.690 -13.430 -38.669  1.00  0.00    -0.028 A 
HETATM   12  C   UNL     1      -5.218 -14.400 -39.569  1.00  0.00     0.046 A 
HETATM   13  C   UNL     1      -4.986 -14.093 -40.914  1.00  0.00     0.069 A 
HETATM   14  C   UNL     1      -5.213 -12.795 -41.369  1.00  0.00     0.037 A 
HETATM   15  C   UNL     1      -5.658 -11.811 -40.487  1.00  0.00     0.003 A 
HETATM   16  C   UNL     1      -5.889 -12.124 -39.149  1.00  0.00     0.010 A 
BRANCH  13  17
HETATM   17  O   UNL     1      -4.533 -15.139 -41.670  1.00  0.00    -0.348 OA
BRANCH  17  18
HETATM   18  C   UNL     1      -3.350 -14.914 -42.437  1.00  0.00     0.202 C 
BRANCH  18  19
HETATM   19  C   UNL     1      -2.181 -15.011 -41.503  1.00  0.00    -0.011 C 
HETATM   20  C   UNL     1      -1.424 -16.104 -41.339  1.00  0.00     0.009 C 
ENDBRANCH  18  19
ENDBRANCH  17  18
ENDBRANCH  13  17
ENDBRANCH   1  11
BRANCH   2  21
HETATM   21  C   UNL     1      -3.725 -13.417 -36.072  1.00  0.00     0.165 C 
BRANCH  21  22
HETATM   22  C   UNL     1      -2.536 -13.593 -36.982  1.00  0.00    -0.037 A 
HETATM   23  C   UNL     1      -1.675 -14.686 -36.842  1.00  0.00     0.028 A 
HETATM   24  C   UNL     1      -0.583 -14.786 -37.691  1.00  0.00     0.116 A 
HETATM   25  N   UNL     1      -0.298 -13.892 -38.661  1.00  0.00    -0.273 NA
HETATM   26  C   UNL     1      -1.134 -12.839 -38.774  1.00  0.00     0.116 A 
HETATM   27  C   UNL     1      -2.250 -12.650 -37.973  1.00  0.00     0.028 A 
ENDBRANCH  21  22
ENDBRANCH   2  21
BRANCH  10  28
HETATM   28  C   UNL     1      -9.062 -14.912 -38.617  1.00  0.00     0.028 A 
HETATM   29  C   UNL     1      -9.657 -15.771 -39.558  1.00  0.00     0.078 A 
HETATM   30  C   UNL     1     -10.489 -15.282 -40.564  1.00  0.00     0.037 A 
HETATM   31  C   UNL     1     -10.760 -13.918 -40.633  1.00  0.00     0.003 A 
HETATM   32  C   UNL     1     -10.210 -13.052 -39.691  1.00  0.00     0.001 A 
HETATM   33  C   UNL     1      -9.371 -13.546 -38.686  1.00  0.00     0.017 A 
BRANCH  29  34
HETATM   34  O   UNL     1      -9.460 -17.129 -39.544  1.00  0.00    -0.360 OA
HETATM   35  H   UNL     1     -10.252 -17.522 -39.978  1.00  0.00     0.217 HD
ENDBRANCH  29  34
ENDBRANCH  10  28
TORSDOF 8
ENDMDL
MODEL 7
REMARK VINA RESULT:      -8.2      2.582      5.858
REMARK  8 active torsions:
REMARK  status: ('A' for Active; 'I' for Inactive)
REMARK    1  A    between atoms: C_2  and  C_3 
REMARK    2  A    between atoms: C_3  and  O_4 
REMARK    3  A    between atoms: O_4  and  C_5 
REMARK    4  A    between atoms: C_7  and  C_8 
REMARK    5  A    between atoms: N_9  and  C_10 
REMARK    6  A    between atoms: C_10  and  C_11 
REMARK    7  A    between atoms: C_24  and  C_25 
REMARK    8  A    between atoms: C_26  and  O_27 
ROOT
HETATM    1  C   UNL     1      -8.010   3.026 -33.439  1.00  0.00     0.159 C 
HETATM    2  N   UNL     1      -9.128   3.933 -33.069  1.00  0.00    -0.329 N 
HETATM    3  C   UNL     1     -10.350   3.256 -32.930  1.00  0.00     0.273 C 
HETATM    4  O   UNL     1     -11.476   3.709 -32.855  1.00  0.00    -0.266 OA
HETATM    5  C   UNL     1      -9.973   1.893 -32.939  1.00  0.00     0.129 A 
HETATM    6  C   UNL     1      -8.647   1.710 -33.203  1.00  0.00     0.034 A 
HETATM    7  N   UNL     1     -10.530   0.694 -32.734  1.00  0.00    -0.272 N 
HETATM    8  H   UNL     1     -11.496   0.463 -32.514  1.00  0.00     0.189 HD
HETATM    9  N   UNL     1      -9.605  -0.299 -32.804  1.00  0.00    -0.173 NA
HETATM   10  C   UNL     1      -8.435   0.322 -33.111  1.00  0.00     0.101 A 
ENDROOT
BRANCH   1  11
HETATM   11  C   UNL     1      -6.778   3.154 -32.583  1.00  0.00    -0.028 A 
HETATM   12  C   UNL     1      -5.478   3.206 -33.116  1.00  0.00     0.046 A 
HETATM   13  C   UNL     1      -4.360   3.362 -32.290  1.00  0.00     0.069 A 
HETATM   14  C   UNL     1      -4.535   3.452 -30.909  1.00  0.00     0.037 A 
HETATM   15  C   UNL     1      -5.814   3.379 -30.359  1.00  0.00     0.003 A 
HETATM   16  C   UNL     1      -6.924   3.225 -31.187  1.00  0.00     0.010 A 
BRANCH  13  17
HETATM   17  O   UNL     1      -3.162   3.402 -32.949  1.00  0.00    -0.348 OA
BRANCH  17  18
HETATM   18  C   UNL     1      -2.196   4.339 -32.474  1.00  0.00     0.202 C 
BRANCH  18  19
HETATM   19  C   UNL     1      -1.642   5.061 -33.665  1.00  0.00    -0.011 C 
HETATM   20  C   UNL     1      -2.267   5.179 -34.844  1.00  0.00     0.009 C 
ENDBRANCH  18  19
ENDBRANCH  17  18
ENDBRANCH  13  17
ENDBRANCH   1  11
BRANCH   2  21
HETATM   21  C   UNL     1      -9.061   5.356 -33.319  1.00  0.00     0.165 C 
BRANCH  21  22
HETATM   22  C   UNL     1      -8.560   6.134 -32.129  1.00  0.00    -0.037 A 
HETATM   23  C   UNL     1      -7.347   6.829 -32.179  1.00  0.00     0.028 A 
HETATM   24  C   UNL     1      -6.922   7.509 -31.047  1.00  0.00     0.116 A 
HETATM   25  N   UNL     1      -7.615   7.551 -29.889  1.00  0.00    -0.273 NA
HETATM   26  C   UNL     1      -8.777   6.866 -29.857  1.00  0.00     0.116 A 
HETATM   27  C   UNL     1      -9.284   6.156 -30.934  1.00  0.00     0.028 A 
ENDBRANCH  21  22
ENDBRANCH   2  21
BRANCH  10  28
HETATM   28  C   UNL     1      -7.194  -0.449 -33.227  1.00  0.00     0.028 A 
HETATM   29  C   UNL     1      -6.298  -0.554 -32.149  1.00  0.00     0.078 A 
HETATM   30  C   UNL     1      -5.084  -1.226 -32.276  1.00  0.00     0.037 A 
HETATM   31  C   UNL     1      -4.752  -1.829 -33.486  1.00  0.00     0.003 A 
HETATM   32  C   UNL     1      -5.639  -1.768 -34.559  1.00  0.00     0.001 A 
HETATM   33  C   UNL     1      -6.855  -1.088 -34.429  1.00  0.00     0.017 A 
BRANCH  29  34
HETATM   34  O   UNL     1      -6.561  -0.008 -30.918  1.00  0.00    -0.360 OA
HETATM   35  H   UNL     1      -6.286  -0.685 -30.257  1.00  0.00     0.217 HD
ENDBRANCH  29  34
ENDBRANCH  10  28
TORSDOF 8
ENDMDL
MODEL 8
REMARK VINA RESULT:      -8.1     15.975     18.646
REMARK  8 active torsions:
REMARK  status: ('A' for Active; 'I' for Inactive)
REMARK    1  A    between atoms: C_2  and  C_3 
REMARK    2  A    between atoms: C_3  and  O_4 
REMARK    3  A    between atoms: O_4  and  C_5 
REMARK    4  A    between atoms: C_7  and  C_8 
REMARK    5  A    between atoms: N_9  and  C_10 
REMARK    6  A    between atoms: C_10  and  C_11 
REMARK    7  A    between atoms: C_24  and  C_25 
REMARK    8  A    between atoms: C_26  and  O_27 
ROOT
HETATM    1  C   UNL     1      -5.631 -15.112 -38.293  1.00  0.00     0.159 C 
HETATM    2  N   UNL     1      -6.918 -14.682 -37.686  1.00  0.00    -0.329 N 
HETATM    3  C   UNL     1      -6.739 -13.796 -36.611  1.00  0.00     0.273 C 
HETATM    4  O   UNL     1      -7.541 -13.432 -35.772  1.00  0.00    -0.266 OA
HETATM    5  C   UNL     1      -5.371 -13.446 -36.699  1.00  0.00     0.129 A 
HETATM    6  C   UNL     1      -4.702 -14.151 -37.655  1.00  0.00     0.034 A 
HETATM    7  N   UNL     1      -4.514 -12.588 -36.133  1.00  0.00    -0.272 N 
HETATM    8  H   UNL     1      -4.678 -11.913 -35.389  1.00  0.00     0.189 HD
HETATM    9  N   UNL     1      -3.289 -12.658 -36.714  1.00  0.00    -0.173 NA
HETATM   10  C   UNL     1      -3.392 -13.639 -37.651  1.00  0.00     0.101 A 
ENDROOT
BRANCH   1  11
HETATM   11  C   UNL     1      -5.556 -14.974 -39.789  1.00  0.00    -0.028 A 
HETATM   12  C   UNL     1      -5.154 -16.021 -40.636  1.00  0.00     0.046 A 
HETATM   13  C   UNL     1      -5.132 -15.865 -42.026  1.00  0.00     0.069 A 
HETATM   14  C   UNL     1      -5.502 -14.641 -42.585  1.00  0.00     0.037 A 
HETATM   15  C   UNL     1      -5.881 -13.582 -41.761  1.00  0.00     0.003 A 
HETATM   16  C   UNL     1      -5.902 -13.745 -40.377  1.00  0.00     0.010 A 
BRANCH  13  17
HETATM   17  O   UNL     1      -4.724 -16.971 -42.721  1.00  0.00    -0.348 OA
BRANCH  17  18
HETATM   18  C   UNL     1      -3.757 -16.764 -43.750  1.00  0.00     0.202 C 
BRANCH  18  19
HETATM   19  C   UNL     1      -2.450 -16.450 -43.086  1.00  0.00    -0.011 C 
HETATM   20  C   UNL     1      -1.708 -17.336 -42.408  1.00  0.00     0.009 C 
ENDBRANCH  18  19
ENDBRANCH  17  18
ENDBRANCH  13  17
ENDBRANCH   1  11
BRANCH   2  21
HETATM   21  C   UNL     1      -8.129 -15.455 -37.852  1.00  0.00     0.165 C 
BRANCH  21  22
HETATM   22  C   UNL     1      -9.089 -14.831 -38.833  1.00  0.00    -0.037 A 
HETATM   23  C   UNL     1      -9.687 -15.593 -39.842  1.00  0.00     0.028 A 
HETATM   24  C   UNL     1     -10.544 -14.963 -40.732  1.00  0.00     0.116 A 
HETATM   25  N   UNL     1     -10.850 -13.650 -40.682  1.00  0.00    -0.273 NA
HETATM   26  C   UNL     1     -10.255 -12.929 -39.708  1.00  0.00     0.116 A 
HETATM   27  C   UNL     1      -9.383 -13.466 -38.773  1.00  0.00     0.028 A 
ENDBRANCH  21  22
ENDBRANCH   2  21
BRANCH  10  28
HETATM   28  C   UNL     1      -2.252 -13.964 -38.512  1.00  0.00     0.028 A 
HETATM   29  C   UNL     1      -1.051 -14.460 -37.974  1.00  0.00     0.078 A 
HETATM   30  C   UNL     1       0.060 -14.703 -38.779  1.00  0.00     0.037 A 
HETATM   31  C   UNL     1      -0.017 -14.474 -40.151  1.00  0.00     0.003 A 
HETATM   32  C   UNL     1      -1.207 -14.015 -40.712  1.00  0.00     0.001 A 
HETATM   33  C   UNL     1      -2.320 -13.767 -39.899  1.00  0.00     0.017 A 
BRANCH  29  34
HETATM   34  O   UNL     1      -0.901 -14.734 -36.638  1.00  0.00    -0.360 OA
HETATM   35  H   UNL     1      -1.119 -13.899 -36.164  1.00  0.00     0.217 HD
ENDBRANCH  29  34
ENDBRANCH  10  28
TORSDOF 8
ENDMDL
MODEL 9
REMARK VINA RESULT:      -7.7     15.803     17.511
REMARK  8 active torsions:
REMARK  status: ('A' for Active; 'I' for Inactive)
REMARK    1  A    between atoms: C_2  and  C_3 
REMARK    2  A    between atoms: C_3  and  O_4 
REMARK    3  A    between atoms: O_4  and  C_5 
REMARK    4  A    between atoms: C_7  and  C_8 
REMARK    5  A    between atoms: N_9  and  C_10 
REMARK    6  A    between atoms: C_10  and  C_11 
REMARK    7  A    between atoms: C_24  and  C_25 
REMARK    8  A    between atoms: C_26  and  O_27 
ROOT
HETATM    1  C   UNL     1      -4.951 -12.760 -38.725  1.00  0.00     0.159 C 
HETATM    2  N   UNL     1      -3.716 -12.981 -37.928  1.00  0.00    -0.329 N 
HETATM    3  C   UNL     1      -3.987 -13.279 -36.583  1.00  0.00     0.273 C 
HETATM    4  O   UNL     1      -3.230 -13.297 -35.631  1.00  0.00    -0.266 OA
HETATM    5  C   UNL     1      -5.382 -13.518 -36.574  1.00  0.00     0.129 A 
HETATM    6  C   UNL     1      -5.973 -13.258 -37.776  1.00  0.00     0.034 A 
HETATM    7  N   UNL     1      -6.321 -13.961 -35.731  1.00  0.00    -0.272 N 
HETATM    8  H   UNL     1      -6.229 -14.247 -34.759  1.00  0.00     0.189 HD
HETATM    9  N   UNL     1      -7.530 -14.056 -36.343  1.00  0.00    -0.173 NA
HETATM   10  C   UNL     1      -7.326 -13.605 -37.611  1.00  0.00     0.101 A 
ENDROOT
BRANCH   1  11
HETATM   11  C   UNL     1      -5.027 -13.543 -40.009  1.00  0.00    -0.028 A 
HETATM   12  C   UNL     1      -4.852 -14.936 -40.068  1.00  0.00     0.046 A 
HETATM   13  C   UNL     1      -4.967 -15.633 -41.276  1.00  0.00     0.069 A 
HETATM   14  C   UNL     1      -5.244 -14.930 -42.449  1.00  0.00     0.037 A 
HETATM   15  C   UNL     1      -5.398 -13.545 -42.415  1.00  0.00     0.003 A 
HETATM   16  C   UNL     1      -5.285 -12.857 -41.208  1.00  0.00     0.010 A 
BRANCH  13  17
HETATM   17  O   UNL     1      -4.776 -16.984 -41.178  1.00  0.00    -0.348 OA
BRANCH  17  18
HETATM   18  C   UNL     1      -5.743 -17.818 -41.815  1.00  0.00     0.202 C 
BRANCH  18  19
HETATM   19  C   UNL     1      -6.988 -17.786 -40.982  1.00  0.00    -0.011 C 
HETATM   20  C   UNL     1      -8.227 -17.625 -41.467  1.00  0.00     0.009 C 
ENDBRANCH  18  19
ENDBRANCH  17  18
ENDBRANCH  13  17
ENDBRANCH   1  11
BRANCH   2  21
HETATM   21  C   UNL     1      -2.436 -12.464 -38.358  1.00  0.00     0.165 C 
BRANCH  21  22
HETATM   22  C   UNL     1      -1.500 -13.547 -38.834  1.00  0.00    -0.037 A 
HETATM   23  C   UNL     1      -0.735 -14.289 -37.929  1.00  0.00     0.028 A 
HETATM   24  C   UNL     1       0.127 -15.257 -38.422  1.00  0.00     0.116 A 
HETATM   25  N   UNL     1       0.271 -15.538 -39.735  1.00  0.00    -0.273 NA
HETATM   26  C   UNL     1      -0.467 -14.805 -40.593  1.00  0.00     0.116 A 
HETATM   27  C   UNL     1      -1.355 -13.816 -40.198  1.00  0.00     0.028 A 
ENDBRANCH  21  22
ENDBRANCH   2  21
BRANCH  10  28
HETATM   28  C   UNL     1      -8.423 -13.604 -38.582  1.00  0.00     0.028 A 
HETATM   29  C   UNL     1      -9.097 -14.791 -38.921  1.00  0.00     0.078 A 
HETATM   30  C   UNL     1     -10.091 -14.808 -39.896  1.00  0.00     0.037 A 
HETATM   31  C   UNL     1     -10.450 -13.626 -40.539  1.00  0.00     0.003 A 
HETATM   32  C   UNL     1      -9.820 -12.431 -40.196  1.00  0.00     0.001 A 
HETATM   33  C   UNL     1      -8.817 -12.419 -39.220  1.00  0.00     0.017 A 
BRANCH  29  34
HETATM   34  O   UNL     1      -8.820 -15.992 -38.318  1.00  0.00    -0.360 OA
HETATM   35  H   UNL     1      -9.317 -16.672 -38.829  1.00  0.00     0.217 HD
ENDBRANCH  29  34
ENDBRANCH  10  28
TORSDOF 8
ENDMDL
MODEL 10
REMARK VINA RESULT:      -7.7      2.563      3.847
REMARK  8 active torsions:
REMARK  status: ('A' for Active; 'I' for Inactive)
REMARK    1  A    between atoms: C_2  and  C_3 
REMARK    2  A    between atoms: C_3  and  O_4 
REMARK    3  A    between atoms: O_4  and  C_5 
REMARK    4  A    between atoms: C_7  and  C_8 
REMARK    5  A    between atoms: N_9  and  C_10 
REMARK    6  A    between atoms: C_10  and  C_11 
REMARK    7  A    between atoms: C_24  and  C_25 
REMARK    8  A    between atoms: C_26  and  O_27 
ROOT
HETATM    1  C   UNL     1      -9.424   4.222 -33.396  1.00  0.00     0.159 C 
HETATM    2  N   UNL     1      -8.559   5.167 -32.642  1.00  0.00    -0.329 N 
HETATM    3  C   UNL     1      -9.295   6.144 -31.954  1.00  0.00     0.273 C 
HETATM    4  O   UNL     1      -8.910   7.174 -31.435  1.00  0.00    -0.266 OA
HETATM    5  C   UNL     1     -10.626   5.673 -32.041  1.00  0.00     0.129 A 
HETATM    6  C   UNL     1     -10.749   4.569 -32.832  1.00  0.00     0.034 A 
HETATM    7  N   UNL     1     -11.833   5.971 -31.545  1.00  0.00    -0.272 N 
HETATM    8  H   UNL     1     -12.102   6.728 -30.921  1.00  0.00     0.189 HD
HETATM    9  N   UNL     1     -12.767   5.067 -31.941  1.00  0.00    -0.173 NA
HETATM   10  C   UNL     1     -12.104   4.201 -32.755  1.00  0.00     0.101 A 
ENDROOT
BRANCH   1  11
HETATM   11  C   UNL     1      -9.135   2.765 -33.156  1.00  0.00    -0.028 A 
HETATM   12  C   UNL     1      -8.728   1.888 -34.176  1.00  0.00     0.046 A 
HETATM   13  C   UNL     1      -8.433   0.547 -33.906  1.00  0.00     0.069 A 
HETATM   14  C   UNL     1      -8.560   0.065 -32.603  1.00  0.00     0.037 A 
HETATM   15  C   UNL     1      -8.986   0.913 -31.582  1.00  0.00     0.003 A 
HETATM   16  C   UNL     1      -9.277   2.249 -31.857  1.00  0.00     0.010 A 
BRANCH  13  17
HETATM   17  O   UNL     1      -8.044  -0.185 -34.995  1.00  0.00    -0.348 OA
BRANCH  17  18
HETATM   18  C   UNL     1      -6.726  -0.730 -34.967  1.00  0.00     0.202 C 
BRANCH  18  19
HETATM   19  C   UNL     1      -6.815  -2.100 -34.365  1.00  0.00    -0.011 C 
HETATM   20  C   UNL     1      -6.396  -3.224 -34.962  1.00  0.00     0.009 C 
ENDBRANCH  18  19
ENDBRANCH  17  18
ENDBRANCH  13  17
ENDBRANCH   1  11
BRANCH   2  21
HETATM   21  C   UNL     1      -7.165   5.352 -32.983  1.00  0.00     0.165 C 
BRANCH  21  22
HETATM   22  C   UNL     1      -6.259   4.369 -32.286  1.00  0.00    -0.037 A 
HETATM   23  C   UNL     1      -6.180   4.324 -30.890  1.00  0.00     0.028 A 
HETATM   24  C   UNL     1      -5.312   3.416 -30.302  1.00  0.00     0.116 A 
HETATM   25  N   UNL     1      -4.535   2.558 -30.995  1.00  0.00    -0.273 NA
HETATM   26  C   UNL     1      -4.617   2.623 -32.341  1.00  0.00     0.116 A 
HETATM   27  C   UNL     1      -5.452   3.496 -33.021  1.00  0.00     0.028 A 
ENDBRANCH  21  22
ENDBRANCH   2  21
BRANCH  10  28
HETATM   28  C   UNL     1     -12.803   3.054 -33.341  1.00  0.00     0.028 A 
HETATM   29  C   UNL     1     -13.769   2.339 -32.611  1.00  0.00     0.078 A 
HETATM   30  C   UNL     1     -14.384   1.205 -33.137  1.00  0.00     0.037 A 
HETATM   31  C   UNL     1     -14.059   0.774 -34.421  1.00  0.00     0.003 A 
HETATM   32  C   UNL     1     -13.129   1.486 -35.176  1.00  0.00     0.001 A 
HETATM   33  C   UNL     1     -12.509   2.622 -34.643  1.00  0.00     0.017 A 
BRANCH  29  34
HETATM   34  O   UNL     1     -14.163   2.711 -31.351  1.00  0.00    -0.360 OA
HETATM   35  H   UNL     1     -13.725   3.575 -31.174  1.00  0.00     0.217 HD
ENDBRANCH  29  34
ENDBRANCH  10  28
TORSDOF 8
ENDMDL
