MODEL 1
REMARK VINA RESULT:      -9.2      0.000      0.000
REMARK  4 active torsions:
REMARK  status: ('A' for Active; 'I' for Inactive)
REMARK    1  A    between atoms: C_5  and  N_6 
REMARK       I    between atoms: N_6  and  C_7 
REMARK    2  A    between atoms: C_7  and  C_8 
REMARK    3  A    between atoms: N_10  and  C_11 
REMARK    4  A    between atoms: C_21  and  O_22 
ROOT
HETATM    1  N   UNL     1      -2.992   3.235 -32.698  1.00  0.00    -0.346 N 
HETATM    2  C   UNL     1      -3.694   2.444 -31.823  1.00  0.00     0.255 C 
HETATM    3  O   UNL     1      -4.292   2.902 -30.855  1.00  0.00    -0.268 OA
HETATM    4  H   UNL     1      -2.606   2.847 -33.547  1.00  0.00     0.163 HD
ENDROOT
BRANCH   2   5
HETATM    5  C   UNL     1      -3.722   1.030 -32.144  1.00  0.00     0.068 A 
HETATM    6  C   UNL     1      -4.450   0.353 -33.106  1.00  0.00     0.137 A 
HETATM    7  N   UNL     1      -4.191  -0.999 -32.975  1.00  0.00    -0.243 N 
HETATM    8  N   UNL     1      -3.245  -1.196 -32.010  1.00  0.00    -0.179 NA
HETATM    9  C   UNL     1      -2.994   0.011 -31.509  1.00  0.00     0.157 A 
BRANCH   7  10
HETATM   10  C   UNL     1      -4.738  -2.136 -33.657  1.00  0.00     0.079 A 
HETATM   11  C   UNL     1      -5.959  -2.169 -34.352  1.00  0.00     0.062 A 
HETATM   12 CL   UNL     1      -7.087  -0.870 -34.512  1.00  0.00    -0.082 Cl
HETATM   13  C   UNL     1      -6.379  -3.362 -34.973  1.00  0.00     0.026 A 
HETATM   14  C   UNL     1      -5.612  -4.523 -34.909  1.00  0.00     0.002 A 
HETATM   15  C   UNL     1      -4.410  -4.507 -34.222  1.00  0.00     0.002 A 
HETATM   16  C   UNL     1      -3.978  -3.330 -33.605  1.00  0.00     0.033 A 
ENDBRANCH   7  10
ENDBRANCH   2   5
BRANCH   1  17
HETATM   17  C   UNL     1      -3.032   4.679 -32.604  1.00  0.00     0.147 C 
HETATM   18  C   UNL     1      -1.781   5.246 -31.994  1.00  0.00    -0.027 A 
HETATM   19  C   UNL     1      -1.339   6.366 -32.707  1.00  0.00    -0.047 A 
HETATM   20  C   UNL     1      -1.122   4.830 -30.846  1.00  0.00     0.010 A 
HETATM   21  C   UNL     1      -0.225   7.081 -32.297  1.00  0.00     0.008 A 
HETATM   22  C   UNL     1      -2.249   6.675 -33.860  1.00  0.00     0.073 C 
HETATM   23  C   UNL     1       0.453   6.655 -31.153  1.00  0.00     0.001 A 
HETATM   24  C   UNL     1       0.006   5.539 -30.430  1.00  0.00     0.001 A 
HETATM   25  C   UNL     1      -3.045   5.366 -34.004  1.00  0.00     0.149 C 
BRANCH  25  26
HETATM   26  O   UNL     1      -2.406   4.547 -35.002  1.00  0.00    -0.393 OA
HETATM   27  H   UNL     1      -2.349   3.653 -34.623  1.00  0.00     0.210 HD
ENDBRANCH  25  26
ENDBRANCH   1  17
TORSDOF 4
ENDMDL
MODEL 2
REMARK VINA RESULT:      -8.9      6.693      8.918
REMARK  4 active torsions:
REMARK  status: ('A' for Active; 'I' for Inactive)
REMARK    1  A    between atoms: C_5  and  N_6 
REMARK       I    between atoms: N_6  and  C_7 
REMARK    2  A    between atoms: C_7  and  C_8 
REMARK    3  A    between atoms: N_10  and  C_11 
REMARK    4  A    between atoms: C_21  and  O_22 
ROOT
HETATM    1  N   UNL     1     -10.861   2.312 -32.504  1.00  0.00    -0.346 N 
HETATM    2  C   UNL     1     -10.002   2.104 -33.554  1.00  0.00     0.255 C 
HETATM    3  O   UNL     1     -10.115   2.693 -34.624  1.00  0.00    -0.268 OA
HETATM    4  H   UNL     1     -10.678   1.901 -31.599  1.00  0.00     0.163 HD
ENDROOT
BRANCH   2   5
HETATM    5  C   UNL     1      -8.920   1.173 -33.300  1.00  0.00     0.068 A 
HETATM    6  C   UNL     1      -8.263   0.317 -34.167  1.00  0.00     0.137 A 
HETATM    7  N   UNL     1      -7.351  -0.424 -33.439  1.00  0.00    -0.243 N 
HETATM    8  N   UNL     1      -7.344   0.001 -32.142  1.00  0.00    -0.179 NA
HETATM    9  C   UNL     1      -8.294   0.930 -32.067  1.00  0.00     0.157 A 
BRANCH   7  10
HETATM   10  C   UNL     1      -6.481  -1.495 -33.827  1.00  0.00     0.079 A 
HETATM   11  C   UNL     1      -5.082  -1.506 -33.698  1.00  0.00     0.062 A 
HETATM   12 CL   UNL     1      -4.096  -0.229 -33.081  1.00  0.00    -0.082 Cl
HETATM   13  C   UNL     1      -4.347  -2.628 -34.131  1.00  0.00     0.026 A 
HETATM   14  C   UNL     1      -4.977  -3.735 -34.694  1.00  0.00     0.002 A 
HETATM   15  C   UNL     1      -6.355  -3.735 -34.834  1.00  0.00     0.002 A 
HETATM   16  C   UNL     1      -7.097  -2.632 -34.406  1.00  0.00     0.033 A 
ENDBRANCH   7  10
ENDBRANCH   2   5
BRANCH   1  17
HETATM   17  C   UNL     1     -11.873   3.346 -32.553  1.00  0.00     0.147 C 
HETATM   18  C   UNL     1     -13.262   2.781 -32.635  1.00  0.00    -0.027 A 
HETATM   19  C   UNL     1     -14.130   3.457 -31.770  1.00  0.00    -0.047 A 
HETATM   20  C   UNL     1     -13.733   1.778 -33.471  1.00  0.00     0.010 A 
HETATM   21  C   UNL     1     -15.476   3.135 -31.711  1.00  0.00     0.008 A 
HETATM   22  C   UNL     1     -13.419   4.550 -31.026  1.00  0.00     0.073 C 
HETATM   23  C   UNL     1     -15.951   2.113 -32.536  1.00  0.00     0.001 A 
HETATM   24  C   UNL     1     -15.086   1.441 -33.413  1.00  0.00     0.001 A 
HETATM   25  C   UNL     1     -11.941   4.176 -31.235  1.00  0.00     0.149 C 
BRANCH  25  26
HETATM   26  O   UNL     1     -11.497   3.406 -30.101  1.00  0.00    -0.393 OA
HETATM   27  H   UNL     1     -12.236   3.407 -29.467  1.00  0.00     0.210 HD
ENDBRANCH  25  26
ENDBRANCH   1  17
TORSDOF 4
ENDMDL
MODEL 3
REMARK VINA RESULT:      -8.6      1.540      2.030
REMARK  4 active torsions:
REMARK  status: ('A' for Active; 'I' for Inactive)
REMARK    1  A    between atoms: C_5  and  N_6 
REMARK       I    between atoms: N_6  and  C_7 
REMARK    2  A    between atoms: C_7  and  C_8 
REMARK    3  A    between atoms: N_10  and  C_11 
REMARK    4  A    between atoms: C_21  and  O_22 
ROOT
HETATM    1  N   UNL     1      -3.745   4.065 -32.893  1.00  0.00    -0.346 N 
HETATM    2  C   UNL     1      -4.796   3.554 -32.175  1.00  0.00     0.255 C 
HETATM    3  O   UNL     1      -5.364   4.190 -31.294  1.00  0.00    -0.268 OA
HETATM    4  H   UNL     1      -3.371   3.565 -33.687  1.00  0.00     0.163 HD
ENDROOT
BRANCH   2   5
HETATM    5  C   UNL     1      -5.226   2.223 -32.558  1.00  0.00     0.068 A 
HETATM    6  C   UNL     1      -4.492   1.058 -32.694  1.00  0.00     0.137 A 
HETATM    7  N   UNL     1      -5.336   0.064 -33.153  1.00  0.00    -0.243 N 
HETATM    8  N   UNL     1      -6.613   0.541 -33.226  1.00  0.00    -0.179 NA
HETATM    9  C   UNL     1      -6.530   1.827 -32.895  1.00  0.00     0.157 A 
BRANCH   7  10
HETATM   10  C   UNL     1      -5.076  -1.294 -33.534  1.00  0.00     0.079 A 
HETATM   11  C   UNL     1      -4.045  -2.106 -33.031  1.00  0.00     0.062 A 
HETATM   12 CL   UNL     1      -2.844  -1.648 -31.877  1.00  0.00    -0.082 Cl
HETATM   13  C   UNL     1      -3.900  -3.426 -33.503  1.00  0.00     0.026 A 
HETATM   14  C   UNL     1      -4.756  -3.950 -34.469  1.00  0.00     0.002 A 
HETATM   15  C   UNL     1      -5.773  -3.159 -34.978  1.00  0.00     0.002 A 
HETATM   16  C   UNL     1      -5.931  -1.849 -34.517  1.00  0.00     0.033 A 
ENDBRANCH   7  10
ENDBRANCH   2   5
BRANCH   1  17
HETATM   17  C   UNL     1      -3.332   5.445 -32.743  1.00  0.00     0.147 C 
HETATM   18  C   UNL     1      -2.016   5.572 -32.030  1.00  0.00    -0.027 A 
HETATM   19  C   UNL     1      -1.190   6.506 -32.666  1.00  0.00    -0.047 A 
HETATM   20  C   UNL     1      -1.610   4.947 -30.859  1.00  0.00     0.010 A 
HETATM   21  C   UNL     1       0.059   6.822 -32.156  1.00  0.00     0.008 A 
HETATM   22  C   UNL     1      -1.866   7.110 -33.863  1.00  0.00     0.073 C 
HETATM   23  C   UNL     1       0.481   6.181 -30.989  1.00  0.00     0.001 A 
HETATM   24  C   UNL     1      -0.349   5.253 -30.343  1.00  0.00     0.001 A 
HETATM   25  C   UNL     1      -3.023   6.126 -34.112  1.00  0.00     0.149 C 
BRANCH  25  26
HETATM   26  O   UNL     1      -2.604   5.164 -35.099  1.00  0.00    -0.393 OA
HETATM   27  H   UNL     1      -1.640   5.262 -35.179  1.00  0.00     0.210 HD
ENDBRANCH  25  26
ENDBRANCH   1  17
TORSDOF 4
ENDMDL
MODEL 4
REMARK VINA RESULT:      -8.4      2.505      3.521
REMARK  4 active torsions:
REMARK  status: ('A' for Active; 'I' for Inactive)
REMARK    1  A    between atoms: C_5  and  N_6 
REMARK       I    between atoms: N_6  and  C_7 
REMARK    2  A    between atoms: C_7  and  C_8 
REMARK    3  A    between atoms: N_10  and  C_11 
REMARK    4  A    between atoms: C_21  and  O_22 
ROOT
HETATM    1  N   UNL     1      -2.329   5.078 -30.949  1.00  0.00    -0.346 N 
HETATM    2  C   UNL     1      -3.626   5.019 -31.392  1.00  0.00     0.255 C 
HETATM    3  O   UNL     1      -4.253   6.018 -31.731  1.00  0.00    -0.268 OA
HETATM    4  H   UNL     1      -1.801   4.232 -30.786  1.00  0.00     0.163 HD
ENDROOT
BRANCH   2   5
HETATM    5  C   UNL     1      -4.196   3.689 -31.481  1.00  0.00     0.068 A 
HETATM    6  C   UNL     1      -3.978   2.690 -32.412  1.00  0.00     0.137 A 
HETATM    7  N   UNL     1      -4.810   1.627 -32.114  1.00  0.00    -0.243 N 
HETATM    8  N   UNL     1      -5.491   1.886 -30.959  1.00  0.00    -0.179 NA
HETATM    9  C   UNL     1      -5.137   3.120 -30.608  1.00  0.00     0.157 A 
BRANCH   7  10
HETATM   10  C   UNL     1      -5.041   0.387 -32.796  1.00  0.00     0.079 A 
HETATM   11  C   UNL     1      -4.235  -0.761 -32.710  1.00  0.00     0.062 A 
HETATM   12 CL   UNL     1      -2.778  -0.929 -31.799  1.00  0.00    -0.082 Cl
HETATM   13  C   UNL     1      -4.578  -1.913 -33.446  1.00  0.00     0.026 A 
HETATM   14  C   UNL     1      -5.701  -1.942 -34.269  1.00  0.00     0.002 A 
HETATM   15  C   UNL     1      -6.500  -0.815 -34.369  1.00  0.00     0.002 A 
HETATM   16  C   UNL     1      -6.175   0.334 -33.643  1.00  0.00     0.033 A 
ENDBRANCH   7  10
ENDBRANCH   2   5
BRANCH   1  17
HETATM   17  C   UNL     1      -1.577   6.315 -30.985  1.00  0.00     0.147 C 
HETATM   18  C   UNL     1      -1.229   6.810 -29.609  1.00  0.00    -0.027 A 
HETATM   19  C   UNL     1       0.101   7.244 -29.555  1.00  0.00    -0.047 A 
HETATM   20  C   UNL     1      -2.059   6.927 -28.504  1.00  0.00     0.010 A 
HETATM   21  C   UNL     1       0.630   7.786 -28.394  1.00  0.00     0.008 A 
HETATM   22  C   UNL     1       0.780   7.095 -30.885  1.00  0.00     0.073 C 
HETATM   23  C   UNL     1      -0.196   7.888 -27.273  1.00  0.00     0.001 A 
HETATM   24  C   UNL     1      -1.533   7.465 -27.328  1.00  0.00     0.001 A 
HETATM   25  C   UNL     1      -0.167   6.136 -31.627  1.00  0.00     0.149 C 
BRANCH  25  26
HETATM   26  O   UNL     1       0.322   4.790 -31.465  1.00  0.00    -0.393 OA
HETATM   27  H   UNL     1      -0.463   4.232 -31.330  1.00  0.00     0.210 HD
ENDBRANCH  25  26
ENDBRANCH   1  17
TORSDOF 4
ENDMDL
MODEL 5
REMARK VINA RESULT:      -8.1      4.904      7.279
REMARK  4 active torsions:
REMARK  status: ('A' for Active; 'I' for Inactive)
REMARK    1  A    between atoms: C_5  and  N_6 
REMARK       I    between atoms: N_6  and  C_7 
REMARK    2  A    between atoms: C_7  and  C_8 
REMARK    3  A    between atoms: N_10  and  C_11 
REMARK    4  A    between atoms: C_21  and  O_22 
ROOT
HETATM    1  N   UNL     1      -8.403   2.278 -33.025  1.00  0.00    -0.346 N 
HETATM    2  C   UNL     1      -7.141   2.657 -33.407  1.00  0.00     0.255 C 
HETATM    3  O   UNL     1      -6.893   3.776 -33.844  1.00  0.00    -0.268 OA
HETATM    4  H   UNL     1      -8.557   1.393 -32.563  1.00  0.00     0.163 HD
ENDROOT
BRANCH   2   5
HETATM    5  C   UNL     1      -6.104   1.661 -33.216  1.00  0.00     0.068 A 
HETATM    6  C   UNL     1      -6.098   0.314 -33.533  1.00  0.00     0.137 A 
HETATM    7  N   UNL     1      -4.908  -0.231 -33.089  1.00  0.00    -0.243 N 
HETATM    8  N   UNL     1      -4.113   0.753 -32.577  1.00  0.00    -0.179 NA
HETATM    9  C   UNL     1      -4.842   1.865 -32.635  1.00  0.00     0.157 A 
BRANCH   7  10
HETATM   10  C   UNL     1      -4.430  -1.584 -33.091  1.00  0.00     0.079 A 
HETATM   11  C   UNL     1      -4.777  -2.577 -34.023  1.00  0.00     0.062 A 
HETATM   12 CL   UNL     1      -5.874  -2.408 -35.346  1.00  0.00    -0.082 Cl
HETATM   13  C   UNL     1      -4.236  -3.873 -33.899  1.00  0.00     0.026 A 
HETATM   14  C   UNL     1      -3.364  -4.199 -32.863  1.00  0.00     0.002 A 
HETATM   15  C   UNL     1      -3.019  -3.232 -31.933  1.00  0.00     0.002 A 
HETATM   16  C   UNL     1      -3.544  -1.942 -32.046  1.00  0.00     0.033 A 
ENDBRANCH   7  10
ENDBRANCH   2   5
BRANCH   1  17
HETATM   17  C   UNL     1      -9.495   3.227 -32.987  1.00  0.00     0.147 C 
HETATM   18  C   UNL     1     -10.766   2.658 -33.550  1.00  0.00    -0.027 A 
HETATM   19  C   UNL     1     -11.861   2.981 -32.742  1.00  0.00    -0.047 A 
HETATM   20  C   UNL     1     -10.941   1.956 -34.735  1.00  0.00     0.010 A 
HETATM   21  C   UNL     1     -13.146   2.598 -33.092  1.00  0.00     0.008 A 
HETATM   22  C   UNL     1     -11.445   3.808 -31.561  1.00  0.00     0.073 C 
HETATM   23  C   UNL     1     -13.326   1.875 -34.273  1.00  0.00     0.001 A 
HETATM   24  C   UNL     1     -12.231   1.559 -35.091  1.00  0.00     0.001 A 
HETATM   25  C   UNL     1      -9.922   3.586 -31.531  1.00  0.00     0.149 C 
BRANCH  25  26
HETATM   26  O   UNL     1      -9.632   2.513 -30.614  1.00  0.00    -0.393 OA
HETATM   27  H   UNL     1      -8.838   2.070 -30.960  1.00  0.00     0.210 HD
ENDBRANCH  25  26
ENDBRANCH   1  17
TORSDOF 4
ENDMDL
MODEL 6
REMARK VINA RESULT:      -8.1      3.824      9.424
REMARK  4 active torsions:
REMARK  status: ('A' for Active; 'I' for Inactive)
REMARK    1  A    between atoms: C_5  and  N_6 
REMARK       I    between atoms: N_6  and  C_7 
REMARK    2  A    between atoms: C_7  and  C_8 
REMARK    3  A    between atoms: N_10  and  C_11 
REMARK    4  A    between atoms: C_21  and  O_22 
ROOT
HETATM    1  N   UNL     1      -3.550   4.017 -31.017  1.00  0.00    -0.346 N 
HETATM    2  C   UNL     1      -2.760   4.761 -31.858  1.00  0.00     0.255 C 
HETATM    3  O   UNL     1      -2.916   4.769 -33.074  1.00  0.00    -0.268 OA
HETATM    4  H   UNL     1      -3.474   4.118 -30.015  1.00  0.00     0.163 HD
ENDROOT
BRANCH   2   5
HETATM    5  C   UNL     1      -1.754   5.579 -31.208  1.00  0.00     0.068 A 
HETATM    6  C   UNL     1      -1.830   6.322 -30.044  1.00  0.00     0.137 A 
HETATM    7  N   UNL     1      -0.632   6.990 -29.875  1.00  0.00    -0.243 N 
HETATM    8  N   UNL     1       0.243   6.621 -30.855  1.00  0.00    -0.179 NA
HETATM    9  C   UNL     1      -0.441   5.804 -31.652  1.00  0.00     0.157 A 
BRANCH   7  10
HETATM   10  C   UNL     1      -0.213   7.944 -28.889  1.00  0.00     0.079 A 
HETATM   11  C   UNL     1      -0.995   8.993 -28.376  1.00  0.00     0.062 A 
HETATM   12 CL   UNL     1      -2.611   9.391 -28.835  1.00  0.00    -0.082 Cl
HETATM   13  C   UNL     1      -0.450   9.865 -27.412  1.00  0.00     0.026 A 
HETATM   14  C   UNL     1       0.857   9.717 -26.955  1.00  0.00     0.002 A 
HETATM   15  C   UNL     1       1.642   8.692 -27.458  1.00  0.00     0.002 A 
HETATM   16  C   UNL     1       1.114   7.818 -28.411  1.00  0.00     0.033 A 
ENDBRANCH   7  10
ENDBRANCH   2   5
BRANCH   1  17
HETATM   17  C   UNL     1      -4.706   3.301 -31.511  1.00  0.00     0.147 C 
HETATM   18  C   UNL     1      -4.432   1.835 -31.698  1.00  0.00    -0.027 A 
HETATM   19  C   UNL     1      -5.489   1.061 -31.205  1.00  0.00    -0.047 A 
HETATM   20  C   UNL     1      -3.346   1.238 -32.322  1.00  0.00     0.010 A 
HETATM   21  C   UNL     1      -5.475  -0.321 -31.312  1.00  0.00     0.008 A 
HETATM   22  C   UNL     1      -6.585   1.922 -30.647  1.00  0.00     0.073 C 
HETATM   23  C   UNL     1      -4.375  -0.928 -31.922  1.00  0.00     0.001 A 
HETATM   24  C   UNL     1      -3.320  -0.154 -32.427  1.00  0.00     0.001 A 
HETATM   25  C   UNL     1      -5.878   3.279 -30.482  1.00  0.00     0.149 C 
BRANCH  25  26
HETATM   26  O   UNL     1      -5.395   3.384 -29.129  1.00  0.00    -0.393 OA
HETATM   27  H   UNL     1      -4.425   3.404 -29.188  1.00  0.00     0.210 HD
ENDBRANCH  25  26
ENDBRANCH   1  17
TORSDOF 4
ENDMDL
MODEL 7
REMARK VINA RESULT:      -8.0      3.325      4.457
REMARK  4 active torsions:
REMARK  status: ('A' for Active; 'I' for Inactive)
REMARK    1  A    between atoms: C_5  and  N_6 
REMARK       I    between atoms: N_6  and  C_7 
REMARK    2  A    between atoms: C_7  and  C_8 
REMARK    3  A    between atoms: N_10  and  C_11 
REMARK    4  A    between atoms: C_21  and  O_22 
ROOT
HETATM    1  N   UNL     1      -2.848   6.129 -32.117  1.00  0.00    -0.346 N 
HETATM    2  C   UNL     1      -3.434   5.952 -33.345  1.00  0.00     0.255 C 
HETATM    3  O   UNL     1      -2.964   6.426 -34.374  1.00  0.00    -0.268 OA
HETATM    4  H   UNL     1      -3.191   5.633 -31.306  1.00  0.00     0.163 HD
ENDROOT
BRANCH   2   5
HETATM    5  C   UNL     1      -4.624   5.124 -33.357  1.00  0.00     0.068 A 
HETATM    6  C   UNL     1      -4.753   3.752 -33.234  1.00  0.00     0.137 A 
HETATM    7  N   UNL     1      -6.088   3.426 -33.380  1.00  0.00    -0.243 N 
HETATM    8  N   UNL     1      -6.830   4.565 -33.503  1.00  0.00    -0.179 NA
HETATM    9  C   UNL     1      -5.949   5.563 -33.512  1.00  0.00     0.157 A 
BRANCH   7  10
HETATM   10  C   UNL     1      -6.750   2.154 -33.419  1.00  0.00     0.079 A 
HETATM   11  C   UNL     1      -7.379   1.521 -32.334  1.00  0.00     0.062 A 
HETATM   12 CL   UNL     1      -7.467   2.106 -30.711  1.00  0.00    -0.082 Cl
HETATM   13  C   UNL     1      -7.987   0.262 -32.514  1.00  0.00     0.026 A 
HETATM   14  C   UNL     1      -7.975  -0.380 -33.750  1.00  0.00     0.002 A 
HETATM   15  C   UNL     1      -7.352   0.230 -34.827  1.00  0.00     0.002 A 
HETATM   16  C   UNL     1      -6.749   1.479 -34.664  1.00  0.00     0.033 A 
ENDBRANCH   7  10
ENDBRANCH   2   5
BRANCH   1  17
HETATM   17  C   UNL     1      -1.560   6.775 -31.984  1.00  0.00     0.147 C 
HETATM   18  C   UNL     1      -1.419   7.502 -30.676  1.00  0.00    -0.027 A 
HETATM   19  C   UNL     1      -0.166   7.260 -30.102  1.00  0.00    -0.047 A 
HETATM   20  C   UNL     1      -2.320   8.370 -30.075  1.00  0.00     0.010 A 
HETATM   21  C   UNL     1       0.204   7.865 -28.911  1.00  0.00     0.008 A 
HETATM   22  C   UNL     1       0.667   6.357 -30.964  1.00  0.00     0.073 C 
HETATM   23  C   UNL     1      -0.706   8.724 -28.292  1.00  0.00     0.001 A 
HETATM   24  C   UNL     1      -1.958   8.978 -28.872  1.00  0.00     0.001 A 
HETATM   25  C   UNL     1      -0.385   5.752 -31.911  1.00  0.00     0.149 C 
BRANCH  25  26
HETATM   26  O   UNL     1      -0.816   4.488 -31.371  1.00  0.00    -0.393 OA
HETATM   27  H   UNL     1      -0.664   4.538 -30.412  1.00  0.00     0.210 HD
ENDBRANCH  25  26
ENDBRANCH   1  17
TORSDOF 4
ENDMDL
MODEL 8
REMARK VINA RESULT:      -7.9      3.016      4.615
REMARK  4 active torsions:
REMARK  status: ('A' for Active; 'I' for Inactive)
REMARK    1  A    between atoms: C_5  and  N_6 
REMARK       I    between atoms: N_6  and  C_7 
REMARK    2  A    between atoms: C_7  and  C_8 
REMARK    3  A    between atoms: N_10  and  C_11 
REMARK    4  A    between atoms: C_21  and  O_22 
ROOT
HETATM    1  N   UNL     1      -1.781   6.109 -30.306  1.00  0.00    -0.346 N 
HETATM    2  C   UNL     1      -1.867   5.403 -31.479  1.00  0.00     0.255 C 
HETATM    3  O   UNL     1      -1.084   5.570 -32.408  1.00  0.00    -0.268 OA
HETATM    4  H   UNL     1      -2.365   5.871 -29.517  1.00  0.00     0.163 HD
ENDROOT
BRANCH   2   5
HETATM    5  C   UNL     1      -2.921   4.408 -31.534  1.00  0.00     0.068 A 
HETATM    6  C   UNL     1      -2.956   3.188 -32.184  1.00  0.00     0.137 A 
HETATM    7  N   UNL     1      -4.208   2.632 -31.998  1.00  0.00    -0.243 N 
HETATM    8  N   UNL     1      -4.945   3.426 -31.168  1.00  0.00    -0.179 NA
HETATM    9  C   UNL     1      -4.181   4.487 -30.920  1.00  0.00     0.157 A 
BRANCH   7  10
HETATM   10  C   UNL     1      -4.795   1.431 -32.518  1.00  0.00     0.079 A 
HETATM   11  C   UNL     1      -5.882   1.364 -33.405  1.00  0.00     0.062 A 
HETATM   12 CL   UNL     1      -6.775   2.699 -34.041  1.00  0.00    -0.082 Cl
HETATM   13  C   UNL     1      -6.363   0.109 -33.830  1.00  0.00     0.026 A 
HETATM   14  C   UNL     1      -5.788  -1.078 -33.383  1.00  0.00     0.002 A 
HETATM   15  C   UNL     1      -4.720  -1.027 -32.502  1.00  0.00     0.002 A 
HETATM   16  C   UNL     1      -4.230   0.209 -32.075  1.00  0.00     0.033 A 
ENDBRANCH   7  10
ENDBRANCH   2   5
BRANCH   1  17
HETATM   17  C   UNL     1      -0.670   7.000 -30.044  1.00  0.00     0.147 C 
HETATM   18  C   UNL     1      -1.098   8.251 -29.331  1.00  0.00    -0.027 A 
HETATM   19  C   UNL     1      -0.213   8.564 -28.293  1.00  0.00    -0.047 A 
HETATM   20  C   UNL     1      -2.166   9.087 -29.630  1.00  0.00     0.010 A 
HETATM   21  C   UNL     1      -0.385   9.706 -27.526  1.00  0.00     0.008 A 
HETATM   22  C   UNL     1       0.904   7.566 -28.207  1.00  0.00     0.073 C 
HETATM   23  C   UNL     1      -1.469  10.539 -27.809  1.00  0.00     0.001 A 
HETATM   24  C   UNL     1      -2.351  10.234 -28.857  1.00  0.00     0.001 A 
HETATM   25  C   UNL     1       0.356   6.393 -29.038  1.00  0.00     0.149 C 
BRANCH  25  26
HETATM   26  O   UNL     1      -0.271   5.451 -28.146  1.00  0.00    -0.393 OA
HETATM   27  H   UNL     1      -1.038   5.093 -28.626  1.00  0.00     0.210 HD
ENDBRANCH  25  26
ENDBRANCH   1  17
TORSDOF 4
ENDMDL
MODEL 9
REMARK VINA RESULT:      -7.9      3.704      8.906
REMARK  4 active torsions:
REMARK  status: ('A' for Active; 'I' for Inactive)
REMARK    1  A    between atoms: C_5  and  N_6 
REMARK       I    between atoms: N_6  and  C_7 
REMARK    2  A    between atoms: C_7  and  C_8 
REMARK    3  A    between atoms: N_10  and  C_11 
REMARK    4  A    between atoms: C_21  and  O_22 
ROOT
HETATM    1  N   UNL     1      -4.730   4.225 -33.510  1.00  0.00    -0.346 N 
HETATM    2  C   UNL     1      -4.030   5.128 -34.269  1.00  0.00     0.255 C 
HETATM    3  O   UNL     1      -4.242   5.287 -35.467  1.00  0.00    -0.268 OA
HETATM    4  H   UNL     1      -4.616   4.197 -32.507  1.00  0.00     0.163 HD
ENDROOT
BRANCH   2   5
HETATM    5  C   UNL     1      -3.052   5.922 -33.552  1.00  0.00     0.068 A 
HETATM    6  C   UNL     1      -2.705   5.906 -32.213  1.00  0.00     0.137 A 
HETATM    7  N   UNL     1      -1.770   6.901 -31.993  1.00  0.00    -0.243 N 
HETATM    8  N   UNL     1      -1.443   7.494 -33.178  1.00  0.00    -0.179 NA
HETATM    9  C   UNL     1      -2.227   6.923 -34.090  1.00  0.00     0.157 A 
BRANCH   7  10
HETATM   10  C   UNL     1      -1.147   7.361 -30.787  1.00  0.00     0.079 A 
HETATM   11  C   UNL     1       0.039   6.853 -30.228  1.00  0.00     0.062 A 
HETATM   12 CL   UNL     1       0.989   5.548 -30.843  1.00  0.00    -0.082 Cl
HETATM   13  C   UNL     1       0.536   7.398 -29.027  1.00  0.00     0.026 A 
HETATM   14  C   UNL     1      -0.126   8.431 -28.369  1.00  0.00     0.002 A 
HETATM   15  C   UNL     1      -1.300   8.936 -28.904  1.00  0.00     0.002 A 
HETATM   16  C   UNL     1      -1.803   8.409 -30.096  1.00  0.00     0.033 A 
ENDBRANCH   7  10
ENDBRANCH   2   5
BRANCH   1  17
HETATM   17  C   UNL     1      -5.859   3.500 -34.054  1.00  0.00     0.147 C 
HETATM   18  C   UNL     1      -6.086   2.190 -33.355  1.00  0.00    -0.027 A 
HETATM   19  C   UNL     1      -7.446   1.992 -33.090  1.00  0.00    -0.047 A 
HETATM   20  C   UNL     1      -5.152   1.214 -33.036  1.00  0.00     0.010 A 
HETATM   21  C   UNL     1      -7.896   0.827 -32.490  1.00  0.00     0.008 A 
HETATM   22  C   UNL     1      -8.274   3.140 -33.591  1.00  0.00     0.073 C 
HETATM   23  C   UNL     1      -6.958  -0.150 -32.149  1.00  0.00     0.001 A 
HETATM   24  C   UNL     1      -5.596   0.041 -32.424  1.00  0.00     0.001 A 
HETATM   25  C   UNL     1      -7.213   4.234 -33.808  1.00  0.00     0.149 C 
BRANCH  25  26
HETATM   26  O   UNL     1      -7.160   5.062 -32.631  1.00  0.00    -0.393 OA
HETATM   27  H   UNL     1      -6.240   5.368 -32.557  1.00  0.00     0.210 HD
ENDBRANCH  25  26
ENDBRANCH   1  17
TORSDOF 4
ENDMDL
MODEL 10
REMARK VINA RESULT:      -7.8      6.911      9.529
REMARK  4 active torsions:
REMARK  status: ('A' for Active; 'I' for Inactive)
REMARK    1  A    between atoms: C_5  and  N_6 
REMARK       I    between atoms: N_6  and  C_7 
REMARK    2  A    between atoms: C_7  and  C_8 
REMARK    3  A    between atoms: N_10  and  C_11 
REMARK    4  A    between atoms: C_21  and  O_22 
ROOT
HETATM    1  N   UNL     1      -8.825   0.858 -32.992  1.00  0.00    -0.346 N 
HETATM    2  C   UNL     1     -10.124   0.432 -33.109  1.00  0.00     0.255 C 
HETATM    3  O   UNL     1     -10.507  -0.645 -32.665  1.00  0.00    -0.268 OA
HETATM    4  H   UNL     1      -8.563   1.795 -33.264  1.00  0.00     0.163 HD
ENDROOT
BRANCH   2   5
HETATM    5  C   UNL     1     -11.031   1.362 -33.754  1.00  0.00     0.068 A 
HETATM    6  C   UNL     1     -11.211   2.716 -33.542  1.00  0.00     0.137 A 
HETATM    7  N   UNL     1     -12.246   3.149 -34.351  1.00  0.00    -0.243 N 
HETATM    8  N   UNL     1     -12.671   2.122 -35.143  1.00  0.00    -0.179 NA
HETATM    9  C   UNL     1     -11.961   1.063 -34.763  1.00  0.00     0.157 A 
BRANCH   7  10
HETATM   10  C   UNL     1     -12.885   4.428 -34.464  1.00  0.00     0.079 A 
HETATM   11  C   UNL     1     -13.583   5.092 -33.441  1.00  0.00     0.062 A 
HETATM   12 CL   UNL     1     -13.859   4.509 -31.839  1.00  0.00    -0.082 Cl
HETATM   13  C   UNL     1     -14.172   6.347 -33.695  1.00  0.00     0.026 A 
HETATM   14  C   UNL     1     -14.084   6.949 -34.947  1.00  0.00     0.002 A 
HETATM   15  C   UNL     1     -13.405   6.304 -35.967  1.00  0.00     0.002 A 
HETATM   16  C   UNL     1     -12.813   5.061 -35.729  1.00  0.00     0.033 A 
ENDBRANCH   7  10
ENDBRANCH   2   5
BRANCH   1  17
HETATM   17  C   UNL     1      -7.857   0.116 -32.212  1.00  0.00     0.147 C 
HETATM   18  C   UNL     1      -6.944  -0.711 -33.073  1.00  0.00    -0.027 A 
HETATM   19  C   UNL     1      -5.616  -0.598 -32.647  1.00  0.00    -0.047 A 
HETATM   20  C   UNL     1      -7.284  -1.556 -34.120  1.00  0.00     0.010 A 
HETATM   21  C   UNL     1      -4.603  -1.312 -33.267  1.00  0.00     0.008 A 
HETATM   22  C   UNL     1      -5.499   0.304 -31.453  1.00  0.00     0.073 C 
HETATM   23  C   UNL     1      -4.937  -2.148 -34.334  1.00  0.00     0.001 A 
HETATM   24  C   UNL     1      -6.269  -2.272 -34.756  1.00  0.00     0.001 A 
HETATM   25  C   UNL     1      -6.847   1.047 -31.475  1.00  0.00     0.149 C 
BRANCH  25  26
HETATM   26  O   UNL     1      -6.672   2.296 -32.171  1.00  0.00    -0.393 OA
HETATM   27  H   UNL     1      -5.714   2.462 -32.192  1.00  0.00     0.210 HD
ENDBRANCH  25  26
ENDBRANCH   1  17
TORSDOF 4
ENDMDL
