MODEL 1
REMARK VINA RESULT:      -9.0      0.000      0.000
REMARK  5 active torsions:
REMARK  status: ('A' for Active; 'I' for Inactive)
REMARK    1  A    between atoms: O_2  and  C_3 
REMARK    2  A    between atoms: C_4  and  C_5 
REMARK    3  A    between atoms: C_9  and  N_10 
REMARK       I    between atoms: N_10  and  C_11 
REMARK    4  A    between atoms: C_11  and  C_12 
REMARK    5  A    between atoms: C_12  and  C_13 
ROOT
HETATM    1  C   UNL     1      -3.389   4.595 -31.957  1.00  0.00     0.093 A 
HETATM    2  N   UNL     1      -4.583   5.209 -31.909  1.00  0.00    -0.172 NA
HETATM    3  N   UNL     1      -5.474   4.220 -32.093  1.00  0.00    -0.262 N 
HETATM    4  H   UNL     1      -6.468   4.435 -32.114  1.00  0.00     0.191 HD
HETATM    5  C   UNL     1      -4.906   2.980 -32.207  1.00  0.00     0.126 A 
HETATM    6  C   UNL     1      -3.550   3.190 -32.131  1.00  0.00     0.084 A 
ENDROOT
BRANCH   5   7
HETATM    7  N   UNL     1      -5.613   1.805 -32.353  1.00  0.00    -0.311 N 
HETATM    8  C   UNL     1      -6.318   1.520 -33.507  1.00  0.00     0.236 C 
HETATM    9  O   UNL     1      -6.373   2.231 -34.506  1.00  0.00    -0.272 OA
HETATM   10  H   UNL     1      -5.632   1.148 -31.584  1.00  0.00     0.170 HD
BRANCH   8  11
HETATM   11  C   UNL     1      -7.079   0.218 -33.456  1.00  0.00     0.068 A 
HETATM   12  C   UNL     1      -8.160   0.094 -32.383  1.00  0.00     0.026 A 
HETATM   13  C   UNL     1      -8.564   0.228 -33.815  1.00  0.00     0.026 A 
BRANCH  11  14
HETATM   14  C   UNL     1      -6.254  -1.033 -33.747  1.00  0.00    -0.039 A 
HETATM   15  C   UNL     1      -6.777  -2.124 -34.463  1.00  0.00     0.032 A 
HETATM   16  C   UNL     1      -5.996  -3.252 -34.730  1.00  0.00     0.034 A 
HETATM   17 CL   UNL     1      -6.677  -4.568 -35.605  1.00  0.00    -0.084 Cl
HETATM   18  C   UNL     1      -4.676  -3.317 -34.298  1.00  0.00     0.024 A 
HETATM   19  C   UNL     1      -4.131  -2.248 -33.594  1.00  0.00     0.002 A 
HETATM   20  C   UNL     1      -4.913  -1.122 -33.324  1.00  0.00     0.008 A 
ENDBRANCH  11  14
ENDBRANCH   8  11
ENDBRANCH   5   7
BRANCH   1  21
HETATM   21  C   UNL     1      -2.132   5.319 -31.781  1.00  0.00     0.029 A 
HETATM   22  C   UNL     1      -1.577   6.132 -32.784  1.00  0.00     0.081 A 
HETATM   23  C   UNL     1      -0.357   6.788 -32.581  1.00  0.00     0.039 A 
HETATM   24  C   UNL     1       0.307   6.664 -31.362  1.00  0.00     0.026 A 
HETATM   25  C   UNL     1      -0.243   5.872 -30.357  1.00  0.00     0.035 A 
HETATM   26  C   UNL     1      -1.450   5.201 -30.559  1.00  0.00     0.040 A 
HETATM   27 CL   UNL     1       0.581   5.709 -28.854  1.00  0.00    -0.084 Cl
BRANCH  22  28
HETATM   28  O   UNL     1      -2.160   6.220 -34.023  1.00  0.00    -0.355 OA
HETATM   29  C   UNL     1      -1.530   5.318 -34.935  1.00  0.00     0.210 C 
ENDBRANCH  22  28
ENDBRANCH   1  21
TORSDOF 5
ENDMDL
MODEL 2
REMARK VINA RESULT:      -8.8      1.341      1.594
REMARK  5 active torsions:
REMARK  status: ('A' for Active; 'I' for Inactive)
REMARK    1  A    between atoms: O_2  and  C_3 
REMARK    2  A    between atoms: C_4  and  C_5 
REMARK    3  A    between atoms: C_9  and  N_10 
REMARK       I    between atoms: N_10  and  C_11 
REMARK    4  A    between atoms: C_11  and  C_12 
REMARK    5  A    between atoms: C_12  and  C_13 
ROOT
HETATM    1  C   UNL     1      -3.342   4.847 -32.149  1.00  0.00     0.093 A 
HETATM    2  N   UNL     1      -4.528   5.362 -31.785  1.00  0.00    -0.172 NA
HETATM    3  N   UNL     1      -5.430   4.478 -32.243  1.00  0.00    -0.262 N 
HETATM    4  H   UNL     1      -6.423   4.653 -32.104  1.00  0.00     0.191 HD
HETATM    5  C   UNL     1      -4.872   3.382 -32.844  1.00  0.00     0.126 A 
HETATM    6  C   UNL     1      -3.516   3.595 -32.807  1.00  0.00     0.084 A 
ENDROOT
BRANCH   5   7
HETATM    7  N   UNL     1      -5.587   2.316 -33.349  1.00  0.00    -0.311 N 
HETATM    8  C   UNL     1      -6.444   1.575 -32.559  1.00  0.00     0.236 C 
HETATM    9  O   UNL     1      -6.683   1.783 -31.373  1.00  0.00    -0.272 OA
HETATM   10  H   UNL     1      -5.460   2.060 -34.320  1.00  0.00     0.170 HD
BRANCH   8  11
HETATM   11  C   UNL     1      -7.087   0.411 -33.272  1.00  0.00     0.068 A 
HETATM   12  C   UNL     1      -8.524   0.072 -32.878  1.00  0.00     0.026 A 
HETATM   13  C   UNL     1      -8.259   0.691 -34.212  1.00  0.00     0.026 A 
BRANCH  11  14
HETATM   14  C   UNL     1      -6.160  -0.765 -33.570  1.00  0.00    -0.039 A 
HETATM   15  C   UNL     1      -5.115  -1.130 -32.705  1.00  0.00     0.032 A 
HETATM   16  C   UNL     1      -4.289  -2.221 -32.992  1.00  0.00     0.034 A 
HETATM   17 CL   UNL     1      -3.016  -2.631 -31.909  1.00  0.00    -0.084 Cl
HETATM   18  C   UNL     1      -4.489  -2.976 -34.142  1.00  0.00     0.024 A 
HETATM   19  C   UNL     1      -5.522  -2.641 -35.012  1.00  0.00     0.002 A 
HETATM   20  C   UNL     1      -6.345  -1.549 -34.726  1.00  0.00     0.008 A 
ENDBRANCH  11  14
ENDBRANCH   8  11
ENDBRANCH   5   7
BRANCH   1  21
HETATM   21  C   UNL     1      -2.075   5.500 -31.825  1.00  0.00     0.029 A 
HETATM   22  C   UNL     1      -1.401   6.339 -32.728  1.00  0.00     0.081 A 
HETATM   23  C   UNL     1      -0.177   6.925 -32.383  1.00  0.00     0.039 A 
HETATM   24  C   UNL     1       0.373   6.703 -31.121  1.00  0.00     0.026 A 
HETATM   25  C   UNL     1      -0.296   5.884 -30.215  1.00  0.00     0.035 A 
HETATM   26  C   UNL     1      -1.508   5.283 -30.558  1.00  0.00     0.040 A 
HETATM   27 CL   UNL     1       0.384   5.600 -28.660  1.00  0.00    -0.084 Cl
BRANCH  22  28
HETATM   28  O   UNL     1      -1.869   6.522 -34.004  1.00  0.00    -0.355 OA
HETATM   29  C   UNL     1      -1.227   5.616 -34.904  1.00  0.00     0.210 C 
ENDBRANCH  22  28
ENDBRANCH   1  21
TORSDOF 5
ENDMDL
MODEL 3
REMARK VINA RESULT:      -8.8      2.111      9.304
REMARK  5 active torsions:
REMARK  status: ('A' for Active; 'I' for Inactive)
REMARK    1  A    between atoms: O_2  and  C_3 
REMARK    2  A    between atoms: C_4  and  C_5 
REMARK    3  A    between atoms: C_9  and  N_10 
REMARK       I    between atoms: N_10  and  C_11 
REMARK    4  A    between atoms: C_11  and  C_12 
REMARK    5  A    between atoms: C_12  and  C_13 
ROOT
HETATM    1  C   UNL     1      -4.785   1.802 -32.307  1.00  0.00     0.093 A 
HETATM    2  N   UNL     1      -4.511   1.870 -30.995  1.00  0.00    -0.172 NA
HETATM    3  N   UNL     1      -3.868   3.041 -30.849  1.00  0.00    -0.262 N 
HETATM    4  H   UNL     1      -3.535   3.322 -29.930  1.00  0.00     0.191 HD
HETATM    5  C   UNL     1      -3.762   3.759 -32.010  1.00  0.00     0.126 A 
HETATM    6  C   UNL     1      -4.341   2.977 -32.979  1.00  0.00     0.084 A 
ENDROOT
BRANCH   5   7
HETATM    7  N   UNL     1      -3.188   5.009 -32.107  1.00  0.00    -0.311 N 
HETATM    8  C   UNL     1      -1.888   5.246 -31.705  1.00  0.00     0.236 C 
HETATM    9  O   UNL     1      -1.112   4.405 -31.261  1.00  0.00    -0.272 OA
HETATM   10  H   UNL     1      -3.747   5.776 -32.461  1.00  0.00     0.170 HD
BRANCH   8  11
HETATM   11  C   UNL     1      -1.459   6.688 -31.829  1.00  0.00     0.068 A 
HETATM   12  C   UNL     1      -0.755   7.088 -33.125  1.00  0.00     0.026 A 
HETATM   13  C   UNL     1      -2.147   7.566 -32.872  1.00  0.00     0.026 A 
BRANCH  11  14
HETATM   14  C   UNL     1      -0.944   7.328 -30.541  1.00  0.00    -0.039 A 
HETATM   15  C   UNL     1      -1.721   8.228 -29.792  1.00  0.00     0.032 A 
HETATM   16  C   UNL     1      -1.234   8.789 -28.608  1.00  0.00     0.034 A 
HETATM   17 CL   UNL     1      -2.216   9.891 -27.724  1.00  0.00    -0.084 Cl
HETATM   18  C   UNL     1       0.034   8.463 -28.140  1.00  0.00     0.024 A 
HETATM   19  C   UNL     1       0.821   7.568 -28.859  1.00  0.00     0.002 A 
HETATM   20  C   UNL     1       0.334   7.010 -30.044  1.00  0.00     0.008 A 
ENDBRANCH  11  14
ENDBRANCH   8  11
ENDBRANCH   5   7
BRANCH   1  21
HETATM   21  C   UNL     1      -5.506   0.674 -32.896  1.00  0.00     0.029 A 
HETATM   22  C   UNL     1      -6.901   0.669 -33.063  1.00  0.00     0.081 A 
HETATM   23  C   UNL     1      -7.554  -0.443 -33.610  1.00  0.00     0.039 A 
HETATM   24  C   UNL     1      -6.815  -1.551 -34.023  1.00  0.00     0.026 A 
HETATM   25  C   UNL     1      -5.430  -1.548 -33.875  1.00  0.00     0.035 A 
HETATM   26  C   UNL     1      -4.776  -0.450 -33.315  1.00  0.00     0.040 A 
HETATM   27 CL   UNL     1      -4.517  -2.919 -34.376  1.00  0.00    -0.084 Cl
BRANCH  22  28
HETATM   28  O   UNL     1      -7.671   1.706 -32.600  1.00  0.00    -0.355 OA
HETATM   29  C   UNL     1      -8.535   1.257 -31.554  1.00  0.00     0.210 C 
ENDBRANCH  22  28
ENDBRANCH   1  21
TORSDOF 5
ENDMDL
MODEL 4
REMARK VINA RESULT:      -8.8      2.399      9.289
REMARK  5 active torsions:
REMARK  status: ('A' for Active; 'I' for Inactive)
REMARK    1  A    between atoms: O_2  and  C_3 
REMARK    2  A    between atoms: C_4  and  C_5 
REMARK    3  A    between atoms: C_9  and  N_10 
REMARK       I    between atoms: N_10  and  C_11 
REMARK    4  A    between atoms: C_11  and  C_12 
REMARK    5  A    between atoms: C_12  and  C_13 
ROOT
HETATM    1  C   UNL     1      -4.308   1.770 -32.117  1.00  0.00     0.093 A 
HETATM    2  N   UNL     1      -4.797   2.161 -30.929  1.00  0.00    -0.172 NA
HETATM    3  N   UNL     1      -4.043   3.220 -30.590  1.00  0.00    -0.262 N 
HETATM    4  H   UNL     1      -4.209   3.695 -29.706  1.00  0.00     0.191 HD
HETATM    5  C   UNL     1      -3.117   3.563 -31.539  1.00  0.00     0.126 A 
HETATM    6  C   UNL     1      -3.258   2.635 -32.541  1.00  0.00     0.084 A 
ENDROOT
BRANCH   5   7
HETATM    7  N   UNL     1      -2.261   4.640 -31.444  1.00  0.00    -0.311 N 
HETATM    8  C   UNL     1      -2.723   5.917 -31.189  1.00  0.00     0.236 C 
HETATM    9  O   UNL     1      -3.895   6.228 -30.996  1.00  0.00    -0.272 OA
HETATM   10  H   UNL     1      -1.271   4.490 -31.589  1.00  0.00     0.170 HD
BRANCH   8  11
HETATM   11  C   UNL     1      -1.645   6.973 -31.185  1.00  0.00     0.068 A 
HETATM   12  C   UNL     1      -0.914   7.215 -32.505  1.00  0.00     0.026 A 
HETATM   13  C   UNL     1      -1.869   8.246 -31.998  1.00  0.00     0.026 A 
BRANCH  11  14
HETATM   14  C   UNL     1      -0.805   7.043 -29.912  1.00  0.00    -0.039 A 
HETATM   15  C   UNL     1      -0.768   8.192 -29.103  1.00  0.00     0.032 A 
HETATM   16  C   UNL     1      -0.004   8.226 -27.934  1.00  0.00     0.034 A 
HETATM   17 CL   UNL     1       0.019   9.655 -26.975  1.00  0.00    -0.084 Cl
HETATM   18  C   UNL     1       0.736   7.117 -27.539  1.00  0.00     0.024 A 
HETATM   19  C   UNL     1       0.711   5.963 -28.317  1.00  0.00     0.002 A 
HETATM   20  C   UNL     1      -0.052   5.931 -29.488  1.00  0.00     0.008 A 
ENDBRANCH  11  14
ENDBRANCH   8  11
ENDBRANCH   5   7
BRANCH   1  21
HETATM   21  C   UNL     1      -4.867   0.640 -32.857  1.00  0.00     0.029 A 
HETATM   22  C   UNL     1      -4.309  -0.648 -32.811  1.00  0.00     0.081 A 
HETATM   23  C   UNL     1      -4.863  -1.696 -33.556  1.00  0.00     0.039 A 
HETATM   24  C   UNL     1      -6.001  -1.476 -34.331  1.00  0.00     0.026 A 
HETATM   25  C   UNL     1      -6.569  -0.205 -34.371  1.00  0.00     0.035 A 
HETATM   26  C   UNL     1      -6.012   0.849 -33.645  1.00  0.00     0.040 A 
HETATM   27 CL   UNL     1      -7.968   0.073 -35.335  1.00  0.00    -0.084 Cl
BRANCH  22  28
HETATM   28  O   UNL     1      -3.147  -0.889 -32.122  1.00  0.00    -0.355 OA
HETATM   29  C   UNL     1      -2.997  -2.288 -31.874  1.00  0.00     0.210 C 
ENDBRANCH  22  28
ENDBRANCH   1  21
TORSDOF 5
ENDMDL
MODEL 5
REMARK VINA RESULT:      -8.6      5.176      8.587
REMARK  5 active torsions:
REMARK  status: ('A' for Active; 'I' for Inactive)
REMARK    1  A    between atoms: O_2  and  C_3 
REMARK    2  A    between atoms: C_4  and  C_5 
REMARK    3  A    between atoms: C_9  and  N_10 
REMARK       I    between atoms: N_10  and  C_11 
REMARK    4  A    between atoms: C_11  and  C_12 
REMARK    5  A    between atoms: C_12  and  C_13 
ROOT
HETATM    1  C   UNL     1      -7.745  -0.196 -34.092  1.00  0.00     0.093 A 
HETATM    2  N   UNL     1      -8.139   0.493 -35.175  1.00  0.00    -0.172 NA
HETATM    3  N   UNL     1      -9.167   1.241 -34.738  1.00  0.00    -0.262 N 
HETATM    4  H   UNL     1      -9.657   1.852 -35.387  1.00  0.00     0.191 HD
HETATM    5  C   UNL     1      -9.419   1.102 -33.399  1.00  0.00     0.126 A 
HETATM    6  C   UNL     1      -8.518   0.168 -32.952  1.00  0.00     0.084 A 
ENDROOT
BRANCH   5   7
HETATM    7  N   UNL     1     -10.390   1.798 -32.709  1.00  0.00    -0.311 N 
HETATM    8  C   UNL     1     -10.771   3.073 -33.078  1.00  0.00     0.236 C 
HETATM    9  O   UNL     1     -10.334   3.701 -34.039  1.00  0.00    -0.272 OA
HETATM   10  H   UNL     1     -10.813   1.368 -31.897  1.00  0.00     0.170 HD
BRANCH   8  11
HETATM   11  C   UNL     1     -11.799   3.696 -32.166  1.00  0.00     0.068 A 
HETATM   12  C   UNL     1     -11.349   4.020 -30.742  1.00  0.00     0.026 A 
HETATM   13  C   UNL     1     -11.586   5.137 -31.706  1.00  0.00     0.026 A 
BRANCH  11  14
HETATM   14  C   UNL     1     -13.224   3.173 -32.334  1.00  0.00    -0.039 A 
HETATM   15  C   UNL     1     -13.542   2.150 -33.244  1.00  0.00     0.032 A 
HETATM   16  C   UNL     1     -14.851   1.677 -33.368  1.00  0.00     0.034 A 
HETATM   17 CL   UNL     1     -15.199   0.428 -34.499  1.00  0.00    -0.084 Cl
HETATM   18  C   UNL     1     -15.872   2.207 -32.586  1.00  0.00     0.024 A 
HETATM   19  C   UNL     1     -15.583   3.215 -31.672  1.00  0.00     0.002 A 
HETATM   20  C   UNL     1     -14.274   3.689 -31.550  1.00  0.00     0.008 A 
ENDBRANCH  11  14
ENDBRANCH   8  11
ENDBRANCH   5   7
BRANCH   1  21
HETATM   21  C   UNL     1      -6.621  -1.131 -34.129  1.00  0.00     0.029 A 
HETATM   22  C   UNL     1      -5.347  -0.805 -33.636  1.00  0.00     0.081 A 
HETATM   23  C   UNL     1      -4.293  -1.724 -33.714  1.00  0.00     0.039 A 
HETATM   24  C   UNL     1      -4.509  -2.989 -34.258  1.00  0.00     0.026 A 
HETATM   25  C   UNL     1      -5.773  -3.325 -34.735  1.00  0.00     0.035 A 
HETATM   26  C   UNL     1      -6.824  -2.409 -34.676  1.00  0.00     0.040 A 
HETATM   27 CL   UNL     1      -6.040  -4.884 -35.415  1.00  0.00    -0.084 Cl
BRANCH  22  28
HETATM   28  O   UNL     1      -5.073   0.453 -33.164  1.00  0.00    -0.355 OA
HETATM   29  C   UNL     1      -4.906   0.427 -31.745  1.00  0.00     0.210 C 
ENDBRANCH  22  28
ENDBRANCH   1  21
TORSDOF 5
ENDMDL
MODEL 6
REMARK VINA RESULT:      -8.6      2.381      9.347
REMARK  5 active torsions:
REMARK  status: ('A' for Active; 'I' for Inactive)
REMARK    1  A    between atoms: O_2  and  C_3 
REMARK    2  A    between atoms: C_4  and  C_5 
REMARK    3  A    between atoms: C_9  and  N_10 
REMARK       I    between atoms: N_10  and  C_11 
REMARK    4  A    between atoms: C_11  and  C_12 
REMARK    5  A    between atoms: C_12  and  C_13 
ROOT
HETATM    1  C   UNL     1      -4.909   1.953 -32.173  1.00  0.00     0.093 A 
HETATM    2  N   UNL     1      -4.509   1.993 -30.892  1.00  0.00    -0.172 NA
HETATM    3  N   UNL     1      -3.836   3.152 -30.790  1.00  0.00    -0.262 N 
HETATM    4  H   UNL     1      -3.411   3.412 -29.903  1.00  0.00     0.191 HD
HETATM    5  C   UNL     1      -3.831   3.890 -31.943  1.00  0.00     0.126 A 
HETATM    6  C   UNL     1      -4.513   3.133 -32.864  1.00  0.00     0.084 A 
ENDROOT
BRANCH   5   7
HETATM    7  N   UNL     1      -3.250   5.133 -32.075  1.00  0.00    -0.311 N 
HETATM    8  C   UNL     1      -1.951   5.376 -31.672  1.00  0.00     0.236 C 
HETATM    9  O   UNL     1      -1.182   4.544 -31.198  1.00  0.00    -0.272 OA
HETATM   10  H   UNL     1      -3.802   5.892 -32.455  1.00  0.00     0.170 HD
BRANCH   8  11
HETATM   11  C   UNL     1      -1.513   6.810 -31.837  1.00  0.00     0.068 A 
HETATM   12  C   UNL     1      -0.563   7.111 -32.995  1.00  0.00     0.026 A 
HETATM   13  C   UNL     1      -1.980   7.578 -33.072  1.00  0.00     0.026 A 
BRANCH  11  14
HETATM   14  C   UNL     1      -1.273   7.573 -30.535  1.00  0.00    -0.039 A 
HETATM   15  C   UNL     1      -0.179   7.295 -29.698  1.00  0.00     0.032 A 
HETATM   16  C   UNL     1       0.028   8.017 -28.519  1.00  0.00     0.034 A 
HETATM   17 CL   UNL     1       1.377   7.642 -27.519  1.00  0.00    -0.084 Cl
HETATM   18  C   UNL     1      -0.844   9.035 -28.151  1.00  0.00     0.024 A 
HETATM   19  C   UNL     1      -1.931   9.335 -28.966  1.00  0.00     0.002 A 
HETATM   20  C   UNL     1      -2.139   8.611 -30.143  1.00  0.00     0.008 A 
ENDBRANCH  11  14
ENDBRANCH   8  11
ENDBRANCH   5   7
BRANCH   1  21
HETATM   21  C   UNL     1      -5.701   0.846 -32.708  1.00  0.00     0.029 A 
HETATM   22  C   UNL     1      -5.120  -0.337 -33.194  1.00  0.00     0.081 A 
HETATM   23  C   UNL     1      -5.916  -1.362 -33.720  1.00  0.00     0.039 A 
HETATM   24  C   UNL     1      -7.304  -1.229 -33.737  1.00  0.00     0.026 A 
HETATM   25  C   UNL     1      -7.889  -0.065 -33.243  1.00  0.00     0.035 A 
HETATM   26  C   UNL     1      -7.100   0.968 -32.734  1.00  0.00     0.040 A 
HETATM   27 CL   UNL     1      -9.601   0.106 -33.272  1.00  0.00    -0.084 Cl
BRANCH  22  28
HETATM   28  O   UNL     1      -3.757  -0.477 -33.265  1.00  0.00    -0.355 OA
HETATM   29  C   UNL     1      -3.287  -1.314 -32.208  1.00  0.00     0.210 C 
ENDBRANCH  22  28
ENDBRANCH   1  21
TORSDOF 5
ENDMDL
MODEL 7
REMARK VINA RESULT:      -8.2      2.003      8.950
REMARK  5 active torsions:
REMARK  status: ('A' for Active; 'I' for Inactive)
REMARK    1  A    between atoms: O_2  and  C_3 
REMARK    2  A    between atoms: C_4  and  C_5 
REMARK    3  A    between atoms: C_9  and  N_10 
REMARK       I    between atoms: N_10  and  C_11 
REMARK    4  A    between atoms: C_11  and  C_12 
REMARK    5  A    between atoms: C_12  and  C_13 
ROOT
HETATM    1  C   UNL     1      -4.924   0.006 -32.633  1.00  0.00     0.093 A 
HETATM    2  N   UNL     1      -4.638   0.036 -31.322  1.00  0.00    -0.172 NA
HETATM    3  N   UNL     1      -4.432   1.337 -31.055  1.00  0.00    -0.262 N 
HETATM    4  H   UNL     1      -4.179   1.624 -30.112  1.00  0.00     0.191 HD
HETATM    5  C   UNL     1      -4.627   2.158 -32.133  1.00  0.00     0.126 A 
HETATM    6  C   UNL     1      -4.939   1.323 -33.177  1.00  0.00     0.084 A 
ENDROOT
BRANCH   5   7
HETATM    7  N   UNL     1      -4.523   3.533 -32.099  1.00  0.00    -0.311 N 
HETATM    8  C   UNL     1      -3.338   4.165 -31.775  1.00  0.00     0.236 C 
HETATM    9  O   UNL     1      -2.275   3.605 -31.519  1.00  0.00    -0.272 OA
HETATM   10  H   UNL     1      -5.346   4.089 -32.294  1.00  0.00     0.170 HD
BRANCH   8  11
HETATM   11  C   UNL     1      -3.437   5.670 -31.728  1.00  0.00     0.068 A 
HETATM   12  C   UNL     1      -3.199   6.417 -33.040  1.00  0.00     0.026 A 
HETATM   13  C   UNL     1      -4.581   6.349 -32.477  1.00  0.00     0.026 A 
BRANCH  11  14
HETATM   14  C   UNL     1      -2.891   6.320 -30.458  1.00  0.00    -0.039 A 
HETATM   15  C   UNL     1      -1.521   6.581 -30.281  1.00  0.00     0.032 A 
HETATM   16  C   UNL     1      -1.048   7.191 -29.117  1.00  0.00     0.034 A 
HETATM   17 CL   UNL     1       0.638   7.487 -28.938  1.00  0.00    -0.084 Cl
HETATM   18  C   UNL     1      -1.927   7.561 -28.105  1.00  0.00     0.024 A 
HETATM   19  C   UNL     1      -3.289   7.322 -28.257  1.00  0.00     0.002 A 
HETATM   20  C   UNL     1      -3.761   6.709 -29.421  1.00  0.00     0.008 A 
ENDBRANCH  11  14
ENDBRANCH   8  11
ENDBRANCH   5   7
BRANCH   1  21
HETATM   21  C   UNL     1      -5.236  -1.237 -33.336  1.00  0.00     0.029 A 
HETATM   22  C   UNL     1      -6.471  -1.463 -33.967  1.00  0.00     0.081 A 
HETATM   23  C   UNL     1      -6.735  -2.680 -34.608  1.00  0.00     0.039 A 
HETATM   24  C   UNL     1      -5.757  -3.673 -34.652  1.00  0.00     0.026 A 
HETATM   25  C   UNL     1      -4.525  -3.451 -34.041  1.00  0.00     0.035 A 
HETATM   26  C   UNL     1      -4.261  -2.247 -33.386  1.00  0.00     0.040 A 
HETATM   27 CL   UNL     1      -3.319  -4.679 -34.086  1.00  0.00    -0.084 Cl
BRANCH  22  28
HETATM   28  O   UNL     1      -7.485  -0.544 -33.882  1.00  0.00    -0.355 OA
HETATM   29  C   UNL     1      -7.769   0.005 -35.171  1.00  0.00     0.210 C 
ENDBRANCH  22  28
ENDBRANCH   1  21
TORSDOF 5
ENDMDL
MODEL 8
REMARK VINA RESULT:      -8.1      2.085      2.466
REMARK  5 active torsions:
REMARK  status: ('A' for Active; 'I' for Inactive)
REMARK    1  A    between atoms: O_2  and  C_3 
REMARK    2  A    between atoms: C_4  and  C_5 
REMARK    3  A    between atoms: C_9  and  N_10 
REMARK       I    between atoms: N_10  and  C_11 
REMARK    4  A    between atoms: C_11  and  C_12 
REMARK    5  A    between atoms: C_12  and  C_13 
ROOT
HETATM    1  C   UNL     1      -2.846   4.878 -31.661  1.00  0.00     0.093 A 
HETATM    2  N   UNL     1      -2.279   4.438 -32.796  1.00  0.00    -0.172 NA
HETATM    3  N   UNL     1      -2.879   3.259 -33.033  1.00  0.00    -0.262 N 
HETATM    4  H   UNL     1      -2.606   2.709 -33.844  1.00  0.00     0.191 HD
HETATM    5  C   UNL     1      -3.851   2.942 -32.122  1.00  0.00     0.126 A 
HETATM    6  C   UNL     1      -3.848   3.971 -31.212  1.00  0.00     0.084 A 
ENDROOT
BRANCH   5   7
HETATM    7  N   UNL     1      -4.638   1.811 -32.178  1.00  0.00    -0.311 N 
HETATM    8  C   UNL     1      -5.669   1.687 -33.089  1.00  0.00     0.236 C 
HETATM    9  O   UNL     1      -5.977   2.518 -33.938  1.00  0.00    -0.272 OA
HETATM   10  H   UNL     1      -4.466   1.064 -31.517  1.00  0.00     0.170 HD
BRANCH   8  11
HETATM   11  C   UNL     1      -6.457   0.407 -32.955  1.00  0.00     0.068 A 
HETATM   12  C   UNL     1      -7.414   0.308 -31.768  1.00  0.00     0.026 A 
HETATM   13  C   UNL     1      -7.972   0.460 -33.146  1.00  0.00     0.026 A 
BRANCH  11  14
HETATM   14  C   UNL     1      -5.705  -0.866 -33.340  1.00  0.00    -0.039 A 
HETATM   15  C   UNL     1      -4.699  -1.413 -32.525  1.00  0.00     0.032 A 
HETATM   16  C   UNL     1      -4.035  -2.588 -32.891  1.00  0.00     0.034 A 
HETATM   17 CL   UNL     1      -2.805  -3.222 -31.868  1.00  0.00    -0.084 Cl
HETATM   18  C   UNL     1      -4.362  -3.246 -34.071  1.00  0.00     0.024 A 
HETATM   19  C   UNL     1      -5.359  -2.729 -34.892  1.00  0.00     0.002 A 
HETATM   20  C   UNL     1      -6.020  -1.554 -34.527  1.00  0.00     0.008 A 
ENDBRANCH  11  14
ENDBRANCH   8  11
ENDBRANCH   5   7
BRANCH   1  21
HETATM   21  C   UNL     1      -2.485   6.158 -31.053  1.00  0.00     0.029 A 
HETATM   22  C   UNL     1      -3.303   7.296 -31.141  1.00  0.00     0.081 A 
HETATM   23  C   UNL     1      -2.906   8.509 -30.564  1.00  0.00     0.039 A 
HETATM   24  C   UNL     1      -1.701   8.589 -29.867  1.00  0.00     0.026 A 
HETATM   25  C   UNL     1      -0.891   7.461 -29.764  1.00  0.00     0.035 A 
HETATM   26  C   UNL     1      -1.272   6.253 -30.350  1.00  0.00     0.040 A 
HETATM   27 CL   UNL     1       0.601   7.559 -28.911  1.00  0.00    -0.084 Cl
BRANCH  22  28
HETATM   28  O   UNL     1      -4.458   7.281 -31.881  1.00  0.00    -0.355 OA
HETATM   29  C   UNL     1      -5.593   7.479 -31.036  1.00  0.00     0.210 C 
ENDBRANCH  22  28
ENDBRANCH   1  21
TORSDOF 5
ENDMDL
MODEL 9
REMARK VINA RESULT:      -8.1      2.144      2.352
REMARK  5 active torsions:
REMARK  status: ('A' for Active; 'I' for Inactive)
REMARK    1  A    between atoms: O_2  and  C_3 
REMARK    2  A    between atoms: C_4  and  C_5 
REMARK    3  A    between atoms: C_9  and  N_10 
REMARK       I    between atoms: N_10  and  C_11 
REMARK    4  A    between atoms: C_11  and  C_12 
REMARK    5  A    between atoms: C_12  and  C_13 
ROOT
HETATM    1  C   UNL     1      -4.700   5.192 -31.592  1.00  0.00     0.093 A 
HETATM    2  N   UNL     1      -5.242   4.631 -30.500  1.00  0.00    -0.172 NA
HETATM    3  N   UNL     1      -5.945   3.588 -30.974  1.00  0.00    -0.262 N 
HETATM    4  H   UNL     1      -6.471   3.001 -30.332  1.00  0.00     0.191 HD
HETATM    5  C   UNL     1      -5.836   3.422 -32.329  1.00  0.00     0.126 A 
HETATM    6  C   UNL     1      -5.040   4.454 -32.762  1.00  0.00     0.084 A 
ENDROOT
BRANCH   5   7
HETATM    7  N   UNL     1      -6.424   2.398 -33.042  1.00  0.00    -0.311 N 
HETATM    8  C   UNL     1      -6.711   1.178 -32.460  1.00  0.00     0.236 C 
HETATM    9  O   UNL     1      -6.514   0.882 -31.285  1.00  0.00    -0.272 OA
HETATM   10  H   UNL     1      -6.627   2.541 -34.023  1.00  0.00     0.170 HD
BRANCH   8  11
HETATM   11  C   UNL     1      -7.294   0.164 -33.413  1.00  0.00     0.068 A 
HETATM   12  C   UNL     1      -8.785  -0.138 -33.271  1.00  0.00     0.026 A 
HETATM   13  C   UNL     1      -8.306   0.639 -34.454  1.00  0.00     0.026 A 
BRANCH  11  14
HETATM   14  C   UNL     1      -6.383  -1.015 -33.748  1.00  0.00    -0.039 A 
HETATM   15  C   UNL     1      -6.852  -2.153 -34.427  1.00  0.00     0.032 A 
HETATM   16  C   UNL     1      -5.996  -3.213 -34.736  1.00  0.00     0.034 A 
HETATM   17 CL   UNL     1      -6.612  -4.590 -35.564  1.00  0.00    -0.084 Cl
HETATM   18  C   UNL     1      -4.652  -3.163 -34.381  1.00  0.00     0.024 A 
HETATM   19  C   UNL     1      -4.159  -2.045 -33.714  1.00  0.00     0.002 A 
HETATM   20  C   UNL     1      -5.018  -0.987 -33.404  1.00  0.00     0.008 A 
ENDBRANCH  11  14
ENDBRANCH   8  11
ENDBRANCH   5   7
BRANCH   1  21
HETATM   21  C   UNL     1      -3.831   6.366 -31.517  1.00  0.00     0.029 A 
HETATM   22  C   UNL     1      -2.444   6.298 -31.733  1.00  0.00     0.081 A 
HETATM   23  C   UNL     1      -1.646   7.443 -31.627  1.00  0.00     0.039 A 
HETATM   24  C   UNL     1      -2.229   8.675 -31.333  1.00  0.00     0.026 A 
HETATM   25  C   UNL     1      -3.605   8.753 -31.132  1.00  0.00     0.035 A 
HETATM   26  C   UNL     1      -4.404   7.613 -31.219  1.00  0.00     0.040 A 
HETATM   27 CL   UNL     1      -4.326  10.272 -30.760  1.00  0.00    -0.084 Cl
BRANCH  22  28
HETATM   28  O   UNL     1      -1.821   5.095 -31.949  1.00  0.00    -0.355 OA
HETATM   29  C   UNL     1      -0.410   5.225 -31.769  1.00  0.00     0.210 C 
ENDBRANCH  22  28
ENDBRANCH   1  21
TORSDOF 5
ENDMDL
MODEL 10
REMARK VINA RESULT:      -8.1      2.355      2.945
REMARK  5 active torsions:
REMARK  status: ('A' for Active; 'I' for Inactive)
REMARK    1  A    between atoms: O_2  and  C_3 
REMARK    2  A    between atoms: C_4  and  C_5 
REMARK    3  A    between atoms: C_9  and  N_10 
REMARK       I    between atoms: N_10  and  C_11 
REMARK    4  A    between atoms: C_11  and  C_12 
REMARK    5  A    between atoms: C_12  and  C_13 
ROOT
HETATM    1  C   UNL     1      -2.192   5.078 -31.626  1.00  0.00     0.093 A 
HETATM    2  N   UNL     1      -1.738   4.758 -32.849  1.00  0.00    -0.172 NA
HETATM    3  N   UNL     1      -2.588   3.812 -33.283  1.00  0.00    -0.262 N 
HETATM    4  H   UNL     1      -2.446   3.388 -34.197  1.00  0.00     0.191 HD
HETATM    5  C   UNL     1      -3.607   3.545 -32.409  1.00  0.00     0.126 A 
HETATM    6  C   UNL     1      -3.374   4.345 -31.318  1.00  0.00     0.084 A 
ENDROOT
BRANCH   5   7
HETATM    7  N   UNL     1      -4.630   2.651 -32.649  1.00  0.00    -0.311 N 
HETATM    8  C   UNL     1      -4.773   1.494 -31.907  1.00  0.00     0.236 C 
HETATM    9  O   UNL     1      -4.059   1.153 -30.968  1.00  0.00    -0.272 OA
HETATM   10  H   UNL     1      -5.275   2.839 -33.405  1.00  0.00     0.170 HD
BRANCH   8  11
HETATM   11  C   UNL     1      -5.911   0.611 -32.358  1.00  0.00     0.068 A 
HETATM   12  C   UNL     1      -7.131   0.538 -31.440  1.00  0.00     0.026 A 
HETATM   13  C   UNL     1      -7.236   1.268 -32.740  1.00  0.00     0.026 A 
BRANCH  11  14
HETATM   14  C   UNL     1      -5.496  -0.684 -33.054  1.00  0.00    -0.039 A 
HETATM   15  C   UNL     1      -4.558  -1.567 -32.491  1.00  0.00     0.032 A 
HETATM   16  C   UNL     1      -4.206  -2.753 -33.140  1.00  0.00     0.034 A 
HETATM   17 CL   UNL     1      -3.049  -3.804 -32.420  1.00  0.00    -0.084 Cl
HETATM   18  C   UNL     1      -4.783  -3.091 -34.359  1.00  0.00     0.024 A 
HETATM   19  C   UNL     1      -5.720  -2.238 -34.935  1.00  0.00     0.002 A 
HETATM   20  C   UNL     1      -6.069  -1.051 -34.286  1.00  0.00     0.008 A 
ENDBRANCH  11  14
ENDBRANCH   8  11
ENDBRANCH   5   7
BRANCH   1  21
HETATM   21  C   UNL     1      -1.551   6.099 -30.799  1.00  0.00     0.029 A 
HETATM   22  C   UNL     1      -0.248   5.959 -30.294  1.00  0.00     0.081 A 
HETATM   23  C   UNL     1       0.317   6.953 -29.485  1.00  0.00     0.039 A 
HETATM   24  C   UNL     1      -0.403   8.111 -29.197  1.00  0.00     0.026 A 
HETATM   25  C   UNL     1      -1.690   8.264 -29.706  1.00  0.00     0.035 A 
HETATM   26  C   UNL     1      -2.266   7.271 -30.498  1.00  0.00     0.040 A 
HETATM   27 CL   UNL     1      -2.585   9.690 -29.344  1.00  0.00    -0.084 Cl
BRANCH  22  28
HETATM   28  O   UNL     1       0.465   4.803 -30.491  1.00  0.00    -0.355 OA
HETATM   29  C   UNL     1       1.182   4.453 -29.306  1.00  0.00     0.210 C 
ENDBRANCH  22  28
ENDBRANCH   1  21
TORSDOF 5
ENDMDL
