MODEL 1
REMARK VINA RESULT:      -8.3      0.000      0.000
REMARK  2 active torsions:
REMARK  status: ('A' for Active; 'I' for Inactive)
REMARK    1  A    between atoms: C_4  and  C_5 
REMARK    2  A    between atoms: C_10  and  C_11 
ROOT
HETATM    1  C   UNL     1      -3.971   4.250 -31.802  1.00  0.00     0.202 C 
HETATM    2  N   UNL     1      -5.421   4.197 -31.727  1.00  0.00    -0.331 N 
HETATM    3  C   UNL     1      -6.127   5.419 -31.400  1.00  0.00     0.155 C 
HETATM    4  C   UNL     1      -6.122   3.137 -32.282  1.00  0.00     0.256 C 
HETATM    5  O   UNL     1      -7.326   3.166 -32.523  1.00  0.00    -0.267 OA
HETATM    6  C   UNL     1      -5.341   1.916 -32.582  1.00  0.00     0.053 A 
HETATM    7  C   UNL     1      -4.002   1.872 -32.179  1.00  0.00     0.026 A 
HETATM    8  N   UNL     1      -3.431   2.937 -31.469  1.00  0.00    -0.266 NA
HETATM    9  C   UNL     1      -5.941   0.827 -33.226  1.00  0.00     0.019 A 
HETATM   10  C   UNL     1      -5.204  -0.334 -33.449  1.00  0.00     0.001 A 
HETATM   11  C   UNL     1      -3.883  -0.407 -33.012  1.00  0.00     0.002 A 
HETATM   12  C   UNL     1      -3.291   0.682 -32.364  1.00  0.00     0.024 A 
HETATM   13  H   UNL     1      -2.415   2.942 -31.516  1.00  0.00     0.130 HD
ENDROOT
BRANCH   1  14
HETATM   14  C   UNL     1      -3.510   4.835 -33.112  1.00  0.00     0.029 A 
HETATM   15  C   UNL     1      -2.274   5.497 -33.365  1.00  0.00     0.121 A 
HETATM   16  N   UNL     1      -2.166   5.898 -34.639  1.00  0.00    -0.172 NA
HETATM   17  N   UNL     1      -3.306   5.485 -35.209  1.00  0.00    -0.288 N 
HETATM   18  H   UNL     1      -3.449   5.673 -36.196  1.00  0.00     0.188 HD
HETATM   19  C   UNL     1      -4.141   4.846 -34.345  1.00  0.00     0.122 A 
BRANCH  15  20
HETATM   20  C   UNL     1      -1.181   5.742 -32.373  1.00  0.00     0.106 A 
HETATM   21  O   UNL     1      -0.689   4.807 -31.504  1.00  0.00    -0.313 OA
HETATM   22  C   UNL     1       0.277   5.408 -30.757  1.00  0.00     0.050 A 
HETATM   23  C   UNL     1       0.934   4.576 -29.728  1.00  0.00     0.076 C 
HETATM   24  C   UNL     1       0.428   6.721 -31.144  1.00  0.00     0.035 A 
HETATM   25  C   UNL     1      -0.508   6.935 -32.185  1.00  0.00     0.042 A 
ENDBRANCH  15  20
ENDBRANCH   1  14
TORSDOF 2
ENDMDL
MODEL 2
REMARK VINA RESULT:      -7.6      3.149      6.614
REMARK  2 active torsions:
REMARK  status: ('A' for Active; 'I' for Inactive)
REMARK    1  A    between atoms: C_4  and  C_5 
REMARK    2  A    between atoms: C_10  and  C_11 
ROOT
HETATM    1  C   UNL     1      -5.728   2.924 -32.765  1.00  0.00     0.202 C 
HETATM    2  N   UNL     1      -4.429   2.321 -32.520  1.00  0.00    -0.331 N 
HETATM    3  C   UNL     1      -3.433   3.116 -31.827  1.00  0.00     0.155 C 
HETATM    4  C   UNL     1      -4.253   0.949 -32.617  1.00  0.00     0.256 C 
HETATM    5  O   UNL     1      -3.292   0.348 -32.143  1.00  0.00    -0.267 OA
HETATM    6  C   UNL     1      -5.302   0.202 -33.345  1.00  0.00     0.053 A 
HETATM    7  C   UNL     1      -6.313   0.930 -33.981  1.00  0.00     0.026 A 
HETATM    8  N   UNL     1      -6.306   2.332 -33.964  1.00  0.00    -0.266 NA
HETATM    9  C   UNL     1      -5.259  -1.196 -33.419  1.00  0.00     0.019 A 
HETATM   10  C   UNL     1      -6.225  -1.878 -34.156  1.00  0.00     0.001 A 
HETATM   11  C   UNL     1      -7.212  -1.162 -34.830  1.00  0.00     0.002 A 
HETATM   12  C   UNL     1      -7.246   0.235 -34.758  1.00  0.00     0.024 A 
HETATM   13  H   UNL     1      -7.220   2.732 -34.161  1.00  0.00     0.130 HD
ENDROOT
BRANCH   1  14
HETATM   14  C   UNL     1      -6.593   2.884 -31.531  1.00  0.00     0.029 A 
HETATM   15  C   UNL     1      -8.012   3.004 -31.478  1.00  0.00     0.121 A 
HETATM   16  N   UNL     1      -8.480   2.922 -30.224  1.00  0.00    -0.172 NA
HETATM   17  N   UNL     1      -7.383   2.732 -29.479  1.00  0.00    -0.288 N 
HETATM   18  H   UNL     1      -7.493   2.630 -28.475  1.00  0.00     0.188 HD
HETATM   19  C   UNL     1      -6.234   2.701 -30.206  1.00  0.00     0.122 A 
BRANCH  15  20
HETATM   20  C   UNL     1      -8.929   3.194 -32.643  1.00  0.00     0.106 A 
HETATM   21  O   UNL     1      -8.964   4.307 -33.438  1.00  0.00    -0.313 OA
HETATM   22  C   UNL     1      -9.934   4.115 -34.374  1.00  0.00     0.050 A 
HETATM   23  C   UNL     1     -10.159   5.215 -35.334  1.00  0.00     0.076 C 
HETATM   24  C   UNL     1     -10.518   2.879 -34.204  1.00  0.00     0.035 A 
HETATM   25  C   UNL     1      -9.870   2.286 -33.093  1.00  0.00     0.042 A 
ENDBRANCH  15  20
ENDBRANCH   1  14
TORSDOF 2
ENDMDL
MODEL 3
REMARK VINA RESULT:      -7.4     17.633     19.202
REMARK  2 active torsions:
REMARK  status: ('A' for Active; 'I' for Inactive)
REMARK    1  A    between atoms: C_4  and  C_5 
REMARK    2  A    between atoms: C_10  and  C_11 
ROOT
HETATM    1  C   UNL     1      -5.945 -13.144 -39.606  1.00  0.00     0.202 C 
HETATM    2  N   UNL     1      -6.053 -14.450 -40.232  1.00  0.00    -0.331 N 
HETATM    3  C   UNL     1      -4.856 -15.265 -40.311  1.00  0.00     0.155 C 
HETATM    4  C   UNL     1      -7.290 -15.044 -40.427  1.00  0.00     0.256 C 
HETATM    5  O   UNL     1      -7.445 -16.240 -40.664  1.00  0.00    -0.267 OA
HETATM    6  C   UNL     1      -8.469 -14.153 -40.343  1.00  0.00     0.053 A 
HETATM    7  C   UNL     1      -8.250 -12.779 -40.200  1.00  0.00     0.026 A 
HETATM    8  N   UNL     1      -6.948 -12.258 -40.182  1.00  0.00    -0.266 NA
HETATM    9  C   UNL     1      -9.765 -14.675 -40.436  1.00  0.00     0.019 A 
HETATM   10  C   UNL     1     -10.859 -13.813 -40.411  1.00  0.00     0.001 A 
HETATM   11  C   UNL     1     -10.653 -12.438 -40.313  1.00  0.00     0.002 A 
HETATM   12  C   UNL     1      -9.355 -11.923 -40.226  1.00  0.00     0.024 A 
HETATM   13  H   UNL     1      -6.900 -11.334 -39.760  1.00  0.00     0.130 HD
ENDROOT
BRANCH   1  14
HETATM   14  C   UNL     1      -5.954 -13.254 -38.103  1.00  0.00     0.029 A 
HETATM   15  C   UNL     1      -4.818 -13.296 -37.242  1.00  0.00     0.121 A 
HETATM   16  N   UNL     1      -5.165 -13.392 -35.951  1.00  0.00    -0.172 NA
HETATM   17  N   UNL     1      -6.505 -13.392 -35.973  1.00  0.00    -0.288 N 
HETATM   18  H   UNL     1      -7.003 -13.449 -35.090  1.00  0.00     0.188 HD
HETATM   19  C   UNL     1      -7.025 -13.311 -37.227  1.00  0.00     0.122 A 
BRANCH  15  20
HETATM   20  C   UNL     1      -3.385 -13.238 -37.664  1.00  0.00     0.106 A 
HETATM   21  O   UNL     1      -2.492 -14.268 -37.544  1.00  0.00    -0.313 OA
HETATM   22  C   UNL     1      -1.293 -13.830 -38.017  1.00  0.00     0.050 A 
HETATM   23  C   UNL     1      -0.168 -14.786 -37.962  1.00  0.00     0.076 C 
HETATM   24  C   UNL     1      -1.404 -12.529 -38.457  1.00  0.00     0.035 A 
HETATM   25  C   UNL     1      -2.749 -12.150 -38.232  1.00  0.00     0.042 A 
ENDBRANCH  15  20
ENDBRANCH   1  14
TORSDOF 2
ENDMDL
MODEL 4
REMARK VINA RESULT:      -7.4     17.531     19.498
REMARK  2 active torsions:
REMARK  status: ('A' for Active; 'I' for Inactive)
REMARK    1  A    between atoms: C_4  and  C_5 
REMARK    2  A    between atoms: C_10  and  C_11 
ROOT
HETATM    1  C   UNL     1      -6.016 -12.856 -38.418  1.00  0.00     0.202 C 
HETATM    2  N   UNL     1      -6.154 -13.521 -37.133  1.00  0.00    -0.331 N 
HETATM    3  C   UNL     1      -7.489 -13.877 -36.695  1.00  0.00     0.155 C 
HETATM    4  C   UNL     1      -5.059 -14.106 -36.516  1.00  0.00     0.256 C 
HETATM    5  O   UNL     1      -5.146 -14.927 -35.605  1.00  0.00    -0.267 OA
HETATM    6  C   UNL     1      -3.727 -13.689 -37.005  1.00  0.00     0.053 A 
HETATM    7  C   UNL     1      -3.662 -12.662 -37.953  1.00  0.00     0.026 A 
HETATM    8  N   UNL     1      -4.826 -12.015 -38.390  1.00  0.00    -0.266 NA
HETATM    9  C   UNL     1      -2.565 -14.290 -36.507  1.00  0.00     0.019 A 
HETATM   10  C   UNL     1      -1.317 -13.845 -36.939  1.00  0.00     0.001 A 
HETATM   11  C   UNL     1      -1.237 -12.792 -37.849  1.00  0.00     0.002 A 
HETATM   12  C   UNL     1      -2.402 -12.192 -38.339  1.00  0.00     0.024 A 
HETATM   13  H   UNL     1      -4.700 -11.538 -39.279  1.00  0.00     0.130 HD
ENDROOT
BRANCH   1  14
HETATM   14  C   UNL     1      -6.098 -13.840 -39.557  1.00  0.00     0.029 A 
HETATM   15  C   UNL     1      -7.248 -14.150 -40.337  1.00  0.00     0.121 A 
HETATM   16  N   UNL     1      -6.988 -15.067 -41.280  1.00  0.00    -0.172 NA
HETATM   17  N   UNL     1      -5.684 -15.332 -41.126  1.00  0.00    -0.288 N 
HETATM   18  H   UNL     1      -5.251 -16.007 -41.749  1.00  0.00     0.188 HD
HETATM   19  C   UNL     1      -5.106 -14.629 -40.115  1.00  0.00     0.122 A 
BRANCH  15  20
HETATM   20  C   UNL     1      -8.612 -13.556 -40.181  1.00  0.00     0.106 A 
HETATM   21  O   UNL     1      -8.975 -12.308 -40.609  1.00  0.00    -0.313 OA
HETATM   22  C   UNL     1     -10.281 -12.121 -40.274  1.00  0.00     0.050 A 
HETATM   23  C   UNL     1     -10.878 -10.817 -40.627  1.00  0.00     0.076 C 
HETATM   24  C   UNL     1     -10.774 -13.244 -39.647  1.00  0.00     0.035 A 
HETATM   25  C   UNL     1      -9.702 -14.167 -39.589  1.00  0.00     0.042 A 
ENDBRANCH  15  20
ENDBRANCH   1  14
TORSDOF 2
ENDMDL
MODEL 5
REMARK VINA RESULT:      -7.4      2.493      6.360
REMARK  2 active torsions:
REMARK  status: ('A' for Active; 'I' for Inactive)
REMARK    1  A    between atoms: C_4  and  C_5 
REMARK    2  A    between atoms: C_10  and  C_11 
ROOT
HETATM    1  C   UNL     1      -6.244   2.917 -32.625  1.00  0.00     0.202 C 
HETATM    2  N   UNL     1      -6.802   4.247 -32.449  1.00  0.00    -0.331 N 
HETATM    3  C   UNL     1      -8.246   4.375 -32.405  1.00  0.00     0.155 C 
HETATM    4  C   UNL     1      -6.015   5.292 -31.992  1.00  0.00     0.256 C 
HETATM    5  O   UNL     1      -6.467   6.341 -31.539  1.00  0.00    -0.267 OA
HETATM    6  C   UNL     1      -4.550   5.099 -32.076  1.00  0.00     0.053 A 
HETATM    7  C   UNL     1      -4.071   3.949 -32.713  1.00  0.00     0.026 A 
HETATM    8  N   UNL     1      -4.954   3.030 -33.295  1.00  0.00    -0.266 NA
HETATM    9  C   UNL     1      -3.674   6.060 -31.557  1.00  0.00     0.019 A 
HETATM   10  C   UNL     1      -2.299   5.886 -31.696  1.00  0.00     0.001 A 
HETATM   11  C   UNL     1      -1.809   4.767 -32.367  1.00  0.00     0.002 A 
HETATM   12  C   UNL     1      -2.690   3.814 -32.889  1.00  0.00     0.024 A 
HETATM   13  H   UNL     1      -4.536   2.113 -33.430  1.00  0.00     0.130 HD
ENDROOT
BRANCH   1  14
HETATM   14  C   UNL     1      -6.246   2.145 -31.331  1.00  0.00     0.029 A 
HETATM   15  C   UNL     1      -5.994   0.753 -31.166  1.00  0.00     0.121 A 
HETATM   16  N   UNL     1      -6.066   0.374 -29.882  1.00  0.00    -0.172 NA
HETATM   17  N   UNL     1      -6.341   1.508 -29.223  1.00  0.00    -0.288 N 
HETATM   18  H   UNL     1      -6.435   1.469 -28.213  1.00  0.00     0.188 HD
HETATM   19  C   UNL     1      -6.458   2.591 -30.037  1.00  0.00     0.122 A 
BRANCH  15  20
HETATM   20  C   UNL     1      -5.674  -0.225 -32.252  1.00  0.00     0.106 A 
HETATM   21  O   UNL     1      -6.599  -0.972 -32.929  1.00  0.00    -0.313 OA
HETATM   22  C   UNL     1      -5.927  -1.749 -33.822  1.00  0.00     0.050 A 
HETATM   23  C   UNL     1      -6.739  -2.661 -34.653  1.00  0.00     0.076 C 
HETATM   24  C   UNL     1      -4.575  -1.501 -33.741  1.00  0.00     0.035 A 
HETATM   25  C   UNL     1      -4.412  -0.520 -32.734  1.00  0.00     0.042 A 
ENDBRANCH  15  20
ENDBRANCH   1  14
TORSDOF 2
ENDMDL
MODEL 6
REMARK VINA RESULT:      -7.3      2.828      6.761
REMARK  2 active torsions:
REMARK  status: ('A' for Active; 'I' for Inactive)
REMARK    1  A    between atoms: C_4  and  C_5 
REMARK    2  A    between atoms: C_10  and  C_11 
ROOT
HETATM    1  C   UNL     1      -6.056   3.055 -32.826  1.00  0.00     0.202 C 
HETATM    2  N   UNL     1      -4.680   3.517 -32.760  1.00  0.00    -0.331 N 
HETATM    3  C   UNL     1      -4.441   4.945 -32.842  1.00  0.00     0.155 C 
HETATM    4  C   UNL     1      -3.674   2.688 -32.289  1.00  0.00     0.256 C 
HETATM    5  O   UNL     1      -2.572   3.089 -31.926  1.00  0.00    -0.267 OA
HETATM    6  C   UNL     1      -3.983   1.241 -32.242  1.00  0.00     0.053 A 
HETATM    7  C   UNL     1      -5.198   0.806 -32.781  1.00  0.00     0.026 A 
HETATM    8  N   UNL     1      -6.077   1.711 -33.391  1.00  0.00    -0.266 NA
HETATM    9  C   UNL     1      -3.064   0.335 -31.698  1.00  0.00     0.019 A 
HETATM   10  C   UNL     1      -3.349  -1.029 -31.713  1.00  0.00     0.001 A 
HETATM   11  C   UNL     1      -4.536  -1.480 -32.288  1.00  0.00     0.002 A 
HETATM   12  C   UNL     1      -5.447  -0.569 -32.835  1.00  0.00     0.024 A 
HETATM   13  H   UNL     1      -7.029   1.358 -33.447  1.00  0.00     0.130 HD
ENDROOT
BRANCH   1  14
HETATM   14  C   UNL     1      -6.755   3.220 -31.501  1.00  0.00     0.029 A 
HETATM   15  C   UNL     1      -8.033   2.705 -31.138  1.00  0.00     0.121 A 
HETATM   16  N   UNL     1      -8.369   3.025 -29.881  1.00  0.00    -0.172 NA
HETATM   17  N   UNL     1      -7.317   3.721 -29.429  1.00  0.00    -0.288 N 
HETATM   18  H   UNL     1      -7.340   4.068 -28.475  1.00  0.00     0.188 HD
HETATM   19  C   UNL     1      -6.328   3.866 -30.352  1.00  0.00     0.122 A 
BRANCH  15  20
HETATM   20  C   UNL     1      -8.939   1.892 -32.006  1.00  0.00     0.106 A 
HETATM   21  O   UNL     1      -9.753   2.401 -32.981  1.00  0.00    -0.313 OA
HETATM   22  C   UNL     1     -10.432   1.359 -33.536  1.00  0.00     0.050 A 
HETATM   23  C   UNL     1     -11.394   1.688 -34.608  1.00  0.00     0.076 C 
HETATM   24  C   UNL     1     -10.052   0.176 -32.941  1.00  0.00     0.035 A 
HETATM   25  C   UNL     1      -9.091   0.518 -31.959  1.00  0.00     0.042 A 
ENDBRANCH  15  20
ENDBRANCH   1  14
TORSDOF 2
ENDMDL
MODEL 7
REMARK VINA RESULT:      -7.3      1.416      1.773
REMARK  2 active torsions:
REMARK  status: ('A' for Active; 'I' for Inactive)
REMARK    1  A    between atoms: C_4  and  C_5 
REMARK    2  A    between atoms: C_10  and  C_11 
ROOT
HETATM    1  C   UNL     1      -3.887   5.535 -31.407  1.00  0.00     0.202 C 
HETATM    2  N   UNL     1      -5.283   5.570 -31.809  1.00  0.00    -0.331 N 
HETATM    3  C   UNL     1      -5.943   6.860 -31.858  1.00  0.00     0.155 C 
HETATM    4  C   UNL     1      -5.863   4.487 -32.453  1.00  0.00     0.256 C 
HETATM    5  O   UNL     1      -6.919   4.550 -33.078  1.00  0.00    -0.267 OA
HETATM    6  C   UNL     1      -5.142   3.199 -32.353  1.00  0.00     0.053 A 
HETATM    7  C   UNL     1      -4.014   3.134 -31.529  1.00  0.00     0.026 A 
HETATM    8  N   UNL     1      -3.606   4.249 -30.783  1.00  0.00    -0.266 NA
HETATM    9  C   UNL     1      -5.601   2.071 -33.044  1.00  0.00     0.019 A 
HETATM   10  C   UNL     1      -4.941   0.853 -32.892  1.00  0.00     0.001 A 
HETATM   11  C   UNL     1      -3.842   0.765 -32.040  1.00  0.00     0.002 A 
HETATM   12  C   UNL     1      -3.392   1.895 -31.348  1.00  0.00     0.024 A 
HETATM   13  H   UNL     1      -2.633   4.193 -30.493  1.00  0.00     0.130 HD
ENDROOT
BRANCH   1  14
HETATM   14  C   UNL     1      -2.979   5.926 -32.544  1.00  0.00     0.029 A 
HETATM   15  C   UNL     1      -1.590   6.234 -32.462  1.00  0.00     0.121 A 
HETATM   16  N   UNL     1      -1.068   6.539 -33.659  1.00  0.00    -0.172 NA
HETATM   17  N   UNL     1      -2.098   6.412 -34.506  1.00  0.00    -0.288 N 
HETATM   18  H   UNL     1      -1.937   6.588 -35.493  1.00  0.00     0.188 HD
HETATM   19  C   UNL     1      -3.258   6.048 -33.896  1.00  0.00     0.122 A 
BRANCH  15  20
HETATM   20  C   UNL     1      -0.754   6.230 -31.223  1.00  0.00     0.106 A 
HETATM   21  O   UNL     1      -0.475   7.334 -30.464  1.00  0.00    -0.313 OA
HETATM   22  C   UNL     1       0.324   6.935 -29.436  1.00  0.00     0.050 A 
HETATM   23  C   UNL     1       0.768   7.984 -28.494  1.00  0.00     0.076 C 
HETATM   24  C   UNL     1       0.552   5.580 -29.512  1.00  0.00     0.035 A 
HETATM   25  C   UNL     1      -0.142   5.125 -30.659  1.00  0.00     0.042 A 
ENDBRANCH  15  20
ENDBRANCH   1  14
TORSDOF 2
ENDMDL
MODEL 8
REMARK VINA RESULT:      -7.2      6.066      8.879
REMARK  2 active torsions:
REMARK  status: ('A' for Active; 'I' for Inactive)
REMARK    1  A    between atoms: C_4  and  C_5 
REMARK    2  A    between atoms: C_10  and  C_11 
ROOT
HETATM    1  C   UNL     1      -9.717   2.564 -33.812  1.00  0.00     0.202 C 
HETATM    2  N   UNL     1      -9.022   2.767 -32.552  1.00  0.00    -0.331 N 
HETATM    3  C   UNL     1      -9.506   3.813 -31.672  1.00  0.00     0.155 C 
HETATM    4  C   UNL     1      -8.171   1.797 -32.047  1.00  0.00     0.256 C 
HETATM    5  O   UNL     1      -7.794   1.760 -30.878  1.00  0.00    -0.267 OA
HETATM    6  C   UNL     1      -7.707   0.766 -33.002  1.00  0.00     0.053 A 
HETATM    7  C   UNL     1      -8.052   0.910 -34.350  1.00  0.00     0.026 A 
HETATM    8  N   UNL     1      -8.779   2.026 -34.789  1.00  0.00    -0.266 NA
HETATM    9  C   UNL     1      -6.918  -0.305 -32.565  1.00  0.00     0.019 A 
HETATM   10  C   UNL     1      -6.444  -1.234 -33.489  1.00  0.00     0.001 A 
HETATM   11  C   UNL     1      -6.744  -1.078 -34.842  1.00  0.00     0.002 A 
HETATM   12  C   UNL     1      -7.528  -0.002 -35.272  1.00  0.00     0.024 A 
HETATM   13  H   UNL     1      -9.238   1.869 -35.682  1.00  0.00     0.130 HD
ENDROOT
BRANCH   1  14
HETATM   14  C   UNL     1     -10.986   1.775 -33.617  1.00  0.00     0.029 A 
HETATM   15  C   UNL     1     -12.320   2.276 -33.663  1.00  0.00     0.121 A 
HETATM   16  N   UNL     1     -13.229   1.314 -33.454  1.00  0.00    -0.172 NA
HETATM   17  N   UNL     1     -12.497   0.203 -33.295  1.00  0.00    -0.288 N 
HETATM   18  H   UNL     1     -12.981  -0.675 -33.129  1.00  0.00     0.188 HD
HETATM   19  C   UNL     1     -11.158   0.421 -33.384  1.00  0.00     0.122 A 
BRANCH  15  20
HETATM   20  C   UNL     1     -12.725   3.693 -33.915  1.00  0.00     0.106 A 
HETATM   21  O   UNL     1     -12.862   4.259 -35.154  1.00  0.00    -0.313 OA
HETATM   22  C   UNL     1     -13.225   5.559 -34.975  1.00  0.00     0.050 A 
HETATM   23  C   UNL     1     -13.408   6.371 -36.195  1.00  0.00     0.076 C 
HETATM   24  C   UNL     1     -13.342   5.837 -33.631  1.00  0.00     0.035 A 
HETATM   25  C   UNL     1     -13.023   4.637 -32.950  1.00  0.00     0.042 A 
ENDBRANCH  15  20
ENDBRANCH   1  14
TORSDOF 2
ENDMDL
MODEL 9
REMARK VINA RESULT:      -7.1      2.297      6.644
REMARK  2 active torsions:
REMARK  status: ('A' for Active; 'I' for Inactive)
REMARK    1  A    between atoms: C_4  and  C_5 
REMARK    2  A    between atoms: C_10  and  C_11 
ROOT
HETATM    1  C   UNL     1      -5.419   4.302 -33.671  1.00  0.00     0.202 C 
HETATM    2  N   UNL     1      -5.899   5.431 -32.892  1.00  0.00    -0.331 N 
HETATM    3  C   UNL     1      -7.246   5.364 -32.361  1.00  0.00     0.155 C 
HETATM    4  C   UNL     1      -5.013   6.365 -32.377  1.00  0.00     0.256 C 
HETATM    5  O   UNL     1      -5.298   7.155 -31.480  1.00  0.00    -0.267 OA
HETATM    6  C   UNL     1      -3.658   6.385 -32.973  1.00  0.00     0.053 A 
HETATM    7  C   UNL     1      -3.408   5.562 -34.076  1.00  0.00     0.026 A 
HETATM    8  N   UNL     1      -4.428   4.775 -34.629  1.00  0.00    -0.266 NA
HETATM    9  C   UNL     1      -2.668   7.231 -32.459  1.00  0.00     0.019 A 
HETATM   10  C   UNL     1      -1.416   7.277 -33.069  1.00  0.00     0.001 A 
HETATM   11  C   UNL     1      -1.167   6.494 -34.195  1.00  0.00     0.002 A 
HETATM   12  C   UNL     1      -2.164   5.656 -34.707  1.00  0.00     0.024 A 
HETATM   13  H   UNL     1      -4.070   4.005 -35.188  1.00  0.00     0.130 HD
ENDROOT
BRANCH   1  14
HETATM   14  C   UNL     1      -4.983   3.167 -32.781  1.00  0.00     0.029 A 
HETATM   15  C   UNL     1      -5.548   1.860 -32.725  1.00  0.00     0.121 A 
HETATM   16  N   UNL     1      -4.928   1.079 -31.829  1.00  0.00    -0.172 NA
HETATM   17  N   UNL     1      -3.963   1.861 -31.327  1.00  0.00    -0.288 N 
HETATM   18  H   UNL     1      -3.345   1.474 -30.621  1.00  0.00     0.188 HD
HETATM   19  C   UNL     1      -3.951   3.113 -31.859  1.00  0.00     0.122 A 
BRANCH  15  20
HETATM   20  C   UNL     1      -6.692   1.353 -33.543  1.00  0.00     0.106 A 
HETATM   21  O   UNL     1      -8.000   1.716 -33.370  1.00  0.00    -0.313 OA
HETATM   22  C   UNL     1      -8.741   1.036 -34.287  1.00  0.00     0.050 A 
HETATM   23  C   UNL     1     -10.201   1.264 -34.262  1.00  0.00     0.076 C 
HETATM   24  C   UNL     1      -7.924   0.246 -35.065  1.00  0.00     0.035 A 
HETATM   25  C   UNL     1      -6.607   0.452 -34.589  1.00  0.00     0.042 A 
ENDBRANCH  15  20
ENDBRANCH   1  14
TORSDOF 2
ENDMDL
MODEL 10
REMARK VINA RESULT:      -7.1      4.286      7.161
REMARK  2 active torsions:
REMARK  status: ('A' for Active; 'I' for Inactive)
REMARK    1  A    between atoms: C_4  and  C_5 
REMARK    2  A    between atoms: C_10  and  C_11 
ROOT
HETATM    1  C   UNL     1      -6.812   1.796 -33.815  1.00  0.00     0.202 C 
HETATM    2  N   UNL     1      -8.206   1.974 -34.185  1.00  0.00    -0.331 N 
HETATM    3  C   UNL     1      -8.940   0.812 -34.645  1.00  0.00     0.155 C 
HETATM    4  C   UNL     1      -8.906   3.104 -33.788  1.00  0.00     0.256 C 
HETATM    5  O   UNL     1     -10.132   3.186 -33.798  1.00  0.00    -0.267 OA
HETATM    6  C   UNL     1      -8.095   4.257 -33.339  1.00  0.00     0.053 A 
HETATM    7  C   UNL     1      -6.704   4.174 -33.462  1.00  0.00     0.026 A 
HETATM    8  N   UNL     1      -6.100   3.047 -34.036  1.00  0.00    -0.266 NA
HETATM    9  C   UNL     1      -8.712   5.408 -32.835  1.00  0.00     0.019 A 
HETATM   10  C   UNL     1      -7.933   6.505 -32.471  1.00  0.00     0.001 A 
HETATM   11  C   UNL     1      -6.549   6.452 -32.629  1.00  0.00     0.002 A 
HETATM   12  C   UNL     1      -5.940   5.300 -33.139  1.00  0.00     0.024 A 
HETATM   13  H   UNL     1      -5.119   2.955 -33.783  1.00  0.00     0.130 HD
ENDROOT
BRANCH   1  14
HETATM   14  C   UNL     1      -6.682   1.200 -32.437  1.00  0.00     0.029 A 
HETATM   15  C   UNL     1      -6.245  -0.116 -32.112  1.00  0.00     0.121 A 
HETATM   16  N   UNL     1      -6.236  -0.335 -30.790  1.00  0.00    -0.172 NA
HETATM   17  N   UNL     1      -6.642   0.829 -30.265  1.00  0.00    -0.288 N 
HETATM   18  H   UNL     1      -6.707   0.907 -29.254  1.00  0.00     0.188 HD
HETATM   19  C   UNL     1      -6.920   1.776 -31.200  1.00  0.00     0.122 A 
BRANCH  15  20
HETATM   20  C   UNL     1      -5.825  -1.175 -33.082  1.00  0.00     0.106 A 
HETATM   21  O   UNL     1      -6.672  -2.067 -33.680  1.00  0.00    -0.313 OA
HETATM   22  C   UNL     1      -5.921  -2.877 -34.477  1.00  0.00     0.050 A 
HETATM   23  C   UNL     1      -6.640  -3.940 -35.209  1.00  0.00     0.076 C 
HETATM   24  C   UNL     1      -4.596  -2.507 -34.413  1.00  0.00     0.035 A 
HETATM   25  C   UNL     1      -4.535  -1.411 -33.518  1.00  0.00     0.042 A 
ENDBRANCH  15  20
ENDBRANCH   1  14
TORSDOF 2
ENDMDL
