MODEL 1
REMARK VINA RESULT:     -10.4      0.000      0.000
REMARK  4 active torsions:
REMARK  status: ('A' for Active; 'I' for Inactive)
REMARK    1  A    between atoms: C_9  and  C_10 
REMARK    2  A    between atoms: C_10  and  C_11 
REMARK       I    between atoms: C_11  and  N_12 
REMARK    3  A    between atoms: N_12  and  C_13 
REMARK    4  A    between atoms: C_20  and  C_21 
REMARK       I    between atoms: C_21  and  N_22 
ROOT
HETATM    1  C   UNL     1     -10.277   2.223 -34.089  1.00  0.00     0.035 A 
HETATM    2  C   UNL     1     -11.509   1.569 -34.223  1.00  0.00     0.046 A 
HETATM    3  C   UNL     1     -12.634   2.057 -33.524  1.00  0.00     0.030 A 
HETATM    4  C   UNL     1     -12.497   3.196 -32.741  1.00  0.00     0.063 A 
HETATM    5  N   UNL     1     -13.735   3.422 -32.209  1.00  0.00    -0.277 N 
HETATM    6  H   UNL     1     -14.008   4.175 -31.590  1.00  0.00     0.189 HD
HETATM    7  N   UNL     1     -14.663   2.515 -32.553  1.00  0.00    -0.168 NA
HETATM    8  C   UNL     1     -13.997   1.659 -33.363  1.00  0.00     0.156 A 
HETATM    9  C   UNL     1     -11.289   3.880 -32.597  1.00  0.00     0.034 A 
HETATM   10  C   UNL     1     -10.179   3.361 -33.276  1.00  0.00     0.032 A 
ENDROOT
BRANCH   1  11
HETATM   11  N   UNL     1      -9.087   1.765 -34.693  1.00  0.00    -0.327 N 
HETATM   12  C   UNL     1      -8.322   0.676 -34.310  1.00  0.00     0.226 C 
HETATM   13  O   UNL     1      -8.641  -0.191 -33.502  1.00  0.00    -0.273 OA
HETATM   14  H   UNL     1      -8.753   2.302 -35.482  1.00  0.00     0.169 HD
BRANCH  12  15
HETATM   15  C   UNL     1      -6.964   0.639 -34.997  1.00  0.00     0.141 C 
BRANCH  15  16
HETATM   16  C   UNL     1      -6.097  -0.477 -34.464  1.00  0.00    -0.049 A 
HETATM   17  C   UNL     1      -5.077  -0.195 -33.549  1.00  0.00     0.008 A 
HETATM   18  C   UNL     1      -4.243  -1.209 -33.078  1.00  0.00     0.013 A 
HETATM   19  C   UNL     1      -4.414  -2.533 -33.508  1.00  0.00    -0.026 A 
HETATM   20  C   UNL     1      -3.575  -3.561 -33.051  1.00  0.00     0.012 A 
HETATM   21  C   UNL     1      -5.450  -2.835 -34.420  1.00  0.00    -0.025 A 
HETATM   22  C   UNL     1      -3.755  -4.874 -33.487  1.00  0.00     0.001 A 
HETATM   23  C   UNL     1      -4.776  -5.175 -34.382  1.00  0.00     0.001 A 
HETATM   24  C   UNL     1      -5.620  -4.163 -34.846  1.00  0.00     0.012 A 
HETATM   25  C   UNL     1      -6.284  -1.802 -34.886  1.00  0.00     0.020 A 
ENDBRANCH  15  16
ENDBRANCH  12  15
ENDBRANCH   1  11
BRANCH   8  26
HETATM   26  C   UNL     1     -14.663   0.484 -33.941  1.00  0.00     0.270 C 
HETATM   27  N   UNL     1     -14.174  -0.711 -33.490  1.00  0.00    -0.365 N 
HETATM   28  H   UNL     1     -13.404  -0.703 -32.831  1.00  0.00     0.159 HD
HETATM   29  H   UNL     1     -14.547  -1.572 -33.858  1.00  0.00     0.159 HD
HETATM   30  O   UNL     1     -15.567   0.527 -34.768  1.00  0.00    -0.266 OA
ENDBRANCH   8  26
TORSDOF 4
ENDMDL
MODEL 2
REMARK VINA RESULT:     -10.2      1.748      2.560
REMARK  4 active torsions:
REMARK  status: ('A' for Active; 'I' for Inactive)
REMARK    1  A    between atoms: C_9  and  C_10 
REMARK    2  A    between atoms: C_10  and  C_11 
REMARK       I    between atoms: C_11  and  N_12 
REMARK    3  A    between atoms: N_12  and  C_13 
REMARK    4  A    between atoms: C_20  and  C_21 
REMARK       I    between atoms: C_21  and  N_22 
ROOT
HETATM    1  C   UNL     1     -11.348   1.728 -34.242  1.00  0.00     0.035 A 
HETATM    2  C   UNL     1     -11.647   2.525 -33.129  1.00  0.00     0.046 A 
HETATM    3  C   UNL     1     -12.996   2.758 -32.782  1.00  0.00     0.030 A 
HETATM    4  C   UNL     1     -13.997   2.164 -33.541  1.00  0.00     0.063 A 
HETATM    5  N   UNL     1     -15.171   2.561 -32.967  1.00  0.00    -0.277 N 
HETATM    6  H   UNL     1     -16.110   2.313 -33.256  1.00  0.00     0.189 HD
HETATM    7  N   UNL     1     -15.027   3.385 -31.917  1.00  0.00    -0.168 NA
HETATM    8  C   UNL     1     -13.687   3.522 -31.792  1.00  0.00     0.156 A 
HETATM    9  C   UNL     1     -13.734   1.353 -34.647  1.00  0.00     0.034 A 
HETATM   10  C   UNL     1     -12.390   1.160 -34.989  1.00  0.00     0.032 A 
ENDROOT
BRANCH   1  11
HETATM   11  N   UNL     1     -10.034   1.501 -34.702  1.00  0.00    -0.327 N 
HETATM   12  C   UNL     1      -9.028   0.810 -34.049  1.00  0.00     0.226 C 
HETATM   13  O   UNL     1      -9.155   0.112 -33.046  1.00  0.00    -0.273 OA
HETATM   14  H   UNL     1      -9.802   1.903 -35.601  1.00  0.00     0.169 HD
BRANCH  12  15
HETATM   15  C   UNL     1      -7.664   1.001 -34.697  1.00  0.00     0.141 C 
BRANCH  15  16
HETATM   16  C   UNL     1      -6.746  -0.167 -34.425  1.00  0.00    -0.049 A 
HETATM   17  C   UNL     1      -5.532   0.037 -33.761  1.00  0.00     0.008 A 
HETATM   18  C   UNL     1      -4.656  -1.026 -33.539  1.00  0.00     0.013 A 
HETATM   19  C   UNL     1      -4.978  -2.321 -33.970  1.00  0.00    -0.026 A 
HETATM   20  C   UNL     1      -4.102  -3.397 -33.763  1.00  0.00     0.012 A 
HETATM   21  C   UNL     1      -6.209  -2.544 -34.628  1.00  0.00    -0.025 A 
HETATM   22  C   UNL     1      -4.433  -4.680 -34.197  1.00  0.00     0.001 A 
HETATM   23  C   UNL     1      -5.646  -4.903 -34.842  1.00  0.00     0.001 A 
HETATM   24  C   UNL     1      -6.529  -3.843 -35.056  1.00  0.00     0.012 A 
HETATM   25  C   UNL     1      -7.082  -1.463 -34.845  1.00  0.00     0.020 A 
ENDBRANCH  15  16
ENDBRANCH  12  15
ENDBRANCH   1  11
BRANCH   8  26
HETATM   26  C   UNL     1     -13.102   4.384 -30.756  1.00  0.00     0.270 C 
HETATM   27  N   UNL     1     -12.369   3.710 -29.818  1.00  0.00    -0.365 N 
HETATM   28  H   UNL     1     -12.302   2.701 -29.889  1.00  0.00     0.159 HD
HETATM   29  H   UNL     1     -11.959   4.216 -29.050  1.00  0.00     0.159 HD
HETATM   30  O   UNL     1     -13.246   5.600 -30.693  1.00  0.00    -0.266 OA
ENDBRANCH   8  26
TORSDOF 4
ENDMDL
MODEL 3
REMARK VINA RESULT:      -9.6      5.741      8.614
REMARK  4 active torsions:
REMARK  status: ('A' for Active; 'I' for Inactive)
REMARK    1  A    between atoms: C_9  and  C_10 
REMARK    2  A    between atoms: C_10  and  C_11 
REMARK       I    between atoms: C_11  and  N_12 
REMARK    3  A    between atoms: N_12  and  C_13 
REMARK    4  A    between atoms: C_20  and  C_21 
REMARK       I    between atoms: C_21  and  N_22 
ROOT
HETATM    1  C   UNL     1      -4.290   3.691 -32.530  1.00  0.00     0.035 A 
HETATM    2  C   UNL     1      -3.072   4.222 -32.086  1.00  0.00     0.046 A 
HETATM    3  C   UNL     1      -2.446   5.245 -32.831  1.00  0.00     0.030 A 
HETATM    4  C   UNL     1      -3.073   5.722 -33.975  1.00  0.00     0.063 A 
HETATM    5  N   UNL     1      -2.246   6.693 -34.464  1.00  0.00    -0.277 N 
HETATM    6  H   UNL     1      -2.389   7.262 -35.290  1.00  0.00     0.189 HD
HETATM    7  N   UNL     1      -1.120   6.874 -33.756  1.00  0.00    -0.168 NA
HETATM    8  C   UNL     1      -1.226   5.983 -32.744  1.00  0.00     0.156 A 
HETATM    9  C   UNL     1      -4.293   5.225 -34.438  1.00  0.00     0.034 A 
HETATM   10  C   UNL     1      -4.880   4.191 -33.699  1.00  0.00     0.032 A 
ENDROOT
BRANCH   1  11
HETATM   11  N   UNL     1      -4.948   2.621 -31.888  1.00  0.00    -0.327 N 
HETATM   12  C   UNL     1      -5.373   2.570 -30.572  1.00  0.00     0.226 C 
HETATM   13  O   UNL     1      -5.424   3.512 -29.785  1.00  0.00    -0.273 OA
HETATM   14  H   UNL     1      -5.112   1.797 -32.452  1.00  0.00     0.169 HD
BRANCH  12  15
HETATM   15  C   UNL     1      -5.785   1.170 -30.138  1.00  0.00     0.141 C 
BRANCH  15  16
HETATM   16  C   UNL     1      -5.429   0.134 -31.177  1.00  0.00    -0.049 A 
HETATM   17  C   UNL     1      -4.117  -0.342 -31.269  1.00  0.00     0.008 A 
HETATM   18  C   UNL     1      -3.764  -1.270 -32.250  1.00  0.00     0.013 A 
HETATM   19  C   UNL     1      -4.719  -1.747 -33.159  1.00  0.00    -0.026 A 
HETATM   20  C   UNL     1      -4.376  -2.671 -34.158  1.00  0.00     0.012 A 
HETATM   21  C   UNL     1      -6.052  -1.286 -33.068  1.00  0.00    -0.025 A 
HETATM   22  C   UNL     1      -5.335  -3.138 -35.057  1.00  0.00     0.001 A 
HETATM   23  C   UNL     1      -6.648  -2.688 -34.967  1.00  0.00     0.001 A 
HETATM   24  C   UNL     1      -7.006  -1.769 -33.979  1.00  0.00     0.012 A 
HETATM   25  C   UNL     1      -6.393  -0.351 -32.073  1.00  0.00     0.020 A 
ENDBRANCH  15  16
ENDBRANCH  12  15
ENDBRANCH   1  11
BRANCH   8  26
HETATM   26  C   UNL     1      -0.163   5.841 -31.739  1.00  0.00     0.270 C 
HETATM   27  N   UNL     1       0.245   7.024 -31.188  1.00  0.00    -0.365 N 
HETATM   28  H   UNL     1      -0.182   7.884 -31.515  1.00  0.00     0.159 HD
HETATM   29  H   UNL     1       0.994   7.028 -30.515  1.00  0.00     0.159 HD
HETATM   30  O   UNL     1       0.350   4.778 -31.407  1.00  0.00    -0.266 OA
ENDBRANCH   8  26
TORSDOF 4
ENDMDL
MODEL 4
REMARK VINA RESULT:      -9.3      5.816      8.349
REMARK  4 active torsions:
REMARK  status: ('A' for Active; 'I' for Inactive)
REMARK    1  A    between atoms: C_9  and  C_10 
REMARK    2  A    between atoms: C_10  and  C_11 
REMARK       I    between atoms: C_11  and  N_12 
REMARK    3  A    between atoms: N_12  and  C_13 
REMARK    4  A    between atoms: C_20  and  C_21 
REMARK       I    between atoms: C_21  and  N_22 
ROOT
HETATM    1  C   UNL     1      -3.740   4.364 -32.624  1.00  0.00     0.035 A 
HETATM    2  C   UNL     1      -3.964   5.633 -32.073  1.00  0.00     0.046 A 
HETATM    3  C   UNL     1      -3.025   6.664 -32.292  1.00  0.00     0.030 A 
HETATM    4  C   UNL     1      -1.910   6.399 -33.079  1.00  0.00     0.063 A 
HETATM    5  N   UNL     1      -1.205   7.569 -33.114  1.00  0.00    -0.277 N 
HETATM    6  H   UNL     1      -0.335   7.747 -33.601  1.00  0.00     0.189 HD
HETATM    7  N   UNL     1      -1.747   8.567 -32.398  1.00  0.00    -0.168 NA
HETATM    8  C   UNL     1      -2.871   8.022 -31.879  1.00  0.00     0.156 A 
HETATM    9  C   UNL     1      -1.662   5.151 -33.654  1.00  0.00     0.034 A 
HETATM   10  C   UNL     1      -2.593   4.137 -33.397  1.00  0.00     0.032 A 
ENDROOT
BRANCH   1  11
HETATM   11  N   UNL     1      -4.587   3.260 -32.397  1.00  0.00    -0.327 N 
HETATM   12  C   UNL     1      -5.681   2.877 -33.153  1.00  0.00     0.226 C 
HETATM   13  O   UNL     1      -5.993   3.314 -34.258  1.00  0.00    -0.273 OA
HETATM   14  H   UNL     1      -4.378   2.699 -31.581  1.00  0.00     0.169 HD
BRANCH  12  15
HETATM   15  C   UNL     1      -6.532   1.817 -32.467  1.00  0.00     0.141 C 
BRANCH  15  16
HETATM   16  C   UNL     1      -6.406   0.473 -33.145  1.00  0.00    -0.049 A 
HETATM   17  C   UNL     1      -7.413   0.027 -34.007  1.00  0.00     0.008 A 
HETATM   18  C   UNL     1      -7.330  -1.228 -34.609  1.00  0.00     0.013 A 
HETATM   19  C   UNL     1      -6.233  -2.067 -34.367  1.00  0.00    -0.026 A 
HETATM   20  C   UNL     1      -6.141  -3.337 -34.956  1.00  0.00     0.012 A 
HETATM   21  C   UNL     1      -5.200  -1.623 -33.509  1.00  0.00    -0.025 A 
HETATM   22  C   UNL     1      -5.045  -4.162 -34.705  1.00  0.00     0.001 A 
HETATM   23  C   UNL     1      -4.026  -3.726 -33.865  1.00  0.00     0.001 A 
HETATM   24  C   UNL     1      -4.101  -2.465 -33.271  1.00  0.00     0.012 A 
HETATM   25  C   UNL     1      -5.297  -0.353 -32.910  1.00  0.00     0.020 A 
ENDBRANCH  15  16
ENDBRANCH  12  15
ENDBRANCH   1  11
BRANCH   8  26
HETATM   26  C   UNL     1      -3.753   8.794 -30.992  1.00  0.00     0.270 C 
HETATM   27  N   UNL     1      -3.847   8.291 -29.724  1.00  0.00    -0.365 N 
HETATM   28  H   UNL     1      -3.340   7.443 -29.500  1.00  0.00     0.159 HD
HETATM   29  H   UNL     1      -4.457   8.736 -29.056  1.00  0.00     0.159 HD
HETATM   30  O   UNL     1      -4.378   9.795 -31.325  1.00  0.00    -0.266 OA
ENDBRANCH   8  26
TORSDOF 4
ENDMDL
MODEL 5
REMARK VINA RESULT:      -9.1      5.253      7.862
REMARK  4 active torsions:
REMARK  status: ('A' for Active; 'I' for Inactive)
REMARK    1  A    between atoms: C_9  and  C_10 
REMARK    2  A    between atoms: C_10  and  C_11 
REMARK       I    between atoms: C_11  and  N_12 
REMARK    3  A    between atoms: N_12  and  C_13 
REMARK    4  A    between atoms: C_20  and  C_21 
REMARK       I    between atoms: C_21  and  N_22 
ROOT
HETATM    1  C   UNL     1      -5.231   4.050 -32.072  1.00  0.00     0.035 A 
HETATM    2  C   UNL     1      -3.852   4.300 -32.104  1.00  0.00     0.046 A 
HETATM    3  C   UNL     1      -3.291   5.220 -31.192  1.00  0.00     0.030 A 
HETATM    4  C   UNL     1      -4.120   5.835 -30.262  1.00  0.00     0.063 A 
HETATM    5  N   UNL     1      -3.303   6.647 -29.528  1.00  0.00    -0.277 N 
HETATM    6  H   UNL     1      -3.567   7.246 -28.756  1.00  0.00     0.189 HD
HETATM    7  N   UNL     1      -2.017   6.639 -29.915  1.00  0.00    -0.168 NA
HETATM    8  C   UNL     1      -1.993   5.764 -30.946  1.00  0.00     0.156 A 
HETATM    9  C   UNL     1      -5.494   5.599 -30.194  1.00  0.00     0.034 A 
HETATM   10  C   UNL     1      -6.033   4.705 -31.128  1.00  0.00     0.032 A 
ENDROOT
BRANCH   1  11
HETATM   11  N   UNL     1      -5.885   3.203 -32.990  1.00  0.00    -0.327 N 
HETATM   12  C   UNL     1      -6.564   2.030 -32.707  1.00  0.00     0.226 C 
HETATM   13  O   UNL     1      -6.879   1.620 -31.593  1.00  0.00    -0.273 OA
HETATM   14  H   UNL     1      -5.838   3.478 -33.962  1.00  0.00     0.169 HD
BRANCH  12  15
HETATM   15  C   UNL     1      -6.901   1.226 -33.955  1.00  0.00     0.141 C 
BRANCH  15  16
HETATM   16  C   UNL     1      -6.205  -0.114 -33.963  1.00  0.00    -0.049 A 
HETATM   17  C   UNL     1      -4.882  -0.218 -33.522  1.00  0.00     0.008 A 
HETATM   18  C   UNL     1      -4.213  -1.442 -33.561  1.00  0.00     0.013 A 
HETATM   19  C   UNL     1      -4.855  -2.593 -34.037  1.00  0.00    -0.026 A 
HETATM   20  C   UNL     1      -4.192  -3.828 -34.093  1.00  0.00     0.012 A 
HETATM   21  C   UNL     1      -6.198  -2.506 -34.472  1.00  0.00    -0.025 A 
HETATM   22  C   UNL     1      -4.842  -4.966 -34.570  1.00  0.00     0.001 A 
HETATM   23  C   UNL     1      -6.164  -4.884 -34.996  1.00  0.00     0.001 A 
HETATM   24  C   UNL     1      -6.838  -3.662 -34.947  1.00  0.00     0.012 A 
HETATM   25  C   UNL     1      -6.859  -1.265 -34.427  1.00  0.00     0.020 A 
ENDBRANCH  15  16
ENDBRANCH  12  15
ENDBRANCH   1  11
BRANCH   8  26
HETATM   26  C   UNL     1      -0.751   5.485 -31.681  1.00  0.00     0.270 C 
HETATM   27  N   UNL     1      -0.699   6.052 -32.924  1.00  0.00    -0.365 N 
HETATM   28  H   UNL     1      -1.498   6.585 -33.247  1.00  0.00     0.159 HD
HETATM   29  H   UNL     1       0.101   5.887 -33.513  1.00  0.00     0.159 HD
HETATM   30  O   UNL     1       0.173   4.799 -31.258  1.00  0.00    -0.266 OA
ENDBRANCH   8  26
TORSDOF 4
ENDMDL
MODEL 6
REMARK VINA RESULT:      -9.0      5.900      8.977
REMARK  4 active torsions:
REMARK  status: ('A' for Active; 'I' for Inactive)
REMARK    1  A    between atoms: C_9  and  C_10 
REMARK    2  A    between atoms: C_10  and  C_11 
REMARK       I    between atoms: C_11  and  N_12 
REMARK    3  A    between atoms: N_12  and  C_13 
REMARK    4  A    between atoms: C_20  and  C_21 
REMARK       I    between atoms: C_21  and  N_22 
ROOT
HETATM    1  C   UNL     1      -3.515   3.950 -32.486  1.00  0.00     0.035 A 
HETATM    2  C   UNL     1      -2.662   4.407 -31.473  1.00  0.00     0.046 A 
HETATM    3  C   UNL     1      -1.707   5.405 -31.765  1.00  0.00     0.030 A 
HETATM    4  C   UNL     1      -1.658   5.932 -33.050  1.00  0.00     0.063 A 
HETATM    5  N   UNL     1      -0.659   6.864 -33.022  1.00  0.00    -0.277 N 
HETATM    6  H   UNL     1      -0.347   7.451 -33.785  1.00  0.00     0.189 HD
HETATM    7  N   UNL     1      -0.033   6.973 -31.839  1.00  0.00    -0.168 NA
HETATM    8  C   UNL     1      -0.666   6.074 -31.052  1.00  0.00     0.156 A 
HETATM    9  C   UNL     1      -2.501   5.510 -34.079  1.00  0.00     0.034 A 
HETATM   10  C   UNL     1      -3.420   4.498 -33.773  1.00  0.00     0.032 A 
ENDROOT
BRANCH   1  11
HETATM   11  N   UNL     1      -4.448   2.908 -32.302  1.00  0.00    -0.327 N 
HETATM   12  C   UNL     1      -5.603   2.682 -33.031  1.00  0.00     0.226 C 
HETATM   13  O   UNL     1      -5.921   3.232 -34.082  1.00  0.00    -0.273 OA
HETATM   14  H   UNL     1      -4.255   2.267 -31.543  1.00  0.00     0.169 HD
BRANCH  12  15
HETATM   15  C   UNL     1      -6.515   1.648 -32.386  1.00  0.00     0.141 C 
BRANCH  15  16
HETATM   16  C   UNL     1      -6.440   0.316 -33.094  1.00  0.00    -0.049 A 
HETATM   17  C   UNL     1      -7.510  -0.117 -33.885  1.00  0.00     0.008 A 
HETATM   18  C   UNL     1      -7.472  -1.362 -34.513  1.00  0.00     0.013 A 
HETATM   19  C   UNL     1      -6.358  -2.202 -34.369  1.00  0.00    -0.026 A 
HETATM   20  C   UNL     1      -6.311  -3.462 -34.985  1.00  0.00     0.012 A 
HETATM   21  C   UNL     1      -5.264  -1.771 -33.585  1.00  0.00    -0.025 A 
HETATM   22  C   UNL     1      -5.198  -4.288 -34.833  1.00  0.00     0.001 A 
HETATM   23  C   UNL     1      -4.118  -3.865 -34.065  1.00  0.00     0.001 A 
HETATM   24  C   UNL     1      -4.149  -2.614 -33.445  1.00  0.00     0.012 A 
HETATM   25  C   UNL     1      -5.316  -0.512 -32.958  1.00  0.00     0.020 A 
ENDBRANCH  15  16
ENDBRANCH  12  15
ENDBRANCH   1  11
BRANCH   8  26
HETATM   26  C   UNL     1      -0.255   5.859 -29.657  1.00  0.00     0.270 C 
HETATM   27  N   UNL     1       0.393   4.674 -29.443  1.00  0.00    -0.365 N 
HETATM   28  H   UNL     1       0.520   4.042 -30.225  1.00  0.00     0.159 HD
HETATM   29  H   UNL     1       0.682   4.426 -28.510  1.00  0.00     0.159 HD
HETATM   30  O   UNL     1      -0.467   6.641 -28.736  1.00  0.00    -0.266 OA
ENDBRANCH   8  26
TORSDOF 4
ENDMDL
MODEL 7
REMARK VINA RESULT:      -8.9      5.440      7.766
REMARK  4 active torsions:
REMARK  status: ('A' for Active; 'I' for Inactive)
REMARK    1  A    between atoms: C_9  and  C_10 
REMARK    2  A    between atoms: C_10  and  C_11 
REMARK       I    between atoms: C_11  and  N_12 
REMARK    3  A    between atoms: N_12  and  C_13 
REMARK    4  A    between atoms: C_20  and  C_21 
REMARK       I    between atoms: C_21  and  N_22 
ROOT
HETATM    1  C   UNL     1      -4.173   4.083 -32.514  1.00  0.00     0.035 A 
HETATM    2  C   UNL     1      -4.539   5.024 -31.542  1.00  0.00     0.046 A 
HETATM    3  C   UNL     1      -3.536   5.761 -30.874  1.00  0.00     0.030 A 
HETATM    4  C   UNL     1      -2.207   5.553 -31.222  1.00  0.00     0.063 A 
HETATM    5  N   UNL     1      -1.487   6.399 -30.426  1.00  0.00    -0.277 N 
HETATM    6  H   UNL     1      -0.482   6.520 -30.410  1.00  0.00     0.189 HD
HETATM    7  N   UNL     1      -2.227   7.121 -29.569  1.00  0.00    -0.168 NA
HETATM    8  C   UNL     1      -3.497   6.735 -29.830  1.00  0.00     0.156 A 
HETATM    9  C   UNL     1      -1.808   4.634 -32.194  1.00  0.00     0.034 A 
HETATM   10  C   UNL     1      -2.819   3.894 -32.822  1.00  0.00     0.032 A 
ENDROOT
BRANCH   1  11
HETATM   11  N   UNL     1      -5.101   3.255 -33.177  1.00  0.00    -0.327 N 
HETATM   12  C   UNL     1      -5.850   2.229 -32.626  1.00  0.00     0.226 C 
HETATM   13  O   UNL     1      -5.981   1.985 -31.429  1.00  0.00    -0.273 OA
HETATM   14  H   UNL     1      -5.218   3.422 -34.169  1.00  0.00     0.169 HD
BRANCH  12  15
HETATM   15  C   UNL     1      -6.531   1.364 -33.677  1.00  0.00     0.141 C 
BRANCH  15  16
HETATM   16  C   UNL     1      -5.922  -0.016 -33.747  1.00  0.00    -0.049 A 
HETATM   17  C   UNL     1      -4.603  -0.220 -33.328  1.00  0.00     0.008 A 
HETATM   18  C   UNL     1      -4.014  -1.481 -33.424  1.00  0.00     0.013 A 
HETATM   19  C   UNL     1      -4.733  -2.570 -33.937  1.00  0.00    -0.026 A 
HETATM   20  C   UNL     1      -4.149  -3.841 -34.050  1.00  0.00     0.012 A 
HETATM   21  C   UNL     1      -6.071  -2.381 -34.350  1.00  0.00    -0.025 A 
HETATM   22  C   UNL     1      -4.875  -4.915 -34.564  1.00  0.00     0.001 A 
HETATM   23  C   UNL     1      -6.193  -4.733 -34.968  1.00  0.00     0.001 A 
HETATM   24  C   UNL     1      -6.789  -3.475 -34.862  1.00  0.00     0.012 A 
HETATM   25  C   UNL     1      -6.653  -1.104 -34.247  1.00  0.00     0.020 A 
ENDBRANCH  15  16
ENDBRANCH  12  15
ENDBRANCH   1  11
BRANCH   8  26
HETATM   26  C   UNL     1      -4.631   7.281 -29.072  1.00  0.00     0.270 C 
HETATM   27  N   UNL     1      -4.524   7.124 -27.718  1.00  0.00    -0.365 N 
HETATM   28  H   UNL     1      -3.713   6.641 -27.349  1.00  0.00     0.159 HD
HETATM   29  H   UNL     1      -5.271   7.438 -27.120  1.00  0.00     0.159 HD
HETATM   30  O   UNL     1      -5.611   7.824 -29.571  1.00  0.00    -0.266 OA
ENDBRANCH   8  26
TORSDOF 4
ENDMDL
MODEL 8
REMARK VINA RESULT:      -8.9      1.870      2.569
REMARK  4 active torsions:
REMARK  status: ('A' for Active; 'I' for Inactive)
REMARK    1  A    between atoms: C_9  and  C_10 
REMARK    2  A    between atoms: C_10  and  C_11 
REMARK       I    between atoms: C_11  and  N_12 
REMARK    3  A    between atoms: N_12  and  C_13 
REMARK    4  A    between atoms: C_20  and  C_21 
REMARK       I    between atoms: C_21  and  N_22 
ROOT
HETATM    1  C   UNL     1      -8.692   3.350 -33.527  1.00  0.00     0.035 A 
HETATM    2  C   UNL     1      -9.954   2.772 -33.722  1.00  0.00     0.046 A 
HETATM    3  C   UNL     1     -11.026   3.576 -34.169  1.00  0.00     0.030 A 
HETATM    4  C   UNL     1     -10.792   4.919 -34.434  1.00  0.00     0.063 A 
HETATM    5  N   UNL     1     -11.993   5.421 -34.849  1.00  0.00    -0.277 N 
HETATM    6  H   UNL     1     -12.196   6.372 -35.132  1.00  0.00     0.189 HD
HETATM    7  N   UNL     1     -12.998   4.530 -34.853  1.00  0.00    -0.168 NA
HETATM    8  C   UNL     1     -12.417   3.384 -34.430  1.00  0.00     0.156 A 
HETATM    9  C   UNL     1      -9.545   5.524 -34.264  1.00  0.00     0.034 A 
HETATM   10  C   UNL     1      -8.505   4.713 -33.791  1.00  0.00     0.032 A 
ENDROOT
BRANCH   1  11
HETATM   11  N   UNL     1      -7.586   2.640 -33.017  1.00  0.00    -0.327 N 
HETATM   12  C   UNL     1      -6.378   2.405 -33.651  1.00  0.00     0.226 C 
HETATM   13  O   UNL     1      -5.985   2.931 -34.689  1.00  0.00    -0.273 OA
HETATM   14  H   UNL     1      -7.698   2.248 -32.090  1.00  0.00     0.169 HD
BRANCH  12  15
HETATM   15  C   UNL     1      -5.524   1.370 -32.931  1.00  0.00     0.141 C 
BRANCH  15  16
HETATM   16  C   UNL     1      -5.721  -0.014 -33.503  1.00  0.00    -0.049 A 
HETATM   17  C   UNL     1      -6.890  -0.320 -34.208  1.00  0.00     0.008 A 
HETATM   18  C   UNL     1      -7.103  -1.605 -34.708  1.00  0.00     0.013 A 
HETATM   19  C   UNL     1      -6.148  -2.614 -34.517  1.00  0.00    -0.026 A 
HETATM   20  C   UNL     1      -6.354  -3.914 -35.004  1.00  0.00     0.012 A 
HETATM   21  C   UNL     1      -4.956  -2.315 -33.819  1.00  0.00    -0.025 A 
HETATM   22  C   UNL     1      -5.397  -4.909 -34.806  1.00  0.00     0.001 A 
HETATM   23  C   UNL     1      -4.221  -4.616 -34.123  1.00  0.00     0.001 A 
HETATM   24  C   UNL     1      -4.001  -3.328 -33.633  1.00  0.00     0.012 A 
HETATM   25  C   UNL     1      -4.754  -1.014 -33.322  1.00  0.00     0.020 A 
ENDBRANCH  15  16
ENDBRANCH  12  15
ENDBRANCH   1  11
BRANCH   8  26
HETATM   26  C   UNL     1     -13.197   2.150 -34.266  1.00  0.00     0.270 C 
HETATM   27  N   UNL     1     -13.445   1.815 -32.963  1.00  0.00    -0.365 N 
HETATM   28  H   UNL     1     -13.068   2.407 -32.231  1.00  0.00     0.159 HD
HETATM   29  H   UNL     1     -13.944   0.966 -32.753  1.00  0.00     0.159 HD
HETATM   30  O   UNL     1     -13.597   1.446 -35.187  1.00  0.00    -0.266 OA
ENDBRANCH   8  26
TORSDOF 4
ENDMDL
MODEL 9
REMARK VINA RESULT:      -8.9      4.924      7.543
REMARK  4 active torsions:
REMARK  status: ('A' for Active; 'I' for Inactive)
REMARK    1  A    between atoms: C_9  and  C_10 
REMARK    2  A    between atoms: C_10  and  C_11 
REMARK       I    between atoms: C_11  and  N_12 
REMARK    3  A    between atoms: N_12  and  C_13 
REMARK    4  A    between atoms: C_20  and  C_21 
REMARK       I    between atoms: C_21  and  N_22 
ROOT
HETATM    1  C   UNL     1      -5.138   3.426 -32.865  1.00  0.00     0.035 A 
HETATM    2  C   UNL     1      -4.143   4.298 -33.326  1.00  0.00     0.046 A 
HETATM    3  C   UNL     1      -3.500   5.164 -32.415  1.00  0.00     0.030 A 
HETATM    4  C   UNL     1      -3.853   5.108 -31.072  1.00  0.00     0.063 A 
HETATM    5  N   UNL     1      -3.069   6.040 -30.452  1.00  0.00    -0.277 N 
HETATM    6  H   UNL     1      -3.053   6.269 -29.466  1.00  0.00     0.189 HD
HETATM    7  N   UNL     1      -2.255   6.720 -31.276  1.00  0.00    -0.168 NA
HETATM    8  C   UNL     1      -2.513   6.193 -32.495  1.00  0.00     0.156 A 
HETATM    9  C   UNL     1      -4.829   4.242 -30.577  1.00  0.00     0.034 A 
HETATM   10  C   UNL     1      -5.474   3.413 -31.504  1.00  0.00     0.032 A 
ENDROOT
BRANCH   1  11
HETATM   11  N   UNL     1      -5.880   2.579 -33.714  1.00  0.00    -0.327 N 
HETATM   12  C   UNL     1      -7.156   2.088 -33.498  1.00  0.00     0.226 C 
HETATM   13  O   UNL     1      -7.939   2.453 -32.625  1.00  0.00    -0.273 OA
HETATM   14  H   UNL     1      -5.418   2.289 -34.567  1.00  0.00     0.169 HD
BRANCH  12  15
HETATM   15  C   UNL     1      -7.537   0.983 -34.474  1.00  0.00     0.141 C 
BRANCH  15  16
HETATM   16  C   UNL     1      -6.673  -0.243 -34.298  1.00  0.00    -0.049 A 
HETATM   17  C   UNL     1      -5.420  -0.133 -33.685  1.00  0.00     0.008 A 
HETATM   18  C   UNL     1      -4.594  -1.250 -33.551  1.00  0.00     0.013 A 
HETATM   19  C   UNL     1      -5.005  -2.504 -34.022  1.00  0.00    -0.026 A 
HETATM   20  C   UNL     1      -4.180  -3.634 -33.905  1.00  0.00     0.012 A 
HETATM   21  C   UNL     1      -6.275  -2.632 -34.630  1.00  0.00    -0.025 A 
HETATM   22  C   UNL     1      -4.601  -4.876 -34.378  1.00  0.00     0.001 A 
HETATM   23  C   UNL     1      -5.852  -5.006 -34.973  1.00  0.00     0.001 A 
HETATM   24  C   UNL     1      -6.685  -3.892 -35.098  1.00  0.00     0.012 A 
HETATM   25  C   UNL     1      -7.098  -1.498 -34.757  1.00  0.00     0.020 A 
ENDBRANCH  15  16
ENDBRANCH  12  15
ENDBRANCH   1  11
BRANCH   8  26
HETATM   26  C   UNL     1      -1.835   6.693 -33.699  1.00  0.00     0.270 C 
HETATM   27  N   UNL     1      -1.446   5.710 -34.568  1.00  0.00    -0.365 N 
HETATM   28  H   UNL     1      -1.626   4.744 -34.319  1.00  0.00     0.159 HD
HETATM   29  H   UNL     1      -0.943   5.957 -35.405  1.00  0.00     0.159 HD
HETATM   30  O   UNL     1      -1.605   7.874 -33.935  1.00  0.00    -0.266 OA
ENDBRANCH   8  26
TORSDOF 4
ENDMDL
MODEL 10
REMARK VINA RESULT:      -8.9      1.781      2.591
REMARK  4 active torsions:
REMARK  status: ('A' for Active; 'I' for Inactive)
REMARK    1  A    between atoms: C_9  and  C_10 
REMARK    2  A    between atoms: C_10  and  C_11 
REMARK       I    between atoms: C_11  and  N_12 
REMARK    3  A    between atoms: N_12  and  C_13 
REMARK    4  A    between atoms: C_20  and  C_21 
REMARK       I    between atoms: C_21  and  N_22 
ROOT
HETATM    1  C   UNL     1      -8.889   3.124 -32.276  1.00  0.00     0.035 A 
HETATM    2  C   UNL     1     -10.230   2.998 -32.664  1.00  0.00     0.046 A 
HETATM    3  C   UNL     1     -11.236   3.637 -31.906  1.00  0.00     0.030 A 
HETATM    4  C   UNL     1     -10.866   4.403 -30.808  1.00  0.00     0.063 A 
HETATM    5  N   UNL     1     -12.034   4.890 -30.295  1.00  0.00    -0.277 N 
HETATM    6  H   UNL     1     -12.145   5.495 -29.490  1.00  0.00     0.189 HD
HETATM    7  N   UNL     1     -13.138   4.488 -30.944  1.00  0.00    -0.168 NA
HETATM    8  C   UNL     1     -12.662   3.707 -31.942  1.00  0.00     0.156 A 
HETATM    9  C   UNL     1      -9.539   4.561 -30.402  1.00  0.00     0.034 A 
HETATM   10  C   UNL     1      -8.562   3.894 -31.152  1.00  0.00     0.032 A 
ENDROOT
BRANCH   1  11
HETATM   11  N   UNL     1      -7.829   2.464 -32.930  1.00  0.00    -0.327 N 
HETATM   12  C   UNL     1      -6.948   1.549 -32.380  1.00  0.00     0.226 C 
HETATM   13  O   UNL     1      -7.050   1.008 -31.282  1.00  0.00    -0.273 OA
HETATM   14  H   UNL     1      -7.691   2.699 -33.905  1.00  0.00     0.169 HD
BRANCH  12  15
HETATM   15  C   UNL     1      -5.761   1.253 -33.286  1.00  0.00     0.141 C 
BRANCH  15  16
HETATM   16  C   UNL     1      -5.734  -0.194 -33.719  1.00  0.00    -0.049 A 
HETATM   17  C   UNL     1      -6.754  -0.701 -34.532  1.00  0.00     0.008 A 
HETATM   18  C   UNL     1      -6.763  -2.044 -34.907  1.00  0.00     0.013 A 
HETATM   19  C   UNL     1      -5.747  -2.913 -34.482  1.00  0.00    -0.026 A 
HETATM   20  C   UNL     1      -5.750  -4.269 -34.842  1.00  0.00     0.012 A 
HETATM   21  C   UNL     1      -4.702  -2.411 -33.673  1.00  0.00    -0.025 A 
HETATM   22  C   UNL     1      -4.734  -5.122 -34.411  1.00  0.00     0.001 A 
HETATM   23  C   UNL     1      -3.703  -4.630 -33.618  1.00  0.00     0.001 A 
HETATM   24  C   UNL     1      -3.685  -3.283 -33.251  1.00  0.00     0.012 A 
HETATM   25  C   UNL     1      -4.706  -1.053 -33.303  1.00  0.00     0.020 A 
ENDBRANCH  15  16
ENDBRANCH  12  15
ENDBRANCH   1  11
BRANCH   8  26
HETATM   26  C   UNL     1     -13.570   3.037 -32.883  1.00  0.00     0.270 C 
HETATM   27  N   UNL     1     -13.563   3.574 -34.142  1.00  0.00    -0.365 N 
HETATM   28  H   UNL     1     -12.973   4.377 -34.323  1.00  0.00     0.159 HD
HETATM   29  H   UNL     1     -14.179   3.200 -34.845  1.00  0.00     0.159 HD
HETATM   30  O   UNL     1     -14.295   2.089 -32.603  1.00  0.00    -0.266 OA
ENDBRANCH   8  26
TORSDOF 4
ENDMDL
