MODEL 1
REMARK VINA RESULT:      -9.0      0.000      0.000
REMARK  3 active torsions:
REMARK  status: ('A' for Active; 'I' for Inactive)
REMARK    1  A    between atoms: C_3  and  C_4 
REMARK       I    between atoms: C_4  and  N_5 
REMARK    2  A    between atoms: N_5  and  C_6 
REMARK    3  A    between atoms: C_13  and  C_14 
REMARK       I    between atoms: C_14  and  N_15 
ROOT
HETATM    1  C   UNL     1      -3.551   3.548 -32.760  1.00  0.00     0.035 A 
HETATM    2  C   UNL     1      -2.380   4.027 -32.157  1.00  0.00     0.046 A 
HETATM    3  C   UNL     1      -1.980   5.362 -32.377  1.00  0.00     0.030 A 
HETATM    4  C   UNL     1      -2.750   6.165 -33.208  1.00  0.00     0.063 A 
HETATM    5  N   UNL     1      -2.118   7.377 -33.227  1.00  0.00    -0.277 N 
HETATM    6  H   UNL     1      -2.400   8.208 -33.735  1.00  0.00     0.189 HD
HETATM    7  N   UNL     1      -1.013   7.441 -32.467  1.00  0.00    -0.168 NA
HETATM    8  C   UNL     1      -0.915   6.202 -31.932  1.00  0.00     0.156 A 
HETATM    9  C   UNL     1      -3.915   5.718 -33.834  1.00  0.00     0.034 A 
HETATM   10  C   UNL     1      -4.303   4.396 -33.584  1.00  0.00     0.032 A 
ENDROOT
BRANCH   1  11
HETATM   11  N   UNL     1      -4.058   2.254 -32.546  1.00  0.00    -0.325 N 
HETATM   12  C   UNL     1      -5.275   1.899 -31.990  1.00  0.00     0.252 C 
HETATM   13  O   UNL     1      -6.074   2.649 -31.437  1.00  0.00    -0.270 OA
HETATM   14  H   UNL     1      -3.473   1.470 -32.823  1.00  0.00     0.169 HD
BRANCH  12  15
HETATM   15  C   UNL     1      -5.604   0.418 -32.191  1.00  0.00     0.229 C 
HETATM   16  C   UNL     1      -6.689   0.199 -33.270  1.00  0.00     0.056 C 
HETATM   17  C   UNL     1      -6.697   1.206 -34.419  1.00  0.00     0.018 C 
HETATM   18  C   UNL     1      -6.240  -1.138 -33.749  1.00  0.00    -0.018 A 
HETATM   19  C   UNL     1      -4.944  -1.372 -33.315  1.00  0.00     0.076 A 
HETATM   20  C   UNL     1      -6.897  -2.053 -34.553  1.00  0.00     0.010 A 
HETATM   21  O   UNL     1      -4.430  -0.362 -32.545  1.00  0.00    -0.335 OA
HETATM   22  C   UNL     1      -4.250  -2.511 -33.669  1.00  0.00     0.037 A 
HETATM   23  C   UNL     1      -4.902  -3.447 -34.475  1.00  0.00     0.003 A 
HETATM   24  C   UNL     1      -6.218  -3.220 -34.913  1.00  0.00     0.001 A 
ENDBRANCH  12  15
ENDBRANCH   1  11
BRANCH   8  25
HETATM   25  C   UNL     1       0.173   5.855 -31.005  1.00  0.00     0.270 C 
HETATM   26  N   UNL     1       0.415   6.805 -30.051  1.00  0.00    -0.365 N 
HETATM   27  H   UNL     1      -0.157   7.641 -30.040  1.00  0.00     0.159 HD
HETATM   28  H   UNL     1       1.131   6.645 -29.359  1.00  0.00     0.159 HD
HETATM   29  O   UNL     1       0.821   4.815 -31.044  1.00  0.00    -0.266 OA
ENDBRANCH   8  25
TORSDOF 3
ENDMDL
MODEL 2
REMARK VINA RESULT:      -8.8      3.241      8.172
REMARK  3 active torsions:
REMARK  status: ('A' for Active; 'I' for Inactive)
REMARK    1  A    between atoms: C_3  and  C_4 
REMARK       I    between atoms: C_4  and  N_5 
REMARK    2  A    between atoms: N_5  and  C_6 
REMARK    3  A    between atoms: C_13  and  C_14 
REMARK       I    between atoms: C_14  and  N_15 
ROOT
HETATM    1  C   UNL     1      -5.846  -0.180 -33.870  1.00  0.00     0.035 A 
HETATM    2  C   UNL     1      -5.041  -1.299 -33.619  1.00  0.00     0.046 A 
HETATM    3  C   UNL     1      -5.463  -2.573 -34.058  1.00  0.00     0.030 A 
HETATM    4  C   UNL     1      -6.682  -2.687 -34.713  1.00  0.00     0.063 A 
HETATM    5  N   UNL     1      -6.813  -4.016 -35.005  1.00  0.00    -0.277 N 
HETATM    6  H   UNL     1      -7.586  -4.465 -35.481  1.00  0.00     0.189 HD
HETATM    7  N   UNL     1      -5.778  -4.776 -34.615  1.00  0.00    -0.168 NA
HETATM    8  C   UNL     1      -4.931  -3.897 -34.029  1.00  0.00     0.156 A 
HETATM    9  C   UNL     1      -7.514  -1.596 -34.969  1.00  0.00     0.034 A 
HETATM   10  C   UNL     1      -7.065  -0.339 -34.543  1.00  0.00     0.032 A 
ENDROOT
BRANCH   1  11
HETATM   11  N   UNL     1      -5.475   1.132 -33.526  1.00  0.00    -0.325 N 
HETATM   12  C   UNL     1      -5.820   1.843 -32.390  1.00  0.00     0.252 C 
HETATM   13  O   UNL     1      -6.644   1.513 -31.542  1.00  0.00    -0.270 OA
HETATM   14  H   UNL     1      -4.884   1.638 -34.181  1.00  0.00     0.169 HD
BRANCH  12  15
HETATM   15  C   UNL     1      -4.994   3.120 -32.221  1.00  0.00     0.229 C 
HETATM   16  C   UNL     1      -3.799   2.924 -31.261  1.00  0.00     0.056 C 
HETATM   17  C   UNL     1      -3.170   1.532 -31.258  1.00  0.00     0.018 C 
HETATM   18  C   UNL     1      -2.872   3.915 -31.874  1.00  0.00    -0.018 A 
HETATM   19  C   UNL     1      -3.323   4.244 -33.144  1.00  0.00     0.076 A 
HETATM   20  C   UNL     1      -1.693   4.443 -31.380  1.00  0.00     0.010 A 
HETATM   21  O   UNL     1      -4.494   3.622 -33.490  1.00  0.00    -0.335 OA
HETATM   22  C   UNL     1      -2.619   5.095 -33.971  1.00  0.00     0.037 A 
HETATM   23  C   UNL     1      -1.431   5.642 -33.484  1.00  0.00     0.003 A 
HETATM   24  C   UNL     1      -0.970   5.319 -32.196  1.00  0.00     0.001 A 
ENDBRANCH  12  15
ENDBRANCH   1  11
BRANCH   8  25
HETATM   25  C   UNL     1      -3.642  -4.334 -33.474  1.00  0.00     0.270 C 
HETATM   26  N   UNL     1      -3.026  -5.316 -34.201  1.00  0.00    -0.365 N 
HETATM   27  H   UNL     1      -3.477  -5.652 -35.044  1.00  0.00     0.159 HD
HETATM   28  H   UNL     1      -2.127  -5.665 -33.907  1.00  0.00     0.159 HD
HETATM   29  O   UNL     1      -3.124  -3.877 -32.461  1.00  0.00    -0.266 OA
ENDBRANCH   8  25
TORSDOF 3
ENDMDL
MODEL 3
REMARK VINA RESULT:      -8.6      5.718      8.347
REMARK  3 active torsions:
REMARK  status: ('A' for Active; 'I' for Inactive)
REMARK    1  A    between atoms: C_3  and  C_4 
REMARK       I    between atoms: C_4  and  N_5 
REMARK    2  A    between atoms: N_5  and  C_6 
REMARK    3  A    between atoms: C_13  and  C_14 
REMARK       I    between atoms: C_14  and  N_15 
ROOT
HETATM    1  C   UNL     1      -9.505   1.258 -33.575  1.00  0.00     0.035 A 
HETATM    2  C   UNL     1     -10.880   1.164 -33.830  1.00  0.00     0.046 A 
HETATM    3  C   UNL     1     -11.770   2.047 -33.181  1.00  0.00     0.030 A 
HETATM    4  C   UNL     1     -11.259   2.978 -32.287  1.00  0.00     0.063 A 
HETATM    5  N   UNL     1     -12.344   3.672 -31.828  1.00  0.00    -0.277 N 
HETATM    6  H   UNL     1     -12.346   4.430 -31.155  1.00  0.00     0.189 HD
HETATM    7  N   UNL     1     -13.516   3.288 -32.358  1.00  0.00    -0.168 NA
HETATM    8  C   UNL     1     -13.178   2.284 -33.201  1.00  0.00     0.156 A 
HETATM    9  C   UNL     1      -9.897   3.091 -32.000  1.00  0.00     0.034 A 
HETATM   10  C   UNL     1      -9.032   2.219 -32.671  1.00  0.00     0.032 A 
ENDROOT
BRANCH   1  11
HETATM   11  N   UNL     1      -8.542   0.464 -34.223  1.00  0.00    -0.325 N 
HETATM   12  C   UNL     1      -7.228   0.788 -34.512  1.00  0.00     0.252 C 
HETATM   13  O   UNL     1      -6.703   1.891 -34.394  1.00  0.00    -0.270 OA
HETATM   14  H   UNL     1      -8.828  -0.463 -34.527  1.00  0.00     0.169 HD
BRANCH  12  15
HETATM   15  C   UNL     1      -6.406  -0.425 -34.951  1.00  0.00     0.229 C 
HETATM   16  C   UNL     1      -5.241  -0.728 -33.981  1.00  0.00     0.056 C 
HETATM   17  C   UNL     1      -5.497  -0.397 -32.512  1.00  0.00     0.018 C 
HETATM   18  C   UNL     1      -5.180  -2.203 -34.182  1.00  0.00    -0.018 A 
HETATM   19  C   UNL     1      -6.347  -2.634 -34.795  1.00  0.00     0.076 A 
HETATM   20  C   UNL     1      -4.201  -3.104 -33.803  1.00  0.00     0.010 A 
HETATM   21  O   UNL     1      -7.221  -1.621 -35.088  1.00  0.00    -0.335 OA
HETATM   22  C   UNL     1      -6.590  -3.969 -35.043  1.00  0.00     0.037 A 
HETATM   23  C   UNL     1      -5.609  -4.891 -34.673  1.00  0.00     0.003 A 
HETATM   24  C   UNL     1      -4.421  -4.461 -34.058  1.00  0.00     0.001 A 
ENDBRANCH  12  15
ENDBRANCH   1  11
BRANCH   8  25
HETATM   25  C   UNL     1     -14.192   1.592 -34.009  1.00  0.00     0.270 C 
HETATM   26  N   UNL     1     -15.464   1.696 -33.515  1.00  0.00    -0.365 N 
HETATM   27  H   UNL     1     -15.614   2.233 -32.669  1.00  0.00     0.159 HD
HETATM   28  H   UNL     1     -16.229   1.269 -34.013  1.00  0.00     0.159 HD
HETATM   29  O   UNL     1     -13.963   0.975 -35.043  1.00  0.00    -0.266 OA
ENDBRANCH   8  25
TORSDOF 3
ENDMDL
MODEL 4
REMARK VINA RESULT:      -8.4      1.577      2.160
REMARK  3 active torsions:
REMARK  status: ('A' for Active; 'I' for Inactive)
REMARK    1  A    between atoms: C_3  and  C_4 
REMARK       I    between atoms: C_4  and  N_5 
REMARK    2  A    between atoms: N_5  and  C_6 
REMARK    3  A    between atoms: C_13  and  C_14 
REMARK       I    between atoms: C_14  and  N_15 
ROOT
HETATM    1  C   UNL     1      -4.063   3.247 -32.290  1.00  0.00     0.035 A 
HETATM    2  C   UNL     1      -2.837   3.758 -31.843  1.00  0.00     0.046 A 
HETATM    3  C   UNL     1      -2.798   5.014 -31.201  1.00  0.00     0.030 A 
HETATM    4  C   UNL     1      -3.981   5.725 -31.046  1.00  0.00     0.063 A 
HETATM    5  N   UNL     1      -3.628   6.880 -30.406  1.00  0.00    -0.277 N 
HETATM    6  H   UNL     1      -4.240   7.641 -30.132  1.00  0.00     0.189 HD
HETATM    7  N   UNL     1      -2.322   6.977 -30.112  1.00  0.00    -0.168 NA
HETATM    8  C   UNL     1      -1.794   5.828 -30.595  1.00  0.00     0.156 A 
HETATM    9  C   UNL     1      -5.218   5.253 -31.490  1.00  0.00     0.034 A 
HETATM   10  C   UNL     1      -5.234   3.995 -32.106  1.00  0.00     0.032 A 
ENDROOT
BRANCH   1  11
HETATM   11  N   UNL     1      -4.203   1.979 -32.881  1.00  0.00    -0.325 N 
HETATM   12  C   UNL     1      -5.112   0.987 -32.558  1.00  0.00     0.252 C 
HETATM   13  O   UNL     1      -5.865   0.971 -31.589  1.00  0.00    -0.270 OA
HETATM   14  H   UNL     1      -3.567   1.742 -33.637  1.00  0.00     0.169 HD
BRANCH  12  15
HETATM   15  C   UNL     1      -5.163  -0.128 -33.605  1.00  0.00     0.229 C 
HETATM   16  C   UNL     1      -4.061  -1.190 -33.385  1.00  0.00     0.056 C 
HETATM   17  C   UNL     1      -3.663  -1.444 -31.932  1.00  0.00     0.018 C 
HETATM   18  C   UNL     1      -4.789  -2.365 -33.941  1.00  0.00    -0.018 A 
HETATM   19  C   UNL     1      -6.141  -2.070 -34.031  1.00  0.00     0.076 A 
HETATM   20  C   UNL     1      -4.310  -3.617 -34.285  1.00  0.00     0.010 A 
HETATM   21  O   UNL     1      -6.453  -0.795 -33.635  1.00  0.00    -0.335 OA
HETATM   22  C   UNL     1      -7.065  -3.002 -34.454  1.00  0.00     0.037 A 
HETATM   23  C   UNL     1      -6.597  -4.268 -34.812  1.00  0.00     0.003 A 
HETATM   24  C   UNL     1      -5.227  -4.573 -34.729  1.00  0.00     0.001 A 
ENDBRANCH  12  15
ENDBRANCH   1  11
BRANCH   8  25
HETATM   25  C   UNL     1      -0.362   5.529 -30.455  1.00  0.00     0.270 C 
HETATM   26  N   UNL     1       0.428   6.637 -30.315  1.00  0.00    -0.365 N 
HETATM   27  H   UNL     1      -0.012   7.549 -30.303  1.00  0.00     0.159 HD
HETATM   28  H   UNL     1       1.423   6.528 -30.193  1.00  0.00     0.159 HD
HETATM   29  O   UNL     1       0.121   4.402 -30.450  1.00  0.00    -0.266 OA
ENDBRANCH   8  25
TORSDOF 3
ENDMDL
MODEL 5
REMARK VINA RESULT:      -8.4      2.414      8.326
REMARK  3 active torsions:
REMARK  status: ('A' for Active; 'I' for Inactive)
REMARK    1  A    between atoms: C_3  and  C_4 
REMARK       I    between atoms: C_4  and  N_5 
REMARK    2  A    between atoms: N_5  and  C_6 
REMARK    3  A    between atoms: C_13  and  C_14 
REMARK       I    between atoms: C_14  and  N_15 
ROOT
HETATM    1  C   UNL     1      -3.750   2.602 -32.059  1.00  0.00     0.035 A 
HETATM    2  C   UNL     1      -3.664   1.228 -32.320  1.00  0.00     0.046 A 
HETATM    3  C   UNL     1      -4.836   0.501 -32.618  1.00  0.00     0.030 A 
HETATM    4  C   UNL     1      -6.055   1.166 -32.625  1.00  0.00     0.063 A 
HETATM    5  N   UNL     1      -6.985   0.215 -32.938  1.00  0.00    -0.277 N 
HETATM    6  H   UNL     1      -7.986   0.344 -33.029  1.00  0.00     0.189 HD
HETATM    7  N   UNL     1      -6.478  -1.009 -33.154  1.00  0.00    -0.168 NA
HETATM    8  C   UNL     1      -5.148  -0.849 -32.963  1.00  0.00     0.156 A 
HETATM    9  C   UNL     1      -6.179   2.532 -32.359  1.00  0.00     0.034 A 
HETATM   10  C   UNL     1      -5.000   3.236 -32.085  1.00  0.00     0.032 A 
ENDROOT
BRANCH   1  11
HETATM   11  N   UNL     1      -2.629   3.415 -31.816  1.00  0.00    -0.325 N 
HETATM   12  C   UNL     1      -2.062   4.355 -32.659  1.00  0.00     0.252 C 
HETATM   13  O   UNL     1      -2.340   4.542 -33.839  1.00  0.00    -0.270 OA
HETATM   14  H   UNL     1      -2.162   3.313 -30.919  1.00  0.00     0.169 HD
BRANCH  12  15
HETATM   15  C   UNL     1      -1.045   5.249 -31.945  1.00  0.00     0.229 C 
HETATM   16  C   UNL     1      -1.658   6.596 -31.500  1.00  0.00     0.056 C 
HETATM   17  C   UNL     1      -3.134   6.558 -31.111  1.00  0.00     0.018 C 
HETATM   18  C   UNL     1      -0.806   6.826 -30.299  1.00  0.00    -0.018 A 
HETATM   19  C   UNL     1      -0.179   5.642 -29.945  1.00  0.00     0.076 A 
HETATM   20  C   UNL     1      -0.641   7.972 -29.542  1.00  0.00     0.010 A 
HETATM   21  O   UNL     1      -0.460   4.597 -30.785  1.00  0.00    -0.335 OA
HETATM   22  C   UNL     1       0.623   5.547 -28.826  1.00  0.00     0.037 A 
HETATM   23  C   UNL     1       0.805   6.696 -28.055  1.00  0.00     0.003 A 
HETATM   24  C   UNL     1       0.177   7.902 -28.411  1.00  0.00     0.001 A 
ENDBRANCH  12  15
ENDBRANCH   1  11
BRANCH   8  25
HETATM   25  C   UNL     1      -4.213  -1.971 -33.126  1.00  0.00     0.270 C 
HETATM   26  N   UNL     1      -4.369  -2.661 -34.297  1.00  0.00    -0.365 N 
HETATM   27  H   UNL     1      -5.080  -2.355 -34.950  1.00  0.00     0.159 HD
HETATM   28  H   UNL     1      -3.758  -3.436 -34.505  1.00  0.00     0.159 HD
HETATM   29  O   UNL     1      -3.349  -2.287 -32.315  1.00  0.00    -0.266 OA
ENDBRANCH   8  25
TORSDOF 3
ENDMDL
MODEL 6
REMARK VINA RESULT:      -8.4      4.253      4.895
REMARK  3 active torsions:
REMARK  status: ('A' for Active; 'I' for Inactive)
REMARK    1  A    between atoms: C_3  and  C_4 
REMARK       I    between atoms: C_4  and  N_5 
REMARK    2  A    between atoms: N_5  and  C_6 
REMARK    3  A    between atoms: C_13  and  C_14 
REMARK       I    between atoms: C_14  and  N_15 
ROOT
HETATM    1  C   UNL     1      -7.454   3.576 -30.926  1.00  0.00     0.035 A 
HETATM    2  C   UNL     1      -6.668   4.297 -30.017  1.00  0.00     0.046 A 
HETATM    3  C   UNL     1      -7.267   5.289 -29.212  1.00  0.00     0.030 A 
HETATM    4  C   UNL     1      -8.625   5.541 -29.357  1.00  0.00     0.063 A 
HETATM    5  N   UNL     1      -8.907   6.535 -28.462  1.00  0.00    -0.277 N 
HETATM    6  H   UNL     1      -9.806   6.973 -28.295  1.00  0.00     0.189 HD
HETATM    7  N   UNL     1      -7.856   6.942 -27.733  1.00  0.00    -0.168 NA
HETATM    8  C   UNL     1      -6.833   6.178 -28.183  1.00  0.00     0.156 A 
HETATM    9  C   UNL     1      -9.436   4.850 -30.260  1.00  0.00     0.034 A 
HETATM   10  C   UNL     1      -8.823   3.857 -31.033  1.00  0.00     0.032 A 
ENDROOT
BRANCH   1  11
HETATM   11  N   UNL     1      -6.954   2.529 -31.720  1.00  0.00    -0.325 N 
HETATM   12  C   UNL     1      -7.429   1.233 -31.815  1.00  0.00     0.252 C 
HETATM   13  O   UNL     1      -8.282   0.712 -31.103  1.00  0.00    -0.270 OA
HETATM   14  H   UNL     1      -6.143   2.728 -32.301  1.00  0.00     0.169 HD
BRANCH  12  15
HETATM   15  C   UNL     1      -6.823   0.468 -32.994  1.00  0.00     0.229 C 
HETATM   16  C   UNL     1      -5.366   0.028 -32.721  1.00  0.00     0.056 C 
HETATM   17  C   UNL     1      -5.033  -0.304 -31.268  1.00  0.00     0.018 C 
HETATM   18  C   UNL     1      -5.362  -1.207 -33.554  1.00  0.00    -0.018 A 
HETATM   19  C   UNL     1      -6.668  -1.569 -33.850  1.00  0.00     0.076 A 
HETATM   20  C   UNL     1      -4.297  -1.986 -33.971  1.00  0.00     0.010 A 
HETATM   21  O   UNL     1      -7.605  -0.703 -33.350  1.00  0.00    -0.335 OA
HETATM   22  C   UNL     1      -6.965  -2.716 -34.557  1.00  0.00     0.037 A 
HETATM   23  C   UNL     1      -5.901  -3.509 -34.990  1.00  0.00     0.003 A 
HETATM   24  C   UNL     1      -4.575  -3.146 -34.700  1.00  0.00     0.001 A 
ENDBRANCH  12  15
ENDBRANCH   1  11
BRANCH   8  25
HETATM   25  C   UNL     1      -5.482   6.302 -27.617  1.00  0.00     0.270 C 
HETATM   26  N   UNL     1      -5.106   5.244 -26.834  1.00  0.00    -0.365 N 
HETATM   27  H   UNL     1      -5.754   4.473 -26.716  1.00  0.00     0.159 HD
HETATM   28  H   UNL     1      -4.188   5.231 -26.419  1.00  0.00     0.159 HD
HETATM   29  O   UNL     1      -4.724   7.246 -27.812  1.00  0.00    -0.266 OA
ENDBRANCH   8  25
TORSDOF 3
ENDMDL
MODEL 7
REMARK VINA RESULT:      -8.2      5.442      7.462
REMARK  3 active torsions:
REMARK  status: ('A' for Active; 'I' for Inactive)
REMARK    1  A    between atoms: C_3  and  C_4 
REMARK       I    between atoms: C_4  and  N_5 
REMARK    2  A    between atoms: N_5  and  C_6 
REMARK    3  A    between atoms: C_13  and  C_14 
REMARK       I    between atoms: C_14  and  N_15 
ROOT
HETATM    1  C   UNL     1      -8.426   2.475 -34.099  1.00  0.00     0.035 A 
HETATM    2  C   UNL     1      -9.815   2.380 -34.250  1.00  0.00     0.046 A 
HETATM    3  C   UNL     1     -10.608   3.544 -34.147  1.00  0.00     0.030 A 
HETATM    4  C   UNL     1      -9.988   4.756 -33.877  1.00  0.00     0.063 A 
HETATM    5  N   UNL     1     -10.996   5.677 -33.834  1.00  0.00    -0.277 N 
HETATM    6  H   UNL     1     -10.912   6.672 -33.657  1.00  0.00     0.189 HD
HETATM    7  N   UNL     1     -12.219   5.176 -34.072  1.00  0.00    -0.168 NA
HETATM    8  C   UNL     1     -11.995   3.856 -34.271  1.00  0.00     0.156 A 
HETATM    9  C   UNL     1      -8.608   4.885 -33.708  1.00  0.00     0.034 A 
HETATM   10  C   UNL     1      -7.840   3.721 -33.835  1.00  0.00     0.032 A 
ENDROOT
BRANCH   1  11
HETATM   11  N   UNL     1      -7.555   1.381 -34.248  1.00  0.00    -0.325 N 
HETATM   12  C   UNL     1      -7.764   0.069 -33.860  1.00  0.00     0.252 C 
HETATM   13  O   UNL     1      -8.687  -0.352 -33.171  1.00  0.00    -0.270 OA
HETATM   14  H   UNL     1      -6.656   1.555 -34.691  1.00  0.00     0.169 HD
BRANCH  12  15
HETATM   15  C   UNL     1      -6.729  -0.891 -34.451  1.00  0.00     0.229 C 
HETATM   16  C   UNL     1      -5.445  -0.971 -33.594  1.00  0.00     0.056 C 
HETATM   17  C   UNL     1      -5.640  -0.797 -32.089  1.00  0.00     0.018 C 
HETATM   18  C   UNL     1      -5.068  -2.376 -33.913  1.00  0.00    -0.018 A 
HETATM   19  C   UNL     1      -6.155  -3.031 -34.472  1.00  0.00     0.076 A 
HETATM   20  C   UNL     1      -3.880  -3.046 -33.677  1.00  0.00     0.010 A 
HETATM   21  O   UNL     1      -7.259  -2.233 -34.622  1.00  0.00    -0.335 OA
HETATM   22  C   UNL     1      -6.109  -4.368 -34.806  1.00  0.00     0.037 A 
HETATM   23  C   UNL     1      -4.915  -5.056 -34.580  1.00  0.00     0.003 A 
HETATM   24  C   UNL     1      -3.807  -4.398 -34.020  1.00  0.00     0.001 A 
ENDBRANCH  12  15
ENDBRANCH   1  11
BRANCH   8  25
HETATM   25  C   UNL     1     -13.097   2.934 -34.586  1.00  0.00     0.270 C 
HETATM   26  N   UNL     1     -14.139   2.989 -33.702  1.00  0.00    -0.365 N 
HETATM   27  H   UNL     1     -14.088   3.644 -32.930  1.00  0.00     0.159 HD
HETATM   28  H   UNL     1     -14.949   2.407 -33.848  1.00  0.00     0.159 HD
HETATM   29  O   UNL     1     -13.122   2.177 -35.550  1.00  0.00    -0.266 OA
ENDBRANCH   8  25
TORSDOF 3
ENDMDL
MODEL 8
REMARK VINA RESULT:      -8.2      3.053      8.458
REMARK  3 active torsions:
REMARK  status: ('A' for Active; 'I' for Inactive)
REMARK    1  A    between atoms: C_3  and  C_4 
REMARK       I    between atoms: C_4  and  N_5 
REMARK    2  A    between atoms: N_5  and  C_6 
REMARK    3  A    between atoms: C_13  and  C_14 
REMARK       I    between atoms: C_14  and  N_15 
ROOT
HETATM    1  C   UNL     1      -3.707   2.381 -31.376  1.00  0.00     0.035 A 
HETATM    2  C   UNL     1      -5.056   2.758 -31.312  1.00  0.00     0.046 A 
HETATM    3  C   UNL     1      -6.058   1.766 -31.365  1.00  0.00     0.030 A 
HETATM    4  C   UNL     1      -5.682   0.436 -31.500  1.00  0.00     0.063 A 
HETATM    5  N   UNL     1      -6.851  -0.271 -31.524  1.00  0.00    -0.277 N 
HETATM    6  H   UNL     1      -6.958  -1.275 -31.615  1.00  0.00     0.189 HD
HETATM    7  N   UNL     1      -7.958   0.478 -31.398  1.00  0.00    -0.168 NA
HETATM    8  C   UNL     1      -7.484   1.742 -31.295  1.00  0.00     0.156 A 
HETATM    9  C   UNL     1      -4.349   0.026 -31.578  1.00  0.00     0.034 A 
HETATM   10  C   UNL     1      -3.371   1.026 -31.503  1.00  0.00     0.032 A 
ENDROOT
BRANCH   1  11
HETATM   11  N   UNL     1      -2.643   3.294 -31.267  1.00  0.00    -0.325 N 
HETATM   12  C   UNL     1      -2.257   4.261 -32.177  1.00  0.00     0.252 C 
HETATM   13  O   UNL     1      -2.676   4.399 -33.322  1.00  0.00    -0.270 OA
HETATM   14  H   UNL     1      -2.075   3.252 -30.425  1.00  0.00     0.169 HD
BRANCH  12  15
HETATM   15  C   UNL     1      -1.252   5.255 -31.589  1.00  0.00     0.229 C 
HETATM   16  C   UNL     1      -1.927   6.564 -31.120  1.00  0.00     0.056 C 
HETATM   17  C   UNL     1      -3.351   6.423 -30.587  1.00  0.00     0.018 C 
HETATM   18  C   UNL     1      -0.986   6.899 -30.015  1.00  0.00    -0.018 A 
HETATM   19  C   UNL     1      -0.233   5.780 -29.694  1.00  0.00     0.076 A 
HETATM   20  C   UNL     1      -0.843   8.079 -29.306  1.00  0.00     0.010 A 
HETATM   21  O   UNL     1      -0.508   4.689 -30.477  1.00  0.00    -0.335 OA
HETATM   22  C   UNL     1       0.677   5.785 -28.657  1.00  0.00     0.037 A 
HETATM   23  C   UNL     1       0.838   6.970 -27.937  1.00  0.00     0.003 A 
HETATM   24  C   UNL     1       0.083   8.111 -28.260  1.00  0.00     0.001 A 
ENDBRANCH  12  15
ENDBRANCH   1  11
BRANCH   8  25
HETATM   25  C   UNL     1      -8.392   2.885 -31.120  1.00  0.00     0.270 C 
HETATM   26  N   UNL     1      -9.499   2.607 -30.365  1.00  0.00    -0.365 N 
HETATM   27  H   UNL     1      -9.605   1.674 -29.983  1.00  0.00     0.159 HD
HETATM   28  H   UNL     1     -10.169   3.335 -30.175  1.00  0.00     0.159 HD
HETATM   29  O   UNL     1      -8.206   4.005 -31.582  1.00  0.00    -0.266 OA
ENDBRANCH   8  25
TORSDOF 3
ENDMDL
MODEL 9
REMARK VINA RESULT:      -8.1      2.034      2.455
REMARK  3 active torsions:
REMARK  status: ('A' for Active; 'I' for Inactive)
REMARK    1  A    between atoms: C_3  and  C_4 
REMARK       I    between atoms: C_4  and  N_5 
REMARK    2  A    between atoms: N_5  and  C_6 
REMARK    3  A    between atoms: C_13  and  C_14 
REMARK       I    between atoms: C_14  and  N_15 
ROOT
HETATM    1  C   UNL     1      -5.083   3.042 -31.678  1.00  0.00     0.035 A 
HETATM    2  C   UNL     1      -4.291   3.702 -32.627  1.00  0.00     0.046 A 
HETATM    3  C   UNL     1      -3.933   5.051 -32.418  1.00  0.00     0.030 A 
HETATM    4  C   UNL     1      -4.395   5.700 -31.281  1.00  0.00     0.063 A 
HETATM    5  N   UNL     1      -3.895   6.969 -31.360  1.00  0.00    -0.277 N 
HETATM    6  H   UNL     1      -4.032   7.725 -30.698  1.00  0.00     0.189 HD
HETATM    7  N   UNL     1      -3.131   7.201 -32.439  1.00  0.00    -0.168 NA
HETATM    8  C   UNL     1      -3.142   6.022 -33.104  1.00  0.00     0.156 A 
HETATM    9  C   UNL     1      -5.195   5.077 -30.321  1.00  0.00     0.034 A 
HETATM   10  C   UNL     1      -5.520   3.733 -30.539  1.00  0.00     0.032 A 
ENDROOT
BRANCH   1  11
HETATM   11  N   UNL     1      -5.433   1.684 -31.772  1.00  0.00    -0.325 N 
HETATM   12  C   UNL     1      -6.653   1.144 -32.143  1.00  0.00     0.252 C 
HETATM   13  O   UNL     1      -7.704   1.755 -32.308  1.00  0.00    -0.270 OA
HETATM   14  H   UNL     1      -4.719   0.999 -31.542  1.00  0.00     0.169 HD
BRANCH  12  15
HETATM   15  C   UNL     1      -6.572  -0.359 -32.418  1.00  0.00     0.229 C 
HETATM   16  C   UNL     1      -7.313  -0.760 -33.714  1.00  0.00     0.056 C 
HETATM   17  C   UNL     1      -7.307   0.281 -34.832  1.00  0.00     0.018 C 
HETATM   18  C   UNL     1      -6.468  -1.930 -34.084  1.00  0.00    -0.018 A 
HETATM   19  C   UNL     1      -5.280  -1.885 -33.371  1.00  0.00     0.076 A 
HETATM   20  C   UNL     1      -6.699  -2.924 -35.018  1.00  0.00     0.010 A 
HETATM   21  O   UNL     1      -5.199  -0.829 -32.501  1.00  0.00    -0.335 OA
HETATM   22  C   UNL     1      -4.277  -2.813 -33.564  1.00  0.00     0.037 A 
HETATM   23  C   UNL     1      -4.498  -3.827 -34.498  1.00  0.00     0.003 A 
HETATM   24  C   UNL     1      -5.703  -3.882 -35.220  1.00  0.00     0.001 A 
ENDBRANCH  12  15
ENDBRANCH   1  11
BRANCH   8  25
HETATM   25  C   UNL     1      -2.394   5.846 -34.357  1.00  0.00     0.270 C 
HETATM   26  N   UNL     1      -1.129   6.366 -34.329  1.00  0.00    -0.365 N 
HETATM   27  H   UNL     1      -0.804   6.806 -33.476  1.00  0.00     0.159 HD
HETATM   28  H   UNL     1      -0.534   6.274 -35.138  1.00  0.00     0.159 HD
HETATM   29  O   UNL     1      -2.825   5.280 -35.356  1.00  0.00    -0.266 OA
ENDBRANCH   8  25
TORSDOF 3
ENDMDL
MODEL 10
REMARK VINA RESULT:      -8.1     16.754     18.441
REMARK  3 active torsions:
REMARK  status: ('A' for Active; 'I' for Inactive)
REMARK    1  A    between atoms: C_3  and  C_4 
REMARK       I    between atoms: C_4  and  N_5 
REMARK    2  A    between atoms: N_5  and  C_6 
REMARK    3  A    between atoms: C_13  and  C_14 
REMARK       I    between atoms: C_14  and  N_15 
ROOT
HETATM    1  C   UNL     1      -2.198 -14.448 -38.729  1.00  0.00     0.035 A 
HETATM    2  C   UNL     1      -1.257 -15.080 -37.904  1.00  0.00     0.046 A 
HETATM    3  C   UNL     1       0.076 -15.215 -38.347  1.00  0.00     0.030 A 
HETATM    4  C   UNL     1       0.419 -14.734 -39.603  1.00  0.00     0.063 A 
HETATM    5  N   UNL     1       1.750 -15.009 -39.746  1.00  0.00    -0.277 N 
HETATM    6  H   UNL     1       2.337 -14.800 -40.545  1.00  0.00     0.189 HD
HETATM    7  N   UNL     1       2.311 -15.611 -38.685  1.00  0.00    -0.168 NA
HETATM    8  C   UNL     1       1.288 -15.743 -37.808  1.00  0.00     0.156 A 
HETATM    9  C   UNL     1      -0.495 -14.110 -40.455  1.00  0.00     0.034 A 
HETATM   10  C   UNL     1      -1.807 -13.968 -39.986  1.00  0.00     0.032 A 
ENDROOT
BRANCH   1  11
HETATM   11  N   UNL     1      -3.530 -14.212 -38.344  1.00  0.00    -0.325 N 
HETATM   12  C   UNL     1      -4.073 -13.047 -37.833  1.00  0.00     0.252 C 
HETATM   13  O   UNL     1      -3.458 -12.047 -37.474  1.00  0.00    -0.270 OA
HETATM   14  H   UNL     1      -4.188 -14.980 -38.442  1.00  0.00     0.169 HD
BRANCH  12  15
HETATM   15  C   UNL     1      -5.604 -13.071 -37.812  1.00  0.00     0.229 C 
HETATM   16  C   UNL     1      -6.220 -12.150 -38.889  1.00  0.00     0.056 C 
HETATM   17  C   UNL     1      -5.418 -12.009 -40.181  1.00  0.00     0.018 C 
HETATM   18  C   UNL     1      -7.472 -12.921 -39.131  1.00  0.00    -0.018 A 
HETATM   19  C   UNL     1      -7.335 -14.198 -38.610  1.00  0.00     0.076 A 
HETATM   20  C   UNL     1      -8.620 -12.549 -39.809  1.00  0.00     0.010 A 
HETATM   21  O   UNL     1      -6.134 -14.413 -37.987  1.00  0.00    -0.335 OA
HETATM   22  C   UNL     1      -8.321 -15.153 -38.749  1.00  0.00     0.037 A 
HETATM   23  C   UNL     1      -9.488 -14.791 -39.425  1.00  0.00     0.003 A 
HETATM   24  C   UNL     1      -9.637 -13.496 -39.951  1.00  0.00     0.001 A 
ENDBRANCH  12  15
ENDBRANCH   1  11
BRANCH   8  25
HETATM   25  C   UNL     1       1.491 -16.350 -36.485  1.00  0.00     0.270 C 
HETATM   26  N   UNL     1       2.284 -17.466 -36.499  1.00  0.00    -0.365 N 
HETATM   27  H   UNL     1       2.671 -17.775 -37.383  1.00  0.00     0.159 HD
HETATM   28  H   UNL     1       2.495 -17.938 -35.634  1.00  0.00     0.159 HD
HETATM   29  O   UNL     1       1.020 -15.921 -35.437  1.00  0.00    -0.266 OA
ENDBRANCH   8  25
TORSDOF 3
ENDMDL
