MODEL 1
REMARK VINA RESULT:      -6.8      0.000      0.000
REMARK  9 active torsions:
REMARK  status: ('A' for Active; 'I' for Inactive)
REMARK    1  A    between atoms: C_2  and  C_3 
REMARK    2  A    between atoms: C_3  and  O_4 
REMARK    3  A    between atoms: C_3  and  C_5 
REMARK    4  A    between atoms: C_5  and  N_6 
REMARK    5  A    between atoms: N_6  and  C_8 
REMARK    6  A    between atoms: N_6  and  C_21 
REMARK    7  A    between atoms: C_8  and  C_9 
REMARK    8  A    between atoms: C_10  and  C_11 
REMARK    9  A    between atoms: C_21  and  C_22 
ROOT
HETATM    1  N   UNL     1     -10.216   2.287 -33.522  1.00  0.00    -0.061 N 
HETATM    2  H   UNL     1      -9.631   2.426 -34.349  1.00  0.00     0.280 HD
ENDROOT
BRANCH   1   3
HETATM    3  C   UNL     1     -11.644   2.535 -33.994  1.00  0.00     0.267 C 
BRANCH   3   4
HETATM    4  C   UNL     1     -12.177   1.441 -34.949  1.00  0.00     0.143 C 
BRANCH   4   5
HETATM    5  C   UNL     1     -13.551   0.956 -34.463  1.00  0.00     0.029 C 
HETATM    6  C   UNL     1     -13.483  -0.328 -33.647  1.00  0.00     0.007 C 
ENDBRANCH   4   5
BRANCH   4   7
HETATM    7  O   UNL     1     -12.290   1.984 -36.263  1.00  0.00    -0.394 OA
HETATM    8  H   UNL     1     -11.614   2.677 -36.382  1.00  0.00     0.210 HD
ENDBRANCH   4   7
ENDBRANCH   3   4
ENDBRANCH   1   3
BRANCH   1   9
HETATM    9  C   UNL     1      -9.658   3.261 -32.503  1.00  0.00     0.277 C 
BRANCH   9  10
HETATM   10  C   UNL     1      -8.540   4.175 -32.871  1.00  0.00     0.016 A 
HETATM   11  C   UNL     1      -7.145   3.886 -32.681  1.00  0.00     0.096 A 
HETATM   12  N   UNL     1      -6.384   4.923 -33.049  1.00  0.00    -0.174 NA
HETATM   13  N   UNL     1      -7.236   5.824 -33.536  1.00  0.00    -0.288 N 
HETATM   14  H   UNL     1      -6.857   6.688 -33.914  1.00  0.00     0.188 HD
HETATM   15  C   UNL     1      -8.542   5.441 -33.428  1.00  0.00     0.120 A 
BRANCH  11  16
HETATM   16  C   UNL     1      -6.529   2.684 -32.121  1.00  0.00    -0.005 A 
HETATM   17  C   UNL     1      -7.027   2.092 -30.953  1.00  0.00     0.014 A 
HETATM   18  C   UNL     1      -6.414   0.953 -30.425  1.00  0.00     0.001 A 
HETATM   19  C   UNL     1      -5.309   0.392 -31.064  1.00  0.00     0.000 A 
HETATM   20  C   UNL     1      -4.820   0.962 -32.238  1.00  0.00     0.001 A 
HETATM   21  C   UNL     1      -5.429   2.102 -32.766  1.00  0.00     0.014 A 
ENDBRANCH  11  16
ENDBRANCH   9  10
ENDBRANCH   1   9
BRANCH   1  22
HETATM   22  C   UNL     1      -9.971   0.853 -33.095  1.00  0.00     0.273 C 
BRANCH  22  23
HETATM   23  C   UNL     1      -8.750   0.245 -33.733  1.00  0.00    -0.033 A 
HETATM   24  C   UNL     1      -8.194   0.799 -34.897  1.00  0.00     0.009 A 
HETATM   25  C   UNL     1      -7.081   0.208 -35.498  1.00  0.00     0.001 A 
HETATM   26  C   UNL     1      -6.509  -0.934 -34.942  1.00  0.00     0.000 A 
HETATM   27  C   UNL     1      -7.045  -1.487 -33.781  1.00  0.00     0.001 A 
HETATM   28  C   UNL     1      -8.158  -0.901 -33.177  1.00  0.00     0.009 A 
ENDBRANCH  22  23
ENDBRANCH   1  22
TORSDOF 9
ENDMDL
MODEL 2
REMARK VINA RESULT:      -6.7      3.641      6.351
REMARK  9 active torsions:
REMARK  status: ('A' for Active; 'I' for Inactive)
REMARK    1  A    between atoms: C_2  and  C_3 
REMARK    2  A    between atoms: C_3  and  O_4 
REMARK    3  A    between atoms: C_3  and  C_5 
REMARK    4  A    between atoms: C_5  and  N_6 
REMARK    5  A    between atoms: N_6  and  C_8 
REMARK    6  A    between atoms: N_6  and  C_21 
REMARK    7  A    between atoms: C_8  and  C_9 
REMARK    8  A    between atoms: C_10  and  C_11 
REMARK    9  A    between atoms: C_21  and  C_22 
ROOT
HETATM    1  N   UNL     1      -4.170   1.671 -31.449  1.00  0.00    -0.061 N 
HETATM    2  H   UNL     1      -4.570   1.645 -32.390  1.00  0.00     0.280 HD
ENDROOT
BRANCH   1   3
HETATM    3  C   UNL     1      -3.109   0.576 -31.433  1.00  0.00     0.267 C 
BRANCH   3   4
HETATM    4  C   UNL     1      -3.660  -0.823 -31.794  1.00  0.00     0.143 C 
BRANCH   4   5
HETATM    5  C   UNL     1      -4.072  -0.850 -33.273  1.00  0.00     0.029 C 
HETATM    6  C   UNL     1      -4.300  -2.256 -33.811  1.00  0.00     0.007 C 
ENDBRANCH   4   5
BRANCH   4   7
HETATM    7  O   UNL     1      -2.648  -1.799 -31.553  1.00  0.00    -0.394 OA
HETATM    8  H   UNL     1      -2.724  -2.118 -30.634  1.00  0.00     0.210 HD
ENDBRANCH   4   7
ENDBRANCH   3   4
ENDBRANCH   1   3
BRANCH   1   9
HETATM    9  C   UNL     1      -5.362   1.474 -30.532  1.00  0.00     0.277 C 
BRANCH   9  10
HETATM   10  C   UNL     1      -6.600   2.280 -30.727  1.00  0.00     0.016 A 
HETATM   11  C   UNL     1      -7.514   2.132 -31.826  1.00  0.00     0.096 A 
HETATM   12  N   UNL     1      -8.496   3.039 -31.761  1.00  0.00    -0.174 NA
HETATM   13  N   UNL     1      -8.284   3.700 -30.625  1.00  0.00    -0.288 N 
HETATM   14  H   UNL     1      -8.949   4.421 -30.358  1.00  0.00     0.188 HD
HETATM   15  C   UNL     1      -7.146   3.308 -29.980  1.00  0.00     0.120 A 
BRANCH  11  16
HETATM   16  C   UNL     1      -7.451   1.196 -32.947  1.00  0.00    -0.005 A 
HETATM   17  C   UNL     1      -7.035   1.615 -34.218  1.00  0.00     0.014 A 
HETATM   18  C   UNL     1      -6.997   0.708 -35.280  1.00  0.00     0.001 A 
HETATM   19  C   UNL     1      -7.360  -0.623 -35.079  1.00  0.00     0.000 A 
HETATM   20  C   UNL     1      -7.754  -1.053 -33.813  1.00  0.00     0.001 A 
HETATM   21  C   UNL     1      -7.797  -0.148 -32.751  1.00  0.00     0.014 A 
ENDBRANCH  11  16
ENDBRANCH   9  10
ENDBRANCH   1   9
BRANCH   1  22
HETATM   22  C   UNL     1      -3.591   3.063 -31.298  1.00  0.00     0.273 C 
BRANCH  22  23
HETATM   23  C   UNL     1      -3.570   3.840 -32.588  1.00  0.00    -0.033 A 
HETATM   24  C   UNL     1      -4.764   4.184 -33.241  1.00  0.00     0.009 A 
HETATM   25  C   UNL     1      -4.733   4.876 -34.453  1.00  0.00     0.001 A 
HETATM   26  C   UNL     1      -3.512   5.235 -35.022  1.00  0.00     0.000 A 
HETATM   27  C   UNL     1      -2.321   4.909 -34.378  1.00  0.00     0.001 A 
HETATM   28  C   UNL     1      -2.348   4.216 -33.167  1.00  0.00     0.009 A 
ENDBRANCH  22  23
ENDBRANCH   1  22
TORSDOF 9
ENDMDL
MODEL 3
REMARK VINA RESULT:      -6.6      3.277      5.749
REMARK  9 active torsions:
REMARK  status: ('A' for Active; 'I' for Inactive)
REMARK    1  A    between atoms: C_2  and  C_3 
REMARK    2  A    between atoms: C_3  and  O_4 
REMARK    3  A    between atoms: C_3  and  C_5 
REMARK    4  A    between atoms: C_5  and  N_6 
REMARK    5  A    between atoms: N_6  and  C_8 
REMARK    6  A    between atoms: N_6  and  C_21 
REMARK    7  A    between atoms: C_8  and  C_9 
REMARK    8  A    between atoms: C_10  and  C_11 
REMARK    9  A    between atoms: C_21  and  C_22 
ROOT
HETATM    1  N   UNL     1      -6.043  -0.054 -31.695  1.00  0.00    -0.061 N 
HETATM    2  H   UNL     1      -6.320  -1.008 -31.454  1.00  0.00     0.280 HD
ENDROOT
BRANCH   1   3
HETATM    3  C   UNL     1      -4.860   0.263 -30.787  1.00  0.00     0.267 C 
BRANCH   3   4
HETATM    4  C   UNL     1      -3.578   0.653 -31.558  1.00  0.00     0.143 C 
BRANCH   4   5
HETATM    5  C   UNL     1      -3.382   2.175 -31.498  1.00  0.00     0.029 C 
HETATM    6  C   UNL     1      -4.514   2.901 -30.783  1.00  0.00     0.007 C 
ENDBRANCH   4   5
BRANCH   4   7
HETATM    7  O   UNL     1      -2.459  -0.006 -30.967  1.00  0.00    -0.394 OA
HETATM    8  H   UNL     1      -2.228   0.444 -30.132  1.00  0.00     0.210 HD
ENDBRANCH   4   7
ENDBRANCH   3   4
ENDBRANCH   1   3
BRANCH   1   9
HETATM    9  C   UNL     1      -7.302   0.766 -31.480  1.00  0.00     0.277 C 
BRANCH   9  10
HETATM   10  C   UNL     1      -8.239   1.011 -32.612  1.00  0.00     0.016 A 
HETATM   11  C   UNL     1      -8.220   2.172 -33.460  1.00  0.00     0.096 A 
HETATM   12  N   UNL     1      -9.223   2.138 -34.346  1.00  0.00    -0.174 NA
HETATM   13  N   UNL     1      -9.826   0.968 -34.143  1.00  0.00    -0.288 N 
HETATM   14  H   UNL     1     -10.606   0.719 -34.746  1.00  0.00     0.188 HD
HETATM   15  C   UNL     1      -9.298   0.265 -33.098  1.00  0.00     0.120 A 
BRANCH  11  16
HETATM   16  C   UNL     1      -7.314   3.319 -33.419  1.00  0.00    -0.005 A 
HETATM   17  C   UNL     1      -6.154   3.353 -34.204  1.00  0.00     0.014 A 
HETATM   18  C   UNL     1      -5.292   4.451 -34.138  1.00  0.00     0.001 A 
HETATM   19  C   UNL     1      -5.590   5.526 -33.300  1.00  0.00     0.000 A 
HETATM   20  C   UNL     1      -6.752   5.509 -32.532  1.00  0.00     0.001 A 
HETATM   21  C   UNL     1      -7.613   4.411 -32.593  1.00  0.00     0.014 A 
ENDBRANCH  11  16
ENDBRANCH   9  10
ENDBRANCH   1   9
BRANCH   1  22
HETATM   22  C   UNL     1      -5.670  -0.103 -33.163  1.00  0.00     0.273 C 
BRANCH  22  23
HETATM   23  C   UNL     1      -5.639  -1.502 -33.720  1.00  0.00    -0.033 A 
HETATM   24  C   UNL     1      -4.440  -2.232 -33.766  1.00  0.00     0.009 A 
HETATM   25  C   UNL     1      -4.416  -3.516 -34.313  1.00  0.00     0.001 A 
HETATM   26  C   UNL     1      -5.585  -4.085 -34.814  1.00  0.00     0.000 A 
HETATM   27  C   UNL     1      -6.782  -3.376 -34.763  1.00  0.00     0.001 A 
HETATM   28  C   UNL     1      -6.811  -2.092 -34.218  1.00  0.00     0.009 A 
ENDBRANCH  22  23
ENDBRANCH   1  22
TORSDOF 9
ENDMDL
MODEL 4
REMARK VINA RESULT:      -6.6      2.993      6.117
REMARK  9 active torsions:
REMARK  status: ('A' for Active; 'I' for Inactive)
REMARK    1  A    between atoms: C_2  and  C_3 
REMARK    2  A    between atoms: C_3  and  O_4 
REMARK    3  A    between atoms: C_3  and  C_5 
REMARK    4  A    between atoms: C_5  and  N_6 
REMARK    5  A    between atoms: N_6  and  C_8 
REMARK    6  A    between atoms: N_6  and  C_21 
REMARK    7  A    between atoms: C_8  and  C_9 
REMARK    8  A    between atoms: C_10  and  C_11 
REMARK    9  A    between atoms: C_21  and  C_22 
ROOT
HETATM    1  N   UNL     1      -6.101   2.204 -30.884  1.00  0.00    -0.061 N 
HETATM    2  H   UNL     1      -6.109   2.246 -31.905  1.00  0.00     0.280 HD
ENDROOT
BRANCH   1   3
HETATM    3  C   UNL     1      -5.204   3.354 -30.440  1.00  0.00     0.267 C 
BRANCH   3   4
HETATM    4  C   UNL     1      -4.546   4.112 -31.617  1.00  0.00     0.143 C 
BRANCH   4   5
HETATM    5  C   UNL     1      -3.118   3.590 -31.833  1.00  0.00     0.029 C 
HETATM    6  C   UNL     1      -2.484   4.085 -33.127  1.00  0.00     0.007 C 
ENDBRANCH   4   5
BRANCH   4   7
HETATM    7  O   UNL     1      -5.323   3.908 -32.796  1.00  0.00    -0.394 OA
HETATM    8  H   UNL     1      -6.253   4.137 -32.610  1.00  0.00     0.210 HD
ENDBRANCH   4   7
ENDBRANCH   3   4
ENDBRANCH   1   3
BRANCH   1   9
HETATM    9  C   UNL     1      -5.613   0.802 -30.570  1.00  0.00     0.277 C 
BRANCH   9  10
HETATM   10  C   UNL     1      -4.451   0.231 -31.306  1.00  0.00     0.016 A 
HETATM   11  C   UNL     1      -4.481  -0.221 -32.670  1.00  0.00     0.096 A 
HETATM   12  N   UNL     1      -3.301  -0.741 -33.031  1.00  0.00    -0.174 NA
HETATM   13  N   UNL     1      -2.506  -0.564 -31.977  1.00  0.00    -0.288 N 
HETATM   14  H   UNL     1      -1.536  -0.859 -32.053  1.00  0.00     0.188 HD
HETATM   15  C   UNL     1      -3.149  -0.013 -30.906  1.00  0.00     0.120 A 
BRANCH  11  16
HETATM   16  C   UNL     1      -5.601  -0.216 -33.610  1.00  0.00    -0.005 A 
HETATM   17  C   UNL     1      -6.047   0.975 -34.198  1.00  0.00     0.014 A 
HETATM   18  C   UNL     1      -7.128   0.961 -35.082  1.00  0.00     0.001 A 
HETATM   19  C   UNL     1      -7.763  -0.241 -35.393  1.00  0.00     0.000 A 
HETATM   20  C   UNL     1      -7.313  -1.433 -34.829  1.00  0.00     0.001 A 
HETATM   21  C   UNL     1      -6.234  -1.421 -33.942  1.00  0.00     0.014 A 
ENDBRANCH  11  16
ENDBRANCH   9  10
ENDBRANCH   1   9
BRANCH   1  22
HETATM   22  C   UNL     1      -7.547   2.383 -30.466  1.00  0.00     0.273 C 
BRANCH  22  23
HETATM   23  C   UNL     1      -8.528   1.922 -31.512  1.00  0.00    -0.033 A 
HETATM   24  C   UNL     1      -9.108   2.835 -32.407  1.00  0.00     0.009 A 
HETATM   25  C   UNL     1     -10.039   2.403 -33.352  1.00  0.00     0.001 A 
HETATM   26  C   UNL     1     -10.398   1.058 -33.417  1.00  0.00     0.000 A 
HETATM   27  C   UNL     1      -9.821   0.141 -32.542  1.00  0.00     0.001 A 
HETATM   28  C   UNL     1      -8.890   0.568 -31.595  1.00  0.00     0.009 A 
ENDBRANCH  22  23
ENDBRANCH   1  22
TORSDOF 9
ENDMDL
MODEL 5
REMARK VINA RESULT:      -6.6      1.656      2.438
REMARK  9 active torsions:
REMARK  status: ('A' for Active; 'I' for Inactive)
REMARK    1  A    between atoms: C_2  and  C_3 
REMARK    2  A    between atoms: C_3  and  O_4 
REMARK    3  A    between atoms: C_3  and  C_5 
REMARK    4  A    between atoms: C_5  and  N_6 
REMARK    5  A    between atoms: N_6  and  C_8 
REMARK    6  A    between atoms: N_6  and  C_21 
REMARK    7  A    between atoms: C_8  and  C_9 
REMARK    8  A    between atoms: C_10  and  C_11 
REMARK    9  A    between atoms: C_21  and  C_22 
ROOT
HETATM    1  N   UNL     1     -11.078   1.470 -34.087  1.00  0.00    -0.061 N 
HETATM    2  H   UNL     1     -10.454   1.592 -34.888  1.00  0.00     0.280 HD
ENDROOT
BRANCH   1   3
HETATM    3  C   UNL     1     -12.335   0.819 -34.653  1.00  0.00     0.267 C 
BRANCH   3   4
HETATM    4  C   UNL     1     -13.355   0.400 -33.568  1.00  0.00     0.143 C 
BRANCH   4   5
HETATM    5  C   UNL     1     -14.724   1.022 -33.880  1.00  0.00     0.029 C 
HETATM    6  C   UNL     1     -15.288   1.848 -32.731  1.00  0.00     0.007 C 
ENDBRANCH   4   5
BRANCH   4   7
HETATM    7  O   UNL     1     -13.458  -1.022 -33.549  1.00  0.00    -0.394 OA
HETATM    8  H   UNL     1     -14.253  -1.278 -33.043  1.00  0.00     0.210 HD
ENDBRANCH   4   7
ENDBRANCH   3   4
ENDBRANCH   1   3
BRANCH   1   9
HETATM    9  C   UNL     1     -11.235   2.868 -33.519  1.00  0.00     0.277 C 
BRANCH   9  10
HETATM   10  C   UNL     1     -10.638   4.036 -34.226  1.00  0.00     0.016 A 
HETATM   11  C   UNL     1      -9.279   4.480 -34.079  1.00  0.00     0.096 A 
HETATM   12  N   UNL     1      -9.055   5.591 -34.791  1.00  0.00    -0.174 NA
HETATM   13  N   UNL     1     -10.194   5.821 -35.442  1.00  0.00    -0.288 N 
HETATM   14  H   UNL     1     -10.230   6.611 -36.082  1.00  0.00     0.188 HD
HETATM   15  C   UNL     1     -11.185   4.939 -35.119  1.00  0.00     0.120 A 
BRANCH  11  16
HETATM   16  C   UNL     1      -8.216   3.911 -33.252  1.00  0.00    -0.005 A 
HETATM   17  C   UNL     1      -8.440   3.584 -31.908  1.00  0.00     0.014 A 
HETATM   18  C   UNL     1      -7.407   3.055 -31.130  1.00  0.00     0.001 A 
HETATM   19  C   UNL     1      -6.149   2.839 -31.691  1.00  0.00     0.000 A 
HETATM   20  C   UNL     1      -5.923   3.141 -33.032  1.00  0.00     0.001 A 
HETATM   21  C   UNL     1      -6.953   3.673 -33.811  1.00  0.00     0.014 A 
ENDBRANCH  11  16
ENDBRANCH   9  10
ENDBRANCH   1   9
BRANCH   1  22
HETATM   22  C   UNL     1     -10.325   0.573 -33.125  1.00  0.00     0.273 C 
BRANCH  22  23
HETATM   23  C   UNL     1      -8.923   0.263 -33.579  1.00  0.00    -0.033 A 
HETATM   24  C   UNL     1      -7.986  -0.292 -32.693  1.00  0.00     0.009 A 
HETATM   25  C   UNL     1      -6.680  -0.546 -33.115  1.00  0.00     0.001 A 
HETATM   26  C   UNL     1      -6.297  -0.255 -34.423  1.00  0.00     0.000 A 
HETATM   27  C   UNL     1      -7.221   0.286 -35.314  1.00  0.00     0.001 A 
HETATM   28  C   UNL     1      -8.527   0.543 -34.897  1.00  0.00     0.009 A 
ENDBRANCH  22  23
ENDBRANCH   1  22
TORSDOF 9
ENDMDL
MODEL 6
REMARK VINA RESULT:      -6.5      3.420      6.082
REMARK  9 active torsions:
REMARK  status: ('A' for Active; 'I' for Inactive)
REMARK    1  A    between atoms: C_2  and  C_3 
REMARK    2  A    between atoms: C_3  and  O_4 
REMARK    3  A    between atoms: C_3  and  C_5 
REMARK    4  A    between atoms: C_5  and  N_6 
REMARK    5  A    between atoms: N_6  and  C_8 
REMARK    6  A    between atoms: N_6  and  C_21 
REMARK    7  A    between atoms: C_8  and  C_9 
REMARK    8  A    between atoms: C_10  and  C_11 
REMARK    9  A    between atoms: C_21  and  C_22 
ROOT
HETATM    1  N   UNL     1      -5.929   1.922 -31.938  1.00  0.00    -0.061 N 
HETATM    2  H   UNL     1      -5.113   2.200 -31.388  1.00  0.00     0.280 HD
ENDROOT
BRANCH   1   3
HETATM    3  C   UNL     1      -7.038   1.685 -30.919  1.00  0.00     0.267 C 
BRANCH   3   4
HETATM    4  C   UNL     1      -8.458   1.750 -31.528  1.00  0.00     0.143 C 
BRANCH   4   5
HETATM    5  C   UNL     1      -8.876   0.354 -32.013  1.00  0.00     0.029 C 
HETATM    6  C   UNL     1      -9.066   0.272 -33.522  1.00  0.00     0.007 C 
ENDBRANCH   4   5
BRANCH   4   7
HETATM    7  O   UNL     1      -9.370   2.213 -30.534  1.00  0.00    -0.394 OA
HETATM    8  H   UNL     1      -9.706   1.450 -30.027  1.00  0.00     0.210 HD
ENDBRANCH   4   7
ENDBRANCH   3   4
ENDBRANCH   1   3
BRANCH   1   9
HETATM    9  C   UNL     1      -5.457   0.712 -32.721  1.00  0.00     0.277 C 
BRANCH   9  10
HETATM   10  C   UNL     1      -4.273  -0.066 -32.260  1.00  0.00     0.016 A 
HETATM   11  C   UNL     1      -3.997  -1.432 -32.611  1.00  0.00     0.096 A 
HETATM   12  N   UNL     1      -2.896  -1.875 -31.993  1.00  0.00    -0.174 NA
HETATM   13  N   UNL     1      -2.423  -0.823 -31.328  1.00  0.00    -0.288 N 
HETATM   14  H   UNL     1      -1.554  -0.932 -30.811  1.00  0.00     0.188 HD
HETATM   15  C   UNL     1      -3.223   0.280 -31.428  1.00  0.00     0.120 A 
BRANCH  11  16
HETATM   16  C   UNL     1      -4.769  -2.328 -33.470  1.00  0.00    -0.005 A 
HETATM   17  C   UNL     1      -6.035  -1.962 -33.947  1.00  0.00     0.014 A 
HETATM   18  C   UNL     1      -6.764  -2.839 -34.753  1.00  0.00     0.001 A 
HETATM   19  C   UNL     1      -6.230  -4.080 -35.100  1.00  0.00     0.000 A 
HETATM   20  C   UNL     1      -4.962  -4.443 -34.648  1.00  0.00     0.001 A 
HETATM   21  C   UNL     1      -4.234  -3.569 -33.839  1.00  0.00     0.014 A 
ENDBRANCH  11  16
ENDBRANCH   9  10
ENDBRANCH   1   9
BRANCH   1  22
HETATM   22  C   UNL     1      -6.208   3.092 -32.860  1.00  0.00     0.273 C 
BRANCH  22  23
HETATM   23  C   UNL     1      -4.956   3.766 -33.358  1.00  0.00    -0.033 A 
HETATM   24  C   UNL     1      -3.735   3.603 -32.685  1.00  0.00     0.009 A 
HETATM   25  C   UNL     1      -2.588   4.258 -33.136  1.00  0.00     0.001 A 
HETATM   26  C   UNL     1      -2.646   5.076 -34.263  1.00  0.00     0.000 A 
HETATM   27  C   UNL     1      -3.849   5.236 -34.946  1.00  0.00     0.001 A 
HETATM   28  C   UNL     1      -4.999   4.585 -34.498  1.00  0.00     0.009 A 
ENDBRANCH  22  23
ENDBRANCH   1  22
TORSDOF 9
ENDMDL
MODEL 7
REMARK VINA RESULT:      -6.5      2.967      4.744
REMARK  9 active torsions:
REMARK  status: ('A' for Active; 'I' for Inactive)
REMARK    1  A    between atoms: C_2  and  C_3 
REMARK    2  A    between atoms: C_3  and  O_4 
REMARK    3  A    between atoms: C_3  and  C_5 
REMARK    4  A    between atoms: C_5  and  N_6 
REMARK    5  A    between atoms: N_6  and  C_8 
REMARK    6  A    between atoms: N_6  and  C_21 
REMARK    7  A    between atoms: C_8  and  C_9 
REMARK    8  A    between atoms: C_10  and  C_11 
REMARK    9  A    between atoms: C_21  and  C_22 
ROOT
HETATM    1  N   UNL     1      -5.527   0.984 -33.255  1.00  0.00    -0.061 N 
HETATM    2  H   UNL     1      -5.004   0.654 -34.069  1.00  0.00     0.280 HD
ENDROOT
BRANCH   1   3
HETATM    3  C   UNL     1      -6.482   2.044 -33.792  1.00  0.00     0.267 C 
BRANCH   3   4
HETATM    4  C   UNL     1      -7.972   1.720 -33.533  1.00  0.00     0.143 C 
BRANCH   4   5
HETATM    5  C   UNL     1      -8.654   2.925 -32.868  1.00  0.00     0.029 C 
HETATM    6  C   UNL     1      -7.768   4.162 -32.808  1.00  0.00     0.007 C 
ENDBRANCH   4   5
BRANCH   4   7
HETATM    7  O   UNL     1      -8.607   1.426 -34.775  1.00  0.00    -0.394 OA
HETATM    8  H   UNL     1      -9.339   0.798 -34.620  1.00  0.00     0.210 HD
ENDBRANCH   4   7
ENDBRANCH   3   4
ENDBRANCH   1   3
BRANCH   1   9
HETATM    9  C   UNL     1      -4.456   1.460 -32.291  1.00  0.00     0.277 C 
BRANCH   9  10
HETATM   10  C   UNL     1      -4.723   2.609 -31.382  1.00  0.00     0.016 A 
HETATM   11  C   UNL     1      -4.249   3.950 -31.589  1.00  0.00     0.096 A 
HETATM   12  N   UNL     1      -4.595   4.747 -30.571  1.00  0.00    -0.174 NA
HETATM   13  N   UNL     1      -5.335   3.983 -29.768  1.00  0.00    -0.288 N 
HETATM   14  H   UNL     1      -5.739   4.409 -28.939  1.00  0.00     0.188 HD
HETATM   15  C   UNL     1      -5.420   2.686 -30.190  1.00  0.00     0.120 A 
BRANCH  11  16
HETATM   16  C   UNL     1      -3.444   4.475 -32.692  1.00  0.00    -0.005 A 
HETATM   17  C   UNL     1      -2.054   4.603 -32.576  1.00  0.00     0.014 A 
HETATM   18  C   UNL     1      -1.304   5.121 -33.635  1.00  0.00     0.001 A 
HETATM   19  C   UNL     1      -1.936   5.502 -34.819  1.00  0.00     0.000 A 
HETATM   20  C   UNL     1      -3.316   5.358 -34.950  1.00  0.00     0.001 A 
HETATM   21  C   UNL     1      -4.067   4.844 -33.891  1.00  0.00     0.014 A 
ENDBRANCH  11  16
ENDBRANCH   9  10
ENDBRANCH   1   9
BRANCH   1  22
HETATM   22  C   UNL     1      -6.240  -0.240 -32.715  1.00  0.00     0.273 C 
BRANCH  22  23
HETATM   23  C   UNL     1      -5.982  -1.482 -33.526  1.00  0.00    -0.033 A 
HETATM   24  C   UNL     1      -4.672  -1.928 -33.762  1.00  0.00     0.009 A 
HETATM   25  C   UNL     1      -4.443  -3.063 -34.542  1.00  0.00     0.001 A 
HETATM   26  C   UNL     1      -5.515  -3.766 -35.087  1.00  0.00     0.000 A 
HETATM   27  C   UNL     1      -6.820  -3.340 -34.850  1.00  0.00     0.001 A 
HETATM   28  C   UNL     1      -7.054  -2.206 -34.072  1.00  0.00     0.009 A 
ENDBRANCH  22  23
ENDBRANCH   1  22
TORSDOF 9
ENDMDL
MODEL 8
REMARK VINA RESULT:      -6.5      3.547      5.696
REMARK  9 active torsions:
REMARK  status: ('A' for Active; 'I' for Inactive)
REMARK    1  A    between atoms: C_2  and  C_3 
REMARK    2  A    between atoms: C_3  and  O_4 
REMARK    3  A    between atoms: C_3  and  C_5 
REMARK    4  A    between atoms: C_5  and  N_6 
REMARK    5  A    between atoms: N_6  and  C_8 
REMARK    6  A    between atoms: N_6  and  C_21 
REMARK    7  A    between atoms: C_8  and  C_9 
REMARK    8  A    between atoms: C_10  and  C_11 
REMARK    9  A    between atoms: C_21  and  C_22 
ROOT
HETATM    1  N   UNL     1      -6.108  -0.161 -32.802  1.00  0.00    -0.061 N 
HETATM    2  H   UNL     1      -6.857  -0.841 -32.657  1.00  0.00     0.280 HD
ENDROOT
BRANCH   1   3
HETATM    3  C   UNL     1      -5.225  -0.264 -31.564  1.00  0.00     0.267 C 
BRANCH   3   4
HETATM    4  C   UNL     1      -3.753   0.139 -31.820  1.00  0.00     0.143 C 
BRANCH   4   5
HETATM    5  C   UNL     1      -3.515   1.569 -31.313  1.00  0.00     0.029 C 
HETATM    6  C   UNL     1      -3.423   2.599 -32.431  1.00  0.00     0.007 C 
ENDBRANCH   4   5
BRANCH   4   7
HETATM    7  O   UNL     1      -2.895  -0.770 -31.135  1.00  0.00    -0.394 OA
HETATM    8  H   UNL     1      -2.232  -0.264 -30.629  1.00  0.00     0.210 HD
ENDBRANCH   4   7
ENDBRANCH   3   4
ENDBRANCH   1   3
BRANCH   1   9
HETATM    9  C   UNL     1      -6.834   1.155 -33.011  1.00  0.00     0.277 C 
BRANCH   9  10
HETATM   10  C   UNL     1      -7.887   1.591 -32.052  1.00  0.00     0.016 A 
HETATM   11  C   UNL     1      -7.850   2.806 -31.286  1.00  0.00     0.096 A 
HETATM   12  N   UNL     1      -8.905   2.891 -30.466  1.00  0.00    -0.174 NA
HETATM   13  N   UNL     1      -9.646   1.818 -30.741  1.00  0.00    -0.288 N 
HETATM   14  H   UNL     1     -10.528   1.705 -30.249  1.00  0.00     0.188 HD
HETATM   15  C   UNL     1      -9.070   0.990 -31.662  1.00  0.00     0.120 A 
BRANCH  11  16
HETATM   16  C   UNL     1      -6.827   3.850 -31.277  1.00  0.00    -0.005 A 
HETATM   17  C   UNL     1      -6.033   4.076 -30.145  1.00  0.00     0.014 A 
HETATM   18  C   UNL     1      -5.071   5.090 -30.151  1.00  0.00     0.001 A 
HETATM   19  C   UNL     1      -4.888   5.875 -31.289  1.00  0.00     0.000 A 
HETATM   20  C   UNL     1      -5.660   5.643 -32.426  1.00  0.00     0.001 A 
HETATM   21  C   UNL     1      -6.624   4.633 -32.421  1.00  0.00     0.014 A 
ENDBRANCH  11  16
ENDBRANCH   9  10
ENDBRANCH   1   9
BRANCH   1  22
HETATM   22  C   UNL     1      -5.407  -0.603 -34.071  1.00  0.00     0.273 C 
BRANCH  22  23
HETATM   23  C   UNL     1      -5.484  -2.089 -34.304  1.00  0.00    -0.033 A 
HETATM   24  C   UNL     1      -6.685  -2.693 -34.708  1.00  0.00     0.009 A 
HETATM   25  C   UNL     1      -6.754  -4.075 -34.890  1.00  0.00     0.001 A 
HETATM   26  C   UNL     1      -5.627  -4.866 -34.677  1.00  0.00     0.000 A 
HETATM   27  C   UNL     1      -4.426  -4.277 -34.287  1.00  0.00     0.001 A 
HETATM   28  C   UNL     1      -4.353  -2.896 -34.103  1.00  0.00     0.009 A 
ENDBRANCH  22  23
ENDBRANCH   1  22
TORSDOF 9
ENDMDL
MODEL 9
REMARK VINA RESULT:      -6.5      4.030      6.960
REMARK  9 active torsions:
REMARK  status: ('A' for Active; 'I' for Inactive)
REMARK    1  A    between atoms: C_2  and  C_3 
REMARK    2  A    between atoms: C_3  and  O_4 
REMARK    3  A    between atoms: C_3  and  C_5 
REMARK    4  A    between atoms: C_5  and  N_6 
REMARK    5  A    between atoms: N_6  and  C_8 
REMARK    6  A    between atoms: N_6  and  C_21 
REMARK    7  A    between atoms: C_8  and  C_9 
REMARK    8  A    between atoms: C_10  and  C_11 
REMARK    9  A    between atoms: C_21  and  C_22 
ROOT
HETATM    1  N   UNL     1      -3.770   3.418 -32.208  1.00  0.00    -0.061 N 
HETATM    2  H   UNL     1      -3.504   3.586 -31.236  1.00  0.00     0.280 HD
ENDROOT
BRANCH   1   3
HETATM    3  C   UNL     1      -4.922   4.378 -32.483  1.00  0.00     0.267 C 
BRANCH   3   4
HETATM    4  C   UNL     1      -5.508   4.248 -33.908  1.00  0.00     0.143 C 
BRANCH   4   5
HETATM    5  C   UNL     1      -7.042   4.224 -33.835  1.00  0.00     0.029 C 
HETATM    6  C   UNL     1      -7.606   2.872 -33.418  1.00  0.00     0.007 C 
ENDBRANCH   4   5
BRANCH   4   7
HETATM    7  O   UNL     1      -5.075   5.356 -34.694  1.00  0.00    -0.394 OA
HETATM    8  H   UNL     1      -5.090   6.163 -34.145  1.00  0.00     0.210 HD
ENDBRANCH   4   7
ENDBRANCH   3   4
ENDBRANCH   1   3
BRANCH   1   9
HETATM    9  C   UNL     1      -4.095   1.937 -32.256  1.00  0.00     0.277 C 
BRANCH   9  10
HETATM   10  C   UNL     1      -5.034   1.343 -31.264  1.00  0.00     0.016 A 
HETATM   11  C   UNL     1      -5.782   0.132 -31.462  1.00  0.00     0.096 A 
HETATM   12  N   UNL     1      -6.588  -0.113 -30.421  1.00  0.00    -0.174 NA
HETATM   13  N   UNL     1      -6.321   0.852 -29.542  1.00  0.00    -0.288 N 
HETATM   14  H   UNL     1      -6.805   0.833 -28.648  1.00  0.00     0.188 HD
HETATM   15  C   UNL     1      -5.421   1.768 -30.006  1.00  0.00     0.120 A 
BRANCH  11  16
HETATM   16  C   UNL     1      -5.786  -0.762 -32.619  1.00  0.00    -0.005 A 
HETATM   17  C   UNL     1      -6.898  -0.843 -33.467  1.00  0.00     0.014 A 
HETATM   18  C   UNL     1      -6.888  -1.714 -34.559  1.00  0.00     0.001 A 
HETATM   19  C   UNL     1      -5.765  -2.499 -34.819  1.00  0.00     0.000 A 
HETATM   20  C   UNL     1      -4.646  -2.409 -33.993  1.00  0.00     0.001 A 
HETATM   21  C   UNL     1      -4.655  -1.541 -32.899  1.00  0.00     0.014 A 
ENDBRANCH  11  16
ENDBRANCH   9  10
ENDBRANCH   1   9
BRANCH   1  22
HETATM   22  C   UNL     1      -2.530   3.730 -33.022  1.00  0.00     0.273 C 
BRANCH  22  23
HETATM   23  C   UNL     1      -1.751   4.904 -32.490  1.00  0.00    -0.033 A 
HETATM   24  C   UNL     1      -1.507   6.030 -33.293  1.00  0.00     0.009 A 
HETATM   25  C   UNL     1      -0.758   7.099 -32.802  1.00  0.00     0.001 A 
HETATM   26  C   UNL     1      -0.250   7.060 -31.505  1.00  0.00     0.000 A 
HETATM   27  C   UNL     1      -0.496   5.955 -30.694  1.00  0.00     0.001 A 
HETATM   28  C   UNL     1      -1.243   4.882 -31.182  1.00  0.00     0.009 A 
ENDBRANCH  22  23
ENDBRANCH   1  22
TORSDOF 9
ENDMDL
MODEL 10
REMARK VINA RESULT:      -6.5      2.676      3.889
REMARK  9 active torsions:
REMARK  status: ('A' for Active; 'I' for Inactive)
REMARK    1  A    between atoms: C_2  and  C_3 
REMARK    2  A    between atoms: C_3  and  O_4 
REMARK    3  A    between atoms: C_3  and  C_5 
REMARK    4  A    between atoms: C_5  and  N_6 
REMARK    5  A    between atoms: N_6  and  C_8 
REMARK    6  A    between atoms: N_6  and  C_21 
REMARK    7  A    between atoms: C_8  and  C_9 
REMARK    8  A    between atoms: C_10  and  C_11 
REMARK    9  A    between atoms: C_21  and  C_22 
ROOT
HETATM    1  N   UNL     1      -6.740   1.556 -33.113  1.00  0.00    -0.061 N 
HETATM    2  H   UNL     1      -7.403   0.898 -33.529  1.00  0.00     0.280 HD
ENDROOT
BRANCH   1   3
HETATM    3  C   UNL     1      -7.359   1.963 -31.780  1.00  0.00     0.267 C 
BRANCH   3   4
HETATM    4  C   UNL     1      -8.896   1.797 -31.738  1.00  0.00     0.143 C 
BRANCH   4   5
HETATM    5  C   UNL     1      -9.268   0.348 -32.086  1.00  0.00     0.029 C 
HETATM    6  C   UNL     1     -10.371   0.242 -33.132  1.00  0.00     0.007 C 
ENDBRANCH   4   5
BRANCH   4   7
HETATM    7  O   UNL     1      -9.364   2.118 -30.430  1.00  0.00    -0.394 OA
HETATM    8  H   UNL     1      -8.774   2.787 -30.034  1.00  0.00     0.210 HD
ENDBRANCH   4   7
ENDBRANCH   3   4
ENDBRANCH   1   3
BRANCH   1   9
HETATM    9  C   UNL     1      -6.594   2.648 -34.156  1.00  0.00     0.277 C 
BRANCH   9  10
HETATM   10  C   UNL     1      -6.918   4.061 -33.812  1.00  0.00     0.016 A 
HETATM   11  C   UNL     1      -5.971   5.030 -33.333  1.00  0.00     0.096 A 
HETATM   12  N   UNL     1      -6.571   6.193 -33.051  1.00  0.00    -0.174 NA
HETATM   13  N   UNL     1      -7.844   6.022 -33.407  1.00  0.00    -0.288 N 
HETATM   14  H   UNL     1      -8.479   6.809 -33.310  1.00  0.00     0.188 HD
HETATM   15  C   UNL     1      -8.114   4.756 -33.842  1.00  0.00     0.120 A 
BRANCH  11  16
HETATM   16  C   UNL     1      -4.538   4.866 -33.093  1.00  0.00    -0.005 A 
HETATM   17  C   UNL     1      -3.592   5.314 -34.025  1.00  0.00     0.014 A 
HETATM   18  C   UNL     1      -2.228   5.134 -33.785  1.00  0.00     0.001 A 
HETATM   19  C   UNL     1      -1.799   4.517 -32.610  1.00  0.00     0.000 A 
HETATM   20  C   UNL     1      -2.732   4.088 -31.668  1.00  0.00     0.001 A 
HETATM   21  C   UNL     1      -4.096   4.264 -31.908  1.00  0.00     0.014 A 
ENDBRANCH  11  16
ENDBRANCH   9  10
ENDBRANCH   1   9
BRANCH   1  22
HETATM   22  C   UNL     1      -5.449   0.778 -32.956  1.00  0.00     0.273 C 
BRANCH  22  23
HETATM   23  C   UNL     1      -5.509  -0.598 -33.565  1.00  0.00    -0.033 A 
HETATM   24  C   UNL     1      -4.366  -1.413 -33.618  1.00  0.00     0.009 A 
HETATM   25  C   UNL     1      -4.425  -2.673 -34.214  1.00  0.00     0.001 A 
HETATM   26  C   UNL     1      -5.622  -3.136 -34.756  1.00  0.00     0.000 A 
HETATM   27  C   UNL     1      -6.765  -2.343 -34.699  1.00  0.00     0.001 A 
HETATM   28  C   UNL     1      -6.711  -1.081 -34.106  1.00  0.00     0.009 A 
ENDBRANCH  22  23
ENDBRANCH   1  22
TORSDOF 9
ENDMDL
