MODEL 1
REMARK VINA RESULT:      -9.7      0.000      0.000
REMARK  7 active torsions:
REMARK  status: ('A' for Active; 'I' for Inactive)
REMARK    1  A    between atoms: C_4  and  C_5 
REMARK    2  A    between atoms: C_5  and  O_6 
REMARK    3  A    between atoms: C_5  and  C_7 
REMARK    4  A    between atoms: C_9  and  C_10 
REMARK    5  A    between atoms: C_10  and  N_11 
REMARK       I    between atoms: N_11  and  C_12 
REMARK    6  A    between atoms: C_12  and  C_13 
REMARK       I    between atoms: C_13  and  N_14 
REMARK    7  A    between atoms: N_14  and  C_15 
ROOT
HETATM    1  N   UNL     1      -5.180   4.480 -33.167  1.00  0.00    -0.348 N 
HETATM    2  C   UNL     1      -6.158   4.079 -32.291  1.00  0.00     0.310 C 
HETATM    3  O   UNL     1      -6.877   4.813 -31.626  1.00  0.00    -0.262 OA
HETATM    4  H   UNL     1      -4.587   3.751 -33.558  1.00  0.00     0.163 HD
ENDROOT
BRANCH   2   5
HETATM    5  C   UNL     1      -6.290   2.545 -32.154  1.00  0.00     0.313 C 
HETATM    6  N   UNL     1      -5.356   1.882 -32.921  1.00  0.00    -0.319 N 
HETATM    7  H   UNL     1      -4.734   2.495 -33.444  1.00  0.00     0.169 HD
HETATM    8  O   UNL     1      -7.173   2.091 -31.441  1.00  0.00    -0.262 OA
BRANCH   6   9
HETATM    9  C   UNL     1      -5.208   0.496 -33.093  1.00  0.00     0.036 A 
HETATM   10  C   UNL     1      -6.102  -0.293 -33.816  1.00  0.00     0.039 A 
HETATM   11  C   UNL     1      -5.867  -1.667 -33.984  1.00  0.00    -0.028 A 
HETATM   12  C   UNL     1      -4.736  -2.264 -33.413  1.00  0.00     0.050 A 
HETATM   13  C   UNL     1      -6.868  -2.528 -34.696  1.00  0.00     0.050 C 
HETATM   14  N   UNL     1      -4.502  -3.651 -33.610  1.00  0.00    -0.317 N 
HETATM   15  C   UNL     1      -3.864  -1.489 -32.634  1.00  0.00    -0.028 A 
HETATM   16  C   UNL     1      -5.206  -4.399 -34.549  1.00  0.00     0.224 C 
HETATM   17  C   UNL     1      -3.373  -4.289 -32.941  1.00  0.00     0.132 C 
HETATM   18  O   UNL     1      -5.001  -5.599 -34.745  1.00  0.00    -0.273 OA
HETATM   19  C   UNL     1      -6.160  -3.637 -35.442  1.00  0.00     0.108 C 
HETATM   20  C   UNL     1      -2.929  -3.575 -31.676  1.00  0.00     0.025 C 
HETATM   21  C   UNL     1      -2.660  -2.109 -31.980  1.00  0.00     0.042 C 
HETATM   22  C   UNL     1      -4.095  -0.110 -32.498  1.00  0.00     0.039 A 
ENDBRANCH   6   9
ENDBRANCH   2   5
BRANCH   1  23
HETATM   23  C   UNL     1      -4.802   5.862 -33.282  1.00  0.00     0.169 C 
BRANCH  23  24
HETATM   24  C   UNL     1      -3.359   5.997 -32.924  1.00  0.00     0.001 A 
HETATM   25  S   UNL     1      -2.772   5.369 -31.443  1.00  0.00    -0.095 SA
HETATM   26  C   UNL     1      -1.171   5.902 -31.760  1.00  0.00     0.017 A 
HETATM   27  C   UNL     1      -1.097   6.541 -32.985  1.00  0.00     0.018 A 
HETATM   28  C   UNL     1      -2.352   6.592 -33.655  1.00  0.00     0.017 A 
BRANCH  26  29
HETATM   29  C   UNL     1      -0.086   5.648 -30.748  1.00  0.00     0.198 C 
BRANCH  29  30
HETATM   30  C   UNL     1      -0.097   6.616 -29.596  1.00  0.00     0.016 A 
HETATM   31  S   UNL     1       0.558   6.140 -28.081  1.00  0.00    -0.103 SA
HETATM   32  C   UNL     1       0.167   7.640 -27.363  1.00  0.00     0.050 A 
HETATM   33  C   UNL     1      -0.451   8.493 -28.249  1.00  0.00     0.008 A 
HETATM   34  C   UNL     1      -0.608   7.901 -29.536  1.00  0.00     0.018 A 
ENDBRANCH  29  30
BRANCH  29  35
HETATM   35  O   UNL     1      -0.316   4.352 -30.191  1.00  0.00    -0.385 OA
HETATM   36  H   UNL     1      -0.610   3.794 -30.931  1.00  0.00     0.210 HD
ENDBRANCH  29  35
ENDBRANCH  26  29
ENDBRANCH  23  24
ENDBRANCH   1  23
TORSDOF 7
ENDMDL
MODEL 2
REMARK VINA RESULT:      -9.4      1.501      1.836
REMARK  7 active torsions:
REMARK  status: ('A' for Active; 'I' for Inactive)
REMARK    1  A    between atoms: C_4  and  C_5 
REMARK    2  A    between atoms: C_5  and  O_6 
REMARK    3  A    between atoms: C_5  and  C_7 
REMARK    4  A    between atoms: C_9  and  C_10 
REMARK    5  A    between atoms: C_10  and  N_11 
REMARK       I    between atoms: N_11  and  C_12 
REMARK    6  A    between atoms: C_12  and  C_13 
REMARK       I    between atoms: C_13  and  N_14 
REMARK    7  A    between atoms: N_14  and  C_15 
ROOT
HETATM    1  N   UNL     1      -6.810   4.078 -32.750  1.00  0.00    -0.348 N 
HETATM    2  C   UNL     1      -6.879   3.588 -31.469  1.00  0.00     0.310 C 
HETATM    3  O   UNL     1      -7.057   4.246 -30.453  1.00  0.00    -0.262 OA
HETATM    4  H   UNL     1      -6.541   3.421 -33.479  1.00  0.00     0.163 HD
ENDROOT
BRANCH   2   5
HETATM    5  C   UNL     1      -6.675   2.060 -31.369  1.00  0.00     0.313 C 
HETATM    6  N   UNL     1      -6.034   1.556 -32.480  1.00  0.00    -0.319 N 
HETATM    7  H   UNL     1      -5.796   2.257 -33.179  1.00  0.00     0.169 HD
HETATM    8  O   UNL     1      -7.097   1.473 -30.383  1.00  0.00    -0.262 OA
BRANCH   6   9
HETATM    9  C   UNL     1      -5.729   0.216 -32.767  1.00  0.00     0.036 A 
HETATM   10  C   UNL     1      -6.552  -0.619 -33.522  1.00  0.00     0.039 A 
HETATM   11  C   UNL     1      -6.163  -1.938 -33.808  1.00  0.00    -0.028 A 
HETATM   12  C   UNL     1      -4.947  -2.435 -33.322  1.00  0.00     0.050 A 
HETATM   13  C   UNL     1      -7.082  -2.858 -34.555  1.00  0.00     0.050 C 
HETATM   14  N   UNL     1      -4.558  -3.765 -33.636  1.00  0.00    -0.317 N 
HETATM   15  C   UNL     1      -4.142  -1.621 -32.511  1.00  0.00    -0.028 A 
HETATM   16  C   UNL     1      -5.205  -4.519 -34.610  1.00  0.00     0.224 C 
HETATM   17  C   UNL     1      -3.335  -4.310 -33.056  1.00  0.00     0.132 C 
HETATM   18  O   UNL     1      -4.868  -5.667 -34.907  1.00  0.00    -0.273 OA
HETATM   19  C   UNL     1      -6.278  -3.813 -35.408  1.00  0.00     0.108 C 
HETATM   20  C   UNL     1      -2.928  -3.644 -31.752  1.00  0.00     0.025 C 
HETATM   21  C   UNL     1      -2.847  -2.138 -31.946  1.00  0.00     0.042 C 
HETATM   22  C   UNL     1      -4.530  -0.294 -32.258  1.00  0.00     0.039 A 
ENDBRANCH   6   9
ENDBRANCH   2   5
BRANCH   1  23
HETATM   23  C   UNL     1      -6.800   5.492 -33.009  1.00  0.00     0.169 C 
BRANCH  23  24
HETATM   24  C   UNL     1      -5.392   5.983 -32.944  1.00  0.00     0.001 A 
HETATM   25  S   UNL     1      -4.912   7.077 -31.717  1.00  0.00    -0.095 SA
HETATM   26  C   UNL     1      -3.300   7.151 -32.304  1.00  0.00     0.017 A 
HETATM   27  C   UNL     1      -3.141   6.342 -33.415  1.00  0.00     0.018 A 
HETATM   28  C   UNL     1      -4.341   5.669 -33.780  1.00  0.00     0.017 A 
BRANCH  26  29
HETATM   29  C   UNL     1      -2.292   8.028 -31.609  1.00  0.00     0.198 C 
BRANCH  29  30
HETATM   30  C   UNL     1      -1.251   7.258 -30.843  1.00  0.00     0.016 A 
HETATM   31  S   UNL     1      -1.422   7.058 -29.145  1.00  0.00    -0.103 SA
HETATM   32  C   UNL     1       0.045   6.189 -29.031  1.00  0.00     0.050 A 
HETATM   33  C   UNL     1       0.660   6.048 -30.254  1.00  0.00     0.008 A 
HETATM   34  C   UNL     1      -0.084   6.669 -31.298  1.00  0.00     0.018 A 
ENDBRANCH  29  30
BRANCH  29  35
HETATM   35  O   UNL     1      -1.594   8.759 -32.619  1.00  0.00    -0.385 OA
HETATM   36  H   UNL     1      -1.287   9.576 -32.191  1.00  0.00     0.210 HD
ENDBRANCH  29  35
ENDBRANCH  26  29
ENDBRANCH  23  24
ENDBRANCH   1  23
TORSDOF 7
ENDMDL
MODEL 3
REMARK VINA RESULT:      -9.1      3.531     10.864
REMARK  7 active torsions:
REMARK  status: ('A' for Active; 'I' for Inactive)
REMARK    1  A    between atoms: C_4  and  C_5 
REMARK    2  A    between atoms: C_5  and  O_6 
REMARK    3  A    between atoms: C_5  and  C_7 
REMARK    4  A    between atoms: C_9  and  C_10 
REMARK    5  A    between atoms: C_10  and  N_11 
REMARK       I    between atoms: N_11  and  C_12 
REMARK    6  A    between atoms: C_12  and  C_13 
REMARK       I    between atoms: C_13  and  N_14 
REMARK    7  A    between atoms: N_14  and  C_15 
ROOT
HETATM    1  N   UNL     1      -4.277   5.711 -33.806  1.00  0.00    -0.348 N 
HETATM    2  C   UNL     1      -2.990   5.943 -34.223  1.00  0.00     0.310 C 
HETATM    3  O   UNL     1      -2.446   5.444 -35.199  1.00  0.00    -0.262 OA
HETATM    4  H   UNL     1      -4.549   6.110 -32.910  1.00  0.00     0.163 HD
ENDROOT
BRANCH   2   5
HETATM    5  C   UNL     1      -2.200   6.912 -33.315  1.00  0.00     0.313 C 
HETATM    6  N   UNL     1      -2.452   6.680 -31.980  1.00  0.00    -0.319 N 
HETATM    7  H   UNL     1      -3.105   5.919 -31.805  1.00  0.00     0.169 HD
HETATM    8  O   UNL     1      -1.485   7.756 -33.836  1.00  0.00    -0.262 OA
BRANCH   6   9
HETATM    9  C   UNL     1      -1.962   7.392 -30.873  1.00  0.00     0.036 A 
HETATM   10  C   UNL     1      -0.845   7.001 -30.136  1.00  0.00     0.039 A 
HETATM   11  C   UNL     1      -0.384   7.787 -29.067  1.00  0.00    -0.028 A 
HETATM   12  C   UNL     1      -1.054   8.967 -28.719  1.00  0.00     0.050 A 
HETATM   13  C   UNL     1       0.770   7.326 -28.228  1.00  0.00     0.050 C 
HETATM   14  N   UNL     1      -0.563   9.760 -27.648  1.00  0.00    -0.317 N 
HETATM   15  C   UNL     1      -2.213   9.335 -29.417  1.00  0.00    -0.028 A 
HETATM   16  C   UNL     1       0.694   9.557 -27.085  1.00  0.00     0.224 C 
HETATM   17  C   UNL     1      -1.312  10.941 -27.230  1.00  0.00     0.132 C 
HETATM   18  O   UNL     1       1.141  10.249 -26.168  1.00  0.00    -0.273 OA
HETATM   19  C   UNL     1       1.570   8.518 -27.748  1.00  0.00     0.108 C 
HETATM   20  C   UNL     1      -2.792  10.876 -27.564  1.00  0.00     0.025 C 
HETATM   21  C   UNL     1      -2.973  10.579 -29.045  1.00  0.00     0.042 C 
HETATM   22  C   UNL     1      -2.646   8.556 -30.504  1.00  0.00     0.039 A 
ENDBRANCH   6   9
ENDBRANCH   2   5
BRANCH   1  23
HETATM   23  C   UNL     1      -5.094   4.704 -34.428  1.00  0.00     0.169 C 
BRANCH  23  24
HETATM   24  C   UNL     1      -5.289   3.581 -33.465  1.00  0.00     0.001 A 
HETATM   25  S   UNL     1      -6.280   2.247 -33.880  1.00  0.00    -0.095 SA
HETATM   26  C   UNL     1      -6.018   1.480 -32.366  1.00  0.00     0.017 A 
HETATM   27  C   UNL     1      -5.178   2.237 -31.568  1.00  0.00     0.018 A 
HETATM   28  C   UNL     1      -4.757   3.441 -32.200  1.00  0.00     0.017 A 
BRANCH  26  29
HETATM   29  C   UNL     1      -6.681   0.161 -32.072  1.00  0.00     0.198 C 
BRANCH  29  30
HETATM   30  C   UNL     1      -6.315  -0.927 -33.045  1.00  0.00     0.016 A 
HETATM   31  S   UNL     1      -4.679  -1.433 -33.176  1.00  0.00    -0.103 SA
HETATM   32  C   UNL     1      -5.055  -2.562 -34.401  1.00  0.00     0.050 A 
HETATM   33  C   UNL     1      -6.395  -2.563 -34.712  1.00  0.00     0.008 A 
HETATM   34  C   UNL     1      -7.122  -1.617 -33.933  1.00  0.00     0.018 A 
ENDBRANCH  29  30
BRANCH  29  35
HETATM   35  O   UNL     1      -6.224  -0.271 -30.789  1.00  0.00    -0.385 OA
HETATM   36  H   UNL     1      -5.536  -0.936 -30.962  1.00  0.00     0.210 HD
ENDBRANCH  29  35
ENDBRANCH  26  29
ENDBRANCH  23  24
ENDBRANCH   1  23
TORSDOF 7
ENDMDL
MODEL 4
REMARK VINA RESULT:      -9.1      3.553     10.780
REMARK  7 active torsions:
REMARK  status: ('A' for Active; 'I' for Inactive)
REMARK    1  A    between atoms: C_4  and  C_5 
REMARK    2  A    between atoms: C_5  and  O_6 
REMARK    3  A    between atoms: C_5  and  C_7 
REMARK    4  A    between atoms: C_9  and  C_10 
REMARK    5  A    between atoms: C_10  and  N_11 
REMARK       I    between atoms: N_11  and  C_12 
REMARK    6  A    between atoms: C_12  and  C_13 
REMARK       I    between atoms: C_13  and  N_14 
REMARK    7  A    between atoms: N_14  and  C_15 
ROOT
HETATM    1  N   UNL     1      -4.281   5.783 -33.879  1.00  0.00    -0.348 N 
HETATM    2  C   UNL     1      -2.982   5.977 -34.276  1.00  0.00     0.310 C 
HETATM    3  O   UNL     1      -2.422   5.422 -35.212  1.00  0.00    -0.262 OA
HETATM    4  H   UNL     1      -4.568   6.230 -33.012  1.00  0.00     0.163 HD
ENDROOT
BRANCH   2   5
HETATM    5  C   UNL     1      -2.199   6.980 -33.399  1.00  0.00     0.313 C 
HETATM    6  N   UNL     1      -2.532   6.861 -32.067  1.00  0.00    -0.319 N 
HETATM    7  H   UNL     1      -3.226   6.142 -31.873  1.00  0.00     0.169 HD
HETATM    8  O   UNL     1      -1.422   7.753 -33.939  1.00  0.00    -0.262 OA
BRANCH   6   9
HETATM    9  C   UNL     1      -2.071   7.635 -30.990  1.00  0.00     0.036 A 
HETATM   10  C   UNL     1      -2.642   8.849 -30.611  1.00  0.00     0.039 A 
HETATM   11  C   UNL     1      -2.157   9.549 -29.494  1.00  0.00    -0.028 A 
HETATM   12  C   UNL     1      -1.080   9.041 -28.757  1.00  0.00     0.050 A 
HETATM   13  C   UNL     1      -2.721  10.891 -29.134  1.00  0.00     0.050 C 
HETATM   14  N   UNL     1      -0.614   9.751 -27.618  1.00  0.00    -0.317 N 
HETATM   15  C   UNL     1      -0.462   7.850 -29.168  1.00  0.00    -0.028 A 
HETATM   16  C   UNL     1      -1.331  10.799 -27.049  1.00  0.00     0.224 C 
HETATM   17  C   UNL     1       0.563   9.266 -26.904  1.00  0.00     0.132 C 
HETATM   18  O   UNL     1      -0.949  11.412 -26.050  1.00  0.00    -0.273 OA
HETATM   19  C   UNL     1      -2.699  11.076 -27.633  1.00  0.00     0.108 C 
HETATM   20  C   UNL     1       1.496   8.429 -27.762  1.00  0.00     0.025 C 
HETATM   21  C   UNL     1       0.718   7.297 -28.416  1.00  0.00     0.042 C 
HETATM   22  C   UNL     1      -0.977   7.145 -30.269  1.00  0.00     0.039 A 
ENDBRANCH   6   9
ENDBRANCH   2   5
BRANCH   1  23
HETATM   23  C   UNL     1      -5.097   4.756 -34.470  1.00  0.00     0.169 C 
BRANCH  23  24
HETATM   24  C   UNL     1      -5.187   3.608 -33.521  1.00  0.00     0.001 A 
HETATM   25  S   UNL     1      -6.281   2.324 -33.815  1.00  0.00    -0.095 SA
HETATM   26  C   UNL     1      -5.820   1.497 -32.383  1.00  0.00     0.017 A 
HETATM   27  C   UNL     1      -4.838   2.196 -31.703  1.00  0.00     0.018 A 
HETATM   28  C   UNL     1      -4.472   3.406 -32.358  1.00  0.00     0.017 A 
BRANCH  26  29
HETATM   29  C   UNL     1      -6.482   0.192 -32.028  1.00  0.00     0.198 C 
BRANCH  29  30
HETATM   30  C   UNL     1      -6.227  -0.904 -33.026  1.00  0.00     0.016 A 
HETATM   31  S   UNL     1      -4.625  -1.476 -33.267  1.00  0.00    -0.103 SA
HETATM   32  C   UNL     1      -5.127  -2.581 -34.469  1.00  0.00     0.050 A 
HETATM   33  C   UNL     1      -6.484  -2.525 -34.690  1.00  0.00     0.008 A 
HETATM   34  C   UNL     1      -7.118  -1.554 -33.862  1.00  0.00     0.018 A 
ENDBRANCH  29  30
BRANCH  29  35
HETATM   35  O   UNL     1      -5.922  -0.248 -30.790  1.00  0.00    -0.385 OA
HETATM   36  H   UNL     1      -6.264  -1.147 -30.648  1.00  0.00     0.210 HD
ENDBRANCH  29  35
ENDBRANCH  26  29
ENDBRANCH  23  24
ENDBRANCH   1  23
TORSDOF 7
ENDMDL
MODEL 5
REMARK VINA RESULT:      -9.0      4.740      7.937
REMARK  7 active torsions:
REMARK  status: ('A' for Active; 'I' for Inactive)
REMARK    1  A    between atoms: C_4  and  C_5 
REMARK    2  A    between atoms: C_5  and  O_6 
REMARK    3  A    between atoms: C_5  and  C_7 
REMARK    4  A    between atoms: C_9  and  C_10 
REMARK    5  A    between atoms: C_10  and  N_11 
REMARK       I    between atoms: N_11  and  C_12 
REMARK    6  A    between atoms: C_12  and  C_13 
REMARK       I    between atoms: C_13  and  N_14 
REMARK    7  A    between atoms: N_14  and  C_15 
ROOT
HETATM    1  N   UNL     1      -7.421   4.288 -32.481  1.00  0.00    -0.348 N 
HETATM    2  C   UNL     1      -6.453   3.936 -33.388  1.00  0.00     0.310 C 
HETATM    3  O   UNL     1      -6.150   4.557 -34.398  1.00  0.00    -0.262 OA
HETATM    4  H   UNL     1      -7.637   3.610 -31.753  1.00  0.00     0.163 HD
ENDROOT
BRANCH   2   5
HETATM    5  C   UNL     1      -5.737   2.606 -33.061  1.00  0.00     0.313 C 
HETATM    6  N   UNL     1      -6.194   1.573 -33.851  1.00  0.00    -0.319 N 
HETATM    7  H   UNL     1      -6.915   1.844 -34.517  1.00  0.00     0.169 HD
HETATM    8  O   UNL     1      -4.900   2.591 -32.170  1.00  0.00    -0.262 OA
BRANCH   6   9
HETATM    9  C   UNL     1      -5.821   0.220 -33.803  1.00  0.00     0.036 A 
HETATM   10  C   UNL     1      -6.552  -0.805 -34.403  1.00  0.00     0.039 A 
HETATM   11  C   UNL     1      -6.095  -2.132 -34.352  1.00  0.00    -0.028 A 
HETATM   12  C   UNL     1      -4.905  -2.443 -33.683  1.00  0.00     0.050 A 
HETATM   13  C   UNL     1      -6.921  -3.242 -34.932  1.00  0.00     0.050 C 
HETATM   14  N   UNL     1      -4.447  -3.787 -33.658  1.00  0.00    -0.317 N 
HETATM   15  C   UNL     1      -4.196  -1.427 -33.026  1.00  0.00    -0.028 A 
HETATM   16  C   UNL     1      -4.988  -4.774 -34.477  1.00  0.00     0.224 C 
HETATM   17  C   UNL     1      -3.255  -4.123 -32.886  1.00  0.00     0.132 C 
HETATM   18  O   UNL     1      -4.589  -5.940 -34.480  1.00  0.00    -0.273 OA
HETATM   19  C   UNL     1      -6.019  -4.322 -35.487  1.00  0.00     0.108 C 
HETATM   20  C   UNL     1      -2.976  -3.162 -31.744  1.00  0.00     0.025 C 
HETATM   21  C   UNL     1      -2.933  -1.736 -32.270  1.00  0.00     0.042 C 
HETATM   22  C   UNL     1      -4.649  -0.099 -33.110  1.00  0.00     0.039 A 
ENDBRANCH   6   9
ENDBRANCH   2   5
BRANCH   1  23
HETATM   23  C   UNL     1      -8.304   5.397 -32.722  1.00  0.00     0.169 C 
BRANCH  23  24
HETATM   24  C   UNL     1      -9.495   4.908 -33.476  1.00  0.00     0.001 A 
HETATM   25  S   UNL     1     -10.189   3.386 -33.106  1.00  0.00    -0.095 SA
HETATM   26  C   UNL     1     -11.391   3.550 -34.322  1.00  0.00     0.017 A 
HETATM   27  C   UNL     1     -11.259   4.757 -34.987  1.00  0.00     0.018 A 
HETATM   28  C   UNL     1     -10.173   5.537 -34.499  1.00  0.00     0.017 A 
BRANCH  26  29
HETATM   29  C   UNL     1     -12.393   2.447 -34.534  1.00  0.00     0.198 C 
BRANCH  29  30
HETATM   30  C   UNL     1     -13.578   2.524 -33.610  1.00  0.00     0.016 A 
HETATM   31  S   UNL     1     -14.705   1.228 -33.567  1.00  0.00    -0.103 SA
HETATM   32  C   UNL     1     -15.679   2.024 -32.410  1.00  0.00     0.050 A 
HETATM   33  C   UNL     1     -15.166   3.251 -32.058  1.00  0.00     0.008 A 
HETATM   34  C   UNL     1     -13.957   3.542 -32.753  1.00  0.00     0.018 A 
ENDBRANCH  29  30
BRANCH  29  35
HETATM   35  O   UNL     1     -12.904   2.585 -35.862  1.00  0.00    -0.385 OA
HETATM   36  H   UNL     1     -13.853   2.773 -35.763  1.00  0.00     0.210 HD
ENDBRANCH  29  35
ENDBRANCH  26  29
ENDBRANCH  23  24
ENDBRANCH   1  23
TORSDOF 7
ENDMDL
MODEL 6
REMARK VINA RESULT:      -8.8      2.277      3.260
REMARK  7 active torsions:
REMARK  status: ('A' for Active; 'I' for Inactive)
REMARK    1  A    between atoms: C_4  and  C_5 
REMARK    2  A    between atoms: C_5  and  O_6 
REMARK    3  A    between atoms: C_5  and  C_7 
REMARK    4  A    between atoms: C_9  and  C_10 
REMARK    5  A    between atoms: C_10  and  N_11 
REMARK       I    between atoms: N_11  and  C_12 
REMARK    6  A    between atoms: C_12  and  C_13 
REMARK       I    between atoms: C_13  and  N_14 
REMARK    7  A    between atoms: N_14  and  C_15 
ROOT
HETATM    1  N   UNL     1      -2.430   6.753 -32.378  1.00  0.00    -0.348 N 
HETATM    2  C   UNL     1      -3.582   6.048 -32.133  1.00  0.00     0.310 C 
HETATM    3  O   UNL     1      -4.486   6.383 -31.378  1.00  0.00    -0.262 OA
HETATM    4  H   UNL     1      -1.719   6.290 -32.941  1.00  0.00     0.163 HD
ENDROOT
BRANCH   2   5
HETATM    5  C   UNL     1      -3.670   4.703 -32.887  1.00  0.00     0.313 C 
HETATM    6  N   UNL     1      -4.366   3.757 -32.164  1.00  0.00    -0.319 N 
HETATM    7  H   UNL     1      -4.710   4.089 -31.266  1.00  0.00     0.169 HD
HETATM    8  O   UNL     1      -3.127   4.602 -33.977  1.00  0.00    -0.262 OA
BRANCH   6   9
HETATM    9  C   UNL     1      -4.600   2.414 -32.500  1.00  0.00     0.036 A 
HETATM   10  C   UNL     1      -5.763   1.965 -33.124  1.00  0.00     0.039 A 
HETATM   11  C   UNL     1      -5.910   0.612 -33.471  1.00  0.00    -0.028 A 
HETATM   12  C   UNL     1      -4.893  -0.306 -33.180  1.00  0.00     0.050 A 
HETATM   13  C   UNL     1      -7.192   0.117 -34.072  1.00  0.00     0.050 C 
HETATM   14  N   UNL     1      -5.049  -1.666 -33.557  1.00  0.00    -0.317 N 
HETATM   15  C   UNL     1      -3.746   0.128 -32.500  1.00  0.00    -0.028 A 
HETATM   16  C   UNL     1      -6.053  -2.089 -34.423  1.00  0.00     0.224 C 
HETATM   17  C   UNL     1      -4.028  -2.637 -33.174  1.00  0.00     0.132 C 
HETATM   18  O   UNL     1      -6.189  -3.263 -34.774  1.00  0.00    -0.273 OA
HETATM   19  C   UNL     1      -6.909  -1.008 -35.043  1.00  0.00     0.108 C 
HETATM   20  C   UNL     1      -3.231  -2.232 -31.946  1.00  0.00     0.025 C 
HETATM   21  C   UNL     1      -2.651  -0.841 -32.143  1.00  0.00     0.042 C 
HETATM   22  C   UNL     1      -3.599   1.489 -32.184  1.00  0.00     0.039 A 
ENDBRANCH   6   9
ENDBRANCH   2   5
BRANCH   1  23
HETATM   23  C   UNL     1      -2.103   7.935 -31.628  1.00  0.00     0.169 C 
BRANCH  23  24
HETATM   24  C   UNL     1      -1.256   7.546 -30.463  1.00  0.00     0.001 A 
HETATM   25  S   UNL     1      -1.913   7.537 -28.881  1.00  0.00    -0.095 SA
HETATM   26  C   UNL     1      -0.425   7.039 -28.181  1.00  0.00     0.017 A 
HETATM   27  C   UNL     1       0.547   6.877 -29.152  1.00  0.00     0.018 A 
HETATM   28  C   UNL     1       0.069   7.165 -30.461  1.00  0.00     0.017 A 
BRANCH  26  29
HETATM   29  C   UNL     1      -0.329   6.847 -26.691  1.00  0.00     0.198 C 
BRANCH  29  30
HETATM   30  C   UNL     1      -0.952   7.963 -25.898  1.00  0.00     0.016 A 
HETATM   31  S   UNL     1      -2.477   7.721 -25.145  1.00  0.00    -0.103 SA
HETATM   32  C   UNL     1      -2.506   9.317 -24.535  1.00  0.00     0.050 A 
HETATM   33  C   UNL     1      -1.384  10.028 -24.891  1.00  0.00     0.008 A 
HETATM   34  C   UNL     1      -0.489   9.250 -25.681  1.00  0.00     0.018 A 
ENDBRANCH  29  30
BRANCH  29  35
HETATM   35  O   UNL     1      -1.058   5.662 -26.366  1.00  0.00    -0.385 OA
HETATM   36  H   UNL     1      -1.928   5.760 -26.789  1.00  0.00     0.210 HD
ENDBRANCH  29  35
ENDBRANCH  26  29
ENDBRANCH  23  24
ENDBRANCH   1  23
TORSDOF 7
ENDMDL
MODEL 7
REMARK VINA RESULT:      -8.8      3.763      5.528
REMARK  7 active torsions:
REMARK  status: ('A' for Active; 'I' for Inactive)
REMARK    1  A    between atoms: C_4  and  C_5 
REMARK    2  A    between atoms: C_5  and  O_6 
REMARK    3  A    between atoms: C_5  and  C_7 
REMARK    4  A    between atoms: C_9  and  C_10 
REMARK    5  A    between atoms: C_10  and  N_11 
REMARK       I    between atoms: N_11  and  C_12 
REMARK    6  A    between atoms: C_12  and  C_13 
REMARK       I    between atoms: C_13  and  N_14 
REMARK    7  A    between atoms: N_14  and  C_15 
ROOT
HETATM    1  N   UNL     1      -2.567   6.848 -33.078  1.00  0.00    -0.348 N 
HETATM    2  C   UNL     1      -2.405   5.965 -34.116  1.00  0.00     0.310 C 
HETATM    3  O   UNL     1      -1.350   5.690 -34.672  1.00  0.00    -0.262 OA
HETATM    4  H   UNL     1      -3.523   7.058 -32.799  1.00  0.00     0.163 HD
ENDROOT
BRANCH   2   5
HETATM    5  C   UNL     1      -3.720   5.315 -34.600  1.00  0.00     0.313 C 
HETATM    6  N   UNL     1      -4.471   4.835 -33.548  1.00  0.00    -0.319 N 
HETATM    7  H   UNL     1      -4.050   4.986 -32.633  1.00  0.00     0.169 HD
HETATM    8  O   UNL     1      -3.947   5.268 -35.801  1.00  0.00    -0.262 OA
BRANCH   6   9
HETATM    9  C   UNL     1      -5.688   4.139 -33.604  1.00  0.00     0.036 A 
HETATM   10  C   UNL     1      -5.795   2.756 -33.459  1.00  0.00     0.039 A 
HETATM   11  C   UNL     1      -7.052   2.130 -33.482  1.00  0.00    -0.028 A 
HETATM   12  C   UNL     1      -8.214   2.889 -33.665  1.00  0.00     0.050 A 
HETATM   13  C   UNL     1      -7.158   0.636 -33.402  1.00  0.00     0.050 C 
HETATM   14  N   UNL     1      -9.479   2.243 -33.666  1.00  0.00    -0.317 N 
HETATM   15  C   UNL     1      -8.110   4.273 -33.872  1.00  0.00    -0.028 A 
HETATM   16  C   UNL     1      -9.644   0.927 -33.243  1.00  0.00     0.224 C 
HETATM   17  C   UNL     1     -10.681   3.022 -33.946  1.00  0.00     0.132 C 
HETATM   18  O   UNL     1     -10.738   0.359 -33.220  1.00  0.00    -0.273 OA
HETATM   19  C   UNL     1      -8.422   0.245 -32.669  1.00  0.00     0.108 C 
HETATM   20  C   UNL     1     -10.421   4.272 -34.769  1.00  0.00     0.025 C 
HETATM   21  C   UNL     1      -9.339   5.109 -34.106  1.00  0.00     0.042 C 
HETATM   22  C   UNL     1      -6.849   4.890 -33.817  1.00  0.00     0.039 A 
ENDBRANCH   6   9
ENDBRANCH   2   5
BRANCH   1  23
HETATM   23  C   UNL     1      -1.481   7.673 -32.622  1.00  0.00     0.169 C 
BRANCH  23  24
HETATM   24  C   UNL     1      -0.893   7.059 -31.396  1.00  0.00     0.001 A 
HETATM   25  S   UNL     1      -1.531   7.428 -29.850  1.00  0.00    -0.095 SA
HETATM   26  C   UNL     1      -0.391   6.422 -29.052  1.00  0.00     0.017 A 
HETATM   27  C   UNL     1       0.453   5.812 -29.963  1.00  0.00     0.018 A 
HETATM   28  C   UNL     1       0.163   6.175 -31.308  1.00  0.00     0.017 A 
BRANCH  26  29
HETATM   29  C   UNL     1      -0.414   6.314 -27.550  1.00  0.00     0.198 C 
BRANCH  29  30
HETATM   30  C   UNL     1       0.323   7.426 -26.854  1.00  0.00     0.016 A 
HETATM   31  S   UNL     1      -0.545   8.796 -26.290  1.00  0.00    -0.103 SA
HETATM   32  C   UNL     1       0.878   9.544 -25.710  1.00  0.00     0.050 A 
HETATM   33  C   UNL     1       1.996   8.775 -25.936  1.00  0.00     0.008 A 
HETATM   34  C   UNL     1       1.678   7.555 -26.601  1.00  0.00     0.018 A 
ENDBRANCH  29  30
BRANCH  29  35
HETATM   35  O   UNL     1      -1.778   6.410 -27.136  1.00  0.00    -0.385 OA
HETATM   36  H   UNL     1      -1.946   7.357 -26.993  1.00  0.00     0.210 HD
ENDBRANCH  29  35
ENDBRANCH  26  29
ENDBRANCH  23  24
ENDBRANCH   1  23
TORSDOF 7
ENDMDL
MODEL 8
REMARK VINA RESULT:      -8.7      3.938      5.355
REMARK  7 active torsions:
REMARK  status: ('A' for Active; 'I' for Inactive)
REMARK    1  A    between atoms: C_4  and  C_5 
REMARK    2  A    between atoms: C_5  and  O_6 
REMARK    3  A    between atoms: C_5  and  C_7 
REMARK    4  A    between atoms: C_9  and  C_10 
REMARK    5  A    between atoms: C_10  and  N_11 
REMARK       I    between atoms: N_11  and  C_12 
REMARK    6  A    between atoms: C_12  and  C_13 
REMARK       I    between atoms: C_13  and  N_14 
REMARK    7  A    between atoms: N_14  and  C_15 
ROOT
HETATM    1  N   UNL     1      -2.320   6.545 -33.132  1.00  0.00    -0.348 N 
HETATM    2  C   UNL     1      -2.330   5.727 -34.234  1.00  0.00     0.310 C 
HETATM    3  O   UNL     1      -1.361   5.422 -34.916  1.00  0.00    -0.262 OA
HETATM    4  H   UNL     1      -3.224   6.798 -32.739  1.00  0.00     0.163 HD
ENDROOT
BRANCH   2   5
HETATM    5  C   UNL     1      -3.732   5.200 -34.614  1.00  0.00     0.313 C 
HETATM    6  N   UNL     1      -4.432   4.767 -33.508  1.00  0.00    -0.319 N 
HETATM    7  H   UNL     1      -3.926   4.864 -32.630  1.00  0.00     0.169 HD
HETATM    8  O   UNL     1      -4.060   5.195 -35.792  1.00  0.00    -0.262 OA
BRANCH   6   9
HETATM    9  C   UNL     1      -5.705   4.177 -33.470  1.00  0.00     0.036 A 
HETATM   10  C   UNL     1      -6.878   4.847 -33.816  1.00  0.00     0.039 A 
HETATM   11  C   UNL     1      -8.114   4.180 -33.797  1.00  0.00    -0.028 A 
HETATM   12  C   UNL     1      -8.184   2.835 -33.412  1.00  0.00     0.050 A 
HETATM   13  C   UNL     1      -9.383   4.922 -34.096  1.00  0.00     0.050 C 
HETATM   14  N   UNL     1      -9.438   2.170 -33.417  1.00  0.00    -0.317 N 
HETATM   15  C   UNL     1      -7.017   2.172 -33.004  1.00  0.00    -0.028 A 
HETATM   16  C   UNL     1     -10.568   2.713 -34.023  1.00  0.00     0.224 C 
HETATM   17  C   UNL     1      -9.523   0.796 -32.932  1.00  0.00     0.132 C 
HETATM   18  O   UNL     1     -11.658   2.140 -34.052  1.00  0.00    -0.273 OA
HETATM   19  C   UNL     1     -10.369   4.005 -34.785  1.00  0.00     0.108 C 
HETATM   20  C   UNL     1      -8.425   0.428 -31.948  1.00  0.00     0.025 C 
HETATM   21  C   UNL     1      -7.066   0.738 -32.554  1.00  0.00     0.042 C 
HETATM   22  C   UNL     1      -5.783   2.842 -33.057  1.00  0.00     0.039 A 
ENDBRANCH   6   9
ENDBRANCH   2   5
BRANCH   1  23
HETATM   23  C   UNL     1      -1.136   7.263 -32.745  1.00  0.00     0.169 C 
BRANCH  23  24
HETATM   24  C   UNL     1      -0.561   6.621 -31.527  1.00  0.00     0.001 A 
HETATM   25  S   UNL     1      -0.649   7.409 -30.009  1.00  0.00    -0.095 SA
HETATM   26  C   UNL     1       0.179   6.134 -29.210  1.00  0.00     0.017 A 
HETATM   27  C   UNL     1       0.505   5.124 -30.098  1.00  0.00     0.018 A 
HETATM   28  C   UNL     1       0.077   5.402 -31.427  1.00  0.00     0.017 A 
BRANCH  26  29
HETATM   29  C   UNL     1       0.456   6.234 -27.733  1.00  0.00     0.198 C 
BRANCH  29  30
HETATM   30  C   UNL     1       0.582   7.649 -27.238  1.00  0.00     0.016 A 
HETATM   31  S   UNL     1      -0.671   8.328 -26.280  1.00  0.00    -0.103 SA
HETATM   32  C   UNL     1       0.136   9.829 -26.166  1.00  0.00     0.050 A 
HETATM   33  C   UNL     1       1.335   9.825 -26.840  1.00  0.00     0.008 A 
HETATM   34  C   UNL     1       1.591   8.569 -27.463  1.00  0.00     0.018 A 
ENDBRANCH  29  30
BRANCH  29  35
HETATM   35  O   UNL     1      -0.663   5.664 -27.051  1.00  0.00    -0.385 OA
HETATM   36  H   UNL     1      -0.467   4.715 -26.965  1.00  0.00     0.210 HD
ENDBRANCH  29  35
ENDBRANCH  26  29
ENDBRANCH  23  24
ENDBRANCH   1  23
TORSDOF 7
ENDMDL
MODEL 9
REMARK VINA RESULT:      -8.7      1.401      2.606
REMARK  7 active torsions:
REMARK  status: ('A' for Active; 'I' for Inactive)
REMARK    1  A    between atoms: C_4  and  C_5 
REMARK    2  A    between atoms: C_5  and  O_6 
REMARK    3  A    between atoms: C_5  and  C_7 
REMARK    4  A    between atoms: C_9  and  C_10 
REMARK    5  A    between atoms: C_10  and  N_11 
REMARK       I    between atoms: N_11  and  C_12 
REMARK    6  A    between atoms: C_12  and  C_13 
REMARK       I    between atoms: C_13  and  N_14 
REMARK    7  A    between atoms: N_14  and  C_15 
ROOT
HETATM    1  N   UNL     1      -6.984   4.142 -31.770  1.00  0.00    -0.348 N 
HETATM    2  C   UNL     1      -7.775   3.291 -31.039  1.00  0.00     0.310 C 
HETATM    3  O   UNL     1      -8.569   3.614 -30.166  1.00  0.00    -0.262 OA
HETATM    4  H   UNL     1      -6.289   3.715 -32.379  1.00  0.00     0.163 HD
ENDROOT
BRANCH   2   5
HETATM    5  C   UNL     1      -7.573   1.797 -31.379  1.00  0.00     0.313 C 
HETATM    6  N   UNL     1      -6.298   1.546 -31.839  1.00  0.00    -0.319 N 
HETATM    7  H   UNL     1      -5.699   2.368 -31.877  1.00  0.00     0.169 HD
HETATM    8  O   UNL     1      -8.514   1.029 -31.240  1.00  0.00    -0.262 OA
BRANCH   6   9
HETATM    9  C   UNL     1      -5.769   0.327 -32.293  1.00  0.00     0.036 A 
HETATM   10  C   UNL     1      -4.579  -0.224 -31.819  1.00  0.00     0.039 A 
HETATM   11  C   UNL     1      -4.133  -1.470 -32.288  1.00  0.00    -0.028 A 
HETATM   12  C   UNL     1      -4.873  -2.168 -33.251  1.00  0.00     0.050 A 
HETATM   13  C   UNL     1      -2.815  -2.025 -31.834  1.00  0.00     0.050 C 
HETATM   14  N   UNL     1      -4.418  -3.436 -33.700  1.00  0.00    -0.317 N 
HETATM   15  C   UNL     1      -6.039  -1.592 -33.777  1.00  0.00    -0.028 A 
HETATM   16  C   UNL     1      -3.406  -4.137 -33.050  1.00  0.00     0.224 C 
HETATM   17  C   UNL     1      -5.141  -4.120 -34.767  1.00  0.00     0.132 C 
HETATM   18  O   UNL     1      -3.013  -5.247 -33.417  1.00  0.00    -0.273 OA
HETATM   19  C   UNL     1      -2.886  -3.535 -31.764  1.00  0.00     0.108 C 
HETATM   20  C   UNL     1      -5.922  -3.184 -35.673  1.00  0.00     0.025 C 
HETATM   21  C   UNL     1      -6.836  -2.302 -34.837  1.00  0.00     0.042 C 
HETATM   22  C   UNL     1      -6.490  -0.358 -33.277  1.00  0.00     0.039 A 
ENDBRANCH   6   9
ENDBRANCH   2   5
BRANCH   1  23
HETATM   23  C   UNL     1      -6.912   5.545 -31.461  1.00  0.00     0.169 C 
BRANCH  23  24
HETATM   24  C   UNL     1      -5.488   5.983 -31.541  1.00  0.00     0.001 A 
HETATM   25  S   UNL     1      -4.226   4.906 -31.114  1.00  0.00    -0.095 SA
HETATM   26  C   UNL     1      -3.012   6.077 -31.437  1.00  0.00     0.017 A 
HETATM   27  C   UNL     1      -3.573   7.264 -31.872  1.00  0.00     0.018 A 
HETATM   28  C   UNL     1      -4.994   7.209 -31.935  1.00  0.00     0.017 A 
BRANCH  26  29
HETATM   29  C   UNL     1      -1.563   5.727 -31.226  1.00  0.00     0.198 C 
BRANCH  29  30
HETATM   30  C   UNL     1      -0.901   6.531 -30.140  1.00  0.00     0.016 A 
HETATM   31  S   UNL     1      -1.831   7.084 -28.806  1.00  0.00    -0.103 SA
HETATM   32  C   UNL     1      -0.486   7.873 -28.107  1.00  0.00     0.050 A 
HETATM   33  C   UNL     1       0.652   7.725 -28.865  1.00  0.00     0.008 A 
HETATM   34  C   UNL     1       0.413   6.955 -30.040  1.00  0.00     0.018 A 
ENDBRANCH  29  30
BRANCH  29  35
HETATM   35  O   UNL     1      -1.510   4.361 -30.809  1.00  0.00    -0.385 OA
HETATM   36  H   UNL     1      -0.595   4.208 -30.515  1.00  0.00     0.210 HD
ENDBRANCH  29  35
ENDBRANCH  26  29
ENDBRANCH  23  24
ENDBRANCH   1  23
TORSDOF 7
ENDMDL
MODEL 10
REMARK VINA RESULT:      -8.6      3.638     10.909
REMARK  7 active torsions:
REMARK  status: ('A' for Active; 'I' for Inactive)
REMARK    1  A    between atoms: C_4  and  C_5 
REMARK    2  A    between atoms: C_5  and  O_6 
REMARK    3  A    between atoms: C_5  and  C_7 
REMARK    4  A    between atoms: C_9  and  C_10 
REMARK    5  A    between atoms: C_10  and  N_11 
REMARK       I    between atoms: N_11  and  C_12 
REMARK    6  A    between atoms: C_12  and  C_13 
REMARK       I    between atoms: C_13  and  N_14 
REMARK    7  A    between atoms: N_14  and  C_15 
ROOT
HETATM    1  N   UNL     1      -3.346   6.186 -32.921  1.00  0.00    -0.348 N 
HETATM    2  C   UNL     1      -2.373   7.115 -33.194  1.00  0.00     0.310 C 
HETATM    3  O   UNL     1      -1.777   7.246 -34.255  1.00  0.00    -0.262 OA
HETATM    4  H   UNL     1      -3.665   6.125 -31.957  1.00  0.00     0.163 HD
ENDROOT
BRANCH   2   5
HETATM    5  C   UNL     1      -2.022   8.029 -31.999  1.00  0.00     0.313 C 
HETATM    6  N   UNL     1      -1.855   7.307 -30.836  1.00  0.00    -0.319 N 
HETATM    7  H   UNL     1      -1.983   6.303 -30.946  1.00  0.00     0.169 HD
HETATM    8  O   UNL     1      -1.953   9.236 -32.180  1.00  0.00    -0.262 OA
BRANCH   6   9
HETATM    9  C   UNL     1      -1.588   7.797 -29.548  1.00  0.00     0.036 A 
HETATM   10  C   UNL     1      -2.572   8.273 -28.682  1.00  0.00     0.039 A 
HETATM   11  C   UNL     1      -2.237   8.707 -27.389  1.00  0.00    -0.028 A 
HETATM   12  C   UNL     1      -0.905   8.680 -26.959  1.00  0.00     0.050 A 
HETATM   13  C   UNL     1      -3.285   9.290 -26.488  1.00  0.00     0.050 C 
HETATM   14  N   UNL     1      -0.586   9.104 -25.642  1.00  0.00    -0.317 N 
HETATM   15  C   UNL     1       0.098   8.259 -27.845  1.00  0.00    -0.028 A 
HETATM   16  C   UNL     1      -1.560   9.309 -24.669  1.00  0.00     0.224 C 
HETATM   17  C   UNL     1       0.812   9.160 -25.226  1.00  0.00     0.132 C 
HETATM   18  O   UNL     1      -1.297   9.659 -23.516  1.00  0.00    -0.273 OA
HETATM   19  C   UNL     1      -2.978   8.947 -25.048  1.00  0.00     0.108 C 
HETATM   20  C   UNL     1       1.786   9.330 -26.380  1.00  0.00     0.025 C 
HETATM   21  C   UNL     1       1.542   8.252 -27.423  1.00  0.00     0.042 C 
HETATM   22  C   UNL     1      -0.254   7.800 -29.125  1.00  0.00     0.039 A 
ENDBRANCH   6   9
ENDBRANCH   2   5
BRANCH   1  23
HETATM   23  C   UNL     1      -3.668   5.144 -33.859  1.00  0.00     0.169 C 
BRANCH  23  24
HETATM   24  C   UNL     1      -3.934   3.885 -33.104  1.00  0.00     0.001 A 
HETATM   25  S   UNL     1      -5.452   3.102 -33.233  1.00  0.00    -0.095 SA
HETATM   26  C   UNL     1      -4.991   1.856 -32.145  1.00  0.00     0.017 A 
HETATM   27  C   UNL     1      -3.693   2.040 -31.704  1.00  0.00     0.018 A 
HETATM   28  C   UNL     1      -3.085   3.203 -32.257  1.00  0.00     0.017 A 
BRANCH  26  29
HETATM   29  C   UNL     1      -5.972   0.768 -31.798  1.00  0.00     0.198 C 
BRANCH  29  30
HETATM   30  C   UNL     1      -6.086  -0.299 -32.853  1.00  0.00     0.016 A 
HETATM   31  S   UNL     1      -4.687  -1.176 -33.327  1.00  0.00    -0.103 SA
HETATM   32  C   UNL     1      -5.564  -2.084 -34.480  1.00  0.00     0.050 A 
HETATM   33  C   UNL     1      -6.894  -1.735 -34.510  1.00  0.00     0.008 A 
HETATM   34  C   UNL     1      -7.195  -0.702 -33.576  1.00  0.00     0.018 A 
ENDBRANCH  29  30
BRANCH  29  35
HETATM   35  O   UNL     1      -5.492   0.121 -30.617  1.00  0.00    -0.385 OA
HETATM   36  H   UNL     1      -5.291   0.834 -29.987  1.00  0.00     0.210 HD
ENDBRANCH  29  35
ENDBRANCH  26  29
ENDBRANCH  23  24
ENDBRANCH   1  23
TORSDOF 7
ENDMDL
