MODEL 1
REMARK VINA RESULT:      -8.0      0.000      0.000
REMARK  7 active torsions:
REMARK  status: ('A' for Active; 'I' for Inactive)
REMARK    1  A    between atoms: N_3  and  C_4 
REMARK    2  A    between atoms: C_12  and  C_13 
REMARK       I    between atoms: C_13  and  N_14 
REMARK    3  A    between atoms: N_14  and  C_15 
REMARK    4  A    between atoms: C_15  and  C_16 
REMARK    5  A    between atoms: C_16  and  O_17 
REMARK    6  A    between atoms: C_16  and  C_18 
REMARK    7  A    between atoms: C_21  and  O_22 
ROOT
HETATM    1  C   UNL     1      -6.003   3.362 -33.122  1.00  0.00     0.255 C 
HETATM    2  N   UNL     1      -6.838   3.145 -32.049  1.00  0.00    -0.350 N 
HETATM    3  O   UNL     1      -6.191   2.856 -34.223  1.00  0.00    -0.268 OA
HETATM    4  H   UNL     1      -6.785   3.808 -31.287  1.00  0.00     0.163 HD
ENDROOT
BRANCH   2   5
HETATM    5  C   UNL     1      -8.076   2.366 -32.145  1.00  0.00     0.114 C 
HETATM    6  C   UNL     1      -9.277   3.155 -31.608  1.00  0.00     0.035 C 
BRANCH   5   7
HETATM    7  C   UNL     1      -7.962   0.950 -31.504  1.00  0.00     0.173 C 
BRANCH   7   8
HETATM    8  O   UNL     1      -9.259   0.405 -31.240  1.00  0.00    -0.389 OA
HETATM    9  H   UNL     1      -9.901   1.011 -31.649  1.00  0.00     0.210 HD
ENDBRANCH   7   8
BRANCH   7  10
HETATM   10  C   UNL     1      -7.213  -0.013 -32.411  1.00  0.00    -0.028 A 
HETATM   11  C   UNL     1      -7.844  -0.554 -33.541  1.00  0.00     0.012 A 
HETATM   12  C   UNL     1      -7.166  -1.449 -34.373  1.00  0.00     0.037 A 
HETATM   13  C   UNL     1      -5.842  -1.800 -34.106  1.00  0.00     0.068 A 
HETATM   14  C   UNL     1      -5.213  -1.293 -32.971  1.00  0.00     0.037 A 
HETATM   15  C   UNL     1      -5.895  -0.407 -32.130  1.00  0.00     0.012 A 
BRANCH  13  16
HETATM   16  O   UNL     1      -5.273  -2.664 -35.001  1.00  0.00    -0.356 OA
HETATM   17  C   UNL     1      -5.839  -3.971 -35.027  1.00  0.00     0.210 C 
ENDBRANCH  13  16
ENDBRANCH   7  10
ENDBRANCH   5   7
ENDBRANCH   2   5
BRANCH   1  18
HETATM   18  C   UNL     1      -4.924   4.312 -32.900  1.00  0.00     0.075 C 
HETATM   19  C   UNL     1      -3.744   4.209 -32.170  1.00  0.00     0.051 C 
HETATM   20  C   UNL     1      -3.123   3.050 -31.471  1.00  0.00     0.071 C 
HETATM   21  N   UNL     1      -3.145   5.472 -32.214  1.00  0.00    -0.220 N 
HETATM   22  N   UNL     1      -3.793   6.291 -33.091  1.00  0.00    -0.177 NA
HETATM   23  C   UNL     1      -4.859   5.596 -33.476  1.00  0.00     0.158 C 
BRANCH  21  24
HETATM   24  C   UNL     1      -2.021   5.960 -31.463  1.00  0.00     0.150 A 
HETATM   25  N   UNL     1      -2.229   6.496 -30.230  1.00  0.00    -0.241 NA
HETATM   26  C   UNL     1      -1.152   6.980 -29.572  1.00  0.00     0.119 A 
HETATM   27  C   UNL     1       0.136   6.958 -30.077  1.00  0.00     0.019 A 
HETATM   28  C   UNL     1       0.337   6.406 -31.336  1.00  0.00     0.005 A 
HETATM   29  C   UNL     1      -0.753   5.902 -32.043  1.00  0.00     0.052 A 
ENDBRANCH  21  24
ENDBRANCH   1  18
TORSDOF 7
ENDMDL
MODEL 2
REMARK VINA RESULT:      -7.8      2.969      8.861
REMARK  7 active torsions:
REMARK  status: ('A' for Active; 'I' for Inactive)
REMARK    1  A    between atoms: N_3  and  C_4 
REMARK    2  A    between atoms: C_12  and  C_13 
REMARK       I    between atoms: C_13  and  N_14 
REMARK    3  A    between atoms: N_14  and  C_15 
REMARK    4  A    between atoms: C_15  and  C_16 
REMARK    5  A    between atoms: C_16  and  O_17 
REMARK    6  A    between atoms: C_16  and  C_18 
REMARK    7  A    between atoms: C_21  and  O_22 
ROOT
HETATM    1  C   UNL     1      -5.462   2.734 -32.770  1.00  0.00     0.255 C 
HETATM    2  N   UNL     1      -4.541   3.497 -33.451  1.00  0.00    -0.350 N 
HETATM    3  O   UNL     1      -6.016   3.118 -31.745  1.00  0.00    -0.268 OA
HETATM    4  H   UNL     1      -4.358   3.243 -34.412  1.00  0.00     0.163 HD
ENDROOT
BRANCH   2   5
HETATM    5  C   UNL     1      -4.203   4.871 -33.068  1.00  0.00     0.114 C 
HETATM    6  C   UNL     1      -5.360   5.834 -33.360  1.00  0.00     0.035 C 
BRANCH   5   7
HETATM    7  C   UNL     1      -2.854   5.363 -33.676  1.00  0.00     0.173 C 
BRANCH   7   8
HETATM    8  O   UNL     1      -3.076   6.414 -34.623  1.00  0.00    -0.389 OA
HETATM    9  H   UNL     1      -2.671   7.214 -34.247  1.00  0.00     0.210 HD
ENDBRANCH   7   8
BRANCH   7  10
HETATM   10  C   UNL     1      -1.914   5.880 -32.600  1.00  0.00    -0.028 A 
HETATM   11  C   UNL     1      -2.146   7.125 -31.997  1.00  0.00     0.012 A 
HETATM   12  C   UNL     1      -1.279   7.612 -31.015  1.00  0.00     0.037 A 
HETATM   13  C   UNL     1      -0.182   6.857 -30.601  1.00  0.00     0.068 A 
HETATM   14  C   UNL     1       0.076   5.631 -31.212  1.00  0.00     0.037 A 
HETATM   15  C   UNL     1      -0.783   5.148 -32.204  1.00  0.00     0.012 A 
BRANCH  13  16
HETATM   16  O   UNL     1       0.582   7.422 -29.618  1.00  0.00    -0.356 OA
HETATM   17  C   UNL     1      -0.148   8.064 -28.576  1.00  0.00     0.210 C 
ENDBRANCH  13  16
ENDBRANCH   7  10
ENDBRANCH   5   7
ENDBRANCH   2   5
BRANCH   1  18
HETATM   18  C   UNL     1      -5.819   1.469 -33.393  1.00  0.00     0.075 C 
HETATM   19  C   UNL     1      -5.568   0.154 -33.014  1.00  0.00     0.051 C 
HETATM   20  C   UNL     1      -4.958  -0.408 -31.777  1.00  0.00     0.071 C 
HETATM   21  N   UNL     1      -6.045  -0.650 -34.054  1.00  0.00    -0.220 N 
HETATM   22  N   UNL     1      -6.749   0.086 -34.960  1.00  0.00    -0.177 NA
HETATM   23  C   UNL     1      -6.590   1.346 -34.566  1.00  0.00     0.158 C 
BRANCH  21  24
HETATM   24  C   UNL     1      -5.855  -2.060 -34.257  1.00  0.00     0.150 A 
HETATM   25  N   UNL     1      -4.598  -2.578 -34.193  1.00  0.00    -0.241 NA
HETATM   26  C   UNL     1      -4.456  -3.901 -34.429  1.00  0.00     0.119 A 
HETATM   27  C   UNL     1      -5.508  -4.750 -34.727  1.00  0.00     0.019 A 
HETATM   28  C   UNL     1      -6.787  -4.211 -34.787  1.00  0.00     0.005 A 
HETATM   29  C   UNL     1      -6.968  -2.850 -34.552  1.00  0.00     0.052 A 
ENDBRANCH  21  24
ENDBRANCH   1  18
TORSDOF 7
ENDMDL
MODEL 3
REMARK VINA RESULT:      -7.7      1.823      2.192
REMARK  7 active torsions:
REMARK  status: ('A' for Active; 'I' for Inactive)
REMARK    1  A    between atoms: N_3  and  C_4 
REMARK    2  A    between atoms: C_12  and  C_13 
REMARK       I    between atoms: C_13  and  N_14 
REMARK    3  A    between atoms: N_14  and  C_15 
REMARK    4  A    between atoms: C_15  and  C_16 
REMARK    5  A    between atoms: C_16  and  O_17 
REMARK    6  A    between atoms: C_16  and  C_18 
REMARK    7  A    between atoms: C_21  and  O_22 
ROOT
HETATM    1  C   UNL     1      -6.190   4.107 -34.046  1.00  0.00     0.255 C 
HETATM    2  N   UNL     1      -6.450   2.774 -33.822  1.00  0.00    -0.350 N 
HETATM    3  O   UNL     1      -7.072   4.927 -34.279  1.00  0.00    -0.268 OA
HETATM    4  H   UNL     1      -5.727   2.238 -33.361  1.00  0.00     0.163 HD
ENDROOT
BRANCH   2   5
HETATM    5  C   UNL     1      -7.808   2.227 -33.750  1.00  0.00     0.114 C 
HETATM    6  C   UNL     1      -8.502   2.622 -32.440  1.00  0.00     0.035 C 
BRANCH   5   7
HETATM    7  C   UNL     1      -7.865   0.691 -34.011  1.00  0.00     0.173 C 
BRANCH   7   8
HETATM    8  O   UNL     1      -7.944   0.416 -35.414  1.00  0.00    -0.389 OA
HETATM    9  H   UNL     1      -7.318   1.021 -35.849  1.00  0.00     0.210 HD
ENDBRANCH   7   8
BRANCH   7  10
HETATM   10  C   UNL     1      -6.640  -0.016 -33.453  1.00  0.00    -0.028 A 
HETATM   11  C   UNL     1      -6.310   0.110 -32.096  1.00  0.00     0.012 A 
HETATM   12  C   UNL     1      -5.179  -0.528 -31.578  1.00  0.00     0.037 A 
HETATM   13  C   UNL     1      -4.374  -1.319 -32.398  1.00  0.00     0.068 A 
HETATM   14  C   UNL     1      -4.675  -1.429 -33.755  1.00  0.00     0.037 A 
HETATM   15  C   UNL     1      -5.800  -0.781 -34.277  1.00  0.00     0.012 A 
BRANCH  13  16
HETATM   16  O   UNL     1      -3.309  -1.913 -31.778  1.00  0.00    -0.356 OA
HETATM   17  C   UNL     1      -3.151  -3.304 -32.044  1.00  0.00     0.210 C 
ENDBRANCH  13  16
ENDBRANCH   7  10
ENDBRANCH   5   7
ENDBRANCH   2   5
BRANCH   1  18
HETATM   18  C   UNL     1      -4.801   4.513 -33.896  1.00  0.00     0.075 C 
HETATM   19  C   UNL     1      -3.935   4.444 -32.809  1.00  0.00     0.051 C 
HETATM   20  C   UNL     1      -4.096   3.815 -31.469  1.00  0.00     0.071 C 
HETATM   21  N   UNL     1      -2.759   5.089 -33.204  1.00  0.00    -0.220 N 
HETATM   22  N   UNL     1      -2.783   5.379 -34.536  1.00  0.00    -0.177 NA
HETATM   23  C   UNL     1      -4.009   5.050 -34.930  1.00  0.00     0.158 C 
BRANCH  21  24
HETATM   24  C   UNL     1      -1.631   5.470 -32.400  1.00  0.00     0.150 A 
HETATM   25  N   UNL     1      -1.123   4.580 -31.504  1.00  0.00    -0.241 NA
HETATM   26  C   UNL     1      -0.087   4.989 -30.739  1.00  0.00     0.119 A 
HETATM   27  C   UNL     1       0.481   6.249 -30.817  1.00  0.00     0.019 A 
HETATM   28  C   UNL     1      -0.044   7.148 -31.736  1.00  0.00     0.005 A 
HETATM   29  C   UNL     1      -1.115   6.759 -32.538  1.00  0.00     0.052 A 
ENDBRANCH  21  24
ENDBRANCH   1  18
TORSDOF 7
ENDMDL
MODEL 4
REMARK VINA RESULT:      -7.7      2.375      3.680
REMARK  7 active torsions:
REMARK  status: ('A' for Active; 'I' for Inactive)
REMARK    1  A    between atoms: N_3  and  C_4 
REMARK    2  A    between atoms: C_12  and  C_13 
REMARK       I    between atoms: C_13  and  N_14 
REMARK    3  A    between atoms: N_14  and  C_15 
REMARK    4  A    between atoms: C_15  and  C_16 
REMARK    5  A    between atoms: C_16  and  O_17 
REMARK    6  A    between atoms: C_16  and  C_18 
REMARK    7  A    between atoms: C_21  and  O_22 
ROOT
HETATM    1  C   UNL     1      -2.234   4.466 -31.665  1.00  0.00     0.255 C 
HETATM    2  N   UNL     1      -3.360   3.774 -31.278  1.00  0.00    -0.350 N 
HETATM    3  O   UNL     1      -1.683   4.285 -32.746  1.00  0.00    -0.268 OA
HETATM    4  H   UNL     1      -3.907   4.176 -30.528  1.00  0.00     0.163 HD
ENDROOT
BRANCH   2   5
HETATM    5  C   UNL     1      -4.057   2.827 -32.152  1.00  0.00     0.114 C 
HETATM    6  C   UNL     1      -4.994   3.550 -33.127  1.00  0.00     0.035 C 
BRANCH   5   7
HETATM    7  C   UNL     1      -4.778   1.687 -31.371  1.00  0.00     0.173 C 
BRANCH   7   8
HETATM    8  O   UNL     1      -6.187   1.927 -31.306  1.00  0.00    -0.389 OA
HETATM    9  H   UNL     1      -6.579   1.152 -30.868  1.00  0.00     0.210 HD
ENDBRANCH   7   8
BRANCH   7  10
HETATM   10  C   UNL     1      -4.553   0.334 -32.026  1.00  0.00    -0.028 A 
HETATM   11  C   UNL     1      -5.344  -0.064 -33.114  1.00  0.00     0.012 A 
HETATM   12  C   UNL     1      -5.150  -1.312 -33.714  1.00  0.00     0.037 A 
HETATM   13  C   UNL     1      -4.151  -2.171 -33.255  1.00  0.00     0.068 A 
HETATM   14  C   UNL     1      -3.377  -1.800 -32.158  1.00  0.00     0.037 A 
HETATM   15  C   UNL     1      -3.578  -0.557 -31.548  1.00  0.00     0.012 A 
BRANCH  13  16
HETATM   16  O   UNL     1      -4.038  -3.354 -33.934  1.00  0.00    -0.356 OA
HETATM   17  C   UNL     1      -5.193  -3.743 -34.672  1.00  0.00     0.210 C 
ENDBRANCH  13  16
ENDBRANCH   7  10
ENDBRANCH   5   7
ENDBRANCH   2   5
BRANCH   1  18
HETATM   18  C   UNL     1      -1.784   5.504 -30.751  1.00  0.00     0.075 C 
HETATM   19  C   UNL     1      -0.568   5.690 -30.099  1.00  0.00     0.051 C 
HETATM   20  C   UNL     1       0.725   4.961 -30.213  1.00  0.00     0.071 C 
HETATM   21  N   UNL     1      -0.743   6.791 -29.256  1.00  0.00    -0.220 N 
HETATM   22  N   UNL     1      -1.934   7.410 -29.497  1.00  0.00    -0.177 NA
HETATM   23  C   UNL     1      -2.550   6.623 -30.373  1.00  0.00     0.158 C 
BRANCH  21  24
HETATM   24  C   UNL     1       0.130   7.278 -28.223  1.00  0.00     0.150 A 
HETATM   25  N   UNL     1       0.045   6.743 -26.975  1.00  0.00    -0.241 NA
HETATM   26  C   UNL     1       0.855   7.254 -26.021  1.00  0.00     0.119 A 
HETATM   27  C   UNL     1       1.757   8.279 -26.242  1.00  0.00     0.019 A 
HETATM   28  C   UNL     1       1.837   8.817 -27.521  1.00  0.00     0.005 A 
HETATM   29  C   UNL     1       1.014   8.315 -28.526  1.00  0.00     0.052 A 
ENDBRANCH  21  24
ENDBRANCH   1  18
TORSDOF 7
ENDMDL
MODEL 5
REMARK VINA RESULT:      -7.4      3.588      7.575
REMARK  7 active torsions:
REMARK  status: ('A' for Active; 'I' for Inactive)
REMARK    1  A    between atoms: N_3  and  C_4 
REMARK    2  A    between atoms: C_12  and  C_13 
REMARK       I    between atoms: C_13  and  N_14 
REMARK    3  A    between atoms: N_14  and  C_15 
REMARK    4  A    between atoms: C_15  and  C_16 
REMARK    5  A    between atoms: C_16  and  O_17 
REMARK    6  A    between atoms: C_16  and  C_18 
REMARK    7  A    between atoms: C_21  and  O_22 
ROOT
HETATM    1  C   UNL     1      -6.591   0.616 -31.657  1.00  0.00     0.255 C 
HETATM    2  N   UNL     1      -5.332   0.742 -32.199  1.00  0.00    -0.350 N 
HETATM    3  O   UNL     1      -6.787   0.502 -30.452  1.00  0.00    -0.268 OA
HETATM    4  H   UNL     1      -5.273   1.116 -33.137  1.00  0.00     0.163 HD
ENDROOT
BRANCH   2   5
HETATM    5  C   UNL     1      -4.118   0.843 -31.384  1.00  0.00     0.114 C 
HETATM    6  C   UNL     1      -3.738   2.306 -31.126  1.00  0.00     0.035 C 
BRANCH   5   7
HETATM    7  C   UNL     1      -2.927   0.012 -31.951  1.00  0.00     0.173 C 
BRANCH   7   8
HETATM    8  O   UNL     1      -1.991  -0.308 -30.916  1.00  0.00    -0.389 OA
HETATM    9  H   UNL     1      -1.488  -1.079 -31.229  1.00  0.00     0.210 HD
ENDBRANCH   7   8
BRANCH   7  10
HETATM   10  C   UNL     1      -3.404  -1.286 -32.583  1.00  0.00    -0.028 A 
HETATM   11  C   UNL     1      -3.063  -2.518 -32.006  1.00  0.00     0.012 A 
HETATM   12  C   UNL     1      -3.488  -3.716 -32.588  1.00  0.00     0.037 A 
HETATM   13  C   UNL     1      -4.279  -3.704 -33.737  1.00  0.00     0.068 A 
HETATM   14  C   UNL     1      -4.601  -2.488 -34.335  1.00  0.00     0.037 A 
HETATM   15  C   UNL     1      -4.166  -1.288 -33.762  1.00  0.00     0.012 A 
BRANCH  13  16
HETATM   16  O   UNL     1      -4.656  -4.934 -34.203  1.00  0.00    -0.356 OA
HETATM   17  C   UNL     1      -5.798  -4.936 -35.055  1.00  0.00     0.210 C 
ENDBRANCH  13  16
ENDBRANCH   7  10
ENDBRANCH   5   7
ENDBRANCH   2   5
BRANCH   1  18
HETATM   18  C   UNL     1      -7.697   0.723 -32.596  1.00  0.00     0.075 C 
HETATM   19  C   UNL     1      -8.938   1.343 -32.488  1.00  0.00     0.051 C 
HETATM   20  C   UNL     1      -9.507   2.215 -31.423  1.00  0.00     0.071 C 
HETATM   21  N   UNL     1      -9.638   1.023 -33.656  1.00  0.00    -0.220 N 
HETATM   22  N   UNL     1      -8.826   0.403 -34.559  1.00  0.00    -0.177 NA
HETATM   23  C   UNL     1      -7.682   0.213 -33.909  1.00  0.00     0.158 C 
BRANCH  21  24
HETATM   24  C   UNL     1     -11.026   1.241 -33.959  1.00  0.00     0.150 A 
HETATM   25  N   UNL     1     -11.953   0.358 -33.498  1.00  0.00    -0.241 NA
HETATM   26  C   UNL     1     -13.243   0.575 -33.837  1.00  0.00     0.119 A 
HETATM   27  C   UNL     1     -13.668   1.636 -34.617  1.00  0.00     0.019 A 
HETATM   28  C   UNL     1     -12.714   2.532 -35.080  1.00  0.00     0.005 A 
HETATM   29  C   UNL     1     -11.374   2.335 -34.752  1.00  0.00     0.052 A 
ENDBRANCH  21  24
ENDBRANCH   1  18
TORSDOF 7
ENDMDL
MODEL 6
REMARK VINA RESULT:      -7.3      1.802      2.589
REMARK  7 active torsions:
REMARK  status: ('A' for Active; 'I' for Inactive)
REMARK    1  A    between atoms: N_3  and  C_4 
REMARK    2  A    between atoms: C_12  and  C_13 
REMARK       I    between atoms: C_13  and  N_14 
REMARK    3  A    between atoms: N_14  and  C_15 
REMARK    4  A    between atoms: C_15  and  C_16 
REMARK    5  A    between atoms: C_16  and  O_17 
REMARK    6  A    between atoms: C_16  and  C_18 
REMARK    7  A    between atoms: C_21  and  O_22 
ROOT
HETATM    1  C   UNL     1      -6.224   2.616 -32.100  1.00  0.00     0.255 C 
HETATM    2  N   UNL     1      -6.406   1.610 -33.023  1.00  0.00    -0.350 N 
HETATM    3  O   UNL     1      -7.155   3.136 -31.493  1.00  0.00    -0.268 OA
HETATM    4  H   UNL     1      -5.597   1.050 -33.254  1.00  0.00     0.163 HD
ENDROOT
BRANCH   2   5
HETATM    5  C   UNL     1      -7.713   1.006 -33.299  1.00  0.00     0.114 C 
HETATM    6  C   UNL     1      -8.299   0.343 -32.047  1.00  0.00     0.035 C 
BRANCH   5   7
HETATM    7  C   UNL     1      -7.697   0.046 -34.527  1.00  0.00     0.173 C 
BRANCH   7   8
HETATM    8  O   UNL     1      -7.428   0.767 -35.734  1.00  0.00    -0.389 OA
HETATM    9  H   UNL     1      -7.593   0.149 -36.467  1.00  0.00     0.210 HD
ENDBRANCH   7   8
BRANCH   7  10
HETATM   10  C   UNL     1      -6.644  -1.039 -34.373  1.00  0.00    -0.028 A 
HETATM   11  C   UNL     1      -5.352  -0.712 -33.935  1.00  0.00     0.012 A 
HETATM   12  C   UNL     1      -4.376  -1.703 -33.802  1.00  0.00     0.037 A 
HETATM   13  C   UNL     1      -4.677  -3.037 -34.078  1.00  0.00     0.068 A 
HETATM   14  C   UNL     1      -5.948  -3.371 -34.540  1.00  0.00     0.037 A 
HETATM   15  C   UNL     1      -6.923  -2.379 -34.687  1.00  0.00     0.012 A 
BRANCH  13  16
HETATM   16  O   UNL     1      -3.651  -3.921 -33.889  1.00  0.00    -0.356 OA
HETATM   17  C   UNL     1      -4.040  -5.287 -33.776  1.00  0.00     0.210 C 
ENDBRANCH  13  16
ENDBRANCH   7  10
ENDBRANCH   5   7
ENDBRANCH   2   5
BRANCH   1  18
HETATM   18  C   UNL     1      -4.842   2.966 -31.811  1.00  0.00     0.075 C 
HETATM   19  C   UNL     1      -4.224   4.201 -31.639  1.00  0.00     0.051 C 
HETATM   20  C   UNL     1      -4.788   5.577 -31.568  1.00  0.00     0.071 C 
HETATM   21  N   UNL     1      -2.858   3.937 -31.499  1.00  0.00    -0.220 N 
HETATM   22  N   UNL     1      -2.627   2.598 -31.382  1.00  0.00    -0.177 NA
HETATM   23  C   UNL     1      -3.812   2.032 -31.588  1.00  0.00     0.158 C 
BRANCH  21  24
HETATM   24  C   UNL     1      -1.760   4.864 -31.497  1.00  0.00     0.150 A 
HETATM   25  N   UNL     1      -0.776   4.726 -30.567  1.00  0.00    -0.241 NA
HETATM   26  C   UNL     1       0.219   5.641 -30.572  1.00  0.00     0.119 A 
HETATM   27  C   UNL     1       0.293   6.697 -31.463  1.00  0.00     0.019 A 
HETATM   28  C   UNL     1      -0.715   6.826 -32.410  1.00  0.00     0.005 A 
HETATM   29  C   UNL     1      -1.758   5.902 -32.430  1.00  0.00     0.052 A 
ENDBRANCH  21  24
ENDBRANCH   1  18
TORSDOF 7
ENDMDL
MODEL 7
REMARK VINA RESULT:      -7.3      2.775      4.651
REMARK  7 active torsions:
REMARK  status: ('A' for Active; 'I' for Inactive)
REMARK    1  A    between atoms: N_3  and  C_4 
REMARK    2  A    between atoms: C_12  and  C_13 
REMARK       I    between atoms: C_13  and  N_14 
REMARK    3  A    between atoms: N_14  and  C_15 
REMARK    4  A    between atoms: C_15  and  C_16 
REMARK    5  A    between atoms: C_16  and  O_17 
REMARK    6  A    between atoms: C_16  and  C_18 
REMARK    7  A    between atoms: C_21  and  O_22 
ROOT
HETATM    1  C   UNL     1      -5.572   0.689 -32.547  1.00  0.00     0.255 C 
HETATM    2  N   UNL     1      -6.909   1.016 -32.553  1.00  0.00    -0.350 N 
HETATM    3  O   UNL     1      -5.164  -0.442 -32.790  1.00  0.00    -0.268 OA
HETATM    4  H   UNL     1      -7.139   1.998 -32.632  1.00  0.00     0.163 HD
ENDROOT
BRANCH   2   5
HETATM    5  C   UNL     1      -7.961   0.072 -32.937  1.00  0.00     0.114 C 
HETATM    6  C   UNL     1      -8.025  -0.106 -34.459  1.00  0.00     0.035 C 
BRANCH   5   7
HETATM    7  C   UNL     1      -9.351   0.417 -32.322  1.00  0.00     0.173 C 
BRANCH   7   8
HETATM    8  O   UNL     1      -9.198   1.112 -31.079  1.00  0.00    -0.389 OA
HETATM    9  H   UNL     1      -8.634   1.883 -31.262  1.00  0.00     0.210 HD
ENDBRANCH   7   8
BRANCH   7  10
HETATM   10  C   UNL     1     -10.175   1.287 -33.257  1.00  0.00    -0.028 A 
HETATM   11  C   UNL     1     -11.380   0.805 -33.791  1.00  0.00     0.012 A 
HETATM   12  C   UNL     1     -12.137   1.594 -34.661  1.00  0.00     0.037 A 
HETATM   13  C   UNL     1     -11.719   2.883 -34.993  1.00  0.00     0.068 A 
HETATM   14  C   UNL     1     -10.510   3.363 -34.493  1.00  0.00     0.037 A 
HETATM   15  C   UNL     1      -9.745   2.569 -33.632  1.00  0.00     0.012 A 
BRANCH  13  16
HETATM   16  O   UNL     1     -12.551   3.571 -35.833  1.00  0.00    -0.356 OA
HETATM   17  C   UNL     1     -12.786   4.931 -35.475  1.00  0.00     0.210 C 
ENDBRANCH  13  16
ENDBRANCH   7  10
ENDBRANCH   5   7
ENDBRANCH   2   5
BRANCH   1  18
HETATM   18  C   UNL     1      -4.651   1.794 -32.328  1.00  0.00     0.075 C 
HETATM   19  C   UNL     1      -4.608   3.075 -32.870  1.00  0.00     0.051 C 
HETATM   20  C   UNL     1      -5.559   3.793 -33.762  1.00  0.00     0.071 C 
HETATM   21  N   UNL     1      -3.436   3.665 -32.384  1.00  0.00    -0.220 N 
HETATM   22  N   UNL     1      -2.859   2.889 -31.422  1.00  0.00    -0.177 NA
HETATM   23  C   UNL     1      -3.580   1.772 -31.413  1.00  0.00     0.158 C 
BRANCH  21  24
HETATM   24  C   UNL     1      -2.817   4.896 -32.789  1.00  0.00     0.150 A 
HETATM   25  N   UNL     1      -3.161   6.052 -32.159  1.00  0.00    -0.241 NA
HETATM   26  C   UNL     1      -2.587   7.195 -32.594  1.00  0.00     0.119 A 
HETATM   27  C   UNL     1      -1.674   7.254 -33.633  1.00  0.00     0.019 A 
HETATM   28  C   UNL     1      -1.328   6.068 -34.268  1.00  0.00     0.005 A 
HETATM   29  C   UNL     1      -1.905   4.872 -33.846  1.00  0.00     0.052 A 
ENDBRANCH  21  24
ENDBRANCH   1  18
TORSDOF 7
ENDMDL
MODEL 8
REMARK VINA RESULT:      -7.2      3.756      9.686
REMARK  7 active torsions:
REMARK  status: ('A' for Active; 'I' for Inactive)
REMARK    1  A    between atoms: N_3  and  C_4 
REMARK    2  A    between atoms: C_12  and  C_13 
REMARK       I    between atoms: C_13  and  N_14 
REMARK    3  A    between atoms: N_14  and  C_15 
REMARK    4  A    between atoms: C_15  and  C_16 
REMARK    5  A    between atoms: C_16  and  O_17 
REMARK    6  A    between atoms: C_16  and  C_18 
REMARK    7  A    between atoms: C_21  and  O_22 
ROOT
HETATM    1  C   UNL     1      -2.487   4.364 -31.720  1.00  0.00     0.255 C 
HETATM    2  N   UNL     1      -2.727   5.300 -30.739  1.00  0.00    -0.350 N 
HETATM    3  O   UNL     1      -1.502   4.406 -32.449  1.00  0.00    -0.268 OA
HETATM    4  H   UNL     1      -3.380   5.041 -30.010  1.00  0.00     0.163 HD
ENDROOT
BRANCH   2   5
HETATM    5  C   UNL     1      -1.788   6.376 -30.413  1.00  0.00     0.114 C 
HETATM    6  C   UNL     1      -1.715   7.414 -31.539  1.00  0.00     0.035 C 
BRANCH   5   7
HETATM    7  C   UNL     1      -0.379   5.855 -29.994  1.00  0.00     0.173 C 
BRANCH   7   8
HETATM    8  O   UNL     1       0.557   6.002 -31.067  1.00  0.00    -0.389 OA
HETATM    9  H   UNL     1       0.047   6.302 -31.839  1.00  0.00     0.210 HD
ENDBRANCH   7   8
BRANCH   7  10
HETATM   10  C   UNL     1       0.156   6.606 -28.786  1.00  0.00    -0.028 A 
HETATM   11  C   UNL     1      -0.135   6.156 -27.489  1.00  0.00     0.012 A 
HETATM   12  C   UNL     1       0.344   6.847 -26.373  1.00  0.00     0.037 A 
HETATM   13  C   UNL     1       1.139   7.982 -26.531  1.00  0.00     0.068 A 
HETATM   14  C   UNL     1       1.413   8.456 -27.812  1.00  0.00     0.037 A 
HETATM   15  C   UNL     1       0.923   7.773 -28.931  1.00  0.00     0.012 A 
BRANCH  13  16
HETATM   16  O   UNL     1       1.571   8.562 -25.369  1.00  0.00    -0.356 OA
HETATM   17  C   UNL     1       0.856   9.729 -24.972  1.00  0.00     0.210 C 
ENDBRANCH  13  16
ENDBRANCH   7  10
ENDBRANCH   5   7
ENDBRANCH   2   5
BRANCH   1  18
HETATM   18  C   UNL     1      -3.428   3.256 -31.781  1.00  0.00     0.075 C 
HETATM   19  C   UNL     1      -4.648   3.122 -32.436  1.00  0.00     0.051 C 
HETATM   20  C   UNL     1      -5.346   4.020 -33.399  1.00  0.00     0.071 C 
HETATM   21  N   UNL     1      -5.167   1.885 -32.045  1.00  0.00    -0.220 N 
HETATM   22  N   UNL     1      -4.246   1.167 -31.341  1.00  0.00    -0.177 NA
HETATM   23  C   UNL     1      -3.225   2.002 -31.174  1.00  0.00     0.158 C 
BRANCH  21  24
HETATM   24  C   UNL     1      -6.482   1.350 -32.272  1.00  0.00     0.150 A 
HETATM   25  N   UNL     1      -7.526   1.823 -31.538  1.00  0.00    -0.241 NA
HETATM   26  C   UNL     1      -8.740   1.268 -31.752  1.00  0.00     0.119 A 
HETATM   27  C   UNL     1      -8.977   0.259 -32.669  1.00  0.00     0.019 A 
HETATM   28  C   UNL     1      -7.905  -0.214 -33.414  1.00  0.00     0.005 A 
HETATM   29  C   UNL     1      -6.639   0.334 -33.215  1.00  0.00     0.052 A 
ENDBRANCH  21  24
ENDBRANCH   1  18
TORSDOF 7
ENDMDL
MODEL 9
REMARK VINA RESULT:      -7.1     16.853     18.636
REMARK  7 active torsions:
REMARK  status: ('A' for Active; 'I' for Inactive)
REMARK    1  A    between atoms: N_3  and  C_4 
REMARK    2  A    between atoms: C_12  and  C_13 
REMARK       I    between atoms: C_13  and  N_14 
REMARK    3  A    between atoms: N_14  and  C_15 
REMARK    4  A    between atoms: C_15  and  C_16 
REMARK    5  A    between atoms: C_16  and  O_17 
REMARK    6  A    between atoms: C_16  and  C_18 
REMARK    7  A    between atoms: C_21  and  O_22 
ROOT
HETATM    1  C   UNL     1      -4.027 -12.679 -38.555  1.00  0.00     0.255 C 
HETATM    2  N   UNL     1      -3.573 -13.924 -38.182  1.00  0.00    -0.350 N 
HETATM    3  O   UNL     1      -3.399 -11.649 -38.333  1.00  0.00    -0.268 OA
HETATM    4  H   UNL     1      -3.989 -14.720 -38.646  1.00  0.00     0.163 HD
ENDROOT
BRANCH   2   5
HETATM    5  C   UNL     1      -2.259 -14.145 -37.570  1.00  0.00     0.114 C 
HETATM    6  C   UNL     1      -1.288 -14.808 -38.553  1.00  0.00     0.035 C 
BRANCH   5   7
HETATM    7  C   UNL     1      -2.336 -14.902 -36.209  1.00  0.00     0.173 C 
BRANCH   7   8
HETATM    8  O   UNL     1      -1.320 -14.441 -35.312  1.00  0.00    -0.389 OA
HETATM    9  H   UNL     1      -1.778 -14.148 -34.505  1.00  0.00     0.210 HD
ENDBRANCH   7   8
BRANCH   7  10
HETATM   10  C   UNL     1      -3.688 -14.711 -35.541  1.00  0.00    -0.028 A 
HETATM   11  C   UNL     1      -4.565 -15.796 -35.398  1.00  0.00     0.012 A 
HETATM   12  C   UNL     1      -5.814 -15.626 -34.794  1.00  0.00     0.037 A 
HETATM   13  C   UNL     1      -6.198 -14.379 -34.302  1.00  0.00     0.068 A 
HETATM   14  C   UNL     1      -5.348 -13.286 -34.462  1.00  0.00     0.037 A 
HETATM   15  C   UNL     1      -4.103 -13.452 -35.078  1.00  0.00     0.012 A 
BRANCH  13  16
HETATM   16  O   UNL     1      -7.431 -14.336 -33.710  1.00  0.00    -0.356 OA
HETATM   17  C   UNL     1      -7.835 -15.540 -33.064  1.00  0.00     0.210 C 
ENDBRANCH  13  16
ENDBRANCH   7  10
ENDBRANCH   5   7
ENDBRANCH   2   5
BRANCH   1  18
HETATM   18  C   UNL     1      -5.264 -12.661 -39.321  1.00  0.00     0.075 C 
HETATM   19  C   UNL     1      -6.589 -12.830 -38.930  1.00  0.00     0.051 C 
HETATM   20  C   UNL     1      -7.203 -12.961 -37.580  1.00  0.00     0.071 C 
HETATM   21  N   UNL     1      -7.345 -12.830 -40.106  1.00  0.00    -0.220 N 
HETATM   22  N   UNL     1      -6.582 -12.477 -41.180  1.00  0.00    -0.177 NA
HETATM   23  C   UNL     1      -5.344 -12.399 -40.702  1.00  0.00     0.158 C 
BRANCH  21  24
HETATM   24  C   UNL     1      -8.731 -13.167 -40.283  1.00  0.00     0.150 A 
HETATM   25  N   UNL     1      -9.065 -14.436 -40.644  1.00  0.00    -0.241 NA
HETATM   26  C   UNL     1     -10.375 -14.704 -40.838  1.00  0.00     0.119 A 
HETATM   27  C   UNL     1     -11.385 -13.770 -40.689  1.00  0.00     0.019 A 
HETATM   28  C   UNL     1     -11.033 -12.479 -40.318  1.00  0.00     0.005 A 
HETATM   29  C   UNL     1      -9.691 -12.168 -40.113  1.00  0.00     0.052 A 
ENDBRANCH  21  24
ENDBRANCH   1  18
TORSDOF 7
ENDMDL
MODEL 10
REMARK VINA RESULT:      -7.1      3.675      8.628
REMARK  7 active torsions:
REMARK  status: ('A' for Active; 'I' for Inactive)
REMARK    1  A    between atoms: N_3  and  C_4 
REMARK    2  A    between atoms: C_12  and  C_13 
REMARK       I    between atoms: C_13  and  N_14 
REMARK    3  A    between atoms: N_14  and  C_15 
REMARK    4  A    between atoms: C_15  and  C_16 
REMARK    5  A    between atoms: C_16  and  O_17 
REMARK    6  A    between atoms: C_16  and  C_18 
REMARK    7  A    between atoms: C_21  and  O_22 
ROOT
HETATM    1  C   UNL     1      -6.349   2.509 -32.861  1.00  0.00     0.255 C 
HETATM    2  N   UNL     1      -5.100   3.081 -32.772  1.00  0.00    -0.350 N 
HETATM    3  O   UNL     1      -7.367   3.076 -32.478  1.00  0.00    -0.268 OA
HETATM    4  H   UNL     1      -4.375   2.690 -33.359  1.00  0.00     0.163 HD
ENDROOT
BRANCH   2   5
HETATM    5  C   UNL     1      -4.879   4.450 -32.297  1.00  0.00     0.114 C 
HETATM    6  C   UNL     1      -4.023   5.254 -33.283  1.00  0.00     0.035 C 
BRANCH   5   7
HETATM    7  C   UNL     1      -4.325   4.513 -30.842  1.00  0.00     0.173 C 
BRANCH   7   8
HETATM    8  O   UNL     1      -3.032   5.128 -30.816  1.00  0.00    -0.389 OA
HETATM    9  H   UNL     1      -3.184   6.084 -30.710  1.00  0.00     0.210 HD
ENDBRANCH   7   8
BRANCH   7  10
HETATM   10  C   UNL     1      -5.248   5.301 -29.927  1.00  0.00    -0.028 A 
HETATM   11  C   UNL     1      -4.862   6.563 -29.451  1.00  0.00     0.012 A 
HETATM   12  C   UNL     1      -5.701   7.289 -28.601  1.00  0.00     0.037 A 
HETATM   13  C   UNL     1      -6.946   6.780 -28.231  1.00  0.00     0.068 A 
HETATM   14  C   UNL     1      -7.330   5.516 -28.674  1.00  0.00     0.037 A 
HETATM   15  C   UNL     1      -6.486   4.783 -29.515  1.00  0.00     0.012 A 
BRANCH  13  16
HETATM   16  O   UNL     1      -7.691   7.588 -27.416  1.00  0.00    -0.356 OA
HETATM   17  C   UNL     1      -7.892   8.914 -27.895  1.00  0.00     0.210 C 
ENDBRANCH  13  16
ENDBRANCH   7  10
ENDBRANCH   5   7
ENDBRANCH   2   5
BRANCH   1  18
HETATM   18  C   UNL     1      -6.407   1.220 -33.531  1.00  0.00     0.075 C 
HETATM   19  C   UNL     1      -6.121  -0.065 -33.078  1.00  0.00     0.051 C 
HETATM   20  C   UNL     1      -5.780  -0.571 -31.719  1.00  0.00     0.071 C 
HETATM   21  N   UNL     1      -6.241  -0.906 -34.189  1.00  0.00    -0.220 N 
HETATM   22  N   UNL     1      -6.772  -0.240 -35.253  1.00  0.00    -0.177 NA
HETATM   23  C   UNL     1      -6.847   1.026 -34.855  1.00  0.00     0.158 C 
BRANCH  21  24
HETATM   24  C   UNL     1      -5.861  -2.287 -34.314  1.00  0.00     0.150 A 
HETATM   25  N   UNL     1      -4.569  -2.644 -34.079  1.00  0.00    -0.241 NA
HETATM   26  C   UNL     1      -4.242  -3.945 -34.246  1.00  0.00     0.119 A 
HETATM   27  C   UNL     1      -5.140  -4.923 -34.636  1.00  0.00     0.019 A 
HETATM   28  C   UNL     1      -6.457  -4.547 -34.871  1.00  0.00     0.005 A 
HETATM   29  C   UNL     1      -6.826  -3.213 -34.711  1.00  0.00     0.052 A 
ENDBRANCH  21  24
ENDBRANCH   1  18
TORSDOF 7
ENDMDL
