MODEL 1
REMARK VINA RESULT:      -8.1      0.000      0.000
REMARK  6 active torsions:
REMARK  status: ('A' for Active; 'I' for Inactive)
REMARK    1  A    between atoms: C_2  and  C_3 
REMARK    2  A    between atoms: C_3  and  O_4 
REMARK    3  A    between atoms: O_4  and  C_5 
REMARK    4  A    between atoms: C_6  and  O_7 
REMARK    5  A    between atoms: C_10  and  C_11 
REMARK    6  A    between atoms: C_25  and  O_26 
ROOT
HETATM    1  C   UNL     1      -7.040   2.976 -32.697  1.00  0.00     0.269 C 
HETATM    2  N   UNL     1      -8.083   3.362 -33.717  1.00  0.00    -0.061 N 
HETATM    3  H   UNL     1      -7.592   3.665 -34.564  1.00  0.00     0.278 HD
HETATM    4  H   UNL     1      -8.591   4.181 -33.368  1.00  0.00     0.278 HD
HETATM    5  C   UNL     1      -9.038   2.248 -34.074  1.00  0.00     0.238 C 
HETATM    6  C   UNL     1      -8.290   1.073 -34.734  1.00  0.00     0.069 C 
HETATM    7  C   UNL     1      -7.052   0.752 -33.968  1.00  0.00    -0.019 A 
HETATM    8  C   UNL     1      -6.498   1.636 -33.060  1.00  0.00     0.052 A 
HETATM    9  N   UNL     1      -5.382   1.047 -32.520  1.00  0.00    -0.356 N 
HETATM   10  H   UNL     1      -4.761   1.450 -31.828  1.00  0.00     0.166 HD
HETATM   11  C   UNL     1      -5.196  -0.195 -33.087  1.00  0.00     0.043 A 
HETATM   12  C   UNL     1      -6.231  -0.405 -33.999  1.00  0.00     0.002 A 
HETATM   13  C   UNL     1      -4.193  -1.143 -32.859  1.00  0.00     0.033 A 
HETATM   14  C   UNL     1      -4.248  -2.341 -33.584  1.00  0.00     0.039 A 
HETATM   15  C   UNL     1      -5.268  -2.583 -34.502  1.00  0.00     0.069 A 
HETATM   16  C   UNL     1      -6.263  -1.618 -34.714  1.00  0.00     0.051 A 
ENDROOT
BRANCH   1  17
HETATM   17  C   UNL     1      -5.987   4.059 -32.586  1.00  0.00    -0.019 A 
HETATM   18  C   UNL     1      -5.231   4.461 -33.705  1.00  0.00     0.049 A 
HETATM   19  C   UNL     1      -4.275   5.477 -33.598  1.00  0.00     0.102 A 
HETATM   20  C   UNL     1      -4.068   6.117 -32.362  1.00  0.00     0.102 A 
HETATM   21  C   UNL     1      -4.817   5.723 -31.251  1.00  0.00     0.040 A 
HETATM   22  C   UNL     1      -5.768   4.704 -31.361  1.00  0.00     0.012 A 
BRANCH  19  23
HETATM   23  O   UNL     1      -3.527   5.933 -34.653  1.00  0.00    -0.353 OA
HETATM   24  C   UNL     1      -2.345   5.215 -34.981  1.00  0.00     0.210 C 
ENDBRANCH  19  23
BRANCH  20  25
HETATM   25  O   UNL     1      -3.123   7.109 -32.349  1.00  0.00    -0.348 OA
BRANCH  25  26
HETATM   26  C   UNL     1      -2.067   7.022 -31.393  1.00  0.00     0.175 C 
BRANCH  26  27
HETATM   27  C   UNL     1      -0.746   7.136 -32.146  1.00  0.00     0.022 C 
HETATM   28  C   UNL     1       0.440   6.792 -31.261  1.00  0.00     0.007 C 
ENDBRANCH  26  27
ENDBRANCH  25  26
ENDBRANCH  20  25
ENDBRANCH   1  17
BRANCH  15  29
HETATM   29  O   UNL     1      -5.416  -3.714 -35.259  1.00  0.00    -0.356 OA
HETATM   30  C   UNL     1      -6.647  -4.417 -35.137  1.00  0.00     0.210 C 
ENDBRANCH  15  29
TORSDOF 6
ENDMDL
MODEL 2
REMARK VINA RESULT:      -8.1      0.849      1.798
REMARK  6 active torsions:
REMARK  status: ('A' for Active; 'I' for Inactive)
REMARK    1  A    between atoms: C_2  and  C_3 
REMARK    2  A    between atoms: C_3  and  O_4 
REMARK    3  A    between atoms: O_4  and  C_5 
REMARK    4  A    between atoms: C_6  and  O_7 
REMARK    5  A    between atoms: C_10  and  C_11 
REMARK    6  A    between atoms: C_25  and  O_26 
ROOT
HETATM    1  C   UNL     1      -6.943   2.645 -32.959  1.00  0.00     0.269 C 
HETATM    2  N   UNL     1      -8.075   2.911 -33.921  1.00  0.00    -0.061 N 
HETATM    3  H   UNL     1      -7.662   3.151 -34.829  1.00  0.00     0.278 HD
HETATM    4  H   UNL     1      -8.582   3.744 -33.604  1.00  0.00     0.278 HD
HETATM    5  C   UNL     1      -9.016   1.744 -34.102  1.00  0.00     0.238 C 
HETATM    6  C   UNL     1      -8.282   0.536 -34.716  1.00  0.00     0.069 C 
HETATM    7  C   UNL     1      -6.977   0.317 -34.028  1.00  0.00    -0.019 A 
HETATM    8  C   UNL     1      -6.385   1.294 -33.248  1.00  0.00     0.052 A 
HETATM    9  N   UNL     1      -5.211   0.786 -32.751  1.00  0.00    -0.356 N 
HETATM   10  H   UNL     1      -4.552   1.265 -32.148  1.00  0.00     0.166 HD
HETATM   11  C   UNL     1      -5.027  -0.496 -33.221  1.00  0.00     0.043 A 
HETATM   12  C   UNL     1      -6.122  -0.815 -34.026  1.00  0.00     0.002 A 
HETATM   13  C   UNL     1      -3.977  -1.392 -32.995  1.00  0.00     0.033 A 
HETATM   14  C   UNL     1      -4.047  -2.651 -33.606  1.00  0.00     0.039 A 
HETATM   15  C   UNL     1      -5.128  -3.001 -34.415  1.00  0.00     0.069 A 
HETATM   16  C   UNL     1      -6.169  -2.087 -34.628  1.00  0.00     0.051 A 
ENDROOT
BRANCH   1  17
HETATM   17  C   UNL     1      -5.922   3.763 -33.028  1.00  0.00    -0.019 A 
HETATM   18  C   UNL     1      -5.401   4.349 -31.859  1.00  0.00     0.049 A 
HETATM   19  C   UNL     1      -4.443   5.367 -31.931  1.00  0.00     0.102 A 
HETATM   20  C   UNL     1      -3.983   5.807 -33.186  1.00  0.00     0.102 A 
HETATM   21  C   UNL     1      -4.496   5.226 -34.348  1.00  0.00     0.040 A 
HETATM   22  C   UNL     1      -5.457   4.213 -34.271  1.00  0.00     0.012 A 
BRANCH  19  23
HETATM   23  O   UNL     1      -3.877   5.959 -30.832  1.00  0.00    -0.353 OA
HETATM   24  C   UNL     1      -4.751   6.511 -29.858  1.00  0.00     0.210 C 
ENDBRANCH  19  23
BRANCH  20  25
HETATM   25  O   UNL     1      -3.035   6.797 -33.165  1.00  0.00    -0.348 OA
BRANCH  25  26
HETATM   26  C   UNL     1      -1.785   6.547 -33.805  1.00  0.00     0.175 C 
BRANCH  26  27
HETATM   27  C   UNL     1      -0.882   5.835 -32.802  1.00  0.00     0.022 C 
HETATM   28  C   UNL     1      -0.334   6.792 -31.758  1.00  0.00     0.007 C 
ENDBRANCH  26  27
ENDBRANCH  25  26
ENDBRANCH  20  25
ENDBRANCH   1  17
BRANCH  15  29
HETATM   29  O   UNL     1      -5.295  -4.199 -35.057  1.00  0.00    -0.356 OA
HETATM   30  C   UNL     1      -6.623  -4.558 -35.420  1.00  0.00     0.210 C 
ENDBRANCH  15  29
TORSDOF 6
ENDMDL
MODEL 3
REMARK VINA RESULT:      -7.8      1.686      8.075
REMARK  6 active torsions:
REMARK  status: ('A' for Active; 'I' for Inactive)
REMARK    1  A    between atoms: C_2  and  C_3 
REMARK    2  A    between atoms: C_3  and  O_4 
REMARK    3  A    between atoms: O_4  and  C_5 
REMARK    4  A    between atoms: C_6  and  O_7 
REMARK    5  A    between atoms: C_10  and  C_11 
REMARK    6  A    between atoms: C_25  and  O_26 
ROOT
HETATM    1  C   UNL     1      -6.411   2.701 -32.439  1.00  0.00     0.269 C 
HETATM    2  N   UNL     1      -6.870   2.529 -31.012  1.00  0.00    -0.061 N 
HETATM    3  H   UNL     1      -6.248   1.846 -30.566  1.00  0.00     0.278 HD
HETATM    4  H   UNL     1      -7.804   2.106 -31.020  1.00  0.00     0.278 HD
HETATM    5  C   UNL     1      -6.862   3.804 -30.204  1.00  0.00     0.238 C 
HETATM    6  C   UNL     1      -5.431   4.360 -30.070  1.00  0.00     0.069 C 
HETATM    7  C   UNL     1      -4.738   4.332 -31.390  1.00  0.00    -0.019 A 
HETATM    8  C   UNL     1      -5.194   3.562 -32.444  1.00  0.00     0.052 A 
HETATM    9  N   UNL     1      -4.354   3.760 -33.510  1.00  0.00    -0.356 N 
HETATM   10  H   UNL     1      -4.426   3.330 -34.425  1.00  0.00     0.166 HD
HETATM   11  C   UNL     1      -3.347   4.629 -33.149  1.00  0.00     0.043 A 
HETATM   12  C   UNL     1      -3.565   5.003 -31.822  1.00  0.00     0.002 A 
HETATM   13  C   UNL     1      -2.266   5.108 -33.895  1.00  0.00     0.033 A 
HETATM   14  C   UNL     1      -1.381   5.997 -33.270  1.00  0.00     0.039 A 
HETATM   15  C   UNL     1      -1.570   6.392 -31.946  1.00  0.00     0.069 A 
HETATM   16  C   UNL     1      -2.661   5.898 -31.217  1.00  0.00     0.051 A 
ENDROOT
BRANCH   1  17
HETATM   17  C   UNL     1      -6.214   1.349 -33.095  1.00  0.00    -0.019 A 
HETATM   18  C   UNL     1      -5.281   0.422 -32.592  1.00  0.00     0.049 A 
HETATM   19  C   UNL     1      -5.120  -0.832 -33.192  1.00  0.00     0.102 A 
HETATM   20  C   UNL     1      -5.905  -1.181 -34.305  1.00  0.00     0.102 A 
HETATM   21  C   UNL     1      -6.833  -0.265 -34.806  1.00  0.00     0.040 A 
HETATM   22  C   UNL     1      -6.987   0.989 -34.207  1.00  0.00     0.012 A 
BRANCH  19  23
HETATM   23  O   UNL     1      -4.250  -1.788 -32.734  1.00  0.00    -0.353 OA
HETATM   24  C   UNL     1      -3.222  -1.373 -31.846  1.00  0.00     0.210 C 
ENDBRANCH  19  23
BRANCH  20  25
HETATM   25  O   UNL     1      -5.692  -2.432 -34.822  1.00  0.00    -0.348 OA
BRANCH  25  26
HETATM   26  C   UNL     1      -6.771  -3.366 -34.794  1.00  0.00     0.175 C 
BRANCH  26  27
HETATM   27  C   UNL     1      -6.208  -4.740 -35.141  1.00  0.00     0.022 C 
HETATM   28  C   UNL     1      -4.894  -5.009 -34.428  1.00  0.00     0.007 C 
ENDBRANCH  26  27
ENDBRANCH  25  26
ENDBRANCH  20  25
ENDBRANCH   1  17
BRANCH  15  29
HETATM   29  O   UNL     1      -0.770   7.250 -31.242  1.00  0.00    -0.356 OA
HETATM   30  C   UNL     1       0.506   6.764 -30.842  1.00  0.00     0.210 C 
ENDBRANCH  15  29
TORSDOF 6
ENDMDL
MODEL 4
REMARK VINA RESULT:      -7.5      4.498      7.974
REMARK  6 active torsions:
REMARK  status: ('A' for Active; 'I' for Inactive)
REMARK    1  A    between atoms: C_2  and  C_3 
REMARK    2  A    between atoms: C_3  and  O_4 
REMARK    3  A    between atoms: O_4  and  C_5 
REMARK    4  A    between atoms: C_6  and  O_7 
REMARK    5  A    between atoms: C_10  and  C_11 
REMARK    6  A    between atoms: C_25  and  O_26 
ROOT
HETATM    1  C   UNL     1      -8.372   0.886 -31.597  1.00  0.00     0.269 C 
HETATM    2  N   UNL     1      -7.606   1.963 -30.870  1.00  0.00    -0.061 N 
HETATM    3  H   UNL     1      -6.956   2.388 -31.540  1.00  0.00     0.278 HD
HETATM    4  H   UNL     1      -7.028   1.520 -30.148  1.00  0.00     0.278 HD
HETATM    5  C   UNL     1      -8.476   3.045 -30.277  1.00  0.00     0.238 C 
HETATM    6  C   UNL     1      -9.235   3.807 -31.380  1.00  0.00     0.069 C 
HETATM    7  C   UNL     1      -9.829   2.850 -32.357  1.00  0.00    -0.019 A 
HETATM    8  C   UNL     1      -9.412   1.535 -32.445  1.00  0.00     0.052 A 
HETATM    9  N   UNL     1     -10.152   0.919 -33.422  1.00  0.00    -0.356 N 
HETATM   10  H   UNL     1     -10.075  -0.047 -33.720  1.00  0.00     0.166 HD
HETATM   11  C   UNL     1     -11.024   1.827 -33.982  1.00  0.00     0.043 A 
HETATM   12  C   UNL     1     -10.842   3.048 -33.331  1.00  0.00     0.002 A 
HETATM   13  C   UNL     1     -11.956   1.658 -35.012  1.00  0.00     0.033 A 
HETATM   14  C   UNL     1     -12.724   2.767 -35.388  1.00  0.00     0.039 A 
HETATM   15  C   UNL     1     -12.568   4.000 -34.757  1.00  0.00     0.069 A 
HETATM   16  C   UNL     1     -11.628   4.147 -33.728  1.00  0.00     0.051 A 
ENDROOT
BRANCH   1  17
HETATM   17  C   UNL     1      -7.420  -0.010 -32.364  1.00  0.00    -0.019 A 
HETATM   18  C   UNL     1      -6.066  -0.123 -31.996  1.00  0.00     0.049 A 
HETATM   19  C   UNL     1      -5.199  -0.968 -32.698  1.00  0.00     0.102 A 
HETATM   20  C   UNL     1      -5.682  -1.725 -33.780  1.00  0.00     0.102 A 
HETATM   21  C   UNL     1      -7.026  -1.617 -34.148  1.00  0.00     0.040 A 
HETATM   22  C   UNL     1      -7.887  -0.767 -33.447  1.00  0.00     0.012 A 
BRANCH  19  23
HETATM   23  O   UNL     1      -3.878  -1.144 -32.372  1.00  0.00    -0.353 OA
HETATM   24  C   UNL     1      -3.369  -0.412 -31.266  1.00  0.00     0.210 C 
ENDBRANCH  19  23
BRANCH  20  25
HETATM   25  O   UNL     1      -4.770  -2.536 -34.403  1.00  0.00    -0.348 OA
BRANCH  25  26
HETATM   26  C   UNL     1      -5.246  -3.715 -35.049  1.00  0.00     0.175 C 
BRANCH  26  27
HETATM   27  C   UNL     1      -4.728  -4.917 -34.265  1.00  0.00     0.022 C 
HETATM   28  C   UNL     1      -3.516  -4.562 -33.422  1.00  0.00     0.007 C 
ENDBRANCH  26  27
ENDBRANCH  25  26
ENDBRANCH  20  25
ENDBRANCH   1  17
BRANCH  15  29
HETATM   29  O   UNL     1     -13.264   5.144 -35.045  1.00  0.00    -0.356 OA
HETATM   30  C   UNL     1     -13.267   6.166 -34.055  1.00  0.00     0.210 C 
ENDBRANCH  15  29
TORSDOF 6
ENDMDL
MODEL 5
REMARK VINA RESULT:      -7.4      3.839      7.036
REMARK  6 active torsions:
REMARK  status: ('A' for Active; 'I' for Inactive)
REMARK    1  A    between atoms: C_2  and  C_3 
REMARK    2  A    between atoms: C_3  and  O_4 
REMARK    3  A    between atoms: O_4  and  C_5 
REMARK    4  A    between atoms: C_6  and  O_7 
REMARK    5  A    between atoms: C_10  and  C_11 
REMARK    6  A    between atoms: C_25  and  O_26 
ROOT
HETATM    1  C   UNL     1      -7.276   2.227 -33.397  1.00  0.00     0.269 C 
HETATM    2  N   UNL     1      -6.953   2.803 -32.041  1.00  0.00    -0.061 N 
HETATM    3  H   UNL     1      -7.531   2.313 -31.349  1.00  0.00     0.278 HD
HETATM    4  H   UNL     1      -7.253   3.784 -32.025  1.00  0.00     0.278 HD
HETATM    5  C   UNL     1      -5.501   2.677 -31.647  1.00  0.00     0.238 C 
HETATM    6  C   UNL     1      -5.091   1.196 -31.529  1.00  0.00     0.069 C 
HETATM    7  C   UNL     1      -5.596   0.423 -32.700  1.00  0.00    -0.019 A 
HETATM    8  C   UNL     1      -6.597   0.906 -33.523  1.00  0.00     0.052 A 
HETATM    9  N   UNL     1      -6.827  -0.026 -34.504  1.00  0.00    -0.356 N 
HETATM   10  H   UNL     1      -7.505   0.041 -35.254  1.00  0.00     0.166 HD
HETATM   11  C   UNL     1      -6.006  -1.114 -34.308  1.00  0.00     0.043 A 
HETATM   12  C   UNL     1      -5.222  -0.858 -33.181  1.00  0.00     0.002 A 
HETATM   13  C   UNL     1      -5.898  -2.301 -35.041  1.00  0.00     0.033 A 
HETATM   14  C   UNL     1      -4.964  -3.253 -34.613  1.00  0.00     0.039 A 
HETATM   15  C   UNL     1      -4.166  -3.028 -33.493  1.00  0.00     0.069 A 
HETATM   16  C   UNL     1      -4.290  -1.831 -32.773  1.00  0.00     0.051 A 
ENDROOT
BRANCH   1  17
HETATM   17  C   UNL     1      -8.777   2.171 -33.601  1.00  0.00    -0.019 A 
HETATM   18  C   UNL     1      -9.435   3.091 -34.440  1.00  0.00     0.049 A 
HETATM   19  C   UNL     1     -10.818   3.020 -34.638  1.00  0.00     0.102 A 
HETATM   20  C   UNL     1     -11.566   2.012 -34.003  1.00  0.00     0.102 A 
HETATM   21  C   UNL     1     -10.916   1.096 -33.172  1.00  0.00     0.040 A 
HETATM   22  C   UNL     1      -9.535   1.174 -32.972  1.00  0.00     0.012 A 
BRANCH  19  23
HETATM   23  O   UNL     1     -11.514   3.867 -35.463  1.00  0.00    -0.353 OA
HETATM   24  C   UNL     1     -11.584   5.237 -35.091  1.00  0.00     0.210 C 
ENDBRANCH  19  23
BRANCH  20  25
HETATM   25  O   UNL     1     -12.911   2.006 -34.263  1.00  0.00    -0.348 OA
BRANCH  25  26
HETATM   26  C   UNL     1     -13.787   2.590 -33.299  1.00  0.00     0.175 C 
BRANCH  26  27
HETATM   27  C   UNL     1     -14.891   1.581 -33.002  1.00  0.00     0.022 C 
HETATM   28  C   UNL     1     -16.067   2.224 -32.288  1.00  0.00     0.007 C 
ENDBRANCH  26  27
ENDBRANCH  25  26
ENDBRANCH  20  25
ENDBRANCH   1  17
BRANCH  15  29
HETATM   29  O   UNL     1      -3.226  -3.887 -32.990  1.00  0.00    -0.356 OA
HETATM   30  C   UNL     1      -2.768  -3.642 -31.666  1.00  0.00     0.210 C 
ENDBRANCH  15  29
TORSDOF 6
ENDMDL
MODEL 6
REMARK VINA RESULT:      -7.4      3.495      6.639
REMARK  6 active torsions:
REMARK  status: ('A' for Active; 'I' for Inactive)
REMARK    1  A    between atoms: C_2  and  C_3 
REMARK    2  A    between atoms: C_3  and  O_4 
REMARK    3  A    between atoms: O_4  and  C_5 
REMARK    4  A    between atoms: C_6  and  O_7 
REMARK    5  A    between atoms: C_10  and  C_11 
REMARK    6  A    between atoms: C_25  and  O_26 
ROOT
HETATM    1  C   UNL     1      -6.814   2.571 -33.398  1.00  0.00     0.269 C 
HETATM    2  N   UNL     1      -6.309   3.168 -32.107  1.00  0.00    -0.061 N 
HETATM    3  H   UNL     1      -6.860   2.764 -31.342  1.00  0.00     0.278 HD
HETATM    4  H   UNL     1      -6.514   4.172 -32.112  1.00  0.00     0.278 HD
HETATM    5  C   UNL     1      -4.844   2.918 -31.844  1.00  0.00     0.238 C 
HETATM    6  C   UNL     1      -4.562   1.410 -31.691  1.00  0.00     0.069 C 
HETATM    7  C   UNL     1      -5.248   0.643 -32.770  1.00  0.00    -0.019 A 
HETATM    8  C   UNL     1      -6.275   1.187 -33.521  1.00  0.00     0.052 A 
HETATM    9  N   UNL     1      -6.683   0.242 -34.428  1.00  0.00    -0.356 N 
HETATM   10  H   UNL     1      -7.422   0.343 -35.115  1.00  0.00     0.166 HD
HETATM   11  C   UNL     1      -5.951  -0.912 -34.255  1.00  0.00     0.043 A 
HETATM   12  C   UNL     1      -5.042  -0.687 -33.220  1.00  0.00     0.002 A 
HETATM   13  C   UNL     1      -6.025  -2.132 -34.935  1.00  0.00     0.033 A 
HETATM   14  C   UNL     1      -5.146  -3.152 -34.549  1.00  0.00     0.039 A 
HETATM   15  C   UNL     1      -4.225  -2.959 -33.520  1.00  0.00     0.069 A 
HETATM   16  C   UNL     1      -4.169  -1.728 -32.852  1.00  0.00     0.051 A 
ENDROOT
BRANCH   1  17
HETATM   17  C   UNL     1      -8.325   2.652 -33.459  1.00  0.00    -0.019 A 
HETATM   18  C   UNL     1      -8.978   3.830 -33.872  1.00  0.00     0.049 A 
HETATM   19  C   UNL     1     -10.374   3.890 -33.945  1.00  0.00     0.102 A 
HETATM   20  C   UNL     1     -11.142   2.759 -33.613  1.00  0.00     0.102 A 
HETATM   21  C   UNL     1     -10.498   1.588 -33.205  1.00  0.00     0.040 A 
HETATM   22  C   UNL     1      -9.103   1.534 -33.128  1.00  0.00     0.012 A 
BRANCH  19  23
HETATM   23  O   UNL     1     -11.068   4.996 -34.365  1.00  0.00    -0.353 OA
HETATM   24  C   UNL     1     -10.521   5.747 -35.440  1.00  0.00     0.210 C 
ENDBRANCH  19  23
BRANCH  20  25
HETATM   25  O   UNL     1     -12.500   2.899 -33.725  1.00  0.00    -0.348 OA
BRANCH  25  26
HETATM   26  C   UNL     1     -13.193   2.047 -34.636  1.00  0.00     0.175 C 
BRANCH  26  27
HETATM   27  C   UNL     1     -14.129   1.159 -33.822  1.00  0.00     0.022 C 
HETATM   28  C   UNL     1     -13.599  -0.260 -33.702  1.00  0.00     0.007 C 
ENDBRANCH  26  27
ENDBRANCH  25  26
ENDBRANCH  20  25
ENDBRANCH   1  17
BRANCH  15  29
HETATM   29  O   UNL     1      -3.325  -3.885 -33.065  1.00  0.00    -0.356 OA
HETATM   30  C   UNL     1      -2.869  -3.738 -31.724  1.00  0.00     0.210 C 
ENDBRANCH  15  29
TORSDOF 6
ENDMDL
MODEL 7
REMARK VINA RESULT:      -7.4      3.496      6.743
REMARK  6 active torsions:
REMARK  status: ('A' for Active; 'I' for Inactive)
REMARK    1  A    between atoms: C_2  and  C_3 
REMARK    2  A    between atoms: C_3  and  O_4 
REMARK    3  A    between atoms: O_4  and  C_5 
REMARK    4  A    between atoms: C_6  and  O_7 
REMARK    5  A    between atoms: C_10  and  C_11 
REMARK    6  A    between atoms: C_25  and  O_26 
ROOT
HETATM    1  C   UNL     1      -6.948   2.603 -33.589  1.00  0.00     0.269 C 
HETATM    2  N   UNL     1      -6.252   3.309 -32.451  1.00  0.00    -0.061 N 
HETATM    3  H   UNL     1      -6.670   2.975 -31.576  1.00  0.00     0.278 HD
HETATM    4  H   UNL     1      -6.466   4.309 -32.511  1.00  0.00     0.278 HD
HETATM    5  C   UNL     1      -4.761   3.077 -32.403  1.00  0.00     0.238 C 
HETATM    6  C   UNL     1      -4.443   1.588 -32.167  1.00  0.00     0.069 C 
HETATM    7  C   UNL     1      -5.282   0.732 -33.053  1.00  0.00    -0.019 A 
HETATM    8  C   UNL     1      -6.421   1.211 -33.675  1.00  0.00     0.052 A 
HETATM    9  N   UNL     1      -6.958   0.193 -34.421  1.00  0.00    -0.356 N 
HETATM   10  H   UNL     1      -7.797   0.236 -34.988  1.00  0.00     0.166 HD
HETATM   11  C   UNL     1      -6.195  -0.944 -34.267  1.00  0.00     0.043 A 
HETATM   12  C   UNL     1      -5.136  -0.633 -33.413  1.00  0.00     0.002 A 
HETATM   13  C   UNL     1      -6.363  -2.218 -34.819  1.00  0.00     0.033 A 
HETATM   14  C   UNL     1      -5.423  -3.204 -34.490  1.00  0.00     0.039 A 
HETATM   15  C   UNL     1      -4.353  -2.926 -33.640  1.00  0.00     0.069 A 
HETATM   16  C   UNL     1      -4.205  -1.641 -33.099  1.00  0.00     0.051 A 
ENDROOT
BRANCH   1  17
HETATM   17  C   UNL     1      -8.451   2.684 -33.416  1.00  0.00    -0.019 A 
HETATM   18  C   UNL     1      -9.025   3.240 -32.257  1.00  0.00     0.049 A 
HETATM   19  C   UNL     1     -10.415   3.330 -32.115  1.00  0.00     0.102 A 
HETATM   20  C   UNL     1     -11.255   2.869 -33.145  1.00  0.00     0.102 A 
HETATM   21  C   UNL     1     -10.689   2.318 -34.298  1.00  0.00     0.040 A 
HETATM   22  C   UNL     1      -9.300   2.226 -34.433  1.00  0.00     0.012 A 
BRANCH  19  23
HETATM   23  O   UNL     1     -11.035   3.885 -31.025  1.00  0.00    -0.353 OA
HETATM   24  C   UNL     1     -10.685   5.217 -30.676  1.00  0.00     0.210 C 
ENDBRANCH  19  23
BRANCH  20  25
HETATM   25  O   UNL     1     -12.601   3.006 -32.931  1.00  0.00    -0.348 OA
BRANCH  25  26
HETATM   26  C   UNL     1     -13.497   2.434 -33.882  1.00  0.00     0.175 C 
BRANCH  26  27
HETATM   27  C   UNL     1     -14.141   1.211 -33.238  1.00  0.00     0.022 C 
HETATM   28  C   UNL     1     -13.527  -0.083 -33.743  1.00  0.00     0.007 C 
ENDBRANCH  26  27
ENDBRANCH  25  26
ENDBRANCH  20  25
ENDBRANCH   1  17
BRANCH  15  29
HETATM   29  O   UNL     1      -3.383  -3.811 -33.255  1.00  0.00    -0.356 OA
HETATM   30  C   UNL     1      -2.937  -3.735 -31.905  1.00  0.00     0.210 C 
ENDBRANCH  15  29
TORSDOF 6
ENDMDL
MODEL 8
REMARK VINA RESULT:      -7.2      3.551      7.901
REMARK  6 active torsions:
REMARK  status: ('A' for Active; 'I' for Inactive)
REMARK    1  A    between atoms: C_2  and  C_3 
REMARK    2  A    between atoms: C_3  and  O_4 
REMARK    3  A    between atoms: O_4  and  C_5 
REMARK    4  A    between atoms: C_6  and  O_7 
REMARK    5  A    between atoms: C_10  and  C_11 
REMARK    6  A    between atoms: C_25  and  O_26 
ROOT
HETATM    1  C   UNL     1      -7.698  -0.112 -32.728  1.00  0.00     0.269 C 
HETATM    2  N   UNL     1      -7.157  -1.031 -33.796  1.00  0.00    -0.061 N 
HETATM    3  H   UNL     1      -7.210  -0.533 -34.691  1.00  0.00     0.278 HD
HETATM    4  H   UNL     1      -7.783  -1.839 -33.877  1.00  0.00     0.278 HD
HETATM    5  C   UNL     1      -5.732  -1.474 -33.564  1.00  0.00     0.238 C 
HETATM    6  C   UNL     1      -4.772  -0.270 -33.588  1.00  0.00     0.069 C 
HETATM    7  C   UNL     1      -5.325   0.852 -32.776  1.00  0.00    -0.019 A 
HETATM    8  C   UNL     1      -6.658   0.907 -32.410  1.00  0.00     0.052 A 
HETATM    9  N   UNL     1      -6.848   2.044 -31.667  1.00  0.00    -0.356 N 
HETATM   10  H   UNL     1      -7.719   2.362 -31.260  1.00  0.00     0.166 HD
HETATM   11  C   UNL     1      -5.660   2.736 -31.571  1.00  0.00     0.043 A 
HETATM   12  C   UNL     1      -4.687   2.009 -32.258  1.00  0.00     0.002 A 
HETATM   13  C   UNL     1      -5.376   3.946 -30.928  1.00  0.00     0.033 A 
HETATM   14  C   UNL     1      -4.062   4.427 -30.989  1.00  0.00     0.039 A 
HETATM   15  C   UNL     1      -3.067   3.725 -31.666  1.00  0.00     0.069 A 
HETATM   16  C   UNL     1      -3.374   2.514 -32.303  1.00  0.00     0.051 A 
ENDROOT
BRANCH   1  17
HETATM   17  C   UNL     1      -9.025   0.475 -33.163  1.00  0.00    -0.019 A 
HETATM   18  C   UNL     1      -9.088   1.673 -33.901  1.00  0.00     0.049 A 
HETATM   19  C   UNL     1     -10.317   2.197 -34.316  1.00  0.00     0.102 A 
HETATM   20  C   UNL     1     -11.509   1.518 -34.004  1.00  0.00     0.102 A 
HETATM   21  C   UNL     1     -11.451   0.328 -33.274  1.00  0.00     0.040 A 
HETATM   22  C   UNL     1     -10.221  -0.189 -32.857  1.00  0.00     0.012 A 
BRANCH  19  23
HETATM   23  O   UNL     1     -10.445   3.343 -35.060  1.00  0.00    -0.353 OA
HETATM   24  C   UNL     1     -10.026   4.563 -34.465  1.00  0.00     0.210 C 
ENDBRANCH  19  23
BRANCH  20  25
HETATM   25  O   UNL     1     -12.666   2.093 -34.460  1.00  0.00    -0.348 OA
BRANCH  25  26
HETATM   26  C   UNL     1     -13.553   2.674 -33.505  1.00  0.00     0.175 C 
BRANCH  26  27
HETATM   27  C   UNL     1     -14.698   1.693 -33.276  1.00  0.00     0.022 C 
HETATM   28  C   UNL     1     -15.614   2.145 -32.152  1.00  0.00     0.007 C 
ENDBRANCH  26  27
ENDBRANCH  25  26
ENDBRANCH  20  25
ENDBRANCH   1  17
BRANCH  15  29
HETATM   29  O   UNL     1      -1.756   4.103 -31.787  1.00  0.00    -0.356 OA
HETATM   30  C   UNL     1      -1.447   5.462 -31.501  1.00  0.00     0.210 C 
ENDBRANCH  15  29
TORSDOF 6
ENDMDL
MODEL 9
REMARK VINA RESULT:      -7.0      2.575      4.027
REMARK  6 active torsions:
REMARK  status: ('A' for Active; 'I' for Inactive)
REMARK    1  A    between atoms: C_2  and  C_3 
REMARK    2  A    between atoms: C_3  and  O_4 
REMARK    3  A    between atoms: O_4  and  C_5 
REMARK    4  A    between atoms: C_6  and  O_7 
REMARK    5  A    between atoms: C_10  and  C_11 
REMARK    6  A    between atoms: C_25  and  O_26 
ROOT
HETATM    1  C   UNL     1      -4.290   1.637 -32.559  1.00  0.00     0.269 C 
HETATM    2  N   UNL     1      -3.929   0.655 -31.472  1.00  0.00    -0.061 N 
HETATM    3  H   UNL     1      -4.231   1.057 -30.578  1.00  0.00     0.278 HD
HETATM    4  H   UNL     1      -2.908   0.582 -31.426  1.00  0.00     0.278 HD
HETATM    5  C   UNL     1      -4.560  -0.707 -31.637  1.00  0.00     0.238 C 
HETATM    6  C   UNL     1      -6.096  -0.614 -31.560  1.00  0.00     0.069 C 
HETATM    7  C   UNL     1      -6.590   0.521 -32.391  1.00  0.00    -0.019 A 
HETATM    8  C   UNL     1      -5.754   1.536 -32.821  1.00  0.00     0.052 A 
HETATM    9  N   UNL     1      -6.500   2.414 -33.566  1.00  0.00    -0.356 N 
HETATM   10  H   UNL     1      -6.168   3.261 -34.013  1.00  0.00     0.166 HD
HETATM   11  C   UNL     1      -7.811   1.991 -33.601  1.00  0.00     0.043 A 
HETATM   12  C   UNL     1      -7.895   0.805 -32.871  1.00  0.00     0.002 A 
HETATM   13  C   UNL     1      -8.923   2.570 -34.222  1.00  0.00     0.033 A 
HETATM   14  C   UNL     1     -10.156   1.917 -34.096  1.00  0.00     0.039 A 
HETATM   15  C   UNL     1     -10.274   0.730 -33.375  1.00  0.00     0.069 A 
HETATM   16  C   UNL     1      -9.146   0.169 -32.760  1.00  0.00     0.051 A 
ENDROOT
BRANCH   1  17
HETATM   17  C   UNL     1      -3.824   3.029 -32.186  1.00  0.00    -0.019 A 
HETATM   18  C   UNL     1      -2.778   3.663 -32.885  1.00  0.00     0.049 A 
HETATM   19  C   UNL     1      -2.368   4.957 -32.547  1.00  0.00     0.102 A 
HETATM   20  C   UNL     1      -3.011   5.645 -31.502  1.00  0.00     0.102 A 
HETATM   21  C   UNL     1      -4.051   5.021 -30.807  1.00  0.00     0.040 A 
HETATM   22  C   UNL     1      -4.454   3.725 -31.145  1.00  0.00     0.012 A 
BRANCH  19  23
HETATM   23  O   UNL     1      -1.377   5.638 -33.206  1.00  0.00    -0.353 OA
HETATM   24  C   UNL     1      -1.338   5.537 -34.623  1.00  0.00     0.210 C 
ENDBRANCH  19  23
BRANCH  20  25
HETATM   25  O   UNL     1      -2.557   6.911 -31.246  1.00  0.00    -0.348 OA
BRANCH  25  26
HETATM   26  C   UNL     1      -1.828   7.135 -30.040  1.00  0.00     0.175 C 
BRANCH  26  27
HETATM   27  C   UNL     1      -1.838   8.635 -29.761  1.00  0.00     0.022 C 
HETATM   28  C   UNL     1      -2.455   9.419 -30.906  1.00  0.00     0.007 C 
ENDBRANCH  26  27
ENDBRANCH  25  26
ENDBRANCH  20  25
ENDBRANCH   1  17
BRANCH  15  29
HETATM   29  O   UNL     1     -11.426   0.014 -33.189  1.00  0.00    -0.356 OA
HETATM   30  C   UNL     1     -12.627   0.575 -33.708  1.00  0.00     0.210 C 
ENDBRANCH  15  29
TORSDOF 6
ENDMDL
MODEL 10
REMARK VINA RESULT:      -7.0      3.707      7.826
REMARK  6 active torsions:
REMARK  status: ('A' for Active; 'I' for Inactive)
REMARK    1  A    between atoms: C_2  and  C_3 
REMARK    2  A    between atoms: C_3  and  O_4 
REMARK    3  A    between atoms: O_4  and  C_5 
REMARK    4  A    between atoms: C_6  and  O_7 
REMARK    5  A    between atoms: C_10  and  C_11 
REMARK    6  A    between atoms: C_25  and  O_26 
ROOT
HETATM    1  C   UNL     1      -8.115   0.353 -32.830  1.00  0.00     0.269 C 
HETATM    2  N   UNL     1      -7.605  -0.677 -33.807  1.00  0.00    -0.061 N 
HETATM    3  H   UNL     1      -7.529  -0.224 -34.725  1.00  0.00     0.278 HD
HETATM    4  H   UNL     1      -8.314  -1.411 -33.906  1.00  0.00     0.278 HD
HETATM    5  C   UNL     1      -6.265  -1.267 -33.438  1.00  0.00     0.238 C 
HETATM    6  C   UNL     1      -5.170  -0.183 -33.434  1.00  0.00     0.069 C 
HETATM    7  C   UNL     1      -5.649   1.036 -32.720  1.00  0.00    -0.019 A 
HETATM    8  C   UNL     1      -6.990   1.262 -32.470  1.00  0.00     0.052 A 
HETATM    9  N   UNL     1      -7.102   2.451 -31.796  1.00  0.00    -0.356 N 
HETATM   10  H   UNL     1      -7.959   2.888 -31.477  1.00  0.00     0.166 HD
HETATM   11  C   UNL     1      -5.852   3.007 -31.630  1.00  0.00     0.043 A 
HETATM   12  C   UNL     1      -4.921   2.138 -32.202  1.00  0.00     0.002 A 
HETATM   13  C   UNL     1      -5.478   4.209 -31.019  1.00  0.00     0.033 A 
HETATM   14  C   UNL     1      -4.115   4.532 -30.990  1.00  0.00     0.039 A 
HETATM   15  C   UNL     1      -3.160   3.686 -31.551  1.00  0.00     0.069 A 
HETATM   16  C   UNL     1      -3.558   2.486 -32.158  1.00  0.00     0.051 A 
ENDROOT
BRANCH   1  17
HETATM   17  C   UNL     1      -9.326   1.064 -33.399  1.00  0.00    -0.019 A 
HETATM   18  C   UNL     1     -10.634   0.635 -33.100  1.00  0.00     0.049 A 
HETATM   19  C   UNL     1     -11.746   1.311 -33.614  1.00  0.00     0.102 A 
HETATM   20  C   UNL     1     -11.563   2.440 -34.432  1.00  0.00     0.102 A 
HETATM   21  C   UNL     1     -10.268   2.871 -34.729  1.00  0.00     0.040 A 
HETATM   22  C   UNL     1      -9.159   2.189 -34.218  1.00  0.00     0.012 A 
BRANCH  19  23
HETATM   23  O   UNL     1     -13.044   0.961 -33.339  1.00  0.00    -0.353 OA
HETATM   24  C   UNL     1     -13.454  -0.358 -33.671  1.00  0.00     0.210 C 
ENDBRANCH  19  23
BRANCH  20  25
HETATM   25  O   UNL     1     -12.706   3.049 -34.881  1.00  0.00    -0.348 OA
BRANCH  25  26
HETATM   26  C   UNL     1     -12.574   4.159 -35.769  1.00  0.00     0.175 C 
BRANCH  26  27
HETATM   27  C   UNL     1     -13.025   5.409 -35.021  1.00  0.00     0.022 C 
HETATM   28  C   UNL     1     -12.776   6.671 -35.829  1.00  0.00     0.007 C 
ENDBRANCH  26  27
ENDBRANCH  25  26
ENDBRANCH  20  25
ENDBRANCH   1  17
BRANCH  15  29
HETATM   29  O   UNL     1      -1.809   3.905 -31.577  1.00  0.00    -0.356 OA
HETATM   30  C   UNL     1      -1.371   5.254 -31.460  1.00  0.00     0.210 C 
ENDBRANCH  15  29
TORSDOF 6
ENDMDL
