MODEL 1
REMARK VINA RESULT:      -9.1      0.000      0.000
REMARK  4 active torsions:
REMARK  status: ('A' for Active; 'I' for Inactive)
REMARK    1  A    between atoms: C_5  and  C_6 
REMARK    2  A    between atoms: C_6  and  N_7 
REMARK    3  A    between atoms: N_10  and  C_12 
REMARK    4  A    between atoms: C_12  and  C_13 
ROOT
HETATM    1  N   UNL     1     -10.462   2.012 -33.974  1.00  0.00    -0.406 N 
HETATM    2  C   UNL     1      -9.188   2.598 -34.396  1.00  0.00     0.150 C 
HETATM    3  C   UNL     1      -8.016   2.719 -33.388  1.00  0.00     0.206 C 
HETATM    4  N   UNL     1      -7.241   1.418 -33.210  1.00  0.00    -0.061 N 
HETATM    5  H   UNL     1      -6.486   1.670 -32.561  1.00  0.00     0.280 HD
HETATM    6  C   UNL     1      -8.011   0.317 -32.536  1.00  0.00     0.242 C 
HETATM    7  C   UNL     1      -9.352   0.794 -31.986  1.00  0.00     0.029 C 
HETATM    8  C   UNL     1     -10.419   0.848 -33.096  1.00  0.00     0.123 C 
HETATM    9  C   UNL     1      -8.456   3.184 -31.995  1.00  0.00     0.035 C 
HETATM   10  C   UNL     1      -9.202   2.104 -31.209  1.00  0.00     0.010 C 
ENDROOT
BRANCH   4  11
HETATM   11  C   UNL     1      -6.503   0.912 -34.435  1.00  0.00     0.274 C 
BRANCH  11  12
HETATM   12  C   UNL     1      -5.835  -0.421 -34.244  1.00  0.00    -0.032 A 
HETATM   13  C   UNL     1      -6.393  -1.582 -34.815  1.00  0.00     0.022 A 
HETATM   14  C   UNL     1      -5.761  -2.826 -34.630  1.00  0.00    -0.008 A 
HETATM   15  C   UNL     1      -4.585  -2.878 -33.884  1.00  0.00     0.042 A 
HETATM   16  C   UNL     1      -6.045  -4.151 -35.060  1.00  0.00     0.030 A 
HETATM   17  N   UNL     1      -4.170  -4.193 -33.872  1.00  0.00    -0.365 N 
HETATM   18  C   UNL     1      -4.006  -1.745 -33.307  1.00  0.00     0.031 A 
HETATM   19  H   UNL     1      -3.332  -4.530 -33.416  1.00  0.00     0.165 HD
HETATM   20  C   UNL     1      -5.049  -4.969 -34.578  1.00  0.00     0.089 A 
HETATM   21  C   UNL     1      -4.651  -0.518 -33.499  1.00  0.00     0.011 A 
ENDBRANCH  11  12
ENDBRANCH   4  11
BRANCH   1  22
HETATM   22  C   UNL     1     -11.520   2.972 -33.612  1.00  0.00     0.157 C 
BRANCH  22  23
HETATM   23  C   UNL     1     -12.912   2.396 -33.605  1.00  0.00    -0.023 A 
HETATM   24  C   UNL     1     -13.370   1.588 -34.643  1.00  0.00     0.125 A 
HETATM   25  N   UNL     1     -14.604   1.037 -34.690  1.00  0.00    -0.273 NA
HETATM   26  C   UNL     1     -15.416   1.271 -33.638  1.00  0.00     0.116 A 
HETATM   27  C   UNL     1     -15.052   2.039 -32.544  1.00  0.00     0.020 A 
HETATM   28  C   UNL     1     -13.782   2.608 -32.531  1.00  0.00     0.011 A 
ENDBRANCH  22  23
ENDBRANCH   1  22
TORSDOF 4
ENDMDL
MODEL 2
REMARK VINA RESULT:      -8.8      3.905      7.858
REMARK  4 active torsions:
REMARK  status: ('A' for Active; 'I' for Inactive)
REMARK    1  A    between atoms: C_5  and  C_6 
REMARK    2  A    between atoms: C_6  and  N_7 
REMARK    3  A    between atoms: N_10  and  C_12 
REMARK    4  A    between atoms: C_12  and  C_13 
ROOT
HETATM    1  N   UNL     1      -5.601  -0.159 -33.039  1.00  0.00    -0.406 N 
HETATM    2  C   UNL     1      -5.131   1.222 -33.167  1.00  0.00     0.150 C 
HETATM    3  C   UNL     1      -6.062   2.400 -32.777  1.00  0.00     0.206 C 
HETATM    4  N   UNL     1      -6.101   2.661 -31.275  1.00  0.00    -0.061 N 
HETATM    5  H   UNL     1      -6.710   3.482 -31.186  1.00  0.00     0.280 HD
HETATM    6  C   UNL     1      -6.753   1.574 -30.467  1.00  0.00     0.242 C 
HETATM    7  C   UNL     1      -7.424   0.519 -31.340  1.00  0.00     0.029 C 
HETATM    8  C   UNL     1      -6.397  -0.502 -31.866  1.00  0.00     0.123 C 
HETATM    9  C   UNL     1      -7.508   2.215 -33.247  1.00  0.00     0.035 C 
HETATM   10  C   UNL     1      -8.273   1.163 -32.441  1.00  0.00     0.010 C 
ENDROOT
BRANCH   4  11
HETATM   11  C   UNL     1      -4.797   3.116 -30.646  1.00  0.00     0.274 C 
BRANCH  11  12
HETATM   12  C   UNL     1      -4.156   4.286 -31.339  1.00  0.00    -0.032 A 
HETATM   13  C   UNL     1      -2.945   4.118 -32.040  1.00  0.00     0.022 A 
HETATM   14  C   UNL     1      -2.352   5.219 -32.686  1.00  0.00    -0.008 A 
HETATM   15  C   UNL     1      -2.985   6.459 -32.618  1.00  0.00     0.042 A 
HETATM   16  C   UNL     1      -1.173   5.392 -33.461  1.00  0.00     0.030 A 
HETATM   17  N   UNL     1      -2.216   7.347 -33.338  1.00  0.00    -0.365 N 
HETATM   18  C   UNL     1      -4.187   6.657 -31.933  1.00  0.00     0.031 A 
HETATM   19  H   UNL     1      -2.438   8.325 -33.477  1.00  0.00     0.165 HD
HETATM   20  C   UNL     1      -1.116   6.711 -33.847  1.00  0.00     0.089 A 
HETATM   21  C   UNL     1      -4.759   5.551 -31.295  1.00  0.00     0.011 A 
ENDBRANCH  11  12
ENDBRANCH   4  11
BRANCH   1  22
HETATM   22  C   UNL     1      -6.098  -0.784 -34.278  1.00  0.00     0.157 C 
BRANCH  22  23
HETATM   23  C   UNL     1      -5.767  -2.247 -34.416  1.00  0.00    -0.023 A 
HETATM   24  C   UNL     1      -4.495  -2.736 -34.131  1.00  0.00     0.125 A 
HETATM   25  N   UNL     1      -4.140  -4.037 -34.229  1.00  0.00    -0.273 NA
HETATM   26  C   UNL     1      -5.106  -4.906 -34.596  1.00  0.00     0.116 A 
HETATM   27  C   UNL     1      -6.409  -4.530 -34.877  1.00  0.00     0.020 A 
HETATM   28  C   UNL     1      -6.741  -3.181 -34.785  1.00  0.00     0.011 A 
ENDBRANCH  22  23
ENDBRANCH   1  22
TORSDOF 4
ENDMDL
MODEL 3
REMARK VINA RESULT:      -8.7      1.167      8.077
REMARK  4 active torsions:
REMARK  status: ('A' for Active; 'I' for Inactive)
REMARK    1  A    between atoms: C_5  and  C_6 
REMARK    2  A    between atoms: C_6  and  N_7 
REMARK    3  A    between atoms: N_10  and  C_12 
REMARK    4  A    between atoms: C_12  and  C_13 
ROOT
HETATM    1  N   UNL     1      -7.207   0.403 -33.820  1.00  0.00    -0.406 N 
HETATM    2  C   UNL     1      -8.651   0.492 -33.596  1.00  0.00     0.150 C 
HETATM    3  C   UNL     1      -9.228   1.596 -32.671  1.00  0.00     0.206 C 
HETATM    4  N   UNL     1      -9.355   2.950 -33.361  1.00  0.00    -0.061 N 
HETATM    5  H   UNL     1      -9.786   3.549 -32.647  1.00  0.00     0.280 HD
HETATM    6  C   UNL     1      -8.046   3.602 -33.709  1.00  0.00     0.242 C 
HETATM    7  C   UNL     1      -6.850   2.862 -33.118  1.00  0.00     0.029 C 
HETATM    8  C   UNL     1      -6.465   1.647 -33.984  1.00  0.00     0.123 C 
HETATM    9  C   UNL     1      -8.410   1.809 -31.393  1.00  0.00     0.035 C 
HETATM   10  C   UNL     1      -7.078   2.521 -31.643  1.00  0.00     0.010 C 
ENDROOT
BRANCH   4  11
HETATM   11  C   UNL     1     -10.335   3.016 -34.519  1.00  0.00     0.274 C 
BRANCH  11  12
HETATM   12  C   UNL     1     -11.724   2.556 -34.175  1.00  0.00    -0.032 A 
HETATM   13  C   UNL     1     -12.438   3.177 -33.131  1.00  0.00     0.022 A 
HETATM   14  C   UNL     1     -13.738   2.739 -32.816  1.00  0.00    -0.008 A 
HETATM   15  C   UNL     1     -14.294   1.696 -33.555  1.00  0.00     0.042 A 
HETATM   16  C   UNL     1     -14.708   3.136 -31.855  1.00  0.00     0.030 A 
HETATM   17  N   UNL     1     -15.562   1.479 -33.060  1.00  0.00    -0.365 N 
HETATM   18  C   UNL     1     -13.612   1.062 -34.597  1.00  0.00     0.031 A 
HETATM   19  H   UNL     1     -16.210   0.787 -33.415  1.00  0.00     0.165 HD
HETATM   20  C   UNL     1     -15.818   2.343 -32.030  1.00  0.00     0.089 A 
HETATM   21  C   UNL     1     -12.319   1.510 -34.893  1.00  0.00     0.011 A 
ENDBRANCH  11  12
ENDBRANCH   4  11
BRANCH   1  22
HETATM   22  C   UNL     1      -6.492  -0.595 -33.004  1.00  0.00     0.157 C 
BRANCH  22  23
HETATM   23  C   UNL     1      -6.094  -1.842 -33.748  1.00  0.00    -0.023 A 
HETATM   24  C   UNL     1      -4.759  -2.223 -33.868  1.00  0.00     0.125 A 
HETATM   25  N   UNL     1      -4.340  -3.333 -34.516  1.00  0.00    -0.273 NA
HETATM   26  C   UNL     1      -5.296  -4.127 -35.044  1.00  0.00     0.116 A 
HETATM   27  C   UNL     1      -6.651  -3.855 -34.960  1.00  0.00     0.020 A 
HETATM   28  C   UNL     1      -7.052  -2.696 -34.302  1.00  0.00     0.011 A 
ENDBRANCH  22  23
ENDBRANCH   1  22
TORSDOF 4
ENDMDL
MODEL 4
REMARK VINA RESULT:      -8.5      3.915      6.878
REMARK  4 active torsions:
REMARK  status: ('A' for Active; 'I' for Inactive)
REMARK    1  A    between atoms: C_5  and  C_6 
REMARK    2  A    between atoms: C_6  and  N_7 
REMARK    3  A    between atoms: N_10  and  C_12 
REMARK    4  A    between atoms: C_12  and  C_13 
ROOT
HETATM    1  N   UNL     1      -5.133   3.807 -32.381  1.00  0.00    -0.406 N 
HETATM    2  C   UNL     1      -4.526   2.526 -32.749  1.00  0.00     0.150 C 
HETATM    3  C   UNL     1      -4.948   1.227 -32.013  1.00  0.00     0.206 C 
HETATM    4  N   UNL     1      -6.257   0.641 -32.535  1.00  0.00    -0.061 N 
HETATM    5  H   UNL     1      -6.371  -0.222 -31.990  1.00  0.00     0.280 HD
HETATM    6  C   UNL     1      -7.475   1.474 -32.247  1.00  0.00     0.242 C 
HETATM    7  C   UNL     1      -7.176   2.643 -31.314  1.00  0.00     0.029 C 
HETATM    8  C   UNL     1      -6.561   3.826 -32.086  1.00  0.00     0.123 C 
HETATM    9  C   UNL     1      -5.098   1.405 -30.499  1.00  0.00     0.035 C 
HETATM   10  C   UNL     1      -6.348   2.196 -30.107  1.00  0.00     0.010 C 
ENDROOT
BRANCH   4  11
HETATM   11  C   UNL     1      -6.241   0.155 -33.972  1.00  0.00     0.274 C 
BRANCH  11  12
HETATM   12  C   UNL     1      -5.901  -1.301 -34.125  1.00  0.00    -0.032 A 
HETATM   13  C   UNL     1      -4.739  -1.824 -33.523  1.00  0.00     0.022 A 
HETATM   14  C   UNL     1      -4.429  -3.189 -33.672  1.00  0.00    -0.008 A 
HETATM   15  C   UNL     1      -5.289  -3.998 -34.413  1.00  0.00     0.042 A 
HETATM   16  C   UNL     1      -3.370  -4.018 -33.207  1.00  0.00     0.030 A 
HETATM   17  N   UNL     1      -4.770  -5.274 -34.386  1.00  0.00    -0.365 N 
HETATM   18  C   UNL     1      -6.449  -3.509 -35.018  1.00  0.00     0.031 A 
HETATM   19  H   UNL     1      -5.193  -6.080 -34.830  1.00  0.00     0.165 HD
HETATM   20  C   UNL     1      -3.607  -5.294 -33.663  1.00  0.00     0.089 A 
HETATM   21  C   UNL     1      -6.739  -2.149 -34.862  1.00  0.00     0.011 A 
ENDBRANCH  11  12
ENDBRANCH   4  11
BRANCH   1  22
HETATM   22  C   UNL     1      -4.342   4.651 -31.467  1.00  0.00     0.157 C 
BRANCH  22  23
HETATM   23  C   UNL     1      -3.313   5.516 -32.147  1.00  0.00    -0.023 A 
HETATM   24  C   UNL     1      -3.535   6.052 -33.413  1.00  0.00     0.125 A 
HETATM   25  N   UNL     1      -2.655   6.839 -34.071  1.00  0.00    -0.273 NA
HETATM   26  C   UNL     1      -1.507   7.140 -33.427  1.00  0.00     0.116 A 
HETATM   27  C   UNL     1      -1.198   6.681 -32.157  1.00  0.00     0.020 A 
HETATM   28  C   UNL     1      -2.115   5.858 -31.511  1.00  0.00     0.011 A 
ENDBRANCH  22  23
ENDBRANCH   1  22
TORSDOF 4
ENDMDL
MODEL 5
REMARK VINA RESULT:      -8.3      1.851      7.486
REMARK  4 active torsions:
REMARK  status: ('A' for Active; 'I' for Inactive)
REMARK    1  A    between atoms: C_5  and  C_6 
REMARK    2  A    between atoms: C_6  and  N_7 
REMARK    3  A    between atoms: N_10  and  C_12 
REMARK    4  A    between atoms: C_12  and  C_13 
ROOT
HETATM    1  N   UNL     1      -6.307   0.090 -33.079  1.00  0.00    -0.406 N 
HETATM    2  C   UNL     1      -6.838   0.269 -31.726  1.00  0.00     0.150 C 
HETATM    3  C   UNL     1      -6.510   1.558 -30.927  1.00  0.00     0.206 C 
HETATM    4  N   UNL     1      -7.386   2.745 -31.317  1.00  0.00    -0.061 N 
HETATM    5  H   UNL     1      -7.084   3.490 -30.680  1.00  0.00     0.280 HD
HETATM    6  C   UNL     1      -7.148   3.268 -32.706  1.00  0.00     0.242 C 
HETATM    7  C   UNL     1      -5.934   2.628 -33.372  1.00  0.00     0.029 C 
HETATM    8  C   UNL     1      -6.287   1.250 -33.962  1.00  0.00     0.123 C 
HETATM    9  C   UNL     1      -5.050   2.003 -31.059  1.00  0.00     0.035 C 
HETATM   10  C   UNL     1      -4.727   2.605 -32.429  1.00  0.00     0.010 C 
ENDROOT
BRANCH   4  11
HETATM   11  C   UNL     1      -8.867   2.602 -31.022  1.00  0.00     0.274 C 
BRANCH  11  12
HETATM   12  C   UNL     1      -9.715   2.355 -32.238  1.00  0.00    -0.032 A 
HETATM   13  C   UNL     1     -10.325   3.435 -32.907  1.00  0.00     0.022 A 
HETATM   14  C   UNL     1     -11.118   3.194 -34.046  1.00  0.00    -0.008 A 
HETATM   15  C   UNL     1     -11.276   1.882 -34.489  1.00  0.00     0.042 A 
HETATM   16  C   UNL     1     -11.851   4.028 -34.933  1.00  0.00     0.030 A 
HETATM   17  N   UNL     1     -12.072   1.927 -35.614  1.00  0.00    -0.365 N 
HETATM   18  C   UNL     1     -10.682   0.791 -33.849  1.00  0.00     0.031 A 
HETATM   19  H   UNL     1     -12.345   1.121 -36.162  1.00  0.00     0.165 HD
HETATM   20  C   UNL     1     -12.427   3.221 -35.886  1.00  0.00     0.089 A 
HETATM   21  C   UNL     1      -9.901   1.051 -32.717  1.00  0.00     0.011 A 
ENDBRANCH  11  12
ENDBRANCH   4  11
BRANCH   1  22
HETATM   22  C   UNL     1      -5.093  -0.741 -33.185  1.00  0.00     0.157 C 
BRANCH  22  23
HETATM   23  C   UNL     1      -5.314  -2.092 -33.813  1.00  0.00    -0.023 A 
HETATM   24  C   UNL     1      -4.301  -3.047 -33.859  1.00  0.00     0.125 A 
HETATM   25  N   UNL     1      -4.440  -4.278 -34.401  1.00  0.00    -0.273 NA
HETATM   26  C   UNL     1      -5.657  -4.593 -34.893  1.00  0.00     0.116 A 
HETATM   27  C   UNL     1      -6.739  -3.728 -34.875  1.00  0.00     0.020 A 
HETATM   28  C   UNL     1      -6.562  -2.461 -34.327  1.00  0.00     0.011 A 
ENDBRANCH  22  23
ENDBRANCH   1  22
TORSDOF 4
ENDMDL
MODEL 6
REMARK VINA RESULT:      -8.3      7.261     10.484
REMARK  4 active torsions:
REMARK  status: ('A' for Active; 'I' for Inactive)
REMARK    1  A    between atoms: C_5  and  C_6 
REMARK    2  A    between atoms: C_6  and  N_7 
REMARK    3  A    between atoms: N_10  and  C_12 
REMARK    4  A    between atoms: C_12  and  C_13 
ROOT
HETATM    1  N   UNL     1      -1.002   6.156 -30.270  1.00  0.00    -0.406 N 
HETATM    2  C   UNL     1      -2.427   6.485 -30.336  1.00  0.00     0.150 C 
HETATM    3  C   UNL     1      -3.128   6.632 -31.712  1.00  0.00     0.206 C 
HETATM    4  N   UNL     1      -3.513   5.294 -32.335  1.00  0.00    -0.061 N 
HETATM    5  H   UNL     1      -3.998   5.558 -33.200  1.00  0.00     0.280 HD
HETATM    6  C   UNL     1      -2.349   4.442 -32.759  1.00  0.00     0.242 C 
HETATM    7  C   UNL     1      -1.018   5.181 -32.661  1.00  0.00     0.029 C 
HETATM    8  C   UNL     1      -0.484   5.174 -31.216  1.00  0.00     0.123 C 
HETATM    9  C   UNL     1      -2.290   7.393 -32.745  1.00  0.00     0.035 C 
HETATM   10  C   UNL     1      -1.109   6.579 -33.278  1.00  0.00     0.010 C 
ENDROOT
BRANCH   4  11
HETATM   11  C   UNL     1      -4.549   4.483 -31.579  1.00  0.00     0.274 C 
BRANCH  11  12
HETATM   12  C   UNL     1      -5.081   3.301 -32.341  1.00  0.00    -0.032 A 
HETATM   13  C   UNL     1      -4.757   1.992 -31.934  1.00  0.00     0.022 A 
HETATM   14  C   UNL     1      -5.259   0.891 -32.653  1.00  0.00    -0.008 A 
HETATM   15  C   UNL     1      -6.076   1.126 -33.758  1.00  0.00     0.042 A 
HETATM   16  C   UNL     1      -5.134  -0.518 -32.516  1.00  0.00     0.030 A 
HETATM   17  N   UNL     1      -6.439  -0.104 -34.263  1.00  0.00    -0.365 N 
HETATM   18  C   UNL     1      -6.417   2.412 -34.184  1.00  0.00     0.031 A 
HETATM   19  H   UNL     1      -7.046  -0.244 -35.061  1.00  0.00     0.165 HD
HETATM   20  C   UNL     1      -5.871  -1.103 -33.520  1.00  0.00     0.089 A 
HETATM   21  C   UNL     1      -5.905   3.493 -33.458  1.00  0.00     0.011 A 
ENDBRANCH  11  12
ENDBRANCH   4  11
BRANCH   1  22
HETATM   22  C   UNL     1      -0.090   7.296 -30.062  1.00  0.00     0.157 C 
BRANCH  22  23
HETATM   23  C   UNL     1       0.385   7.466 -28.642  1.00  0.00    -0.023 A 
HETATM   24  C   UNL     1      -0.061   6.630 -27.621  1.00  0.00     0.125 A 
HETATM   25  N   UNL     1       0.333   6.729 -26.332  1.00  0.00    -0.273 NA
HETATM   26  C   UNL     1       1.243   7.684 -26.044  1.00  0.00     0.116 A 
HETATM   27  C   UNL     1       1.770   8.550 -26.987  1.00  0.00     0.020 A 
HETATM   28  C   UNL     1       1.332   8.437 -28.304  1.00  0.00     0.011 A 
ENDBRANCH  22  23
ENDBRANCH   1  22
TORSDOF 4
ENDMDL
MODEL 7
REMARK VINA RESULT:      -8.0      3.787      8.459
REMARK  4 active torsions:
REMARK  status: ('A' for Active; 'I' for Inactive)
REMARK    1  A    between atoms: C_5  and  C_6 
REMARK    2  A    between atoms: C_6  and  N_7 
REMARK    3  A    between atoms: N_10  and  C_12 
REMARK    4  A    between atoms: C_12  and  C_13 
ROOT
HETATM    1  N   UNL     1      -4.386   3.128 -32.148  1.00  0.00    -0.406 N 
HETATM    2  C   UNL     1      -5.628   2.947 -32.901  1.00  0.00     0.150 C 
HETATM    3  C   UNL     1      -6.291   1.547 -32.982  1.00  0.00     0.206 C 
HETATM    4  N   UNL     1      -7.111   1.200 -31.743  1.00  0.00    -0.061 N 
HETATM    5  H   UNL     1      -7.514   0.282 -31.967  1.00  0.00     0.280 HD
HETATM    6  C   UNL     1      -6.303   1.000 -30.492  1.00  0.00     0.242 C 
HETATM    7  C   UNL     1      -4.801   0.990 -30.762  1.00  0.00     0.029 C 
HETATM    8  C   UNL     1      -4.249   2.423 -30.879  1.00  0.00     0.123 C 
HETATM    9  C   UNL     1      -5.288   0.409 -33.200  1.00  0.00     0.035 C 
HETATM   10  C   UNL     1      -4.455   0.095 -31.955  1.00  0.00     0.010 C 
ENDROOT
BRANCH   4  11
HETATM   11  C   UNL     1      -8.328   2.070 -31.487  1.00  0.00     0.274 C 
BRANCH  11  12
HETATM   12  C   UNL     1      -9.379   1.987 -32.559  1.00  0.00    -0.032 A 
HETATM   13  C   UNL     1      -9.667   3.112 -33.357  1.00  0.00     0.022 A 
HETATM   14  C   UNL     1     -10.653   3.026 -34.358  1.00  0.00    -0.008 A 
HETATM   15  C   UNL     1     -11.322   1.817 -34.540  1.00  0.00     0.042 A 
HETATM   16  C   UNL     1     -11.172   3.941 -35.314  1.00  0.00     0.030 A 
HETATM   17  N   UNL     1     -12.210   1.997 -35.579  1.00  0.00    -0.365 N 
HETATM   18  C   UNL     1     -11.058   0.684 -33.767  1.00  0.00     0.031 A 
HETATM   19  H   UNL     1     -12.824   1.280 -35.945  1.00  0.00     0.165 HD
HETATM   20  C   UNL     1     -12.128   3.279 -36.050  1.00  0.00     0.089 A 
HETATM   21  C   UNL     1     -10.076   0.791 -32.774  1.00  0.00     0.011 A 
ENDBRANCH  11  12
ENDBRANCH   4  11
BRANCH   1  22
HETATM   22  C   UNL     1      -3.147   3.129 -32.947  1.00  0.00     0.157 C 
BRANCH  22  23
HETATM   23  C   UNL     1      -2.558   4.495 -33.187  1.00  0.00    -0.023 A 
HETATM   24  C   UNL     1      -3.098   5.364 -34.132  1.00  0.00     0.125 A 
HETATM   25  N   UNL     1      -2.619   6.602 -34.388  1.00  0.00    -0.273 NA
HETATM   26  C   UNL     1      -1.571   7.016 -33.643  1.00  0.00     0.116 A 
HETATM   27  C   UNL     1      -0.976   6.242 -32.661  1.00  0.00     0.020 A 
HETATM   28  C   UNL     1      -1.478   4.964 -32.432  1.00  0.00     0.011 A 
ENDBRANCH  22  23
ENDBRANCH   1  22
TORSDOF 4
ENDMDL
MODEL 8
REMARK VINA RESULT:      -8.0      6.445      9.544
REMARK  4 active torsions:
REMARK  status: ('A' for Active; 'I' for Inactive)
REMARK    1  A    between atoms: C_5  and  C_6 
REMARK    2  A    between atoms: C_6  and  N_7 
REMARK    3  A    between atoms: N_10  and  C_12 
REMARK    4  A    between atoms: C_12  and  C_13 
ROOT
HETATM    1  N   UNL     1      -2.427   6.369 -30.984  1.00  0.00    -0.406 N 
HETATM    2  C   UNL     1      -3.757   6.486 -31.587  1.00  0.00     0.150 C 
HETATM    3  C   UNL     1      -4.012   5.943 -33.017  1.00  0.00     0.206 C 
HETATM    4  N   UNL     1      -4.241   4.435 -33.053  1.00  0.00    -0.061 N 
HETATM    5  H   UNL     1      -4.438   4.242 -34.042  1.00  0.00     0.280 HD
HETATM    6  C   UNL     1      -3.034   3.609 -32.705  1.00  0.00     0.242 C 
HETATM    7  C   UNL     1      -1.767   4.450 -32.581  1.00  0.00     0.029 C 
HETATM    8  C   UNL     1      -1.687   5.132 -31.201  1.00  0.00     0.123 C 
HETATM    9  C   UNL     1      -2.880   6.257 -34.000  1.00  0.00     0.035 C 
HETATM   10  C   UNL     1      -1.622   5.419 -33.757  1.00  0.00     0.010 C 
ENDROOT
BRANCH   4  11
HETATM   11  C   UNL     1      -5.483   3.934 -32.339  1.00  0.00     0.274 C 
BRANCH  11  12
HETATM   12  C   UNL     1      -5.797   2.486 -32.593  1.00  0.00    -0.032 A 
HETATM   13  C   UNL     1      -6.247   2.072 -33.862  1.00  0.00     0.022 A 
HETATM   14  C   UNL     1      -6.539   0.713 -34.091  1.00  0.00    -0.008 A 
HETATM   15  C   UNL     1      -6.368  -0.196 -33.048  1.00  0.00     0.042 A 
HETATM   16  C   UNL     1      -6.995  -0.022 -35.219  1.00  0.00     0.030 A 
HETATM   17  N   UNL     1      -6.702  -1.441 -33.537  1.00  0.00    -0.365 N 
HETATM   18  C   UNL     1      -5.920   0.184 -31.781  1.00  0.00     0.031 A 
HETATM   19  H   UNL     1      -6.659  -2.301 -33.005  1.00  0.00     0.165 HD
HETATM   20  C   UNL     1      -7.086  -1.344 -34.847  1.00  0.00     0.089 A 
HETATM   21  C   UNL     1      -5.639   1.539 -31.572  1.00  0.00     0.011 A 
ENDBRANCH  11  12
ENDBRANCH   4  11
BRANCH   1  22
HETATM   22  C   UNL     1      -1.580   7.573 -31.063  1.00  0.00     0.157 C 
BRANCH  22  23
HETATM   23  C   UNL     1      -0.906   7.949 -29.770  1.00  0.00    -0.023 A 
HETATM   24  C   UNL     1      -1.562   8.704 -28.800  1.00  0.00     0.125 A 
HETATM   25  N   UNL     1      -1.013   9.067 -27.619  1.00  0.00    -0.273 NA
HETATM   26  C   UNL     1       0.240   8.630 -27.370  1.00  0.00     0.116 A 
HETATM   27  C   UNL     1       0.971   7.854 -28.253  1.00  0.00     0.020 A 
HETATM   28  C   UNL     1       0.388   7.511 -29.469  1.00  0.00     0.011 A 
ENDBRANCH  22  23
ENDBRANCH   1  22
TORSDOF 4
ENDMDL
MODEL 9
REMARK VINA RESULT:      -7.9      4.797      8.426
REMARK  4 active torsions:
REMARK  status: ('A' for Active; 'I' for Inactive)
REMARK    1  A    between atoms: C_5  and  C_6 
REMARK    2  A    between atoms: C_6  and  N_7 
REMARK    3  A    between atoms: N_10  and  C_12 
REMARK    4  A    between atoms: C_12  and  C_13 
ROOT
HETATM    1  N   UNL     1      -5.428   0.035 -33.499  1.00  0.00    -0.406 N 
HETATM    2  C   UNL     1      -5.844   1.437 -33.569  1.00  0.00     0.150 C 
HETATM    3  C   UNL     1      -6.046   2.254 -32.266  1.00  0.00     0.206 C 
HETATM    4  N   UNL     1      -4.740   2.778 -31.678  1.00  0.00    -0.061 N 
HETATM    5  H   UNL     1      -5.041   3.325 -30.863  1.00  0.00     0.280 HD
HETATM    6  C   UNL     1      -3.822   1.714 -31.143  1.00  0.00     0.242 C 
HETATM    7  C   UNL     1      -4.477   0.337 -31.117  1.00  0.00     0.029 C 
HETATM    8  C   UNL     1      -4.424  -0.329 -32.505  1.00  0.00     0.123 C 
HETATM    9  C   UNL     1      -6.764   1.471 -31.161  1.00  0.00     0.035 C 
HETATM   10  C   UNL     1      -5.883   0.399 -30.515  1.00  0.00     0.010 C 
ENDROOT
BRANCH   4  11
HETATM   11  C   UNL     1      -3.988   3.787 -32.526  1.00  0.00     0.274 C 
BRANCH  11  12
HETATM   12  C   UNL     1      -3.184   4.779 -31.733  1.00  0.00    -0.032 A 
HETATM   13  C   UNL     1      -1.779   4.799 -31.841  1.00  0.00     0.022 A 
HETATM   14  C   UNL     1      -1.034   5.732 -31.094  1.00  0.00    -0.008 A 
HETATM   15  C   UNL     1      -1.711   6.623 -30.263  1.00  0.00     0.042 A 
HETATM   16  C   UNL     1       0.354   6.018 -30.974  1.00  0.00     0.030 A 
HETATM   17  N   UNL     1      -0.762   7.426 -29.669  1.00  0.00    -0.365 N 
HETATM   18  C   UNL     1      -3.103   6.629 -30.137  1.00  0.00     0.031 A 
HETATM   19  H   UNL     1      -0.963   8.179 -29.024  1.00  0.00     0.165 HD
HETATM   20  C   UNL     1       0.490   7.064 -30.091  1.00  0.00     0.089 A 
HETATM   21  C   UNL     1      -3.825   5.692 -30.885  1.00  0.00     0.011 A 
ENDBRANCH  11  12
ENDBRANCH   4  11
BRANCH   1  22
HETATM   22  C   UNL     1      -6.507  -0.961 -33.623  1.00  0.00     0.157 C 
BRANCH  22  23
HETATM   23  C   UNL     1      -6.056  -2.316 -34.102  1.00  0.00    -0.023 A 
HETATM   24  C   UNL     1      -4.728  -2.721 -33.995  1.00  0.00     0.125 A 
HETATM   25  N   UNL     1      -4.264  -3.924 -34.400  1.00  0.00    -0.273 NA
HETATM   26  C   UNL     1      -5.170  -4.787 -34.907  1.00  0.00     0.116 A 
HETATM   27  C   UNL     1      -6.518  -4.496 -35.035  1.00  0.00     0.020 A 
HETATM   28  C   UNL     1      -6.964  -3.242 -34.626  1.00  0.00     0.011 A 
ENDBRANCH  22  23
ENDBRANCH   1  22
TORSDOF 4
ENDMDL
MODEL 10
REMARK VINA RESULT:      -7.9      2.462      4.931
REMARK  4 active torsions:
REMARK  status: ('A' for Active; 'I' for Inactive)
REMARK    1  A    between atoms: C_5  and  C_6 
REMARK    2  A    between atoms: C_6  and  N_7 
REMARK    3  A    between atoms: N_10  and  C_12 
REMARK    4  A    between atoms: C_12  and  C_13 
ROOT
HETATM    1  N   UNL     1      -8.338   4.222 -33.686  1.00  0.00    -0.406 N 
HETATM    2  C   UNL     1      -7.246   3.263 -33.510  1.00  0.00     0.150 C 
HETATM    3  C   UNL     1      -7.510   1.904 -32.809  1.00  0.00     0.206 C 
HETATM    4  N   UNL     1      -8.138   0.865 -33.733  1.00  0.00    -0.061 N 
HETATM    5  H   UNL     1      -8.205   0.026 -33.145  1.00  0.00     0.280 HD
HETATM    6  C   UNL     1      -9.543   1.179 -34.165  1.00  0.00     0.242 C 
HETATM    7  C   UNL     1     -10.127   2.379 -33.427  1.00  0.00     0.029 C 
HETATM    8  C   UNL     1      -9.649   3.703 -34.054  1.00  0.00     0.123 C 
HETATM    9  C   UNL     1      -8.408   2.021 -31.573  1.00  0.00     0.035 C 
HETATM   10  C   UNL     1      -9.876   2.285 -31.919  1.00  0.00     0.010 C 
ENDROOT
BRANCH   4  11
HETATM   11  C   UNL     1      -7.283   0.414 -34.903  1.00  0.00     0.274 C 
BRANCH  11  12
HETATM   12  C   UNL     1      -6.382  -0.749 -34.593  1.00  0.00    -0.032 A 
HETATM   13  C   UNL     1      -6.774  -2.059 -34.933  1.00  0.00     0.022 A 
HETATM   14  C   UNL     1      -5.924  -3.142 -34.638  1.00  0.00    -0.008 A 
HETATM   15  C   UNL     1      -4.702  -2.888 -34.017  1.00  0.00     0.042 A 
HETATM   16  C   UNL     1      -6.007  -4.546 -34.843  1.00  0.00     0.030 A 
HETATM   17  N   UNL     1      -4.066  -4.101 -33.861  1.00  0.00    -0.365 N 
HETATM   18  C   UNL     1      -4.285  -1.601 -33.670  1.00  0.00     0.031 A 
HETATM   19  H   UNL     1      -3.150  -4.224 -33.451  1.00  0.00     0.165 HD
HETATM   20  C   UNL     1      -4.850  -5.109 -34.355  1.00  0.00     0.089 A 
HETATM   21  C   UNL     1      -5.145  -0.538 -33.968  1.00  0.00     0.011 A 
ENDBRANCH  11  12
ENDBRANCH   4  11
BRANCH   1  22
HETATM   22  C   UNL     1      -8.403   5.307 -32.690  1.00  0.00     0.157 C 
BRANCH  22  23
HETATM   23  C   UNL     1      -7.087   5.633 -32.033  1.00  0.00    -0.023 A 
HETATM   24  C   UNL     1      -6.072   6.291 -32.723  1.00  0.00     0.125 A 
HETATM   25  N   UNL     1      -4.875   6.617 -32.187  1.00  0.00    -0.273 NA
HETATM   26  C   UNL     1      -4.684   6.304 -30.887  1.00  0.00     0.116 A 
HETATM   27  C   UNL     1      -5.635   5.673 -30.103  1.00  0.00     0.020 A 
HETATM   28  C   UNL     1      -6.852   5.334 -30.687  1.00  0.00     0.011 A 
ENDBRANCH  22  23
ENDBRANCH   1  22
TORSDOF 4
ENDMDL
