MODEL 1
REMARK VINA RESULT:      -9.2      0.000      0.000
REMARK  9 active torsions:
REMARK  status: ('A' for Active; 'I' for Inactive)
REMARK    1  A    between atoms: C_2  and  C_3 
REMARK    2  A    between atoms: C_3  and  O_4 
REMARK    3  A    between atoms: O_4  and  C_5 
REMARK    4  A    between atoms: C_7  and  C_8 
REMARK       I    between atoms: C_8  and  N_9 
REMARK    5  A    between atoms: N_9  and  C_10 
REMARK    6  A    between atoms: C_10  and  N_11 
REMARK    7  A    between atoms: N_11  and  C_12 
REMARK    8  A    between atoms: C_14  and  O_15 
REMARK    9  A    between atoms: C_16  and  C_17 
ROOT
HETATM    1  C   UNL     1      -5.326   6.393 -31.425  1.00  0.00     0.036 A 
HETATM    2  C   UNL     1      -5.300   5.435 -30.412  1.00  0.00     0.067 A 
HETATM    3  C   UNL     1      -5.201   4.072 -30.717  1.00  0.00     0.082 A 
HETATM    4  C   UNL     1      -5.116   3.631 -32.046  1.00  0.00     0.050 A 
HETATM    5  C   UNL     1      -5.076   4.614 -33.053  1.00  0.00     0.021 A 
HETATM    6  C   UNL     1      -5.157   5.981 -32.746  1.00  0.00     0.030 A 
ENDROOT
BRANCH   1   7
HETATM    7  N   UNL     1      -5.473   7.771 -31.162  1.00  0.00    -0.333 N 
HETATM    8  H   UNL     1      -6.430   8.121 -31.090  1.00  0.00     0.168 HD
BRANCH   7   9
HETATM    9  C   UNL     1      -4.517   8.680 -30.767  1.00  0.00     0.179 C 
HETATM   10  S   UNL     1      -4.638  10.347 -30.645  1.00  0.00    -0.040 SA
BRANCH   9  11
HETATM   11  N   UNL     1      -3.287   8.149 -30.443  1.00  0.00    -0.299 N 
HETATM   12  C   UNL     1      -2.147   8.024 -31.224  1.00  0.00     0.257 C 
HETATM   13  O   UNL     1      -1.919   8.706 -32.217  1.00  0.00    -0.267 OA
HETATM   14  H   UNL     1      -3.286   7.716 -29.530  1.00  0.00     0.171 HD
BRANCH  12  15
HETATM   15  C   UNL     1      -1.144   7.055 -30.702  1.00  0.00     0.035 A 
HETATM   16  C   UNL     1      -1.009   6.833 -29.325  1.00  0.00     0.053 A 
HETATM   17  C   UNL     1      -0.024   5.974 -28.836  1.00  0.00     0.069 A 
HETATM   18  C   UNL     1       0.800   5.293 -29.730  1.00  0.00     0.037 A 
HETATM   19  C   UNL     1       0.642   5.480 -31.109  1.00  0.00     0.004 A 
HETATM   20  C   UNL     1      -0.328   6.359 -31.597  1.00  0.00     0.017 A 
BRANCH  17  21
HETATM   21  O   UNL     1       0.012   5.878 -27.475  1.00  0.00    -0.351 OA
BRANCH  21  22
HETATM   22  C   UNL     1       0.062   7.102 -26.739  1.00  0.00     0.175 C 
BRANCH  22  23
HETATM   23  C   UNL     1       1.519   7.553 -26.707  1.00  0.00     0.022 C 
HETATM   24  C   UNL     1       1.735   8.848 -27.468  1.00  0.00     0.007 C 
ENDBRANCH  22  23
ENDBRANCH  21  22
ENDBRANCH  17  21
ENDBRANCH  12  15
ENDBRANCH   9  11
ENDBRANCH   7   9
ENDBRANCH   1   7
BRANCH   3  25
HETATM   25  O   UNL     1      -5.208   3.181 -29.677  1.00  0.00    -0.360 OA
HETATM   26  H   UNL     1      -6.122   2.951 -29.449  1.00  0.00     0.217 HD
ENDBRANCH   3  25
BRANCH   4  27
HETATM   27  C   UNL     1      -5.121   2.220 -32.442  1.00  0.00     0.183 A 
HETATM   28  O   UNL     1      -6.104   1.812 -33.305  1.00  0.00    -0.288 OA
HETATM   29  C   UNL     1      -5.807   0.511 -33.575  1.00  0.00     0.112 A 
HETATM   30  C   UNL     1      -4.680   0.182 -32.843  1.00  0.00     0.094 A 
HETATM   31  C   UNL     1      -6.490  -0.345 -34.437  1.00  0.00    -0.025 A 
HETATM   32  N   UNL     1      -4.266   1.265 -32.105  1.00  0.00    -0.221 NA
HETATM   33  C   UNL     1      -4.150  -1.109 -32.962  1.00  0.00     0.041 A 
HETATM   34  C   UNL     1      -4.778  -2.016 -33.838  1.00  0.00    -0.059 A 
HETATM   35  C   UNL     1      -5.931  -1.633 -34.547  1.00  0.00     0.016 A 
HETATM   36  C   UNL     1      -4.221  -3.404 -33.987  1.00  0.00     0.048 C 
HETATM   37  C   UNL     1      -7.700   0.049 -35.221  1.00  0.00     0.051 C 
ENDBRANCH   4  27
TORSDOF 9
ENDMDL
MODEL 2
REMARK VINA RESULT:      -9.1      0.747      1.526
REMARK  9 active torsions:
REMARK  status: ('A' for Active; 'I' for Inactive)
REMARK    1  A    between atoms: C_2  and  C_3 
REMARK    2  A    between atoms: C_3  and  O_4 
REMARK    3  A    between atoms: O_4  and  C_5 
REMARK    4  A    between atoms: C_7  and  C_8 
REMARK       I    between atoms: C_8  and  N_9 
REMARK    5  A    between atoms: N_9  and  C_10 
REMARK    6  A    between atoms: C_10  and  N_11 
REMARK    7  A    between atoms: N_11  and  C_12 
REMARK    8  A    between atoms: C_14  and  O_15 
REMARK    9  A    between atoms: C_16  and  C_17 
ROOT
HETATM    1  C   UNL     1      -5.298   6.643 -31.438  1.00  0.00     0.036 A 
HETATM    2  C   UNL     1      -5.129   5.616 -30.510  1.00  0.00     0.067 A 
HETATM    3  C   UNL     1      -5.090   4.278 -30.921  1.00  0.00     0.082 A 
HETATM    4  C   UNL     1      -5.210   3.932 -32.274  1.00  0.00     0.050 A 
HETATM    5  C   UNL     1      -5.312   4.983 -33.204  1.00  0.00     0.021 A 
HETATM    6  C   UNL     1      -5.333   6.325 -32.794  1.00  0.00     0.030 A 
ENDROOT
BRANCH   1   7
HETATM    7  N   UNL     1      -5.391   7.999 -31.060  1.00  0.00    -0.333 N 
HETATM    8  H   UNL     1      -6.330   8.354 -30.867  1.00  0.00     0.168 HD
BRANCH   7   9
HETATM    9  C   UNL     1      -4.384   8.863 -30.696  1.00  0.00     0.179 C 
HETATM   10  S   UNL     1      -4.427  10.534 -30.569  1.00  0.00    -0.040 SA
BRANCH   9  11
HETATM   11  N   UNL     1      -3.169   8.278 -30.414  1.00  0.00    -0.299 N 
HETATM   12  C   UNL     1      -2.070   8.086 -31.239  1.00  0.00     0.257 C 
HETATM   13  O   UNL     1      -1.850   8.742 -32.251  1.00  0.00    -0.267 OA
HETATM   14  H   UNL     1      -3.151   7.858 -29.495  1.00  0.00     0.171 HD
BRANCH  12  15
HETATM   15  C   UNL     1      -1.093   7.077 -30.742  1.00  0.00     0.035 A 
HETATM   16  C   UNL     1      -0.926   6.855 -29.369  1.00  0.00     0.053 A 
HETATM   17  C   UNL     1       0.036   5.956 -28.905  1.00  0.00     0.069 A 
HETATM   18  C   UNL     1       0.802   5.237 -29.820  1.00  0.00     0.037 A 
HETATM   19  C   UNL     1       0.610   5.425 -31.195  1.00  0.00     0.004 A 
HETATM   20  C   UNL     1      -0.335   6.343 -31.658  1.00  0.00     0.017 A 
BRANCH  17  21
HETATM   21  O   UNL     1       0.109   5.864 -27.545  1.00  0.00    -0.351 OA
BRANCH  21  22
HETATM   22  C   UNL     1       0.016   7.084 -26.806  1.00  0.00     0.175 C 
BRANCH  22  23
HETATM   23  C   UNL     1       1.437   7.611 -26.623  1.00  0.00     0.022 C 
HETATM   24  C   UNL     1       1.754   8.744 -27.580  1.00  0.00     0.007 C 
ENDBRANCH  22  23
ENDBRANCH  21  22
ENDBRANCH  17  21
ENDBRANCH  12  15
ENDBRANCH   9  11
ENDBRANCH   7   9
ENDBRANCH   1   7
BRANCH   3  25
HETATM   25  O   UNL     1      -4.948   3.316 -29.956  1.00  0.00    -0.360 OA
HETATM   26  H   UNL     1      -4.268   2.678 -30.227  1.00  0.00     0.217 HD
ENDBRANCH   3  25
BRANCH   4  27
HETATM   27  C   UNL     1      -5.286   2.552 -32.762  1.00  0.00     0.183 A 
HETATM   28  O   UNL     1      -4.299   1.688 -32.364  1.00  0.00    -0.288 OA
HETATM   29  C   UNL     1      -4.673   0.481 -32.869  1.00  0.00     0.112 A 
HETATM   30  C   UNL     1      -5.849   0.672 -33.573  1.00  0.00     0.094 A 
HETATM   31  C   UNL     1      -4.016  -0.737 -32.707  1.00  0.00    -0.025 A 
HETATM   32  N   UNL     1      -6.217   1.995 -33.523  1.00  0.00    -0.221 NA
HETATM   33  C   UNL     1      -6.461  -0.433 -34.179  1.00  0.00     0.041 A 
HETATM   34  C   UNL     1      -5.862  -1.700 -34.031  1.00  0.00    -0.059 A 
HETATM   35  C   UNL     1      -4.657  -1.834 -33.317  1.00  0.00     0.016 A 
HETATM   36  C   UNL     1      -6.506  -2.899 -34.666  1.00  0.00     0.048 C 
HETATM   37  C   UNL     1      -2.751  -0.909 -31.930  1.00  0.00     0.051 C 
ENDBRANCH   4  27
TORSDOF 9
ENDMDL
MODEL 3
REMARK VINA RESULT:      -8.8      2.466      9.926
REMARK  9 active torsions:
REMARK  status: ('A' for Active; 'I' for Inactive)
REMARK    1  A    between atoms: C_2  and  C_3 
REMARK    2  A    between atoms: C_3  and  O_4 
REMARK    3  A    between atoms: O_4  and  C_5 
REMARK    4  A    between atoms: C_7  and  C_8 
REMARK       I    between atoms: C_8  and  N_9 
REMARK    5  A    between atoms: N_9  and  C_10 
REMARK    6  A    between atoms: C_10  and  N_11 
REMARK    7  A    between atoms: N_11  and  C_12 
REMARK    8  A    between atoms: C_14  and  O_15 
REMARK    9  A    between atoms: C_16  and  C_17 
ROOT
HETATM    1  C   UNL     1      -3.364   5.123 -32.506  1.00  0.00     0.036 A 
HETATM    2  C   UNL     1      -2.090   4.607 -32.277  1.00  0.00     0.067 A 
HETATM    3  C   UNL     1      -1.269   5.140 -31.276  1.00  0.00     0.082 A 
HETATM    4  C   UNL     1      -1.707   6.200 -30.468  1.00  0.00     0.050 A 
HETATM    5  C   UNL     1      -3.020   6.665 -30.667  1.00  0.00     0.021 A 
HETATM    6  C   UNL     1      -3.849   6.118 -31.659  1.00  0.00     0.030 A 
ENDROOT
BRANCH   1   7
HETATM    7  N   UNL     1      -4.203   4.647 -33.536  1.00  0.00    -0.333 N 
HETATM    8  H   UNL     1      -3.837   4.715 -34.487  1.00  0.00     0.168 HD
BRANCH   7   9
HETATM    9  C   UNL     1      -5.353   3.899 -33.434  1.00  0.00     0.179 C 
HETATM   10  S   UNL     1      -6.948   4.408 -33.503  1.00  0.00    -0.040 SA
BRANCH   9  11
HETATM   11  N   UNL     1      -5.170   2.548 -33.230  1.00  0.00    -0.299 N 
HETATM   12  C   UNL     1      -4.908   1.861 -32.054  1.00  0.00     0.257 C 
HETATM   13  O   UNL     1      -5.170   2.292 -30.936  1.00  0.00    -0.267 OA
HETATM   14  H   UNL     1      -5.136   2.032 -34.099  1.00  0.00     0.171 HD
BRANCH  12  15
HETATM   15  C   UNL     1      -4.374   0.484 -32.248  1.00  0.00     0.035 A 
HETATM   16  C   UNL     1      -4.856  -0.334 -33.278  1.00  0.00     0.053 A 
HETATM   17  C   UNL     1      -4.400  -1.646 -33.417  1.00  0.00     0.069 A 
HETATM   18  C   UNL     1      -3.419  -2.128 -32.552  1.00  0.00     0.037 A 
HETATM   19  C   UNL     1      -2.905  -1.300 -31.546  1.00  0.00     0.004 A 
HETATM   20  C   UNL     1      -3.380   0.005 -31.393  1.00  0.00     0.017 A 
BRANCH  17  21
HETATM   21  O   UNL     1      -4.979  -2.336 -34.443  1.00  0.00    -0.351 OA
BRANCH  21  22
HETATM   22  C   UNL     1      -6.380  -2.145 -34.644  1.00  0.00     0.175 C 
BRANCH  22  23
HETATM   23  C   UNL     1      -7.030  -3.526 -34.647  1.00  0.00     0.022 C 
HETATM   24  C   UNL     1      -6.209  -4.543 -35.417  1.00  0.00     0.007 C 
ENDBRANCH  22  23
ENDBRANCH  21  22
ENDBRANCH  17  21
ENDBRANCH  12  15
ENDBRANCH   9  11
ENDBRANCH   7   9
ENDBRANCH   1   7
BRANCH   3  25
HETATM   25  O   UNL     1      -0.018   4.604 -31.120  1.00  0.00    -0.360 OA
HETATM   26  H   UNL     1      -0.021   3.974 -30.382  1.00  0.00     0.217 HD
ENDBRANCH   3  25
BRANCH   4  27
HETATM   27  C   UNL     1      -0.864   6.876 -29.478  1.00  0.00     0.183 A 
HETATM   28  O   UNL     1      -1.219   8.148 -29.114  1.00  0.00    -0.288 OA
HETATM   29  C   UNL     1      -0.343   8.482 -28.127  1.00  0.00     0.112 A 
HETATM   30  C   UNL     1       0.519   7.413 -27.959  1.00  0.00     0.094 A 
HETATM   31  C   UNL     1      -0.311   9.669 -27.398  1.00  0.00    -0.025 A 
HETATM   32  N   UNL     1       0.198   6.407 -28.839  1.00  0.00    -0.221 NA
HETATM   33  C   UNL     1       1.514   7.494 -26.976  1.00  0.00     0.041 A 
HETATM   34  C   UNL     1       1.584   8.658 -26.184  1.00  0.00    -0.059 A 
HETATM   35  C   UNL     1       0.691   9.722 -26.409  1.00  0.00     0.016 A 
HETATM   36  C   UNL     1       2.638   8.763 -25.119  1.00  0.00     0.048 C 
HETATM   37  C   UNL     1      -1.266  10.801 -27.600  1.00  0.00     0.051 C 
ENDBRANCH   4  27
TORSDOF 9
ENDMDL
MODEL 4
REMARK VINA RESULT:      -8.8      2.274     10.221
REMARK  9 active torsions:
REMARK  status: ('A' for Active; 'I' for Inactive)
REMARK    1  A    between atoms: C_2  and  C_3 
REMARK    2  A    between atoms: C_3  and  O_4 
REMARK    3  A    between atoms: O_4  and  C_5 
REMARK    4  A    between atoms: C_7  and  C_8 
REMARK       I    between atoms: C_8  and  N_9 
REMARK    5  A    between atoms: N_9  and  C_10 
REMARK    6  A    between atoms: C_10  and  N_11 
REMARK    7  A    between atoms: N_11  and  C_12 
REMARK    8  A    between atoms: C_14  and  O_15 
REMARK    9  A    between atoms: C_16  and  C_17 
ROOT
HETATM    1  C   UNL     1      -3.539   5.751 -32.662  1.00  0.00     0.036 A 
HETATM    2  C   UNL     1      -3.168   7.090 -32.784  1.00  0.00     0.067 A 
HETATM    3  C   UNL     1      -2.282   7.675 -31.871  1.00  0.00     0.082 A 
HETATM    4  C   UNL     1      -1.734   6.932 -30.815  1.00  0.00     0.050 A 
HETATM    5  C   UNL     1      -2.065   5.566 -30.746  1.00  0.00     0.021 A 
HETATM    6  C   UNL     1      -2.939   4.975 -31.671  1.00  0.00     0.030 A 
ENDROOT
BRANCH   1   7
HETATM    7  N   UNL     1      -4.465   5.138 -33.531  1.00  0.00    -0.333 N 
HETATM    8  H   UNL     1      -4.074   4.643 -34.335  1.00  0.00     0.168 HD
BRANCH   7   9
HETATM    9  C   UNL     1      -5.810   4.915 -33.340  1.00  0.00     0.179 C 
HETATM   10  S   UNL     1      -7.004   6.007 -32.905  1.00  0.00    -0.040 SA
BRANCH   9  11
HETATM   11  N   UNL     1      -6.230   3.615 -33.514  1.00  0.00    -0.299 N 
HETATM   12  C   UNL     1      -5.740   2.446 -32.949  1.00  0.00     0.257 C 
HETATM   13  O   UNL     1      -5.094   2.408 -31.907  1.00  0.00    -0.267 OA
HETATM   14  H   UNL     1      -6.934   3.533 -34.235  1.00  0.00     0.171 HD
BRANCH  12  15
HETATM   15  C   UNL     1      -6.152   1.199 -33.652  1.00  0.00     0.035 A 
HETATM   16  C   UNL     1      -5.544  -0.027 -33.355  1.00  0.00     0.053 A 
HETATM   17  C   UNL     1      -5.886  -1.181 -34.061  1.00  0.00     0.069 A 
HETATM   18  C   UNL     1      -6.880  -1.120 -35.036  1.00  0.00     0.037 A 
HETATM   19  C   UNL     1      -7.520   0.096 -35.309  1.00  0.00     0.004 A 
HETATM   20  C   UNL     1      -7.158   1.255 -34.619  1.00  0.00     0.017 A 
BRANCH  17  21
HETATM   21  O   UNL     1      -5.193  -2.296 -33.687  1.00  0.00    -0.351 OA
BRANCH  21  22
HETATM   22  C   UNL     1      -4.602  -3.072 -34.730  1.00  0.00     0.175 C 
BRANCH  22  23
HETATM   23  C   UNL     1      -5.149  -4.491 -34.605  1.00  0.00     0.022 C 
HETATM   24  C   UNL     1      -6.490  -4.651 -35.296  1.00  0.00     0.007 C 
ENDBRANCH  22  23
ENDBRANCH  21  22
ENDBRANCH  17  21
ENDBRANCH  12  15
ENDBRANCH   9  11
ENDBRANCH   7   9
ENDBRANCH   1   7
BRANCH   3  25
HETATM   25  O   UNL     1      -1.980   9.001 -32.032  1.00  0.00    -0.360 OA
HETATM   26  H   UNL     1      -2.791   9.502 -32.211  1.00  0.00     0.217 HD
ENDBRANCH   3  25
BRANCH   4  27
HETATM   27  C   UNL     1      -0.889   7.505 -29.764  1.00  0.00     0.183 A 
HETATM   28  O   UNL     1      -1.281   8.703 -29.225  1.00  0.00    -0.288 OA
HETATM   29  C   UNL     1      -0.389   8.939 -28.224  1.00  0.00     0.112 A 
HETATM   30  C   UNL     1       0.516   7.892 -28.220  1.00  0.00     0.094 A 
HETATM   31  C   UNL     1      -0.381  10.019 -27.344  1.00  0.00    -0.025 A 
HETATM   32  N   UNL     1       0.207   7.000 -29.219  1.00  0.00    -0.221 NA
HETATM   33  C   UNL     1       1.535   7.884 -27.259  1.00  0.00     0.041 A 
HETATM   34  C   UNL     1       1.585   8.934 -26.321  1.00  0.00    -0.059 A 
HETATM   35  C   UNL     1       0.647   9.981 -26.381  1.00  0.00     0.016 A 
HETATM   36  C   UNL     1       2.664   8.940 -25.277  1.00  0.00     0.048 C 
HETATM   37  C   UNL     1      -1.383  11.127 -27.371  1.00  0.00     0.051 C 
ENDBRANCH   4  27
TORSDOF 9
ENDMDL
MODEL 5
REMARK VINA RESULT:      -8.8      2.207      3.607
REMARK  9 active torsions:
REMARK  status: ('A' for Active; 'I' for Inactive)
REMARK    1  A    between atoms: C_2  and  C_3 
REMARK    2  A    between atoms: C_3  and  O_4 
REMARK    3  A    between atoms: O_4  and  C_5 
REMARK    4  A    between atoms: C_7  and  C_8 
REMARK       I    between atoms: C_8  and  N_9 
REMARK    5  A    between atoms: N_9  and  C_10 
REMARK    6  A    between atoms: C_10  and  N_11 
REMARK    7  A    between atoms: N_11  and  C_12 
REMARK    8  A    between atoms: C_14  and  O_15 
REMARK    9  A    between atoms: C_16  and  C_17 
ROOT
HETATM    1  C   UNL     1      -6.530   6.056 -30.729  1.00  0.00     0.036 A 
HETATM    2  C   UNL     1      -6.264   4.960 -29.908  1.00  0.00     0.067 A 
HETATM    3  C   UNL     1      -6.059   3.688 -30.455  1.00  0.00     0.082 A 
HETATM    4  C   UNL     1      -6.104   3.479 -31.841  1.00  0.00     0.050 A 
HETATM    5  C   UNL     1      -6.305   4.606 -32.659  1.00  0.00     0.021 A 
HETATM    6  C   UNL     1      -6.493   5.885 -32.112  1.00  0.00     0.030 A 
ENDROOT
BRANCH   1   7
HETATM    7  N   UNL     1      -6.790   7.344 -30.215  1.00  0.00    -0.333 N 
HETATM    8  H   UNL     1      -7.770   7.629 -30.180  1.00  0.00     0.168 HD
BRANCH   7   9
HETATM    9  C   UNL     1      -5.938   8.193 -29.546  1.00  0.00     0.179 C 
HETATM   10  S   UNL     1      -6.302   9.354 -28.394  1.00  0.00    -0.040 SA
BRANCH   9  11
HETATM   11  N   UNL     1      -4.606   8.087 -29.881  1.00  0.00    -0.299 N 
HETATM   12  C   UNL     1      -3.872   8.798 -30.820  1.00  0.00     0.257 C 
HETATM   13  O   UNL     1      -4.193   9.901 -31.247  1.00  0.00    -0.267 OA
HETATM   14  H   UNL     1      -4.157   7.305 -29.422  1.00  0.00     0.171 HD
BRANCH  12  15
HETATM   15  C   UNL     1      -2.580   8.164 -31.204  1.00  0.00     0.035 A 
HETATM   16  C   UNL     1      -2.296   7.868 -32.544  1.00  0.00     0.053 A 
HETATM   17  C   UNL     1      -1.113   7.215 -32.893  1.00  0.00     0.069 A 
HETATM   18  C   UNL     1      -0.184   6.900 -31.903  1.00  0.00     0.037 A 
HETATM   19  C   UNL     1      -0.446   7.230 -30.567  1.00  0.00     0.004 A 
HETATM   20  C   UNL     1      -1.641   7.861 -30.216  1.00  0.00     0.017 A 
BRANCH  17  21
HETATM   21  O   UNL     1      -0.983   6.964 -34.229  1.00  0.00    -0.351 OA
BRANCH  21  22
HETATM   22  C   UNL     1      -0.957   5.593 -34.631  1.00  0.00     0.175 C 
BRANCH  22  23
HETATM   23  C   UNL     1      -2.397   5.087 -34.605  1.00  0.00     0.022 C 
HETATM   24  C   UNL     1      -2.666   4.190 -33.411  1.00  0.00     0.007 C 
ENDBRANCH  22  23
ENDBRANCH  21  22
ENDBRANCH  17  21
ENDBRANCH  12  15
ENDBRANCH   9  11
ENDBRANCH   7   9
ENDBRANCH   1   7
BRANCH   3  25
HETATM   25  O   UNL     1      -5.830   2.650 -29.592  1.00  0.00    -0.360 OA
HETATM   26  H   UNL     1      -6.612   2.507 -29.036  1.00  0.00     0.217 HD
ENDBRANCH   3  25
BRANCH   4  27
HETATM   27  C   UNL     1      -6.006   2.161 -32.473  1.00  0.00     0.183 A 
HETATM   28  O   UNL     1      -4.859   1.443 -32.258  1.00  0.00    -0.288 OA
HETATM   29  C   UNL     1      -5.082   0.245 -32.864  1.00  0.00     0.112 A 
HETATM   30  C   UNL     1      -6.338   0.300 -33.441  1.00  0.00     0.094 A 
HETATM   31  C   UNL     1      -4.225  -0.854 -32.895  1.00  0.00    -0.025 A 
HETATM   32  N   UNL     1      -6.907   1.530 -33.212  1.00  0.00    -0.221 NA
HETATM   33  C   UNL     1      -6.823  -0.828 -34.115  1.00  0.00     0.041 A 
HETATM   34  C   UNL     1      -6.016  -1.983 -34.161  1.00  0.00    -0.059 A 
HETATM   35  C   UNL     1      -4.740  -1.979 -33.569  1.00  0.00     0.016 A 
HETATM   36  C   UNL     1      -6.520  -3.207 -34.871  1.00  0.00     0.048 C 
HETATM   37  C   UNL     1      -2.878  -0.882 -32.250  1.00  0.00     0.051 C 
ENDBRANCH   4  27
TORSDOF 9
ENDMDL
MODEL 6
REMARK VINA RESULT:      -8.6      1.794      2.447
REMARK  9 active torsions:
REMARK  status: ('A' for Active; 'I' for Inactive)
REMARK    1  A    between atoms: C_2  and  C_3 
REMARK    2  A    between atoms: C_3  and  O_4 
REMARK    3  A    between atoms: O_4  and  C_5 
REMARK    4  A    between atoms: C_7  and  C_8 
REMARK       I    between atoms: C_8  and  N_9 
REMARK    5  A    between atoms: N_9  and  C_10 
REMARK    6  A    between atoms: C_10  and  N_11 
REMARK    7  A    between atoms: N_11  and  C_12 
REMARK    8  A    between atoms: C_14  and  O_15 
REMARK    9  A    between atoms: C_16  and  C_17 
ROOT
HETATM    1  C   UNL     1      -6.471   4.504 -30.859  1.00  0.00     0.036 A 
HETATM    2  C   UNL     1      -6.600   3.338 -30.106  1.00  0.00     0.067 A 
HETATM    3  C   UNL     1      -6.360   2.084 -30.680  1.00  0.00     0.082 A 
HETATM    4  C   UNL     1      -5.973   1.963 -32.023  1.00  0.00     0.050 A 
HETATM    5  C   UNL     1      -5.781   3.153 -32.750  1.00  0.00     0.021 A 
HETATM    6  C   UNL     1      -6.006   4.411 -32.169  1.00  0.00     0.030 A 
ENDROOT
BRANCH   1   7
HETATM    7  N   UNL     1      -6.751   5.782 -30.332  1.00  0.00    -0.333 N 
HETATM    8  H   UNL     1      -7.693   6.143 -30.491  1.00  0.00     0.168 HD
BRANCH   7   9
HETATM    9  C   UNL     1      -6.013   6.528 -29.441  1.00  0.00     0.179 C 
HETATM   10  S   UNL     1      -6.550   7.534 -28.214  1.00  0.00    -0.040 SA
BRANCH   9  11
HETATM   11  N   UNL     1      -4.645   6.450 -29.588  1.00  0.00    -0.299 N 
HETATM   12  C   UNL     1      -3.813   7.123 -30.471  1.00  0.00     0.257 C 
HETATM   13  O   UNL     1      -4.105   8.181 -31.016  1.00  0.00    -0.267 OA
HETATM   14  H   UNL     1      -4.240   5.719 -29.018  1.00  0.00     0.171 HD
BRANCH  12  15
HETATM   15  C   UNL     1      -2.463   6.514 -30.634  1.00  0.00     0.035 A 
HETATM   16  C   UNL     1      -1.427   6.814 -29.740  1.00  0.00     0.053 A 
HETATM   17  C   UNL     1      -0.147   6.293 -29.934  1.00  0.00     0.069 A 
HETATM   18  C   UNL     1       0.088   5.425 -30.999  1.00  0.00     0.037 A 
HETATM   19  C   UNL     1      -0.955   5.090 -31.871  1.00  0.00     0.004 A 
HETATM   20  C   UNL     1      -2.230   5.631 -31.691  1.00  0.00     0.017 A 
BRANCH  17  21
HETATM   21  O   UNL     1       0.769   6.695 -29.005  1.00  0.00    -0.351 OA
BRANCH  21  22
HETATM   22  C   UNL     1       0.439   6.477 -27.632  1.00  0.00     0.175 C 
BRANCH  22  23
HETATM   23  C   UNL     1       1.208   7.508 -26.811  1.00  0.00     0.022 C 
HETATM   24  C   UNL     1       1.654   8.690 -27.651  1.00  0.00     0.007 C 
ENDBRANCH  22  23
ENDBRANCH  21  22
ENDBRANCH  17  21
ENDBRANCH  12  15
ENDBRANCH   9  11
ENDBRANCH   7   9
ENDBRANCH   1   7
BRANCH   3  25
HETATM   25  O   UNL     1      -6.530   0.976 -29.893  1.00  0.00    -0.360 OA
HETATM   26  H   UNL     1      -6.591   1.242 -28.962  1.00  0.00     0.217 HD
ENDBRANCH   3  25
BRANCH   4  27
HETATM   27  C   UNL     1      -5.811   0.683 -32.716  1.00  0.00     0.183 A 
HETATM   28  O   UNL     1      -4.788  -0.131 -32.303  1.00  0.00    -0.288 OA
HETATM   29  C   UNL     1      -4.936  -1.270 -33.034  1.00  0.00     0.112 A 
HETATM   30  C   UNL     1      -6.020  -1.085 -33.873  1.00  0.00     0.094 A 
HETATM   31  C   UNL     1      -4.162  -2.426 -32.955  1.00  0.00    -0.025 A 
HETATM   32  N   UNL     1      -6.553   0.167 -33.685  1.00  0.00    -0.221 NA
HETATM   33  C   UNL     1      -6.402  -2.131 -34.724  1.00  0.00     0.041 A 
HETATM   34  C   UNL     1      -5.677  -3.338 -34.675  1.00  0.00    -0.059 A 
HETATM   35  C   UNL     1      -4.573  -3.466 -33.812  1.00  0.00     0.016 A 
HETATM   36  C   UNL     1      -6.075  -4.475 -35.572  1.00  0.00     0.048 C 
HETATM   37  C   UNL     1      -3.003  -2.594 -32.026  1.00  0.00     0.051 C 
ENDBRANCH   4  27
TORSDOF 9
ENDMDL
MODEL 7
REMARK VINA RESULT:      -8.4      5.694      9.042
REMARK  9 active torsions:
REMARK  status: ('A' for Active; 'I' for Inactive)
REMARK    1  A    between atoms: C_2  and  C_3 
REMARK    2  A    between atoms: C_3  and  O_4 
REMARK    3  A    between atoms: O_4  and  C_5 
REMARK    4  A    between atoms: C_7  and  C_8 
REMARK       I    between atoms: C_8  and  N_9 
REMARK    5  A    between atoms: N_9  and  C_10 
REMARK    6  A    between atoms: C_10  and  N_11 
REMARK    7  A    between atoms: N_11  and  C_12 
REMARK    8  A    between atoms: C_14  and  O_15 
REMARK    9  A    between atoms: C_16  and  C_17 
ROOT
HETATM    1  C   UNL     1      -8.475   4.170 -30.899  1.00  0.00     0.036 A 
HETATM    2  C   UNL     1      -9.150   2.973 -30.669  1.00  0.00     0.067 A 
HETATM    3  C   UNL     1      -8.698   1.775 -31.236  1.00  0.00     0.082 A 
HETATM    4  C   UNL     1      -7.551   1.742 -32.041  1.00  0.00     0.050 A 
HETATM    5  C   UNL     1      -6.842   2.946 -32.208  1.00  0.00     0.021 A 
HETATM    6  C   UNL     1      -7.285   4.144 -31.625  1.00  0.00     0.030 A 
ENDROOT
BRANCH   1   7
HETATM    7  N   UNL     1      -8.925   5.406 -30.386  1.00  0.00    -0.333 N 
HETATM    8  H   UNL     1      -8.641   5.631 -29.431  1.00  0.00     0.168 HD
BRANCH   7   9
HETATM    9  C   UNL     1      -9.506   6.457 -31.058  1.00  0.00     0.179 C 
HETATM   10  S   UNL     1      -9.353   8.101 -30.771  1.00  0.00    -0.040 SA
BRANCH   9  11
HETATM   11  N   UNL     1     -10.341   6.112 -32.099  1.00  0.00    -0.299 N 
HETATM   12  C   UNL     1     -11.525   5.389 -32.077  1.00  0.00     0.257 C 
HETATM   13  O   UNL     1     -12.229   5.258 -31.082  1.00  0.00    -0.267 OA
HETATM   14  H   UNL     1      -9.951   6.357 -32.999  1.00  0.00     0.171 HD
BRANCH  12  15
HETATM   15  C   UNL     1     -11.950   4.860 -33.403  1.00  0.00     0.035 A 
HETATM   16  C   UNL     1     -12.014   3.481 -33.639  1.00  0.00     0.053 A 
HETATM   17  C   UNL     1     -12.349   2.989 -34.902  1.00  0.00     0.069 A 
HETATM   18  C   UNL     1     -12.673   3.882 -35.922  1.00  0.00     0.037 A 
HETATM   19  C   UNL     1     -12.651   5.261 -35.679  1.00  0.00     0.004 A 
HETATM   20  C   UNL     1     -12.291   5.752 -34.423  1.00  0.00     0.017 A 
BRANCH  17  21
HETATM   21  O   UNL     1     -12.341   1.628 -34.995  1.00  0.00    -0.351 OA
BRANCH  21  22
HETATM   22  C   UNL     1     -12.198   0.895 -33.776  1.00  0.00     0.175 C 
BRANCH  22  23
HETATM   23  C   UNL     1     -13.397  -0.043 -33.668  1.00  0.00     0.022 C 
HETATM   24  C   UNL     1     -14.658   0.571 -34.245  1.00  0.00     0.007 C 
ENDBRANCH  22  23
ENDBRANCH  21  22
ENDBRANCH  17  21
ENDBRANCH  12  15
ENDBRANCH   9  11
ENDBRANCH   7   9
ENDBRANCH   1   7
BRANCH   3  25
HETATM   25  O   UNL     1      -9.423   0.638 -30.993  1.00  0.00    -0.360 OA
HETATM   26  H   UNL     1      -9.045   0.165 -30.235  1.00  0.00     0.217 HD
ENDBRANCH   3  25
BRANCH   4  27
HETATM   27  C   UNL     1      -7.084   0.548 -32.752  1.00  0.00     0.183 A 
HETATM   28  O   UNL     1      -5.803   0.129 -32.503  1.00  0.00    -0.288 OA
HETATM   29  C   UNL     1      -5.678  -1.032 -33.203  1.00  0.00     0.112 A 
HETATM   30  C   UNL     1      -6.874  -1.248 -33.864  1.00  0.00     0.094 A 
HETATM   31  C   UNL     1      -4.567  -1.872 -33.246  1.00  0.00    -0.025 A 
HETATM   32  N   UNL     1      -7.752  -0.226 -33.594  1.00  0.00    -0.221 NA
HETATM   33  C   UNL     1      -7.016  -2.403 -34.645  1.00  0.00     0.041 A 
HETATM   34  C   UNL     1      -5.938  -3.308 -34.711  1.00  0.00    -0.059 A 
HETATM   35  C   UNL     1      -4.739  -3.030 -34.030  1.00  0.00     0.016 A 
HETATM   36  C   UNL     1      -6.072  -4.556 -35.536  1.00  0.00     0.048 C 
HETATM   37  C   UNL     1      -3.293  -1.612 -32.509  1.00  0.00     0.051 C 
ENDBRANCH   4  27
TORSDOF 9
ENDMDL
MODEL 8
REMARK VINA RESULT:      -8.4      2.385      3.836
REMARK  9 active torsions:
REMARK  status: ('A' for Active; 'I' for Inactive)
REMARK    1  A    between atoms: C_2  and  C_3 
REMARK    2  A    between atoms: C_3  and  O_4 
REMARK    3  A    between atoms: O_4  and  C_5 
REMARK    4  A    between atoms: C_7  and  C_8 
REMARK       I    between atoms: C_8  and  N_9 
REMARK    5  A    between atoms: N_9  and  C_10 
REMARK    6  A    between atoms: C_10  and  N_11 
REMARK    7  A    between atoms: N_11  and  C_12 
REMARK    8  A    between atoms: C_14  and  O_15 
REMARK    9  A    between atoms: C_16  and  C_17 
ROOT
HETATM    1  C   UNL     1      -6.835   4.160 -30.299  1.00  0.00     0.036 A 
HETATM    2  C   UNL     1      -7.782   3.781 -31.249  1.00  0.00     0.067 A 
HETATM    3  C   UNL     1      -7.647   2.579 -31.954  1.00  0.00     0.082 A 
HETATM    4  C   UNL     1      -6.566   1.717 -31.720  1.00  0.00     0.050 A 
HETATM    5  C   UNL     1      -5.655   2.082 -30.710  1.00  0.00     0.021 A 
HETATM    6  C   UNL     1      -5.800   3.279 -29.991  1.00  0.00     0.030 A 
ENDROOT
BRANCH   1   7
HETATM    7  N   UNL     1      -6.907   5.385 -29.603  1.00  0.00    -0.333 N 
HETATM    8  H   UNL     1      -7.698   5.499 -28.966  1.00  0.00     0.168 HD
BRANCH   7   9
HETATM    9  C   UNL     1      -5.950   6.366 -29.483  1.00  0.00     0.179 C 
HETATM   10  S   UNL     1      -5.723   7.468 -28.240  1.00  0.00    -0.040 SA
BRANCH   9  11
HETATM   11  N   UNL     1      -5.066   6.469 -30.535  1.00  0.00    -0.299 N 
HETATM   12  C   UNL     1      -5.322   6.604 -31.892  1.00  0.00     0.257 C 
HETATM   13  O   UNL     1      -6.374   7.036 -32.351  1.00  0.00    -0.267 OA
HETATM   14  H   UNL     1      -4.108   6.327 -30.245  1.00  0.00     0.171 HD
BRANCH  12  15
HETATM   15  C   UNL     1      -4.165   6.284 -32.774  1.00  0.00     0.035 A 
HETATM   16  C   UNL     1      -2.873   6.719 -32.451  1.00  0.00     0.053 A 
HETATM   17  C   UNL     1      -1.803   6.474 -33.312  1.00  0.00     0.069 A 
HETATM   18  C   UNL     1      -2.015   5.744 -34.480  1.00  0.00     0.037 A 
HETATM   19  C   UNL     1      -3.297   5.271 -34.787  1.00  0.00     0.004 A 
HETATM   20  C   UNL     1      -4.372   5.539 -33.937  1.00  0.00     0.017 A 
BRANCH  17  21
HETATM   21  O   UNL     1      -0.610   6.982 -32.885  1.00  0.00    -0.351 OA
BRANCH  21  22
HETATM   22  C   UNL     1      -0.305   6.841 -31.496  1.00  0.00     0.175 C 
BRANCH  22  23
HETATM   23  C   UNL     1       0.223   5.424 -31.290  1.00  0.00     0.022 C 
HETATM   24  C   UNL     1       0.558   5.144 -29.836  1.00  0.00     0.007 C 
ENDBRANCH  22  23
ENDBRANCH  21  22
ENDBRANCH  17  21
ENDBRANCH  12  15
ENDBRANCH   9  11
ENDBRANCH   7   9
ENDBRANCH   1   7
BRANCH   3  25
HETATM   25  O   UNL     1      -8.598   2.277 -32.893  1.00  0.00    -0.360 OA
HETATM   26  H   UNL     1      -9.109   3.074 -33.109  1.00  0.00     0.217 HD
ENDBRANCH   3  25
BRANCH   4  27
HETATM   27  C   UNL     1      -6.305   0.501 -32.494  1.00  0.00     0.183 A 
HETATM   28  O   UNL     1      -5.172  -0.208 -32.190  1.00  0.00    -0.288 OA
HETATM   29  C   UNL     1      -5.239  -1.318 -32.976  1.00  0.00     0.112 A 
HETATM   30  C   UNL     1      -6.389  -1.218 -33.738  1.00  0.00     0.094 A 
HETATM   31  C   UNL     1      -4.335  -2.378 -33.010  1.00  0.00    -0.025 A 
HETATM   32  N   UNL     1      -7.046  -0.047 -33.447  1.00  0.00    -0.221 NA
HETATM   33  C   UNL     1      -6.705  -2.256 -34.624  1.00  0.00     0.041 A 
HETATM   34  C   UNL     1      -5.846  -3.371 -34.688  1.00  0.00    -0.059 A 
HETATM   35  C   UNL     1      -4.681  -3.414 -33.900  1.00  0.00     0.016 A 
HETATM   36  C   UNL     1      -6.171  -4.500 -35.625  1.00  0.00     0.048 C 
HETATM   37  C   UNL     1      -3.107  -2.458 -32.162  1.00  0.00     0.051 C 
ENDBRANCH   4  27
TORSDOF 9
ENDMDL
MODEL 9
REMARK VINA RESULT:      -8.4      2.686      9.245
REMARK  9 active torsions:
REMARK  status: ('A' for Active; 'I' for Inactive)
REMARK    1  A    between atoms: C_2  and  C_3 
REMARK    2  A    between atoms: C_3  and  O_4 
REMARK    3  A    between atoms: O_4  and  C_5 
REMARK    4  A    between atoms: C_7  and  C_8 
REMARK       I    between atoms: C_8  and  N_9 
REMARK    5  A    between atoms: N_9  and  C_10 
REMARK    6  A    between atoms: C_10  and  N_11 
REMARK    7  A    between atoms: N_11  and  C_12 
REMARK    8  A    between atoms: C_14  and  O_15 
REMARK    9  A    between atoms: C_16  and  C_17 
ROOT
HETATM    1  C   UNL     1      -6.688   4.994 -33.070  1.00  0.00     0.036 A 
HETATM    2  C   UNL     1      -5.486   5.296 -33.708  1.00  0.00     0.067 A 
HETATM    3  C   UNL     1      -4.364   5.695 -32.971  1.00  0.00     0.082 A 
HETATM    4  C   UNL     1      -4.411   5.792 -31.573  1.00  0.00     0.050 A 
HETATM    5  C   UNL     1      -5.611   5.418 -30.939  1.00  0.00     0.021 A 
HETATM    6  C   UNL     1      -6.730   5.002 -31.676  1.00  0.00     0.030 A 
ENDROOT
BRANCH   1   7
HETATM    7  N   UNL     1      -7.854   4.635 -33.778  1.00  0.00    -0.333 N 
HETATM    8  H   UNL     1      -8.250   5.350 -34.391  1.00  0.00     0.168 HD
BRANCH   7   9
HETATM    9  C   UNL     1      -8.417   3.390 -33.938  1.00  0.00     0.179 C 
HETATM   10  S   UNL     1     -10.018   2.989 -34.225  1.00  0.00    -0.040 SA
BRANCH   9  11
HETATM   11  N   UNL     1      -7.549   2.325 -33.830  1.00  0.00    -0.299 N 
HETATM   12  C   UNL     1      -7.268   1.522 -32.734  1.00  0.00     0.257 C 
HETATM   13  O   UNL     1      -8.022   1.382 -31.777  1.00  0.00    -0.267 OA
HETATM   14  H   UNL     1      -6.988   2.203 -34.663  1.00  0.00     0.171 HD
BRANCH  12  15
HETATM   15  C   UNL     1      -6.007   0.738 -32.849  1.00  0.00     0.035 A 
HETATM   16  C   UNL     1      -6.021  -0.577 -33.330  1.00  0.00     0.053 A 
HETATM   17  C   UNL     1      -4.847  -1.331 -33.375  1.00  0.00     0.069 A 
HETATM   18  C   UNL     1      -3.642  -0.750 -32.983  1.00  0.00     0.037 A 
HETATM   19  C   UNL     1      -3.617   0.578 -32.540  1.00  0.00     0.004 A 
HETATM   20  C   UNL     1      -4.796   1.323 -32.472  1.00  0.00     0.017 A 
BRANCH  17  21
HETATM   21  O   UNL     1      -5.015  -2.605 -33.836  1.00  0.00    -0.351 OA
BRANCH  21  22
HETATM   22  C   UNL     1      -5.881  -2.779 -34.959  1.00  0.00     0.175 C 
BRANCH  22  23
HETATM   23  C   UNL     1      -6.243  -4.260 -35.027  1.00  0.00     0.022 C 
HETATM   24  C   UNL     1      -5.104  -5.149 -34.562  1.00  0.00     0.007 C 
ENDBRANCH  22  23
ENDBRANCH  21  22
ENDBRANCH  17  21
ENDBRANCH  12  15
ENDBRANCH   9  11
ENDBRANCH   7   9
ENDBRANCH   1   7
BRANCH   3  25
HETATM   25  O   UNL     1      -3.221   6.003 -33.661  1.00  0.00    -0.360 OA
HETATM   26  H   UNL     1      -2.522   5.369 -33.436  1.00  0.00     0.217 HD
ENDBRANCH   3  25
BRANCH   4  27
HETATM   27  C   UNL     1      -3.312   6.304 -30.751  1.00  0.00     0.183 A 
HETATM   28  O   UNL     1      -2.070   5.760 -30.950  1.00  0.00    -0.288 OA
HETATM   29  C   UNL     1      -1.244   6.481 -30.144  1.00  0.00     0.112 A 
HETATM   30  C   UNL     1      -2.023   7.408 -29.474  1.00  0.00     0.094 A 
HETATM   31  C   UNL     1       0.136   6.341 -30.015  1.00  0.00    -0.025 A 
HETATM   32  N   UNL     1      -3.340   7.271 -29.845  1.00  0.00    -0.221 NA
HETATM   33  C   UNL     1      -1.403   8.299 -28.589  1.00  0.00     0.041 A 
HETATM   34  C   UNL     1      -0.004   8.228 -28.432  1.00  0.00    -0.059 A 
HETATM   35  C   UNL     1       0.737   7.256 -29.128  1.00  0.00     0.016 A 
HETATM   36  C   UNL     1       0.682   9.180 -27.495  1.00  0.00     0.048 C 
HETATM   37  C   UNL     1       0.948   5.335 -30.763  1.00  0.00     0.051 C 
ENDBRANCH   4  27
TORSDOF 9
ENDMDL
MODEL 10
REMARK VINA RESULT:      -8.3      2.551      8.410
REMARK  9 active torsions:
REMARK  status: ('A' for Active; 'I' for Inactive)
REMARK    1  A    between atoms: C_2  and  C_3 
REMARK    2  A    between atoms: C_3  and  O_4 
REMARK    3  A    between atoms: O_4  and  C_5 
REMARK    4  A    between atoms: C_7  and  C_8 
REMARK       I    between atoms: C_8  and  N_9 
REMARK    5  A    between atoms: N_9  and  C_10 
REMARK    6  A    between atoms: C_10  and  N_11 
REMARK    7  A    between atoms: N_11  and  C_12 
REMARK    8  A    between atoms: C_14  and  O_15 
REMARK    9  A    between atoms: C_16  and  C_17 
ROOT
HETATM    1  C   UNL     1      -7.543   5.221 -31.601  1.00  0.00     0.036 A 
HETATM    2  C   UNL     1      -6.996   4.488 -30.548  1.00  0.00     0.067 A 
HETATM    3  C   UNL     1      -5.772   4.857 -29.978  1.00  0.00     0.082 A 
HETATM    4  C   UNL     1      -5.065   5.976 -30.440  1.00  0.00     0.050 A 
HETATM    5  C   UNL     1      -5.662   6.744 -31.457  1.00  0.00     0.021 A 
HETATM    6  C   UNL     1      -6.898   6.385 -32.017  1.00  0.00     0.030 A 
ENDROOT
BRANCH   1   7
HETATM    7  N   UNL     1      -8.749   4.855 -32.234  1.00  0.00    -0.333 N 
HETATM    8  H   UNL     1      -9.611   5.100 -31.745  1.00  0.00     0.168 HD
BRANCH   7   9
HETATM    9  C   UNL     1      -8.946   4.411 -33.522  1.00  0.00     0.179 C 
HETATM   10  S   UNL     1      -9.862   5.103 -34.744  1.00  0.00    -0.040 SA
BRANCH   9  11
HETATM   11  N   UNL     1      -8.319   3.228 -33.848  1.00  0.00    -0.299 N 
HETATM   12  C   UNL     1      -8.772   1.924 -33.716  1.00  0.00     0.257 C 
HETATM   13  O   UNL     1      -9.956   1.615 -33.638  1.00  0.00    -0.267 OA
HETATM   14  H   UNL     1      -7.359   3.370 -34.133  1.00  0.00     0.171 HD
BRANCH  12  15
HETATM   15  C   UNL     1      -7.704   0.888 -33.785  1.00  0.00     0.035 A 
HETATM   16  C   UNL     1      -6.732   0.791 -32.780  1.00  0.00     0.053 A 
HETATM   17  C   UNL     1      -5.695  -0.137 -32.880  1.00  0.00     0.069 A 
HETATM   18  C   UNL     1      -5.656  -1.009 -33.967  1.00  0.00     0.037 A 
HETATM   19  C   UNL     1      -6.648  -0.943 -34.953  1.00  0.00     0.004 A 
HETATM   20  C   UNL     1      -7.672   0.003 -34.865  1.00  0.00     0.017 A 
BRANCH  17  21
HETATM   21  O   UNL     1      -4.804  -0.099 -31.846  1.00  0.00    -0.351 OA
BRANCH  21  22
HETATM   22  C   UNL     1      -3.519   0.462 -32.119  1.00  0.00     0.175 C 
BRANCH  22  23
HETATM   23  C   UNL     1      -3.461   1.820 -31.426  1.00  0.00     0.022 C 
HETATM   24  C   UNL     1      -3.518   2.970 -32.415  1.00  0.00     0.007 C 
ENDBRANCH  22  23
ENDBRANCH  21  22
ENDBRANCH  17  21
ENDBRANCH  12  15
ENDBRANCH   9  11
ENDBRANCH   7   9
ENDBRANCH   1   7
BRANCH   3  25
HETATM   25  O   UNL     1      -5.277   4.079 -28.965  1.00  0.00    -0.360 OA
HETATM   26  H   UNL     1      -5.921   3.390 -28.737  1.00  0.00     0.217 HD
ENDBRANCH   3  25
BRANCH   4  27
HETATM   27  C   UNL     1      -3.732   6.356 -29.965  1.00  0.00     0.183 A 
HETATM   28  O   UNL     1      -2.654   5.853 -30.648  1.00  0.00    -0.288 OA
HETATM   29  C   UNL     1      -1.573   6.440 -30.066  1.00  0.00     0.112 A 
HETATM   30  C   UNL     1      -2.039   7.246 -29.042  1.00  0.00     0.094 A 
HETATM   31  C   UNL     1      -0.236   6.285 -30.428  1.00  0.00    -0.025 A 
HETATM   32  N   UNL     1      -3.409   7.166 -28.968  1.00  0.00    -0.221 NA
HETATM   33  C   UNL     1      -1.117   7.988 -28.292  1.00  0.00     0.041 A 
HETATM   34  C   UNL     1       0.249   7.897 -28.624  1.00  0.00    -0.059 A 
HETATM   35  C   UNL     1       0.669   7.050 -29.666  1.00  0.00     0.016 A 
HETATM   36  C   UNL     1       1.254   8.691 -27.839  1.00  0.00     0.048 C 
HETATM   37  C   UNL     1       0.231   5.413 -31.547  1.00  0.00     0.051 C 
ENDBRANCH   4  27
TORSDOF 9
ENDMDL
