MODEL 1
REMARK VINA RESULT:      -8.0      0.000      0.000
REMARK  6 active torsions:
REMARK  status: ('A' for Active; 'I' for Inactive)
REMARK    1  A    between atoms: C_2  and  C_3 
REMARK    2  A    between atoms: C_2  and  C_18 
REMARK       I    between atoms: C_3  and  N_4 
REMARK    3  A    between atoms: N_4  and  C_5 
REMARK    4  A    between atoms: C_9  and  C_10 
REMARK    5  A    between atoms: C_18  and  C_19 
REMARK    6  A    between atoms: C_22  and  O_23 
ROOT
HETATM    1  C   UNL     1      -9.767   2.132 -33.626  1.00  0.00     0.227 C 
HETATM    2  N   UNL     1      -9.069   1.642 -34.721  1.00  0.00    -0.312 N 
HETATM    3  O   UNL     1      -9.446   1.929 -32.456  1.00  0.00    -0.273 OA
HETATM    4  H   UNL     1      -9.386   1.856 -35.659  1.00  0.00     0.170 HD
ENDROOT
BRANCH   2   5
HETATM    5  C   UNL     1      -7.996   0.787 -34.578  1.00  0.00     0.126 A 
HETATM    6  N   UNL     1      -6.759   1.159 -34.131  1.00  0.00    -0.262 N 
HETATM    7  H   UNL     1      -6.467   2.097 -33.865  1.00  0.00     0.191 HD
HETATM    8  N   UNL     1      -5.893   0.137 -34.032  1.00  0.00    -0.172 NA
HETATM    9  C   UNL     1      -6.587  -0.939 -34.442  1.00  0.00     0.092 A 
HETATM   10  C   UNL     1      -7.912  -0.563 -34.810  1.00  0.00     0.084 A 
BRANCH   9  11
HETATM   11  C   UNL     1      -5.989  -2.275 -34.452  1.00  0.00     0.012 A 
HETATM   12  C   UNL     1      -4.656  -2.490 -34.111  1.00  0.00     0.130 A 
HETATM   13  N   UNL     1      -4.039  -3.700 -34.123  1.00  0.00    -0.272 NA
HETATM   14  C   UNL     1      -4.793  -4.757 -34.491  1.00  0.00     0.116 A 
HETATM   15  C   UNL     1      -6.128  -4.660 -34.844  1.00  0.00     0.020 A 
HETATM   16  C   UNL     1      -6.729  -3.403 -34.822  1.00  0.00     0.017 A 
ENDBRANCH   9  11
ENDBRANCH   2   5
BRANCH   1  17
HETATM   17  C   UNL     1     -10.980   2.965 -34.025  1.00  0.00     0.078 C 
HETATM   18  C   UNL     1     -10.545   4.073 -34.986  1.00  0.00     0.020 C 
BRANCH  17  19
HETATM   19  C   UNL     1     -11.681   3.527 -32.775  1.00  0.00     0.052 C 
BRANCH  19  20
HETATM   20  C   UNL     1     -13.134   3.121 -32.702  1.00  0.00    -0.057 A 
HETATM   21  C   UNL     1     -14.060   3.945 -32.048  1.00  0.00     0.010 A 
HETATM   22  C   UNL     1     -15.399   3.562 -31.951  1.00  0.00     0.037 A 
HETATM   23  C   UNL     1     -15.838   2.356 -32.502  1.00  0.00     0.068 A 
HETATM   24  C   UNL     1     -14.922   1.537 -33.160  1.00  0.00     0.037 A 
HETATM   25  C   UNL     1     -13.578   1.917 -33.260  1.00  0.00     0.010 A 
BRANCH  23  26
HETATM   26  O   UNL     1     -17.170   2.102 -32.328  1.00  0.00    -0.356 OA
HETATM   27  C   UNL     1     -17.998   3.211 -31.998  1.00  0.00     0.210 C 
ENDBRANCH  23  26
ENDBRANCH  19  20
ENDBRANCH  17  19
ENDBRANCH   1  17
TORSDOF 6
ENDMDL
MODEL 2
REMARK VINA RESULT:      -8.0      2.970     10.029
REMARK  6 active torsions:
REMARK  status: ('A' for Active; 'I' for Inactive)
REMARK    1  A    between atoms: C_2  and  C_3 
REMARK    2  A    between atoms: C_2  and  C_18 
REMARK       I    between atoms: C_3  and  N_4 
REMARK    3  A    between atoms: N_4  and  C_5 
REMARK    4  A    between atoms: C_9  and  C_10 
REMARK    5  A    between atoms: C_18  and  C_19 
REMARK    6  A    between atoms: C_22  and  O_23 
ROOT
HETATM    1  C   UNL     1      -9.749   0.661 -33.322  1.00  0.00     0.227 C 
HETATM    2  N   UNL     1     -10.591   1.648 -33.813  1.00  0.00    -0.312 N 
HETATM    3  O   UNL     1     -10.132  -0.321 -32.688  1.00  0.00    -0.273 OA
HETATM    4  H   UNL     1     -10.206   2.426 -34.336  1.00  0.00     0.170 HD
ENDROOT
BRANCH   2   5
HETATM    5  C   UNL     1     -11.942   1.657 -33.538  1.00  0.00     0.126 A 
HETATM    6  N   UNL     1     -12.749   0.553 -33.561  1.00  0.00    -0.262 N 
HETATM    7  H   UNL     1     -12.469  -0.397 -33.794  1.00  0.00     0.191 HD
HETATM    8  N   UNL     1     -14.020   0.808 -33.208  1.00  0.00    -0.172 NA
HETATM    9  C   UNL     1     -14.046   2.129 -32.957  1.00  0.00     0.092 A 
HETATM   10  C   UNL     1     -12.757   2.699 -33.172  1.00  0.00     0.084 A 
BRANCH   9  11
HETATM   11  C   UNL     1     -15.269   2.796 -32.509  1.00  0.00     0.012 A 
HETATM   12  C   UNL     1     -16.505   2.156 -32.516  1.00  0.00     0.130 A 
HETATM   13  N   UNL     1     -17.676   2.729 -32.134  1.00  0.00    -0.272 NA
HETATM   14  C   UNL     1     -17.612   4.011 -31.717  1.00  0.00     0.116 A 
HETATM   15  C   UNL     1     -16.438   4.741 -31.664  1.00  0.00     0.020 A 
HETATM   16  C   UNL     1     -15.254   4.123 -32.064  1.00  0.00     0.017 A 
ENDBRANCH   9  11
ENDBRANCH   2   5
BRANCH   1  17
HETATM   17  C   UNL     1      -8.283   0.915 -33.659  1.00  0.00     0.078 C 
HETATM   18  C   UNL     1      -8.066   2.411 -33.895  1.00  0.00     0.020 C 
BRANCH  17  19
HETATM   19  C   UNL     1      -7.856   0.071 -34.872  1.00  0.00     0.052 C 
BRANCH  19  20
HETATM   20  C   UNL     1      -6.709  -0.858 -34.549  1.00  0.00    -0.057 A 
HETATM   21  C   UNL     1      -6.783  -2.212 -34.900  1.00  0.00     0.010 A 
HETATM   22  C   UNL     1      -5.740  -3.083 -34.577  1.00  0.00     0.037 A 
HETATM   23  C   UNL     1      -4.609  -2.621 -33.901  1.00  0.00     0.068 A 
HETATM   24  C   UNL     1      -4.528  -1.272 -33.556  1.00  0.00     0.037 A 
HETATM   25  C   UNL     1      -5.572  -0.396 -33.878  1.00  0.00     0.010 A 
BRANCH  23  26
HETATM   26  O   UNL     1      -3.670  -3.580 -33.642  1.00  0.00    -0.356 OA
HETATM   27  C   UNL     1      -4.037  -4.928 -33.908  1.00  0.00     0.210 C 
ENDBRANCH  23  26
ENDBRANCH  19  20
ENDBRANCH  17  19
ENDBRANCH   1  17
TORSDOF 6
ENDMDL
MODEL 3
REMARK VINA RESULT:      -7.9      5.544      9.273
REMARK  6 active torsions:
REMARK  status: ('A' for Active; 'I' for Inactive)
REMARK    1  A    between atoms: C_2  and  C_3 
REMARK    2  A    between atoms: C_2  and  C_18 
REMARK       I    between atoms: C_3  and  N_4 
REMARK    3  A    between atoms: N_4  and  C_5 
REMARK    4  A    between atoms: C_9  and  C_10 
REMARK    5  A    between atoms: C_18  and  C_19 
REMARK    6  A    between atoms: C_22  and  O_23 
ROOT
HETATM    1  C   UNL     1      -6.432   1.452 -32.597  1.00  0.00     0.227 C 
HETATM    2  N   UNL     1      -5.571   2.339 -33.228  1.00  0.00    -0.312 N 
HETATM    3  O   UNL     1      -6.326   1.104 -31.422  1.00  0.00    -0.273 OA
HETATM    4  H   UNL     1      -5.724   2.588 -34.198  1.00  0.00     0.170 HD
ENDROOT
BRANCH   2   5
HETATM    5  C   UNL     1      -4.447   2.833 -32.601  1.00  0.00     0.126 A 
HETATM    6  N   UNL     1      -3.718   2.157 -31.662  1.00  0.00    -0.262 N 
HETATM    7  H   UNL     1      -3.914   1.227 -31.297  1.00  0.00     0.191 HD
HETATM    8  N   UNL     1      -2.637   2.829 -31.233  1.00  0.00    -0.172 NA
HETATM    9  C   UNL     1      -2.667   3.991 -31.909  1.00  0.00     0.092 A 
HETATM   10  C   UNL     1      -3.804   4.035 -32.768  1.00  0.00     0.084 A 
BRANCH   9  11
HETATM   11  C   UNL     1      -1.622   5.001 -31.738  1.00  0.00     0.012 A 
HETATM   12  C   UNL     1      -0.647   4.894 -30.749  1.00  0.00     0.130 A 
HETATM   13  N   UNL     1       0.333   5.808 -30.528  1.00  0.00    -0.272 NA
HETATM   14  C   UNL     1       0.347   6.887 -31.339  1.00  0.00     0.116 A 
HETATM   15  C   UNL     1      -0.569   7.092 -32.356  1.00  0.00     0.020 A 
HETATM   16  C   UNL     1      -1.563   6.134 -32.556  1.00  0.00     0.017 A 
ENDBRANCH   9  11
ENDBRANCH   2   5
BRANCH   1  17
HETATM   17  C   UNL     1      -7.542   0.952 -33.517  1.00  0.00     0.078 C 
HETATM   18  C   UNL     1      -8.390  -0.084 -32.776  1.00  0.00     0.020 C 
BRANCH  17  19
HETATM   19  C   UNL     1      -6.946   0.387 -34.819  1.00  0.00     0.052 C 
BRANCH  19  20
HETATM   20  C   UNL     1      -6.392  -1.007 -34.637  1.00  0.00    -0.057 A 
HETATM   21  C   UNL     1      -5.096  -1.187 -34.136  1.00  0.00     0.010 A 
HETATM   22  C   UNL     1      -4.566  -2.471 -33.994  1.00  0.00     0.037 A 
HETATM   23  C   UNL     1      -5.316  -3.594 -34.347  1.00  0.00     0.068 A 
HETATM   24  C   UNL     1      -6.609  -3.421 -34.839  1.00  0.00     0.037 A 
HETATM   25  C   UNL     1      -7.144  -2.135 -34.983  1.00  0.00     0.010 A 
BRANCH  23  26
HETATM   26  O   UNL     1      -4.674  -4.787 -34.164  1.00  0.00    -0.356 OA
HETATM   27  C   UNL     1      -3.436  -4.750 -33.464  1.00  0.00     0.210 C 
ENDBRANCH  23  26
ENDBRANCH  19  20
ENDBRANCH  17  19
ENDBRANCH   1  17
TORSDOF 6
ENDMDL
MODEL 4
REMARK VINA RESULT:      -7.8      5.166      9.031
REMARK  6 active torsions:
REMARK  status: ('A' for Active; 'I' for Inactive)
REMARK    1  A    between atoms: C_2  and  C_3 
REMARK    2  A    between atoms: C_2  and  C_18 
REMARK       I    between atoms: C_3  and  N_4 
REMARK    3  A    between atoms: N_4  and  C_5 
REMARK    4  A    between atoms: C_9  and  C_10 
REMARK    5  A    between atoms: C_18  and  C_19 
REMARK    6  A    between atoms: C_22  and  O_23 
ROOT
HETATM    1  C   UNL     1      -7.654   2.506 -33.559  1.00  0.00     0.227 C 
HETATM    2  N   UNL     1      -6.411   2.700 -34.144  1.00  0.00    -0.312 N 
HETATM    3  O   UNL     1      -8.202   3.319 -32.815  1.00  0.00    -0.273 OA
HETATM    4  H   UNL     1      -6.024   1.989 -34.754  1.00  0.00     0.170 HD
ENDROOT
BRANCH   2   5
HETATM    5  C   UNL     1      -5.632   3.799 -33.852  1.00  0.00     0.126 A 
HETATM    6  N   UNL     1      -6.080   5.091 -33.843  1.00  0.00    -0.262 N 
HETATM    7  H   UNL     1      -7.023   5.407 -34.061  1.00  0.00     0.191 HD
HETATM    8  N   UNL     1      -5.143   5.983 -33.480  1.00  0.00    -0.172 NA
HETATM    9  C   UNL     1      -4.040   5.247 -33.256  1.00  0.00     0.092 A 
HETATM   10  C   UNL     1      -4.307   3.868 -33.497  1.00  0.00     0.084 A 
BRANCH   9  11
HETATM   11  C   UNL     1      -2.791   5.863 -32.806  1.00  0.00     0.012 A 
HETATM   12  C   UNL     1      -2.489   7.197 -33.067  1.00  0.00     0.130 A 
HETATM   13  N   UNL     1      -1.339   7.817 -32.696  1.00  0.00    -0.272 NA
HETATM   14  C   UNL     1      -0.440   7.068 -32.024  1.00  0.00     0.116 A 
HETATM   15  C   UNL     1      -0.638   5.735 -31.705  1.00  0.00     0.020 A 
HETATM   16  C   UNL     1      -1.830   5.130 -32.102  1.00  0.00     0.017 A 
ENDBRANCH   9  11
ENDBRANCH   2   5
BRANCH   1  17
HETATM   17  C   UNL     1      -8.285   1.170 -33.941  1.00  0.00     0.078 C 
HETATM   18  C   UNL     1      -9.792   1.354 -34.134  1.00  0.00     0.020 C 
BRANCH  17  19
HETATM   19  C   UNL     1      -7.964   0.101 -32.881  1.00  0.00     0.052 C 
BRANCH  19  20
HETATM   20  C   UNL     1      -6.858  -0.829 -33.323  1.00  0.00    -0.057 A 
HETATM   21  C   UNL     1      -7.126  -1.848 -34.246  1.00  0.00     0.010 A 
HETATM   22  C   UNL     1      -6.117  -2.730 -34.636  1.00  0.00     0.037 A 
HETATM   23  C   UNL     1      -4.827  -2.613 -34.114  1.00  0.00     0.068 A 
HETATM   24  C   UNL     1      -4.553  -1.595 -33.201  1.00  0.00     0.037 A 
HETATM   25  C   UNL     1      -5.563  -0.709 -32.808  1.00  0.00     0.010 A 
BRANCH  23  26
HETATM   26  O   UNL     1      -3.939  -3.545 -34.576  1.00  0.00    -0.356 OA
HETATM   27  C   UNL     1      -3.746  -4.701 -33.770  1.00  0.00     0.210 C 
ENDBRANCH  23  26
ENDBRANCH  19  20
ENDBRANCH  17  19
ENDBRANCH   1  17
TORSDOF 6
ENDMDL
MODEL 5
REMARK VINA RESULT:      -7.8      5.289      8.404
REMARK  6 active torsions:
REMARK  status: ('A' for Active; 'I' for Inactive)
REMARK    1  A    between atoms: C_2  and  C_3 
REMARK    2  A    between atoms: C_2  and  C_18 
REMARK       I    between atoms: C_3  and  N_4 
REMARK    3  A    between atoms: N_4  and  C_5 
REMARK    4  A    between atoms: C_9  and  C_10 
REMARK    5  A    between atoms: C_18  and  C_19 
REMARK    6  A    between atoms: C_22  and  O_23 
ROOT
HETATM    1  C   UNL     1      -6.127   3.664 -33.461  1.00  0.00     0.227 C 
HETATM    2  N   UNL     1      -6.576   2.493 -32.867  1.00  0.00    -0.312 N 
HETATM    3  O   UNL     1      -5.766   3.749 -34.634  1.00  0.00    -0.273 OA
HETATM    4  H   UNL     1      -6.865   2.499 -31.896  1.00  0.00     0.170 HD
ENDROOT
BRANCH   2   5
HETATM    5  C   UNL     1      -6.559   1.286 -33.532  1.00  0.00     0.126 A 
HETATM    6  N   UNL     1      -7.035   1.088 -34.799  1.00  0.00    -0.262 N 
HETATM    7  H   UNL     1      -7.468   1.786 -35.399  1.00  0.00     0.191 HD
HETATM    8  N   UNL     1      -6.863  -0.166 -35.248  1.00  0.00    -0.172 NA
HETATM    9  C   UNL     1      -6.264  -0.814 -34.234  1.00  0.00     0.092 A 
HETATM   10  C   UNL     1      -6.073   0.067 -33.129  1.00  0.00     0.084 A 
BRANCH   9  11
HETATM   11  C   UNL     1      -5.878  -2.221 -34.348  1.00  0.00     0.012 A 
HETATM   12  C   UNL     1      -4.578  -2.652 -34.093  1.00  0.00     0.130 A 
HETATM   13  N   UNL     1      -4.155  -3.938 -34.203  1.00  0.00    -0.272 NA
HETATM   14  C   UNL     1      -5.077  -4.847 -34.585  1.00  0.00     0.116 A 
HETATM   15  C   UNL     1      -6.397  -4.530 -34.859  1.00  0.00     0.020 A 
HETATM   16  C   UNL     1      -6.798  -3.200 -34.736  1.00  0.00     0.017 A 
ENDBRANCH   9  11
ENDBRANCH   2   5
BRANCH   1  17
HETATM   17  C   UNL     1      -6.132   4.852 -32.504  1.00  0.00     0.078 C 
HETATM   18  C   UNL     1      -7.561   5.378 -32.352  1.00  0.00     0.020 C 
BRANCH  17  19
HETATM   19  C   UNL     1      -5.163   5.942 -32.994  1.00  0.00     0.052 C 
BRANCH  19  20
HETATM   20  C   UNL     1      -3.726   5.627 -32.652  1.00  0.00    -0.057 A 
HETATM   21  C   UNL     1      -3.332   5.516 -31.313  1.00  0.00     0.010 A 
HETATM   22  C   UNL     1      -1.999   5.255 -30.989  1.00  0.00     0.037 A 
HETATM   23  C   UNL     1      -1.039   5.100 -31.990  1.00  0.00     0.068 A 
HETATM   24  C   UNL     1      -1.427   5.203 -33.326  1.00  0.00     0.037 A 
HETATM   25  C   UNL     1      -2.763   5.464 -33.655  1.00  0.00     0.010 A 
BRANCH  23  26
HETATM   26  O   UNL     1       0.227   4.856 -31.533  1.00  0.00    -0.356 OA
HETATM   27  C   UNL     1       0.509   5.236 -30.192  1.00  0.00     0.210 C 
ENDBRANCH  23  26
ENDBRANCH  19  20
ENDBRANCH  17  19
ENDBRANCH   1  17
TORSDOF 6
ENDMDL
MODEL 6
REMARK VINA RESULT:      -7.6      6.552      9.719
REMARK  6 active torsions:
REMARK  status: ('A' for Active; 'I' for Inactive)
REMARK    1  A    between atoms: C_2  and  C_3 
REMARK    2  A    between atoms: C_2  and  C_18 
REMARK       I    between atoms: C_3  and  N_4 
REMARK    3  A    between atoms: N_4  and  C_5 
REMARK    4  A    between atoms: C_9  and  C_10 
REMARK    5  A    between atoms: C_18  and  C_19 
REMARK    6  A    between atoms: C_22  and  O_23 
ROOT
HETATM    1  C   UNL     1      -5.343   3.549 -33.731  1.00  0.00     0.227 C 
HETATM    2  N   UNL     1      -4.400   3.175 -32.785  1.00  0.00    -0.312 N 
HETATM    3  O   UNL     1      -5.297   4.597 -34.374  1.00  0.00    -0.273 OA
HETATM    4  H   UNL     1      -4.496   2.291 -32.297  1.00  0.00     0.170 HD
ENDROOT
BRANCH   2   5
HETATM    5  C   UNL     1      -3.369   4.012 -32.411  1.00  0.00     0.126 A 
HETATM    6  N   UNL     1      -2.339   4.390 -33.228  1.00  0.00    -0.262 N 
HETATM    7  H   UNL     1      -2.191   4.099 -34.191  1.00  0.00     0.191 HD
HETATM    8  N   UNL     1      -1.484   5.250 -32.651  1.00  0.00    -0.172 NA
HETATM    9  C   UNL     1      -1.967   5.431 -31.409  1.00  0.00     0.092 A 
HETATM   10  C   UNL     1      -3.145   4.652 -31.218  1.00  0.00     0.084 A 
BRANCH   9  11
HETATM   11  C   UNL     1      -1.318   6.339 -30.462  1.00  0.00     0.012 A 
HETATM   12  C   UNL     1      -2.049   7.127 -29.576  1.00  0.00     0.130 A 
HETATM   13  N   UNL     1      -1.506   8.003 -28.692  1.00  0.00    -0.272 NA
HETATM   14  C   UNL     1      -0.160   8.099 -28.686  1.00  0.00     0.116 A 
HETATM   15  C   UNL     1       0.664   7.361 -29.519  1.00  0.00     0.020 A 
HETATM   16  C   UNL     1       0.073   6.471 -30.415  1.00  0.00     0.017 A 
ENDBRANCH   9  11
ENDBRANCH   2   5
BRANCH   1  17
HETATM   17  C   UNL     1      -6.451   2.514 -33.901  1.00  0.00     0.078 C 
HETATM   18  C   UNL     1      -7.813   3.208 -33.824  1.00  0.00     0.020 C 
BRANCH  17  19
HETATM   19  C   UNL     1      -6.310   1.399 -32.850  1.00  0.00     0.052 C 
BRANCH  19  20
HETATM   20  C   UNL     1      -6.024   0.055 -33.477  1.00  0.00    -0.057 A 
HETATM   21  C   UNL     1      -6.996  -0.573 -34.265  1.00  0.00     0.010 A 
HETATM   22  C   UNL     1      -6.750  -1.830 -34.823  1.00  0.00     0.037 A 
HETATM   23  C   UNL     1      -5.533  -2.480 -34.605  1.00  0.00     0.068 A 
HETATM   24  C   UNL     1      -4.559  -1.855 -33.828  1.00  0.00     0.037 A 
HETATM   25  C   UNL     1      -4.802  -0.595 -33.267  1.00  0.00     0.010 A 
BRANCH  23  26
HETATM   26  O   UNL     1      -5.428  -3.705 -35.203  1.00  0.00    -0.356 OA
HETATM   27  C   UNL     1      -6.600  -4.509 -35.229  1.00  0.00     0.210 C 
ENDBRANCH  23  26
ENDBRANCH  19  20
ENDBRANCH  17  19
ENDBRANCH   1  17
TORSDOF 6
ENDMDL
MODEL 7
REMARK VINA RESULT:      -7.5      9.213     11.749
REMARK  6 active torsions:
REMARK  status: ('A' for Active; 'I' for Inactive)
REMARK    1  A    between atoms: C_2  and  C_3 
REMARK    2  A    between atoms: C_2  and  C_18 
REMARK       I    between atoms: C_3  and  N_4 
REMARK    3  A    between atoms: N_4  and  C_5 
REMARK    4  A    between atoms: C_9  and  C_10 
REMARK    5  A    between atoms: C_18  and  C_19 
REMARK    6  A    between atoms: C_22  and  O_23 
ROOT
HETATM    1  C   UNL     1      -2.301   5.909 -30.866  1.00  0.00     0.227 C 
HETATM    2  N   UNL     1      -2.044   4.621 -31.313  1.00  0.00    -0.312 N 
HETATM    3  O   UNL     1      -3.395   6.291 -30.452  1.00  0.00    -0.273 OA
HETATM    4  H   UNL     1      -1.115   4.373 -31.634  1.00  0.00     0.170 HD
ENDROOT
BRANCH   2   5
HETATM    5  C   UNL     1      -3.042   3.675 -31.424  1.00  0.00     0.126 A 
HETATM    6  N   UNL     1      -4.124   3.585 -30.593  1.00  0.00    -0.262 N 
HETATM    7  H   UNL     1      -4.325   4.180 -29.792  1.00  0.00     0.191 HD
HETATM    8  N   UNL     1      -4.983   2.610 -30.934  1.00  0.00    -0.172 NA
HETATM    9  C   UNL     1      -4.436   2.036 -32.019  1.00  0.00     0.092 A 
HETATM   10  C   UNL     1      -3.202   2.671 -32.346  1.00  0.00     0.084 A 
BRANCH   9  11
HETATM   11  C   UNL     1      -5.099   0.932 -32.715  1.00  0.00     0.012 A 
HETATM   12  C   UNL     1      -6.447   0.982 -33.061  1.00  0.00     0.130 A 
HETATM   13  N   UNL     1      -7.122  -0.018 -33.687  1.00  0.00    -0.272 NA
HETATM   14  C   UNL     1      -6.415  -1.127 -33.988  1.00  0.00     0.116 A 
HETATM   15  C   UNL     1      -5.070  -1.282 -33.695  1.00  0.00     0.020 A 
HETATM   16  C   UNL     1      -4.408  -0.237 -33.052  1.00  0.00     0.017 A 
ENDBRANCH   9  11
ENDBRANCH   2   5
BRANCH   1  17
HETATM   17  C   UNL     1      -1.074   6.813 -30.933  1.00  0.00     0.078 C 
HETATM   18  C   UNL     1      -0.755   7.132 -32.396  1.00  0.00     0.020 C 
BRANCH  17  19
HETATM   19  C   UNL     1       0.117   6.157 -30.212  1.00  0.00     0.052 C 
BRANCH  19  20
HETATM   20  C   UNL     1       0.374   6.771 -28.856  1.00  0.00    -0.057 A 
HETATM   21  C   UNL     1       1.093   7.969 -28.755  1.00  0.00     0.010 A 
HETATM   22  C   UNL     1       1.361   8.527 -27.503  1.00  0.00     0.037 A 
HETATM   23  C   UNL     1       0.918   7.903 -26.335  1.00  0.00     0.068 A 
HETATM   24  C   UNL     1       0.195   6.715 -26.431  1.00  0.00     0.037 A 
HETATM   25  C   UNL     1      -0.075   6.152 -27.685  1.00  0.00     0.010 A 
BRANCH  23  26
HETATM   26  O   UNL     1       1.256   8.553 -25.180  1.00  0.00    -0.356 OA
HETATM   27  C   UNL     1       2.587   9.042 -25.084  1.00  0.00     0.210 C 
ENDBRANCH  23  26
ENDBRANCH  19  20
ENDBRANCH  17  19
ENDBRANCH   1  17
TORSDOF 6
ENDMDL
MODEL 8
REMARK VINA RESULT:      -7.5      4.673      8.258
REMARK  6 active torsions:
REMARK  status: ('A' for Active; 'I' for Inactive)
REMARK    1  A    between atoms: C_2  and  C_3 
REMARK    2  A    between atoms: C_2  and  C_18 
REMARK       I    between atoms: C_3  and  N_4 
REMARK    3  A    between atoms: N_4  and  C_5 
REMARK    4  A    between atoms: C_9  and  C_10 
REMARK    5  A    between atoms: C_18  and  C_19 
REMARK    6  A    between atoms: C_22  and  O_23 
ROOT
HETATM    1  C   UNL     1      -8.873   2.738 -33.153  1.00  0.00     0.227 C 
HETATM    2  N   UNL     1      -7.885   3.020 -34.086  1.00  0.00    -0.312 N 
HETATM    3  O   UNL     1      -9.048   3.378 -32.117  1.00  0.00    -0.273 OA
HETATM    4  H   UNL     1      -7.804   2.454 -34.923  1.00  0.00     0.170 HD
ENDROOT
BRANCH   2   5
HETATM    5  C   UNL     1      -6.940   4.001 -33.872  1.00  0.00     0.126 A 
HETATM    6  N   UNL     1      -7.186   5.201 -33.265  1.00  0.00    -0.262 N 
HETATM    7  H   UNL     1      -8.083   5.529 -32.913  1.00  0.00     0.191 HD
HETATM    8  N   UNL     1      -6.093   5.969 -33.128  1.00  0.00    -0.172 NA
HETATM    9  C   UNL     1      -5.099   5.249 -33.677  1.00  0.00     0.092 A 
HETATM   10  C   UNL     1      -5.600   4.010 -34.171  1.00  0.00     0.084 A 
BRANCH   9  11
HETATM   11  C   UNL     1      -3.721   5.742 -33.696  1.00  0.00     0.012 A 
HETATM   12  C   UNL     1      -3.266   6.698 -32.792  1.00  0.00     0.130 A 
HETATM   13  N   UNL     1      -2.007   7.208 -32.774  1.00  0.00    -0.272 NA
HETATM   14  C   UNL     1      -1.153   6.740 -33.708  1.00  0.00     0.116 A 
HETATM   15  C   UNL     1      -1.496   5.787 -34.651  1.00  0.00     0.020 A 
HETATM   16  C   UNL     1      -2.796   5.284 -34.641  1.00  0.00     0.017 A 
ENDBRANCH   9  11
ENDBRANCH   2   5
BRANCH   1  17
HETATM   17  C   UNL     1      -9.735   1.543 -33.550  1.00  0.00     0.078 C 
HETATM   18  C   UNL     1     -11.213   1.919 -33.431  1.00  0.00     0.020 C 
BRANCH  17  19
HETATM   19  C   UNL     1      -9.380   0.316 -32.691  1.00  0.00     0.052 C 
BRANCH  19  20
HETATM   20  C   UNL     1      -7.964  -0.156 -32.925  1.00  0.00    -0.057 A 
HETATM   21  C   UNL     1      -7.015  -0.061 -31.898  1.00  0.00     0.010 A 
HETATM   22  C   UNL     1      -5.697  -0.466 -32.116  1.00  0.00     0.037 A 
HETATM   23  C   UNL     1      -5.302  -0.972 -33.356  1.00  0.00     0.068 A 
HETATM   24  C   UNL     1      -6.245  -1.076 -34.379  1.00  0.00     0.037 A 
HETATM   25  C   UNL     1      -7.568  -0.670 -34.164  1.00  0.00     0.010 A 
BRANCH  23  26
HETATM   26  O   UNL     1      -3.983  -1.324 -33.434  1.00  0.00    -0.356 OA
HETATM   27  C   UNL     1      -3.059  -0.515 -32.717  1.00  0.00     0.210 C 
ENDBRANCH  23  26
ENDBRANCH  19  20
ENDBRANCH  17  19
ENDBRANCH   1  17
TORSDOF 6
ENDMDL
MODEL 9
REMARK VINA RESULT:      -7.4      3.557      9.951
REMARK  6 active torsions:
REMARK  status: ('A' for Active; 'I' for Inactive)
REMARK    1  A    between atoms: C_2  and  C_3 
REMARK    2  A    between atoms: C_2  and  C_18 
REMARK       I    between atoms: C_3  and  N_4 
REMARK    3  A    between atoms: N_4  and  C_5 
REMARK    4  A    between atoms: C_9  and  C_10 
REMARK    5  A    between atoms: C_18  and  C_19 
REMARK    6  A    between atoms: C_22  and  O_23 
ROOT
HETATM    1  C   UNL     1      -9.873   0.807 -33.720  1.00  0.00     0.227 C 
HETATM    2  N   UNL     1      -9.589   1.851 -34.588  1.00  0.00    -0.312 N 
HETATM    3  O   UNL     1     -10.994   0.567 -33.272  1.00  0.00    -0.273 OA
HETATM    4  H   UNL     1      -8.642   1.984 -34.924  1.00  0.00     0.170 HD
ENDROOT
BRANCH   2   5
HETATM    5  C   UNL     1     -10.541   2.781 -34.947  1.00  0.00     0.126 A 
HETATM    6  N   UNL     1     -11.813   2.478 -35.348  1.00  0.00    -0.262 N 
HETATM    7  H   UNL     1     -12.211   1.547 -35.448  1.00  0.00     0.191 HD
HETATM    8  N   UNL     1     -12.570   3.559 -35.599  1.00  0.00    -0.172 NA
HETATM    9  C   UNL     1     -11.760   4.605 -35.364  1.00  0.00     0.092 A 
HETATM   10  C   UNL     1     -10.467   4.151 -34.968  1.00  0.00     0.084 A 
BRANCH   9  11
HETATM   11  C   UNL     1     -12.233   5.983 -35.499  1.00  0.00     0.012 A 
HETATM   12  C   UNL     1     -11.465   7.071 -35.093  1.00  0.00     0.130 A 
HETATM   13  N   UNL     1     -11.858   8.369 -35.172  1.00  0.00    -0.272 NA
HETATM   14  C   UNL     1     -13.085   8.597 -35.688  1.00  0.00     0.116 A 
HETATM   15  C   UNL     1     -13.930   7.593 -36.127  1.00  0.00     0.020 A 
HETATM   16  C   UNL     1     -13.495   6.272 -36.031  1.00  0.00     0.017 A 
ENDBRANCH   9  11
ENDBRANCH   2   5
BRANCH   1  17
HETATM   17  C   UNL     1      -8.643  -0.028 -33.378  1.00  0.00     0.078 C 
HETATM   18  C   UNL     1      -8.151   0.339 -31.976  1.00  0.00     0.020 C 
BRANCH  17  19
HETATM   19  C   UNL     1      -7.550   0.165 -34.443  1.00  0.00     0.052 C 
BRANCH  19  20
HETATM   20  C   UNL     1      -6.496  -0.917 -34.384  1.00  0.00    -0.057 A 
HETATM   21  C   UNL     1      -6.783  -2.202 -34.862  1.00  0.00     0.010 A 
HETATM   22  C   UNL     1      -5.825  -3.214 -34.783  1.00  0.00     0.037 A 
HETATM   23  C   UNL     1      -4.568  -2.964 -34.229  1.00  0.00     0.068 A 
HETATM   24  C   UNL     1      -4.275  -1.685 -33.759  1.00  0.00     0.037 A 
HETATM   25  C   UNL     1      -5.233  -0.667 -33.836  1.00  0.00     0.010 A 
BRANCH  23  26
HETATM   26  O   UNL     1      -3.730  -4.045 -34.208  1.00  0.00    -0.356 OA
HETATM   27  C   UNL     1      -4.303  -5.295 -33.845  1.00  0.00     0.210 C 
ENDBRANCH  23  26
ENDBRANCH  19  20
ENDBRANCH  17  19
ENDBRANCH   1  17
TORSDOF 6
ENDMDL
MODEL 10
REMARK VINA RESULT:      -7.3     15.069     16.463
REMARK  6 active torsions:
REMARK  status: ('A' for Active; 'I' for Inactive)
REMARK    1  A    between atoms: C_2  and  C_3 
REMARK    2  A    between atoms: C_2  and  C_18 
REMARK       I    between atoms: C_3  and  N_4 
REMARK    3  A    between atoms: N_4  and  C_5 
REMARK    4  A    between atoms: C_9  and  C_10 
REMARK    5  A    between atoms: C_18  and  C_19 
REMARK    6  A    between atoms: C_22  and  O_23 
ROOT
HETATM    1  C   UNL     1      -5.950 -13.048 -38.107  1.00  0.00     0.227 C 
HETATM    2  N   UNL     1      -6.818 -13.781 -37.309  1.00  0.00    -0.312 N 
HETATM    3  O   UNL     1      -4.931 -12.498 -37.694  1.00  0.00    -0.273 OA
HETATM    4  H   UNL     1      -7.637 -14.215 -37.719  1.00  0.00     0.170 HD
ENDROOT
BRANCH   2   5
HETATM    5  C   UNL     1      -6.653 -13.868 -35.943  1.00  0.00     0.126 A 
HETATM    6  N   UNL     1      -6.746 -12.812 -35.079  1.00  0.00    -0.262 N 
HETATM    7  H   UNL     1      -6.928 -11.841 -35.326  1.00  0.00     0.191 HD
HETATM    8  N   UNL     1      -6.595 -13.157 -33.790  1.00  0.00    -0.172 NA
HETATM    9  C   UNL     1      -6.385 -14.484 -33.814  1.00  0.00     0.092 A 
HETATM   10  C   UNL     1      -6.398 -14.963 -35.157  1.00  0.00     0.084 A 
BRANCH   9  11
HETATM   11  C   UNL     1      -6.202 -15.251 -32.581  1.00  0.00     0.012 A 
HETATM   12  C   UNL     1      -5.319 -14.845 -31.583  1.00  0.00     0.130 A 
HETATM   13  N   UNL     1      -5.090 -15.524 -30.429  1.00  0.00    -0.272 NA
HETATM   14  C   UNL     1      -5.780 -16.671 -30.257  1.00  0.00     0.116 A 
HETATM   15  C   UNL     1      -6.686 -17.165 -31.179  1.00  0.00     0.020 A 
HETATM   16  C   UNL     1      -6.897 -16.443 -32.353  1.00  0.00     0.017 A 
ENDBRANCH   9  11
ENDBRANCH   2   5
BRANCH   1  17
HETATM   17  C   UNL     1      -6.390 -13.000 -39.567  1.00  0.00     0.078 C 
HETATM   18  C   UNL     1      -5.236 -12.488 -40.431  1.00  0.00     0.020 C 
BRANCH  17  19
HETATM   19  C   UNL     1      -7.654 -12.134 -39.719  1.00  0.00     0.052 C 
BRANCH  19  20
HETATM   20  C   UNL     1      -8.859 -12.947 -40.132  1.00  0.00    -0.057 A 
HETATM   21  C   UNL     1      -8.701 -14.280 -40.531  1.00  0.00     0.010 A 
HETATM   22  C   UNL     1      -9.806 -15.028 -40.943  1.00  0.00     0.037 A 
HETATM   23  C   UNL     1     -11.083 -14.463 -40.963  1.00  0.00     0.068 A 
HETATM   24  C   UNL     1     -11.245 -13.138 -40.558  1.00  0.00     0.037 A 
HETATM   25  C   UNL     1     -10.140 -12.385 -40.145  1.00  0.00     0.010 A 
BRANCH  23  26
HETATM   26  O   UNL     1     -12.071 -15.304 -41.393  1.00  0.00    -0.356 OA
HETATM   27  C   UNL     1     -11.832 -16.009 -42.605  1.00  0.00     0.210 C 
ENDBRANCH  23  26
ENDBRANCH  19  20
ENDBRANCH  17  19
ENDBRANCH   1  17
TORSDOF 6
ENDMDL
