MODEL 1
REMARK VINA RESULT:      -8.1      0.000      0.000
REMARK  7 active torsions:
REMARK  status: ('A' for Active; 'I' for Inactive)
REMARK       I    between atoms: C_2  and  N_3 
REMARK    1  A    between atoms: N_3  and  C_4 
REMARK    2  A    between atoms: N_9  and  C_10 
REMARK    3  A    between atoms: C_10  and  C_11 
REMARK    4  A    between atoms: C_11  and  C_12 
REMARK    5  A    between atoms: C_12  and  O_13 
REMARK    6  A    between atoms: O_13  and  C_14 
REMARK    7  A    between atoms: C_17  and  C_18 
REMARK       I    between atoms: N_30  and  C_31 
ROOT
HETATM    1  C   UNL     1      -4.069   5.351 -33.378  1.00  0.00     0.191 C 
HETATM    2  S   UNL     1      -5.392   4.265 -33.667  1.00  0.00    -0.042 SA
HETATM    3  C   UNL     1      -5.808   4.426 -31.885  1.00  0.00     0.224 A 
HETATM    4  C   UNL     1      -5.208   3.193 -31.153  1.00  0.00     0.271 A 
HETATM    5  O   UNL     1      -4.013   2.937 -31.061  1.00  0.00    -0.269 OA
HETATM    6  N   UNL     1      -6.289   2.441 -30.658  1.00  0.00    -0.314 N 
HETATM    7  C   UNL     1      -7.505   3.111 -30.908  1.00  0.00     0.047 A 
HETATM    8  C   UNL     1      -7.276   4.294 -31.624  1.00  0.00     0.019 A 
HETATM    9  C   UNL     1      -8.782   2.740 -30.526  1.00  0.00     0.030 A 
HETATM   10  C   UNL     1      -9.843   3.580 -30.877  1.00  0.00     0.002 A 
HETATM   11  C   UNL     1      -9.616   4.765 -31.594  1.00  0.00     0.001 A 
HETATM   12  C   UNL     1      -8.324   5.133 -31.974  1.00  0.00     0.013 A 
HETATM   13  N   UNL     1      -5.110   5.639 -31.467  1.00  0.00    -0.201 N 
HETATM   14  C   UNL     1      -5.226   6.147 -30.183  1.00  0.00     0.238 C 
HETATM   15  C   UNL     1      -4.340   7.327 -29.869  1.00  0.00     0.119 C 
HETATM   16  O   UNL     1      -5.984   5.681 -29.334  1.00  0.00    -0.272 OA
HETATM   17  N   UNL     1      -4.055   6.031 -32.282  1.00  0.00    -0.141 NA
ENDROOT
BRANCH   6  18
HETATM   18  C   UNL     1      -6.209   1.239 -29.836  1.00  0.00     0.134 C 
BRANCH  18  19
HETATM   19  C   UNL     1      -6.559  -0.064 -30.550  1.00  0.00     0.047 C 
BRANCH  19  20
HETATM   20  C   UNL     1      -6.039  -0.116 -31.981  1.00  0.00     0.177 C 
BRANCH  20  21
HETATM   21  O   UNL     1      -7.092  -0.667 -32.771  1.00  0.00    -0.351 OA
BRANCH  21  22
HETATM   22  C   UNL     1      -8.071   0.176 -33.206  1.00  0.00     0.068 A 
HETATM   23  C   UNL     1      -7.889   1.319 -33.974  1.00  0.00     0.037 A 
HETATM   24  C   UNL     1      -8.993   2.095 -34.359  1.00  0.00     0.011 A 
HETATM   25  C   UNL     1     -10.303   1.746 -33.988  1.00  0.00    -0.050 A 
HETATM   26  C   UNL     1     -10.461   0.583 -33.213  1.00  0.00     0.011 A 
HETATM   27  C   UNL     1      -9.361  -0.190 -32.832  1.00  0.00     0.037 A 
BRANCH  25  28
HETATM   28  C   UNL     1     -11.535   2.572 -34.394  1.00  0.00    -0.024 C 
HETATM   29  C   UNL     1     -12.381   1.922 -35.512  1.00  0.00     0.019 C 
HETATM   30  C   UNL     1     -12.460   2.757 -33.171  1.00  0.00     0.019 C 
HETATM   31  C   UNL     1     -11.086   3.957 -34.906  1.00  0.00     0.019 C 
ENDBRANCH  25  28
ENDBRANCH  21  22
ENDBRANCH  20  21
ENDBRANCH  19  20
ENDBRANCH  18  19
ENDBRANCH   6  18
BRANCH   1  32
HETATM   32  N   UNL     1      -3.142   5.380 -34.378  1.00  0.00    -0.305 N 
HETATM   33  C   UNL     1      -1.770   5.345 -34.316  1.00  0.00     0.219 C 
HETATM   34  C   UNL     1      -1.112   5.093 -32.988  1.00  0.00     0.117 C 
HETATM   35  O   UNL     1      -1.114   5.508 -35.346  1.00  0.00    -0.274 OA
HETATM   36  H   UNL     1      -3.503   5.425 -35.320  1.00  0.00     0.171 HD
ENDBRANCH   1  32
TORSDOF 7
ENDMDL
MODEL 2
REMARK VINA RESULT:      -8.0      2.977      8.417
REMARK  7 active torsions:
REMARK  status: ('A' for Active; 'I' for Inactive)
REMARK       I    between atoms: C_2  and  N_3 
REMARK    1  A    between atoms: N_3  and  C_4 
REMARK    2  A    between atoms: N_9  and  C_10 
REMARK    3  A    between atoms: C_10  and  C_11 
REMARK    4  A    between atoms: C_11  and  C_12 
REMARK    5  A    between atoms: C_12  and  O_13 
REMARK    6  A    between atoms: O_13  and  C_14 
REMARK    7  A    between atoms: C_17  and  C_18 
REMARK       I    between atoms: N_30  and  C_31 
ROOT
HETATM    1  C   UNL     1      -9.554   2.528 -33.993  1.00  0.00     0.191 C 
HETATM    2  S   UNL     1      -7.985   1.963 -34.476  1.00  0.00    -0.042 SA
HETATM    3  C   UNL     1      -7.294   2.941 -33.082  1.00  0.00     0.224 A 
HETATM    4  C   UNL     1      -6.778   4.286 -33.667  1.00  0.00     0.271 A 
HETATM    5  O   UNL     1      -7.478   5.145 -34.192  1.00  0.00    -0.269 OA
HETATM    6  N   UNL     1      -5.381   4.299 -33.501  1.00  0.00    -0.314 N 
HETATM    7  C   UNL     1      -4.964   3.156 -32.785  1.00  0.00     0.047 A 
HETATM    8  C   UNL     1      -6.058   2.325 -32.506  1.00  0.00     0.019 A 
HETATM    9  C   UNL     1      -3.688   2.829 -32.363  1.00  0.00     0.030 A 
HETATM   10  C   UNL     1      -3.517   1.640 -31.647  1.00  0.00     0.002 A 
HETATM   11  C   UNL     1      -4.611   0.806 -31.366  1.00  0.00     0.001 A 
HETATM   12  C   UNL     1      -5.895   1.144 -31.796  1.00  0.00     0.013 A 
HETATM   13  N   UNL     1      -8.444   3.186 -32.217  1.00  0.00    -0.201 N 
HETATM   14  C   UNL     1      -8.324   3.848 -31.006  1.00  0.00     0.238 C 
HETATM   15  C   UNL     1      -9.622   4.140 -30.294  1.00  0.00     0.119 C 
HETATM   16  O   UNL     1      -7.246   4.195 -30.526  1.00  0.00    -0.272 OA
HETATM   17  N   UNL     1      -9.687   3.065 -32.828  1.00  0.00    -0.141 NA
ENDROOT
BRANCH   6  18
HETATM   18  C   UNL     1      -4.476   5.393 -33.830  1.00  0.00     0.134 C 
BRANCH  18  19
HETATM   19  C   UNL     1      -3.704   5.231 -35.136  1.00  0.00     0.047 C 
BRANCH  19  20
HETATM   20  C   UNL     1      -2.196   5.149 -34.929  1.00  0.00     0.177 C 
BRANCH  20  21
HETATM   21  O   UNL     1      -1.774   6.452 -34.530  1.00  0.00    -0.351 OA
BRANCH  21  22
HETATM   22  C   UNL     1      -1.396   6.631 -33.233  1.00  0.00     0.068 A 
HETATM   23  C   UNL     1      -1.488   7.811 -32.506  1.00  0.00     0.037 A 
HETATM   24  C   UNL     1      -1.067   7.851 -31.168  1.00  0.00     0.011 A 
HETATM   25  C   UNL     1      -0.547   6.715 -30.526  1.00  0.00    -0.050 A 
HETATM   26  C   UNL     1      -0.466   5.532 -31.283  1.00  0.00     0.011 A 
HETATM   27  C   UNL     1      -0.888   5.493 -32.614  1.00  0.00     0.037 A 
BRANCH  25  28
HETATM   28  C   UNL     1      -0.077   6.723 -29.061  1.00  0.00    -0.024 C 
HETATM   29  C   UNL     1      -1.228   6.850 -28.038  1.00  0.00     0.019 C 
HETATM   30  C   UNL     1       0.670   5.408 -28.749  1.00  0.00     0.019 C 
HETATM   31  C   UNL     1       0.876   7.915 -28.829  1.00  0.00     0.019 C 
ENDBRANCH  25  28
ENDBRANCH  21  22
ENDBRANCH  20  21
ENDBRANCH  19  20
ENDBRANCH  18  19
ENDBRANCH   6  18
BRANCH   1  32
HETATM   32  N   UNL     1     -10.528   2.337 -34.929  1.00  0.00    -0.305 N 
HETATM   33  C   UNL     1     -11.726   1.670 -34.837  1.00  0.00     0.219 C 
HETATM   34  C   UNL     1     -12.172   1.165 -33.493  1.00  0.00     0.117 C 
HETATM   35  O   UNL     1     -12.409   1.512 -35.850  1.00  0.00    -0.274 OA
HETATM   36  H   UNL     1     -10.365   2.752 -35.835  1.00  0.00     0.171 HD
ENDBRANCH   1  32
TORSDOF 7
ENDMDL
MODEL 3
REMARK VINA RESULT:      -7.5      2.776      8.385
REMARK  7 active torsions:
REMARK  status: ('A' for Active; 'I' for Inactive)
REMARK       I    between atoms: C_2  and  N_3 
REMARK    1  A    between atoms: N_3  and  C_4 
REMARK    2  A    between atoms: N_9  and  C_10 
REMARK    3  A    between atoms: C_10  and  C_11 
REMARK    4  A    between atoms: C_11  and  C_12 
REMARK    5  A    between atoms: C_12  and  O_13 
REMARK    6  A    between atoms: O_13  and  C_14 
REMARK    7  A    between atoms: C_17  and  C_18 
REMARK       I    between atoms: N_30  and  C_31 
ROOT
HETATM    1  C   UNL     1      -8.921   2.538 -31.726  1.00  0.00     0.191 C 
HETATM    2  S   UNL     1      -7.454   2.471 -30.800  1.00  0.00    -0.042 SA
HETATM    3  C   UNL     1      -7.013   4.098 -31.532  1.00  0.00     0.224 A 
HETATM    4  C   UNL     1      -6.049   3.828 -32.721  1.00  0.00     0.271 A 
HETATM    5  O   UNL     1      -6.338   3.217 -33.743  1.00  0.00    -0.269 OA
HETATM    6  N   UNL     1      -4.804   4.389 -32.379  1.00  0.00    -0.314 N 
HETATM    7  C   UNL     1      -4.899   5.071 -31.147  1.00  0.00     0.047 A 
HETATM    8  C   UNL     1      -6.187   4.937 -30.609  1.00  0.00     0.019 A 
HETATM    9  C   UNL     1      -3.924   5.806 -30.498  1.00  0.00     0.030 A 
HETATM   10  C   UNL     1      -4.257   6.413 -29.283  1.00  0.00     0.002 A 
HETATM   11  C   UNL     1      -5.545   6.280 -28.742  1.00  0.00     0.001 A 
HETATM   12  C   UNL     1      -6.524   5.537 -29.404  1.00  0.00     0.013 A 
HETATM   13  N   UNL     1      -8.283   4.617 -32.031  1.00  0.00    -0.201 N 
HETATM   14  C   UNL     1      -8.387   5.873 -32.606  1.00  0.00     0.238 C 
HETATM   15  C   UNL     1      -9.736   6.209 -33.193  1.00  0.00     0.119 C 
HETATM   16  O   UNL     1      -7.457   6.676 -32.657  1.00  0.00    -0.272 OA
HETATM   17  N   UNL     1      -9.274   3.666 -32.244  1.00  0.00    -0.141 NA
ENDROOT
BRANCH   6  18
HETATM   18  C   UNL     1      -3.615   4.448 -33.220  1.00  0.00     0.134 C 
BRANCH  18  19
HETATM   19  C   UNL     1      -3.506   5.683 -34.109  1.00  0.00     0.047 C 
BRANCH  19  20
HETATM   20  C   UNL     1      -2.070   6.006 -34.504  1.00  0.00     0.177 C 
BRANCH  20  21
HETATM   21  O   UNL     1      -1.802   7.316 -34.004  1.00  0.00    -0.351 OA
BRANCH  21  22
HETATM   22  C   UNL     1      -1.446   7.438 -32.695  1.00  0.00     0.068 A 
HETATM   23  C   UNL     1      -1.898   8.407 -31.808  1.00  0.00     0.037 A 
HETATM   24  C   UNL     1      -1.453   8.410 -30.477  1.00  0.00     0.011 A 
HETATM   25  C   UNL     1      -0.550   7.444 -30.001  1.00  0.00    -0.050 A 
HETATM   26  C   UNL     1      -0.109   6.472 -30.918  1.00  0.00     0.011 A 
HETATM   27  C   UNL     1      -0.555   6.469 -32.241  1.00  0.00     0.037 A 
BRANCH  25  28
HETATM   28  C   UNL     1      -0.043   7.417 -28.549  1.00  0.00    -0.024 C 
HETATM   29  C   UNL     1       1.179   8.330 -28.298  1.00  0.00     0.019 C 
HETATM   30  C   UNL     1      -1.166   7.885 -27.599  1.00  0.00     0.019 C 
HETATM   31  C   UNL     1       0.376   5.979 -28.173  1.00  0.00     0.019 C 
ENDBRANCH  25  28
ENDBRANCH  21  22
ENDBRANCH  20  21
ENDBRANCH  19  20
ENDBRANCH  18  19
ENDBRANCH   6  18
BRANCH   1  32
HETATM   32  N   UNL     1      -9.582   1.348 -31.813  1.00  0.00    -0.305 N 
HETATM   33  C   UNL     1      -9.660   0.452 -32.852  1.00  0.00     0.219 C 
HETATM   34  C   UNL     1      -8.800   0.674 -34.065  1.00  0.00     0.117 C 
HETATM   35  O   UNL     1     -10.420  -0.512 -32.762  1.00  0.00    -0.274 OA
HETATM   36  H   UNL     1     -10.091   1.059 -30.991  1.00  0.00     0.171 HD
ENDBRANCH   1  32
TORSDOF 7
ENDMDL
MODEL 4
REMARK VINA RESULT:      -7.5      2.823      7.516
REMARK  7 active torsions:
REMARK  status: ('A' for Active; 'I' for Inactive)
REMARK       I    between atoms: C_2  and  N_3 
REMARK    1  A    between atoms: N_3  and  C_4 
REMARK    2  A    between atoms: N_9  and  C_10 
REMARK    3  A    between atoms: C_10  and  C_11 
REMARK    4  A    between atoms: C_11  and  C_12 
REMARK    5  A    between atoms: C_12  and  O_13 
REMARK    6  A    between atoms: O_13  and  C_14 
REMARK    7  A    between atoms: C_17  and  C_18 
REMARK       I    between atoms: N_30  and  C_31 
ROOT
HETATM    1  C   UNL     1     -10.024   3.734 -33.797  1.00  0.00     0.191 C 
HETATM    2  S   UNL     1      -8.341   3.320 -33.886  1.00  0.00    -0.042 SA
HETATM    3  C   UNL     1      -8.803   1.647 -33.282  1.00  0.00     0.224 A 
HETATM    4  C   UNL     1      -8.533   1.614 -31.751  1.00  0.00     0.271 A 
HETATM    5  O   UNL     1      -9.109   2.300 -30.915  1.00  0.00    -0.269 OA
HETATM    6  N   UNL     1      -7.500   0.683 -31.535  1.00  0.00    -0.314 N 
HETATM    7  C   UNL     1      -7.154   0.048 -32.747  1.00  0.00     0.047 A 
HETATM    8  C   UNL     1      -7.901   0.577 -33.809  1.00  0.00     0.019 A 
HETATM    9  C   UNL     1      -6.237  -0.967 -32.951  1.00  0.00     0.030 A 
HETATM   10  C   UNL     1      -6.073  -1.454 -34.251  1.00  0.00     0.002 A 
HETATM   11  C   UNL     1      -6.820  -0.927 -35.316  1.00  0.00     0.001 A 
HETATM   12  C   UNL     1      -7.744   0.098 -35.102  1.00  0.00     0.013 A 
HETATM   13  N   UNL     1     -10.239   1.565 -33.533  1.00  0.00    -0.201 N 
HETATM   14  C   UNL     1     -10.965   0.415 -33.270  1.00  0.00     0.238 C 
HETATM   15  C   UNL     1     -12.458   0.532 -33.457  1.00  0.00     0.119 C 
HETATM   16  O   UNL     1     -10.455  -0.641 -32.900  1.00  0.00    -0.272 OA
HETATM   17  N   UNL     1     -10.889   2.785 -33.683  1.00  0.00    -0.141 NA
ENDROOT
BRANCH   6  18
HETATM   18  C   UNL     1      -6.964   0.261 -30.246  1.00  0.00     0.134 C 
BRANCH  18  19
HETATM   19  C   UNL     1      -5.593   0.827 -29.893  1.00  0.00     0.047 C 
BRANCH  19  20
HETATM   20  C   UNL     1      -5.513   2.340 -30.061  1.00  0.00     0.177 C 
BRANCH  20  21
HETATM   21  O   UNL     1      -4.916   2.571 -31.337  1.00  0.00    -0.351 OA
BRANCH  21  22
HETATM   22  C   UNL     1      -4.113   3.663 -31.476  1.00  0.00     0.068 A 
HETATM   23  C   UNL     1      -4.288   4.895 -30.857  1.00  0.00     0.037 A 
HETATM   24  C   UNL     1      -3.375   5.936 -31.086  1.00  0.00     0.011 A 
HETATM   25  C   UNL     1      -2.267   5.770 -31.934  1.00  0.00    -0.050 A 
HETATM   26  C   UNL     1      -2.111   4.513 -32.546  1.00  0.00     0.011 A 
HETATM   27  C   UNL     1      -3.019   3.477 -32.316  1.00  0.00     0.037 A 
BRANCH  25  28
HETATM   28  C   UNL     1      -1.247   6.889 -32.206  1.00  0.00    -0.024 C 
HETATM   29  C   UNL     1       0.058   6.755 -31.389  1.00  0.00     0.019 C 
HETATM   30  C   UNL     1      -0.855   6.881 -33.699  1.00  0.00     0.019 C 
HETATM   31  C   UNL     1      -1.870   8.257 -31.852  1.00  0.00     0.019 C 
ENDBRANCH  25  28
ENDBRANCH  21  22
ENDBRANCH  20  21
ENDBRANCH  19  20
ENDBRANCH  18  19
ENDBRANCH   6  18
BRANCH   1  32
HETATM   32  N   UNL     1     -10.273   5.074 -33.862  1.00  0.00    -0.305 N 
HETATM   33  C   UNL     1     -10.499   5.983 -32.857  1.00  0.00     0.219 C 
HETATM   34  C   UNL     1     -10.320   5.543 -31.430  1.00  0.00     0.117 C 
HETATM   35  O   UNL     1     -10.829   7.134 -33.145  1.00  0.00    -0.274 OA
HETATM   36  H   UNL     1     -10.289   5.481 -34.786  1.00  0.00     0.171 HD
ENDBRANCH   1  32
TORSDOF 7
ENDMDL
MODEL 5
REMARK VINA RESULT:      -7.4      2.722      8.301
REMARK  7 active torsions:
REMARK  status: ('A' for Active; 'I' for Inactive)
REMARK       I    between atoms: C_2  and  N_3 
REMARK    1  A    between atoms: N_3  and  C_4 
REMARK    2  A    between atoms: N_9  and  C_10 
REMARK    3  A    between atoms: C_10  and  C_11 
REMARK    4  A    between atoms: C_11  and  C_12 
REMARK    5  A    between atoms: C_12  and  O_13 
REMARK    6  A    between atoms: O_13  and  C_14 
REMARK    7  A    between atoms: C_17  and  C_18 
REMARK       I    between atoms: N_30  and  C_31 
ROOT
HETATM    1  C   UNL     1      -6.885   0.669 -32.437  1.00  0.00     0.191 C 
HETATM    2  S   UNL     1      -5.425   1.374 -31.817  1.00  0.00    -0.042 SA
HETATM    3  C   UNL     1      -6.224   3.015 -32.025  1.00  0.00     0.224 A 
HETATM    4  C   UNL     1      -5.717   3.615 -33.366  1.00  0.00     0.271 A 
HETATM    5  O   UNL     1      -5.927   3.143 -34.477  1.00  0.00    -0.269 OA
HETATM    6  N   UNL     1      -4.963   4.760 -33.047  1.00  0.00    -0.314 N 
HETATM    7  C   UNL     1      -5.020   5.010 -31.660  1.00  0.00     0.047 A 
HETATM    8  C   UNL     1      -5.760   4.013 -31.010  1.00  0.00     0.019 A 
HETATM    9  C   UNL     1      -4.471   6.068 -30.958  1.00  0.00     0.030 A 
HETATM   10  C   UNL     1      -4.674   6.115 -29.575  1.00  0.00     0.002 A 
HETATM   11  C   UNL     1      -5.415   5.117 -28.922  1.00  0.00     0.001 A 
HETATM   12  C   UNL     1      -5.966   4.054 -29.639  1.00  0.00     0.013 A 
HETATM   13  N   UNL     1      -7.648   2.705 -32.128  1.00  0.00    -0.201 N 
HETATM   14  C   UNL     1      -8.609   3.697 -32.231  1.00  0.00     0.238 C 
HETATM   15  C   UNL     1     -10.019   3.213 -32.464  1.00  0.00     0.119 C 
HETATM   16  O   UNL     1      -8.358   4.898 -32.152  1.00  0.00    -0.272 OA
HETATM   17  N   UNL     1      -7.948   1.398 -32.493  1.00  0.00    -0.141 NA
ENDROOT
BRANCH   6  18
HETATM   18  C   UNL     1      -4.354   5.691 -33.990  1.00  0.00     0.134 C 
BRANCH  18  19
HETATM   19  C   UNL     1      -3.143   5.154 -34.747  1.00  0.00     0.047 C 
BRANCH  19  20
HETATM   20  C   UNL     1      -2.006   4.730 -33.826  1.00  0.00     0.177 C 
BRANCH  20  21
HETATM   21  O   UNL     1      -1.208   5.894 -33.610  1.00  0.00    -0.351 OA
BRANCH  21  22
HETATM   22  C   UNL     1      -0.870   6.206 -32.328  1.00  0.00     0.068 A 
HETATM   23  C   UNL     1      -0.049   5.460 -31.490  1.00  0.00     0.037 A 
HETATM   24  C   UNL     1       0.224   5.906 -30.188  1.00  0.00     0.011 A 
HETATM   25  C   UNL     1      -0.315   7.106 -29.694  1.00  0.00    -0.050 A 
HETATM   26  C   UNL     1      -1.140   7.844 -30.561  1.00  0.00     0.011 A 
HETATM   27  C   UNL     1      -1.408   7.400 -31.858  1.00  0.00     0.037 A 
BRANCH  25  28
HETATM   28  C   UNL     1      -0.036   7.625 -28.272  1.00  0.00    -0.024 C 
HETATM   29  C   UNL     1       1.327   8.338 -28.125  1.00  0.00     0.019 C 
HETATM   30  C   UNL     1      -1.128   8.637 -27.867  1.00  0.00     0.019 C 
HETATM   31  C   UNL     1      -0.044   6.444 -27.278  1.00  0.00     0.019 C 
ENDBRANCH  25  28
ENDBRANCH  21  22
ENDBRANCH  20  21
ENDBRANCH  19  20
ENDBRANCH  18  19
ENDBRANCH   6  18
BRANCH   1  32
HETATM   32  N   UNL     1      -6.759  -0.635 -32.814  1.00  0.00    -0.305 N 
HETATM   33  C   UNL     1      -6.992  -1.233 -34.029  1.00  0.00     0.219 C 
HETATM   34  C   UNL     1      -7.299  -0.363 -35.216  1.00  0.00     0.117 C 
HETATM   35  O   UNL     1      -6.932  -2.460 -34.121  1.00  0.00    -0.274 OA
HETATM   36  H   UNL     1      -6.436  -1.276 -32.104  1.00  0.00     0.171 HD
ENDBRANCH   1  32
TORSDOF 7
ENDMDL
MODEL 6
REMARK VINA RESULT:      -7.3      3.779      6.304
REMARK  7 active torsions:
REMARK  status: ('A' for Active; 'I' for Inactive)
REMARK       I    between atoms: C_2  and  N_3 
REMARK    1  A    between atoms: N_3  and  C_4 
REMARK    2  A    between atoms: N_9  and  C_10 
REMARK    3  A    between atoms: C_10  and  C_11 
REMARK    4  A    between atoms: C_11  and  C_12 
REMARK    5  A    between atoms: C_12  and  O_13 
REMARK    6  A    between atoms: O_13  and  C_14 
REMARK    7  A    between atoms: C_17  and  C_18 
REMARK       I    between atoms: N_30  and  C_31 
ROOT
HETATM    1  C   UNL     1      -0.748   7.652 -28.444  1.00  0.00     0.191 C 
HETATM    2  S   UNL     1      -0.659   6.245 -29.457  1.00  0.00    -0.042 SA
HETATM    3  C   UNL     1      -1.974   7.006 -30.491  1.00  0.00     0.224 A 
HETATM    4  C   UNL     1      -3.328   6.375 -30.061  1.00  0.00     0.271 A 
HETATM    5  O   UNL     1      -3.845   6.491 -28.956  1.00  0.00    -0.269 OA
HETATM    6  N   UNL     1      -3.808   5.641 -31.162  1.00  0.00    -0.314 N 
HETATM    7  C   UNL     1      -2.958   5.818 -32.274  1.00  0.00     0.047 A 
HETATM    8  C   UNL     1      -1.863   6.623 -31.933  1.00  0.00     0.019 A 
HETATM    9  C   UNL     1      -3.113   5.322 -33.557  1.00  0.00     0.030 A 
HETATM   10  C   UNL     1      -2.140   5.646 -34.508  1.00  0.00     0.002 A 
HETATM   11  C   UNL     1      -1.043   6.453 -34.169  1.00  0.00     0.001 A 
HETATM   12  C   UNL     1      -0.896   6.949 -32.872  1.00  0.00     0.013 A 
HETATM   13  N   UNL     1      -1.945   8.417 -30.118  1.00  0.00    -0.201 N 
HETATM   14  C   UNL     1      -2.757   9.356 -30.733  1.00  0.00     0.238 C 
HETATM   15  C   UNL     1      -2.706  10.744 -30.145  1.00  0.00     0.119 C 
HETATM   16  O   UNL     1      -3.488   9.099 -31.688  1.00  0.00    -0.272 OA
HETATM   17  N   UNL     1      -1.357   8.698 -28.890  1.00  0.00    -0.141 NA
ENDROOT
BRANCH   6  18
HETATM   18  C   UNL     1      -5.084   4.940 -31.251  1.00  0.00     0.134 C 
BRANCH  18  19
HETATM   19  C   UNL     1      -5.078   3.505 -30.735  1.00  0.00     0.047 C 
BRANCH  19  20
HETATM   20  C   UNL     1      -4.695   2.490 -31.805  1.00  0.00     0.177 C 
BRANCH  20  21
HETATM   21  O   UNL     1      -5.831   1.643 -31.980  1.00  0.00    -0.351 OA
BRANCH  21  22
HETATM   22  C   UNL     1      -5.644   0.447 -32.604  1.00  0.00     0.068 A 
HETATM   23  C   UNL     1      -4.426  -0.189 -32.813  1.00  0.00     0.037 A 
HETATM   24  C   UNL     1      -4.379  -1.430 -33.467  1.00  0.00     0.011 A 
HETATM   25  C   UNL     1      -5.547  -2.064 -33.925  1.00  0.00    -0.050 A 
HETATM   26  C   UNL     1      -6.767  -1.402 -33.699  1.00  0.00     0.011 A 
HETATM   27  C   UNL     1      -6.812  -0.168 -33.045  1.00  0.00     0.037 A 
BRANCH  25  28
HETATM   28  C   UNL     1      -5.532  -3.424 -34.644  1.00  0.00    -0.024 C 
HETATM   29  C   UNL     1      -4.469  -4.405 -34.102  1.00  0.00     0.019 C 
HETATM   30  C   UNL     1      -6.908  -4.107 -34.488  1.00  0.00     0.019 C 
HETATM   31  C   UNL     1      -5.237  -3.213 -36.145  1.00  0.00     0.019 C 
ENDBRANCH  25  28
ENDBRANCH  21  22
ENDBRANCH  20  21
ENDBRANCH  19  20
ENDBRANCH  18  19
ENDBRANCH   6  18
BRANCH   1  32
HETATM   32  N   UNL     1      -0.139   7.507 -27.232  1.00  0.00    -0.305 N 
HETATM   33  C   UNL     1       1.066   7.989 -26.782  1.00  0.00     0.219 C 
HETATM   34  C   UNL     1       1.829   8.952 -27.649  1.00  0.00     0.117 C 
HETATM   35  O   UNL     1       1.487   7.633 -25.681  1.00  0.00    -0.274 OA
HETATM   36  H   UNL     1      -0.644   6.972 -26.540  1.00  0.00     0.171 HD
ENDBRANCH   1  32
TORSDOF 7
ENDMDL
MODEL 7
REMARK VINA RESULT:      -7.2      3.411      6.640
REMARK  7 active torsions:
REMARK  status: ('A' for Active; 'I' for Inactive)
REMARK       I    between atoms: C_2  and  N_3 
REMARK    1  A    between atoms: N_3  and  C_4 
REMARK    2  A    between atoms: N_9  and  C_10 
REMARK    3  A    between atoms: C_10  and  C_11 
REMARK    4  A    between atoms: C_11  and  C_12 
REMARK    5  A    between atoms: C_12  and  O_13 
REMARK    6  A    between atoms: O_13  and  C_14 
REMARK    7  A    between atoms: C_17  and  C_18 
REMARK       I    between atoms: N_30  and  C_31 
ROOT
HETATM    1  C   UNL     1      -5.632   8.079 -28.311  1.00  0.00     0.191 C 
HETATM    2  S   UNL     1      -4.333   6.940 -28.138  1.00  0.00    -0.042 SA
HETATM    3  C   UNL     1      -3.454   7.865 -29.460  1.00  0.00     0.224 A 
HETATM    4  C   UNL     1      -3.688   7.104 -30.795  1.00  0.00     0.271 A 
HETATM    5  O   UNL     1      -4.774   6.950 -31.342  1.00  0.00    -0.269 OA
HETATM    6  N   UNL     1      -2.436   6.619 -31.218  1.00  0.00    -0.314 N 
HETATM    7  C   UNL     1      -1.419   7.073 -30.351  1.00  0.00     0.047 A 
HETATM    8  C   UNL     1      -1.967   7.821 -29.300  1.00  0.00     0.019 A 
HETATM    9  C   UNL     1      -0.054   6.873 -30.454  1.00  0.00     0.030 A 
HETATM   10  C   UNL     1       0.769   7.438 -29.475  1.00  0.00     0.002 A 
HETATM   11  C   UNL     1       0.223   8.188 -28.421  1.00  0.00     0.001 A 
HETATM   12  C   UNL     1      -1.156   8.385 -28.326  1.00  0.00     0.013 A 
HETATM   13  N   UNL     1      -4.134   9.157 -29.500  1.00  0.00    -0.201 N 
HETATM   14  C   UNL     1      -3.719  10.179 -30.338  1.00  0.00     0.238 C 
HETATM   15  C   UNL     1      -4.603  11.401 -30.360  1.00  0.00     0.119 C 
HETATM   16  O   UNL     1      -2.707  10.117 -31.035  1.00  0.00    -0.272 OA
HETATM   17  N   UNL     1      -5.412   9.176 -28.953  1.00  0.00    -0.141 NA
ENDROOT
BRANCH   6  18
HETATM   18  C   UNL     1      -2.152   5.911 -32.460  1.00  0.00     0.134 C 
BRANCH  18  19
HETATM   19  C   UNL     1      -1.977   4.401 -32.325  1.00  0.00     0.047 C 
BRANCH  19  20
HETATM   20  C   UNL     1      -3.078   3.747 -31.499  1.00  0.00     0.177 C 
BRANCH  20  21
HETATM   21  O   UNL     1      -2.847   2.339 -31.567  1.00  0.00    -0.351 OA
BRANCH  21  22
HETATM   22  C   UNL     1      -3.804   1.565 -32.151  1.00  0.00     0.068 A 
HETATM   23  C   UNL     1      -3.783   0.181 -32.267  1.00  0.00     0.037 A 
HETATM   24  C   UNL     1      -4.845  -0.494 -32.888  1.00  0.00     0.011 A 
HETATM   25  C   UNL     1      -5.953   0.199 -33.406  1.00  0.00    -0.050 A 
HETATM   26  C   UNL     1      -5.953   1.599 -33.274  1.00  0.00     0.011 A 
HETATM   27  C   UNL     1      -4.896   2.268 -32.653  1.00  0.00     0.037 A 
BRANCH  25  28
HETATM   28  C   UNL     1      -7.134  -0.508 -34.092  1.00  0.00    -0.024 C 
HETATM   29  C   UNL     1      -8.460  -0.415 -33.303  1.00  0.00     0.019 C 
HETATM   30  C   UNL     1      -7.382   0.124 -35.478  1.00  0.00     0.019 C 
HETATM   31  C   UNL     1      -6.811  -2.007 -34.268  1.00  0.00     0.019 C 
ENDBRANCH  25  28
ENDBRANCH  21  22
ENDBRANCH  20  21
ENDBRANCH  19  20
ENDBRANCH  18  19
ENDBRANCH   6  18
BRANCH   1  32
HETATM   32  N   UNL     1      -6.800   7.688 -27.724  1.00  0.00    -0.305 N 
HETATM   33  C   UNL     1      -7.979   7.270 -28.291  1.00  0.00     0.219 C 
HETATM   34  C   UNL     1      -8.028   7.046 -29.777  1.00  0.00     0.117 C 
HETATM   35  O   UNL     1      -8.961   7.078 -27.573  1.00  0.00    -0.274 OA
HETATM   36  H   UNL     1      -6.815   7.690 -26.714  1.00  0.00     0.171 HD
ENDBRANCH   1  32
TORSDOF 7
ENDMDL
MODEL 8
REMARK VINA RESULT:      -7.2      3.022      8.344
REMARK  7 active torsions:
REMARK  status: ('A' for Active; 'I' for Inactive)
REMARK       I    between atoms: C_2  and  N_3 
REMARK    1  A    between atoms: N_3  and  C_4 
REMARK    2  A    between atoms: N_9  and  C_10 
REMARK    3  A    between atoms: C_10  and  C_11 
REMARK    4  A    between atoms: C_11  and  C_12 
REMARK    5  A    between atoms: C_12  and  O_13 
REMARK    6  A    between atoms: O_13  and  C_14 
REMARK    7  A    between atoms: C_17  and  C_18 
REMARK       I    between atoms: N_30  and  C_31 
ROOT
HETATM    1  C   UNL     1      -8.520   4.606 -32.586  1.00  0.00     0.191 C 
HETATM    2  S   UNL     1      -7.604   3.418 -33.459  1.00  0.00    -0.042 SA
HETATM    3  C   UNL     1      -6.348   3.522 -32.121  1.00  0.00     0.224 A 
HETATM    4  C   UNL     1      -5.221   4.473 -32.613  1.00  0.00     0.271 A 
HETATM    5  O   UNL     1      -5.357   5.666 -32.857  1.00  0.00    -0.269 OA
HETATM    6  N   UNL     1      -4.054   3.698 -32.743  1.00  0.00    -0.314 N 
HETATM    7  C   UNL     1      -4.291   2.381 -32.293  1.00  0.00     0.047 A 
HETATM    8  C   UNL     1      -5.630   2.227 -31.907  1.00  0.00     0.019 A 
HETATM    9  C   UNL     1      -3.392   1.335 -32.195  1.00  0.00     0.030 A 
HETATM   10  C   UNL     1      -3.856   0.112 -31.700  1.00  0.00     0.002 A 
HETATM   11  C   UNL     1      -5.196  -0.044 -31.313  1.00  0.00     0.001 A 
HETATM   12  C   UNL     1      -6.097   1.017 -31.414  1.00  0.00     0.013 A 
HETATM   13  N   UNL     1      -7.066   4.138 -31.009  1.00  0.00    -0.201 N 
HETATM   14  C   UNL     1      -6.475   4.333 -29.772  1.00  0.00     0.238 C 
HETATM   15  C   UNL     1      -7.301   5.102 -28.771  1.00  0.00     0.119 C 
HETATM   16  O   UNL     1      -5.349   3.927 -29.485  1.00  0.00    -0.272 OA
HETATM   17  N   UNL     1      -8.211   4.846 -31.357  1.00  0.00    -0.141 NA
ENDROOT
BRANCH   6  18
HETATM   18  C   UNL     1      -2.725   4.178 -33.103  1.00  0.00     0.134 C 
BRANCH  18  19
HETATM   19  C   UNL     1      -2.679   5.150 -34.277  1.00  0.00     0.047 C 
BRANCH  19  20
HETATM   20  C   UNL     1      -1.288   5.723 -34.519  1.00  0.00     0.177 C 
BRANCH  20  21
HETATM   21  O   UNL     1      -1.308   7.056 -34.007  1.00  0.00    -0.351 OA
BRANCH  21  22
HETATM   22  C   UNL     1      -1.079   7.230 -32.675  1.00  0.00     0.068 A 
HETATM   23  C   UNL     1      -1.856   7.978 -31.799  1.00  0.00     0.037 A 
HETATM   24  C   UNL     1      -1.507   8.065 -30.443  1.00  0.00     0.011 A 
HETATM   25  C   UNL     1      -0.377   7.406 -29.930  1.00  0.00    -0.050 A 
HETATM   26  C   UNL     1       0.392   6.653 -30.836  1.00  0.00     0.011 A 
HETATM   27  C   UNL     1       0.042   6.565 -32.186  1.00  0.00     0.037 A 
BRANCH  25  28
HETATM   28  C   UNL     1       0.034   7.480 -28.450  1.00  0.00    -0.024 C 
HETATM   29  C   UNL     1       1.237   8.413 -28.182  1.00  0.00     0.019 C 
HETATM   30  C   UNL     1      -1.149   8.006 -27.609  1.00  0.00     0.019 C 
HETATM   31  C   UNL     1       0.427   6.073 -27.950  1.00  0.00     0.019 C 
ENDBRANCH  25  28
ENDBRANCH  21  22
ENDBRANCH  20  21
ENDBRANCH  19  20
ENDBRANCH  18  19
ENDBRANCH   6  18
BRANCH   1  32
HETATM   32  N   UNL     1      -9.517   5.188 -33.314  1.00  0.00    -0.305 N 
HETATM   33  C   UNL     1     -10.809   4.776 -33.535  1.00  0.00     0.219 C 
HETATM   34  C   UNL     1     -11.327   3.584 -32.779  1.00  0.00     0.117 C 
HETATM   35  O   UNL     1     -11.512   5.396 -34.333  1.00  0.00    -0.274 OA
HETATM   36  H   UNL     1      -9.290   6.065 -33.760  1.00  0.00     0.171 HD
ENDBRANCH   1  32
TORSDOF 7
ENDMDL
MODEL 9
REMARK VINA RESULT:      -7.2      2.860      5.533
REMARK  7 active torsions:
REMARK  status: ('A' for Active; 'I' for Inactive)
REMARK       I    between atoms: C_2  and  N_3 
REMARK    1  A    between atoms: N_3  and  C_4 
REMARK    2  A    between atoms: N_9  and  C_10 
REMARK    3  A    between atoms: C_10  and  C_11 
REMARK    4  A    between atoms: C_11  and  C_12 
REMARK    5  A    between atoms: C_12  and  O_13 
REMARK    6  A    between atoms: O_13  and  C_14 
REMARK    7  A    between atoms: C_17  and  C_18 
REMARK       I    between atoms: N_30  and  C_31 
ROOT
HETATM    1  C   UNL     1      -5.434   3.509 -30.283  1.00  0.00     0.191 C 
HETATM    2  S   UNL     1      -5.713   1.801 -30.158  1.00  0.00    -0.042 SA
HETATM    3  C   UNL     1      -6.273   1.846 -31.908  1.00  0.00     0.224 A 
HETATM    4  C   UNL     1      -7.827   1.906 -31.898  1.00  0.00     0.271 A 
HETATM    5  O   UNL     1      -8.497   2.826 -31.445  1.00  0.00    -0.269 OA
HETATM    6  N   UNL     1      -8.289   0.708 -32.472  1.00  0.00    -0.314 N 
HETATM    7  C   UNL     1      -7.202  -0.062 -32.937  1.00  0.00     0.047 A 
HETATM    8  C   UNL     1      -5.988   0.570 -32.635  1.00  0.00     0.019 A 
HETATM    9  C   UNL     1      -7.234  -1.267 -33.616  1.00  0.00     0.030 A 
HETATM   10  C   UNL     1      -6.016  -1.841 -33.993  1.00  0.00     0.002 A 
HETATM   11  C   UNL     1      -4.799  -1.210 -33.692  1.00  0.00     0.001 A 
HETATM   12  C   UNL     1      -4.776   0.006 -33.008  1.00  0.00     0.013 A 
HETATM   13  N   UNL     1      -5.732   3.102 -32.420  1.00  0.00    -0.201 N 
HETATM   14  C   UNL     1      -5.883   3.479 -33.744  1.00  0.00     0.238 C 
HETATM   15  C   UNL     1      -5.386   4.862 -34.086  1.00  0.00     0.119 C 
HETATM   16  O   UNL     1      -6.393   2.760 -34.602  1.00  0.00    -0.272 OA
HETATM   17  N   UNL     1      -5.402   4.047 -31.456  1.00  0.00    -0.141 NA
ENDROOT
BRANCH   6  18
HETATM   18  C   UNL     1      -9.677   0.351 -32.744  1.00  0.00     0.134 C 
BRANCH  18  19
HETATM   19  C   UNL     1     -10.311   1.060 -33.936  1.00  0.00     0.047 C 
BRANCH  19  20
HETATM   20  C   UNL     1     -11.341   2.106 -33.527  1.00  0.00     0.177 C 
BRANCH  20  21
HETATM   21  O   UNL     1     -11.858   2.656 -34.739  1.00  0.00    -0.351 OA
BRANCH  21  22
HETATM   22  C   UNL     1     -11.594   3.966 -35.007  1.00  0.00     0.068 A 
HETATM   23  C   UNL     1     -10.341   4.565 -35.021  1.00  0.00     0.037 A 
HETATM   24  C   UNL     1     -10.213   5.930 -35.323  1.00  0.00     0.011 A 
HETATM   25  C   UNL     1     -11.333   6.725 -35.619  1.00  0.00    -0.050 A 
HETATM   26  C   UNL     1     -12.590   6.095 -35.601  1.00  0.00     0.011 A 
HETATM   27  C   UNL     1     -12.715   4.736 -35.303  1.00  0.00     0.037 A 
BRANCH  25  28
HETATM   28  C   UNL     1     -11.229   8.223 -35.955  1.00  0.00    -0.024 C 
HETATM   29  C   UNL     1     -10.322   8.528 -37.169  1.00  0.00     0.019 C 
HETATM   30  C   UNL     1     -12.632   8.779 -36.282  1.00  0.00     0.019 C 
HETATM   31  C   UNL     1     -10.648   8.987 -34.746  1.00  0.00     0.019 C 
ENDBRANCH  25  28
ENDBRANCH  21  22
ENDBRANCH  20  21
ENDBRANCH  19  20
ENDBRANCH  18  19
ENDBRANCH   6  18
BRANCH   1  32
HETATM   32  N   UNL     1      -5.266   4.137 -29.084  1.00  0.00    -0.305 N 
HETATM   33  C   UNL     1      -6.069   5.046 -28.439  1.00  0.00     0.219 C 
HETATM   34  C   UNL     1      -7.429   5.341 -29.009  1.00  0.00     0.117 C 
HETATM   35  O   UNL     1      -5.664   5.587 -27.409  1.00  0.00    -0.274 OA
HETATM   36  H   UNL     1      -4.429   3.901 -28.570  1.00  0.00     0.171 HD
ENDBRANCH   1  32
TORSDOF 7
ENDMDL
MODEL 10
REMARK VINA RESULT:      -6.9      2.268      4.929
REMARK  7 active torsions:
REMARK  status: ('A' for Active; 'I' for Inactive)
REMARK       I    between atoms: C_2  and  N_3 
REMARK    1  A    between atoms: N_3  and  C_4 
REMARK    2  A    between atoms: N_9  and  C_10 
REMARK    3  A    between atoms: C_10  and  C_11 
REMARK    4  A    between atoms: C_11  and  C_12 
REMARK    5  A    between atoms: C_12  and  O_13 
REMARK    6  A    between atoms: O_13  and  C_14 
REMARK    7  A    between atoms: C_17  and  C_18 
REMARK       I    between atoms: N_30  and  C_31 
ROOT
HETATM    1  C   UNL     1      -5.884   3.790 -29.825  1.00  0.00     0.191 C 
HETATM    2  S   UNL     1      -6.363   2.139 -30.064  1.00  0.00    -0.042 SA
HETATM    3  C   UNL     1      -5.287   2.128 -31.554  1.00  0.00     0.224 A 
HETATM    4  C   UNL     1      -6.199   2.371 -32.789  1.00  0.00     0.271 A 
HETATM    5  O   UNL     1      -6.839   3.394 -33.007  1.00  0.00    -0.269 OA
HETATM    6  N   UNL     1      -6.162   1.199 -33.567  1.00  0.00    -0.314 N 
HETATM    7  C   UNL     1      -5.249   0.276 -33.013  1.00  0.00     0.047 A 
HETATM    8  C   UNL     1      -4.698   0.780 -31.827  1.00  0.00     0.019 A 
HETATM    9  C   UNL     1      -4.876  -0.961 -33.508  1.00  0.00     0.030 A 
HETATM   10  C   UNL     1      -3.932  -1.700 -32.788  1.00  0.00     0.002 A 
HETATM   11  C   UNL     1      -3.379  -1.197 -31.600  1.00  0.00     0.001 A 
HETATM   12  C   UNL     1      -3.760   0.053 -31.108  1.00  0.00     0.013 A 
HETATM   13  N   UNL     1      -4.402   3.273 -31.359  1.00  0.00    -0.201 N 
HETATM   14  C   UNL     1      -3.384   3.573 -32.249  1.00  0.00     0.238 C 
HETATM   15  C   UNL     1      -2.644   4.860 -31.981  1.00  0.00     0.119 C 
HETATM   16  O   UNL     1      -3.088   2.861 -33.208  1.00  0.00    -0.272 OA
HETATM   17  N   UNL     1      -4.861   4.238 -30.470  1.00  0.00    -0.141 NA
ENDROOT
BRANCH   6  18
HETATM   18  C   UNL     1      -6.804   0.990 -34.859  1.00  0.00     0.134 C 
BRANCH  18  19
HETATM   19  C   UNL     1      -8.174   0.321 -34.807  1.00  0.00     0.047 C 
BRANCH  19  20
HETATM   20  C   UNL     1      -8.708   0.169 -33.388  1.00  0.00     0.177 C 
BRANCH  20  21
HETATM   21  O   UNL     1     -10.124   0.329 -33.473  1.00  0.00    -0.351 OA
BRANCH  21  22
HETATM   22  C   UNL     1     -10.606   1.544 -33.857  1.00  0.00     0.068 A 
HETATM   23  C   UNL     1     -11.473   1.787 -34.915  1.00  0.00     0.037 A 
HETATM   24  C   UNL     1     -11.897   3.094 -35.196  1.00  0.00     0.011 A 
HETATM   25  C   UNL     1     -11.468   4.188 -34.426  1.00  0.00    -0.050 A 
HETATM   26  C   UNL     1     -10.592   3.917 -33.359  1.00  0.00     0.011 A 
HETATM   27  C   UNL     1     -10.173   2.614 -33.079  1.00  0.00     0.037 A 
BRANCH  25  28
HETATM   28  C   UNL     1     -11.914   5.634 -34.705  1.00  0.00    -0.024 C 
HETATM   29  C   UNL     1     -10.815   6.513 -35.344  1.00  0.00     0.019 C 
HETATM   30  C   UNL     1     -13.116   5.627 -35.673  1.00  0.00     0.019 C 
HETATM   31  C   UNL     1     -12.331   6.313 -33.382  1.00  0.00     0.019 C 
ENDBRANCH  25  28
ENDBRANCH  21  22
ENDBRANCH  20  21
ENDBRANCH  19  20
ENDBRANCH  18  19
ENDBRANCH   6  18
BRANCH   1  32
HETATM   32  N   UNL     1      -6.666   4.476 -28.941  1.00  0.00    -0.305 N 
HETATM   33  C   UNL     1      -7.711   5.339 -29.167  1.00  0.00     0.219 C 
HETATM   34  C   UNL     1      -8.228   5.497 -30.570  1.00  0.00     0.117 C 
HETATM   35  O   UNL     1      -8.205   5.950 -28.219  1.00  0.00    -0.274 OA
HETATM   36  H   UNL     1      -6.465   4.331 -27.962  1.00  0.00     0.171 HD
ENDBRANCH   1  32
TORSDOF 7
ENDMDL
