MODEL 1
REMARK VINA RESULT:      -8.8      0.000      0.000
REMARK  5 active torsions:
REMARK  status: ('A' for Active; 'I' for Inactive)
REMARK    1  A    between atoms: C_7  and  C_8 
REMARK    2  A    between atoms: N_9  and  C_10 
REMARK    3  A    between atoms: C_10  and  C_11 
REMARK       I    between atoms: C_11  and  N_12 
REMARK    4  A    between atoms: N_12  and  C_13 
REMARK    5  A    between atoms: C_13  and  C_14 
ROOT
HETATM    1  C   UNL     1      -6.087   3.347 -32.383  1.00  0.00     0.158 A 
HETATM    2  N   UNL     1      -6.265   4.151 -33.580  1.00  0.00    -0.326 N 
HETATM    3  C   UNL     1      -7.547   4.651 -33.689  1.00  0.00     0.255 A 
HETATM    4  O   UNL     1      -7.985   5.418 -34.524  1.00  0.00    -0.267 OA
HETATM    5  C   UNL     1      -8.323   4.077 -32.579  1.00  0.00     0.040 A 
HETATM    6  C   UNL     1      -7.474   3.270 -31.820  1.00  0.00    -0.015 A 
HETATM    7  C   UNL     1      -9.659   4.256 -32.270  1.00  0.00     0.017 A 
HETATM    8  C   UNL     1     -10.150   3.597 -31.140  1.00  0.00     0.001 A 
HETATM    9  C   UNL     1      -9.305   2.788 -30.359  1.00  0.00     0.001 A 
HETATM   10  C   UNL     1      -7.956   2.623 -30.693  1.00  0.00     0.011 A 
ENDROOT
BRANCH   1  11
HETATM   11  C   UNL     1      -5.591   1.960 -32.639  1.00  0.00     0.004 A 
HETATM   12  C   UNL     1      -4.402   1.432 -32.137  1.00  0.00     0.017 A 
HETATM   13  C   UNL     1      -3.381   2.048 -31.239  1.00  0.00     0.069 C 
HETATM   14  N   UNL     1      -4.261   0.153 -32.631  1.00  0.00    -0.354 N 
HETATM   15  C   UNL     1      -3.134  -0.712 -32.343  1.00  0.00     0.156 C 
HETATM   16  C   UNL     1      -5.321  -0.168 -33.452  1.00  0.00     0.045 A 
HETATM   17  C   UNL     1      -6.185   0.931 -33.454  1.00  0.00     0.001 A 
HETATM   18  C   UNL     1      -5.591  -1.328 -34.201  1.00  0.00     0.030 A 
HETATM   19  C   UNL     1      -7.370   0.846 -34.221  1.00  0.00     0.014 A 
HETATM   20  C   UNL     1      -7.645  -0.304 -34.968  1.00  0.00     0.001 A 
HETATM   21  C   UNL     1      -6.762  -1.376 -34.960  1.00  0.00     0.002 A 
ENDBRANCH   1  11
BRANCH   2  22
HETATM   22  C   UNL     1      -5.170   4.451 -34.496  1.00  0.00     0.229 C 
BRANCH  22  23
HETATM   23  C   UNL     1      -4.106   5.353 -33.871  1.00  0.00     0.235 C 
HETATM   24  N   UNL     1      -2.845   4.804 -33.828  1.00  0.00    -0.357 N 
HETATM   25  H   UNL     1      -2.746   3.810 -34.018  1.00  0.00     0.162 HD
HETATM   26  O   UNL     1      -4.377   6.440 -33.369  1.00  0.00    -0.272 OA
BRANCH  24  27
HETATM   27  C   UNL     1      -1.699   5.502 -33.275  1.00  0.00     0.154 C 
BRANCH  27  28
HETATM   28  C   UNL     1      -1.392   5.156 -31.811  1.00  0.00     0.139 C 
HETATM   29  O   UNL     1      -2.163   6.012 -30.943  1.00  0.00    -0.384 OA
HETATM   30  C   UNL     1      -1.273   6.592 -29.981  1.00  0.00     0.168 C 
HETATM   31  C   UNL     1       0.098   6.575 -30.613  1.00  0.00     0.029 C 
HETATM   32  C   UNL     1       0.068   5.285 -31.395  1.00  0.00     0.035 C 
ENDBRANCH  27  28
ENDBRANCH  24  27
ENDBRANCH  22  23
ENDBRANCH   2  22
TORSDOF 5
ENDMDL
MODEL 2
REMARK VINA RESULT:      -8.7      2.972      6.650
REMARK  5 active torsions:
REMARK  status: ('A' for Active; 'I' for Inactive)
REMARK    1  A    between atoms: C_7  and  C_8 
REMARK    2  A    between atoms: N_9  and  C_10 
REMARK    3  A    between atoms: C_10  and  C_11 
REMARK       I    between atoms: C_11  and  N_12 
REMARK    4  A    between atoms: N_12  and  C_13 
REMARK    5  A    between atoms: C_13  and  C_14 
ROOT
HETATM    1  C   UNL     1      -7.154   2.166 -33.259  1.00  0.00     0.158 A 
HETATM    2  N   UNL     1      -7.734   2.304 -31.933  1.00  0.00    -0.326 N 
HETATM    3  C   UNL     1      -7.412   3.510 -31.344  1.00  0.00     0.255 A 
HETATM    4  O   UNL     1      -7.806   3.956 -30.285  1.00  0.00    -0.267 OA
HETATM    5  C   UNL     1      -6.476   4.191 -32.253  1.00  0.00     0.040 A 
HETATM    6  C   UNL     1      -6.287   3.383 -33.375  1.00  0.00    -0.015 A 
HETATM    7  C   UNL     1      -5.853   5.415 -32.099  1.00  0.00     0.017 A 
HETATM    8  C   UNL     1      -5.011   5.840 -33.129  1.00  0.00     0.001 A 
HETATM    9  C   UNL     1      -4.816   5.041 -34.271  1.00  0.00     0.001 A 
HETATM   10  C   UNL     1      -5.459   3.806 -34.404  1.00  0.00     0.011 A 
ENDROOT
BRANCH   1  11
HETATM   11  C   UNL     1      -6.306   0.947 -33.438  1.00  0.00     0.004 A 
HETATM   12  C   UNL     1      -6.570  -0.083 -34.340  1.00  0.00     0.017 A 
HETATM   13  C   UNL     1      -7.675  -0.232 -35.333  1.00  0.00     0.069 C 
HETATM   14  N   UNL     1      -5.602  -1.051 -34.177  1.00  0.00    -0.354 N 
HETATM   15  C   UNL     1      -5.551  -2.288 -34.930  1.00  0.00     0.156 C 
HETATM   16  C   UNL     1      -4.716  -0.686 -33.185  1.00  0.00     0.045 A 
HETATM   17  C   UNL     1      -5.113   0.572 -32.724  1.00  0.00     0.001 A 
HETATM   18  C   UNL     1      -3.604  -1.359 -32.648  1.00  0.00     0.030 A 
HETATM   19  C   UNL     1      -4.348   1.179 -31.700  1.00  0.00     0.014 A 
HETATM   20  C   UNL     1      -3.241   0.516 -31.162  1.00  0.00     0.001 A 
HETATM   21  C   UNL     1      -2.877  -0.740 -31.628  1.00  0.00     0.002 A 
ENDBRANCH   1  11
BRANCH   2  22
HETATM   22  C   UNL     1      -8.624   1.303 -31.356  1.00  0.00     0.229 C 
BRANCH  22  23
HETATM   23  C   UNL     1      -9.754   0.898 -32.303  1.00  0.00     0.235 C 
HETATM   24  N   UNL     1     -10.630   1.913 -32.614  1.00  0.00    -0.357 N 
HETATM   25  H   UNL     1     -10.589   2.768 -32.066  1.00  0.00     0.162 HD
HETATM   26  O   UNL     1      -9.915  -0.260 -32.679  1.00  0.00    -0.272 OA
BRANCH  24  27
HETATM   27  C   UNL     1     -11.766   1.730 -33.497  1.00  0.00     0.154 C 
BRANCH  27  28
HETATM   28  C   UNL     1     -11.593   2.350 -34.891  1.00  0.00     0.139 C 
HETATM   29  O   UNL     1     -10.434   3.209 -34.893  1.00  0.00    -0.384 OA
HETATM   30  C   UNL     1     -10.819   4.477 -35.439  1.00  0.00     0.168 C 
HETATM   31  C   UNL     1     -12.307   4.598 -35.215  1.00  0.00     0.029 C 
HETATM   32  C   UNL     1     -12.769   3.174 -35.398  1.00  0.00     0.035 C 
ENDBRANCH  27  28
ENDBRANCH  24  27
ENDBRANCH  22  23
ENDBRANCH   2  22
TORSDOF 5
ENDMDL
MODEL 3
REMARK VINA RESULT:      -8.6      1.733      2.141
REMARK  5 active torsions:
REMARK  status: ('A' for Active; 'I' for Inactive)
REMARK    1  A    between atoms: C_7  and  C_8 
REMARK    2  A    between atoms: N_9  and  C_10 
REMARK    3  A    between atoms: C_10  and  C_11 
REMARK       I    between atoms: C_11  and  N_12 
REMARK    4  A    between atoms: N_12  and  C_13 
REMARK    5  A    between atoms: C_13  and  C_14 
ROOT
HETATM    1  C   UNL     1      -4.430   2.673 -31.639  1.00  0.00     0.158 A 
HETATM    2  N   UNL     1      -4.038   3.720 -32.568  1.00  0.00    -0.326 N 
HETATM    3  C   UNL     1      -4.862   4.824 -32.490  1.00  0.00     0.255 A 
HETATM    4  O   UNL     1      -4.750   5.886 -33.070  1.00  0.00    -0.267 OA
HETATM    5  C   UNL     1      -5.941   4.485 -31.549  1.00  0.00     0.040 A 
HETATM    6  C   UNL     1      -5.714   3.194 -31.068  1.00  0.00    -0.015 A 
HETATM    7  C   UNL     1      -7.022   5.251 -31.155  1.00  0.00     0.017 A 
HETATM    8  C   UNL     1      -7.902   4.689 -30.228  1.00  0.00     0.001 A 
HETATM    9  C   UNL     1      -7.684   3.393 -29.726  1.00  0.00     0.001 A 
HETATM   10  C   UNL     1      -6.582   2.637 -30.141  1.00  0.00     0.011 A 
ENDROOT
BRANCH   1  11
HETATM   11  C   UNL     1      -4.688   1.346 -32.279  1.00  0.00     0.004 A 
HETATM   12  C   UNL     1      -3.948   0.188 -32.041  1.00  0.00     0.017 A 
HETATM   13  C   UNL     1      -2.794  -0.043 -31.123  1.00  0.00     0.069 C 
HETATM   14  N   UNL     1      -4.448  -0.811 -32.849  1.00  0.00    -0.354 N 
HETATM   15  C   UNL     1      -3.922  -2.160 -32.896  1.00  0.00     0.156 C 
HETATM   16  C   UNL     1      -5.490  -0.336 -33.617  1.00  0.00     0.045 A 
HETATM   17  C   UNL     1      -5.684   1.002 -33.262  1.00  0.00     0.001 A 
HETATM   18  C   UNL     1      -6.275  -0.966 -34.600  1.00  0.00     0.030 A 
HETATM   19  C   UNL     1      -6.717   1.720 -33.907  1.00  0.00     0.014 A 
HETATM   20  C   UNL     1      -7.502   1.100 -34.885  1.00  0.00     0.001 A 
HETATM   21  C   UNL     1      -7.278  -0.226 -35.229  1.00  0.00     0.002 A 
ENDBRANCH   1  11
BRANCH   2  22
HETATM   22  C   UNL     1      -2.849   3.621 -33.407  1.00  0.00     0.229 C 
BRANCH  22  23
HETATM   23  C   UNL     1      -2.029   4.911 -33.429  1.00  0.00     0.235 C 
HETATM   24  N   UNL     1      -1.610   5.343 -32.192  1.00  0.00    -0.357 N 
HETATM   25  H   UNL     1      -2.019   4.911 -31.368  1.00  0.00     0.162 HD
HETATM   26  O   UNL     1      -1.842   5.554 -34.459  1.00  0.00    -0.272 OA
BRANCH  24  27
HETATM   27  C   UNL     1      -0.820   6.545 -32.003  1.00  0.00     0.154 C 
BRANCH  27  28
HETATM   28  C   UNL     1       0.461   6.339 -31.182  1.00  0.00     0.139 C 
HETATM   29  O   UNL     1       0.668   4.928 -30.961  1.00  0.00    -0.384 OA
HETATM   30  C   UNL     1       0.893   4.724 -29.560  1.00  0.00     0.168 C 
HETATM   31  C   UNL     1       0.239   5.888 -28.854  1.00  0.00     0.029 C 
HETATM   32  C   UNL     1       0.488   7.020 -29.819  1.00  0.00     0.035 C 
ENDBRANCH  27  28
ENDBRANCH  24  27
ENDBRANCH  22  23
ENDBRANCH   2  22
TORSDOF 5
ENDMDL
MODEL 4
REMARK VINA RESULT:      -8.5      2.058      3.064
REMARK  5 active torsions:
REMARK  status: ('A' for Active; 'I' for Inactive)
REMARK    1  A    between atoms: C_7  and  C_8 
REMARK    2  A    between atoms: N_9  and  C_10 
REMARK    3  A    between atoms: C_10  and  C_11 
REMARK       I    between atoms: C_11  and  N_12 
REMARK    4  A    between atoms: N_12  and  C_13 
REMARK    5  A    between atoms: C_13  and  C_14 
ROOT
HETATM    1  C   UNL     1      -9.300   3.498 -32.649  1.00  0.00     0.158 A 
HETATM    2  N   UNL     1      -8.799   4.611 -33.440  1.00  0.00    -0.326 N 
HETATM    3  C   UNL     1      -9.550   4.825 -34.577  1.00  0.00     0.255 A 
HETATM    4  O   UNL     1      -9.440   5.720 -35.392  1.00  0.00    -0.267 OA
HETATM    5  C   UNL     1     -10.547   3.745 -34.639  1.00  0.00     0.040 A 
HETATM    6  C   UNL     1     -10.381   2.930 -33.518  1.00  0.00    -0.015 A 
HETATM    7  C   UNL     1     -11.514   3.508 -35.598  1.00  0.00     0.017 A 
HETATM    8  C   UNL     1     -12.350   2.406 -35.408  1.00  0.00     0.001 A 
HETATM    9  C   UNL     1     -12.202   1.580 -34.280  1.00  0.00     0.001 A 
HETATM   10  C   UNL     1     -11.216   1.840 -33.322  1.00  0.00     0.011 A 
ENDROOT
BRANCH   1  11
HETATM   11  C   UNL     1      -8.288   2.433 -32.374  1.00  0.00     0.004 A 
HETATM   12  C   UNL     1      -7.630   2.252 -31.158  1.00  0.00     0.017 A 
HETATM   13  C   UNL     1      -7.765   2.998 -29.872  1.00  0.00     0.069 C 
HETATM   14  N   UNL     1      -6.739   1.211 -31.305  1.00  0.00    -0.354 N 
HETATM   15  C   UNL     1      -5.857   0.738 -30.257  1.00  0.00     0.156 C 
HETATM   16  C   UNL     1      -6.789   0.710 -32.589  1.00  0.00     0.045 A 
HETATM   17  C   UNL     1      -7.769   1.434 -33.273  1.00  0.00     0.001 A 
HETATM   18  C   UNL     1      -6.050  -0.313 -33.211  1.00  0.00     0.030 A 
HETATM   19  C   UNL     1      -8.025   1.099 -34.623  1.00  0.00     0.014 A 
HETATM   20  C   UNL     1      -7.295   0.083 -35.248  1.00  0.00     0.001 A 
HETATM   21  C   UNL     1      -6.316  -0.611 -34.549  1.00  0.00     0.002 A 
ENDBRANCH   1  11
BRANCH   2  22
HETATM   22  C   UNL     1      -7.682   5.443 -33.006  1.00  0.00     0.229 C 
BRANCH  22  23
HETATM   23  C   UNL     1      -6.325   4.882 -33.431  1.00  0.00     0.235 C 
HETATM   24  N   UNL     1      -5.407   4.773 -32.411  1.00  0.00    -0.357 N 
HETATM   25  H   UNL     1      -5.611   5.235 -31.529  1.00  0.00     0.162 HD
HETATM   26  O   UNL     1      -6.052   4.636 -34.603  1.00  0.00    -0.272 OA
BRANCH  24  27
HETATM   27  C   UNL     1      -4.064   4.261 -32.611  1.00  0.00     0.154 C 
BRANCH  27  28
HETATM   28  C   UNL     1      -2.957   5.313 -32.464  1.00  0.00     0.139 C 
HETATM   29  O   UNL     1      -3.302   6.484 -33.235  1.00  0.00    -0.384 OA
HETATM   30  C   UNL     1      -2.179   6.823 -34.059  1.00  0.00     0.168 C 
HETATM   31  C   UNL     1      -1.391   5.548 -34.243  1.00  0.00     0.029 C 
HETATM   32  C   UNL     1      -1.566   4.874 -32.905  1.00  0.00     0.035 C 
ENDBRANCH  27  28
ENDBRANCH  24  27
ENDBRANCH  22  23
ENDBRANCH   2  22
TORSDOF 5
ENDMDL
MODEL 5
REMARK VINA RESULT:      -8.3      3.119      6.551
REMARK  5 active torsions:
REMARK  status: ('A' for Active; 'I' for Inactive)
REMARK    1  A    between atoms: C_7  and  C_8 
REMARK    2  A    between atoms: N_9  and  C_10 
REMARK    3  A    between atoms: C_10  and  C_11 
REMARK       I    between atoms: C_11  and  N_12 
REMARK    4  A    between atoms: N_12  and  C_13 
REMARK    5  A    between atoms: C_13  and  C_14 
ROOT
HETATM    1  C   UNL     1      -7.104   1.970 -33.143  1.00  0.00     0.158 A 
HETATM    2  N   UNL     1      -8.020   2.184 -32.034  1.00  0.00    -0.326 N 
HETATM    3  C   UNL     1      -8.059   3.504 -31.634  1.00  0.00     0.255 A 
HETATM    4  O   UNL     1      -8.778   4.014 -30.797  1.00  0.00    -0.267 OA
HETATM    5  C   UNL     1      -7.043   4.218 -32.423  1.00  0.00     0.040 A 
HETATM    6  C   UNL     1      -6.444   3.307 -33.295  1.00  0.00    -0.015 A 
HETATM    7  C   UNL     1      -6.684   5.552 -32.374  1.00  0.00     0.017 A 
HETATM    8  C   UNL     1      -5.685   5.981 -33.251  1.00  0.00     0.001 A 
HETATM    9  C   UNL     1      -5.078   5.078 -34.142  1.00  0.00     0.001 A 
HETATM   10  C   UNL     1      -5.458   3.732 -34.173  1.00  0.00     0.011 A 
ENDROOT
BRANCH   1  11
HETATM   11  C   UNL     1      -6.055   0.937 -32.886  1.00  0.00     0.004 A 
HETATM   12  C   UNL     1      -5.024   1.061 -31.955  1.00  0.00     0.017 A 
HETATM   13  C   UNL     1      -4.719   2.168 -31.000  1.00  0.00     0.069 C 
HETATM   14  N   UNL     1      -4.230  -0.063 -32.044  1.00  0.00    -0.354 N 
HETATM   15  C   UNL     1      -3.045  -0.289 -31.243  1.00  0.00     0.156 C 
HETATM   16  C   UNL     1      -4.709  -0.916 -33.015  1.00  0.00     0.045 A 
HETATM   17  C   UNL     1      -5.866  -0.333 -33.539  1.00  0.00     0.001 A 
HETATM   18  C   UNL     1      -4.220  -2.149 -33.484  1.00  0.00     0.030 A 
HETATM   19  C   UNL     1      -6.561  -1.028 -34.556  1.00  0.00     0.014 A 
HETATM   20  C   UNL     1      -6.081  -2.254 -35.027  1.00  0.00     0.001 A 
HETATM   21  C   UNL     1      -4.921  -2.804 -34.499  1.00  0.00     0.002 A 
ENDBRANCH   1  11
BRANCH   2  22
HETATM   22  C   UNL     1      -8.855   1.120 -31.489  1.00  0.00     0.229 C 
BRANCH  22  23
HETATM   23  C   UNL     1      -9.815   0.531 -32.523  1.00  0.00     0.235 C 
HETATM   24  N   UNL     1     -10.927   1.302 -32.775  1.00  0.00    -0.357 N 
HETATM   25  H   UNL     1     -11.130   2.073 -32.145  1.00  0.00     0.162 HD
HETATM   26  O   UNL     1      -9.649  -0.581 -33.017  1.00  0.00    -0.272 OA
BRANCH  24  27
HETATM   27  C   UNL     1     -11.955   0.917 -33.724  1.00  0.00     0.154 C 
BRANCH  27  28
HETATM   28  C   UNL     1     -12.761   2.091 -34.297  1.00  0.00     0.139 C 
HETATM   29  O   UNL     1     -12.713   2.047 -35.739  1.00  0.00    -0.384 OA
HETATM   30  C   UNL     1     -12.325   3.343 -36.212  1.00  0.00     0.168 C 
HETATM   31  C   UNL     1     -11.564   3.994 -35.082  1.00  0.00     0.029 C 
HETATM   32  C   UNL     1     -12.299   3.479 -33.870  1.00  0.00     0.035 C 
ENDBRANCH  27  28
ENDBRANCH  24  27
ENDBRANCH  22  23
ENDBRANCH   2  22
TORSDOF 5
ENDMDL
MODEL 6
REMARK VINA RESULT:      -8.3      3.050      5.962
REMARK  5 active torsions:
REMARK  status: ('A' for Active; 'I' for Inactive)
REMARK    1  A    between atoms: C_7  and  C_8 
REMARK    2  A    between atoms: N_9  and  C_10 
REMARK    3  A    between atoms: C_10  and  C_11 
REMARK       I    between atoms: C_11  and  N_12 
REMARK    4  A    between atoms: N_12  and  C_13 
REMARK    5  A    between atoms: C_13  and  C_14 
ROOT
HETATM    1  C   UNL     1      -8.222   1.839 -33.207  1.00  0.00     0.158 A 
HETATM    2  N   UNL     1      -7.942   1.745 -31.784  1.00  0.00    -0.326 N 
HETATM    3  C   UNL     1      -7.102   0.692 -31.484  1.00  0.00     0.255 A 
HETATM    4  O   UNL     1      -6.620   0.399 -30.408  1.00  0.00    -0.267 OA
HETATM    5  C   UNL     1      -6.881  -0.046 -32.738  1.00  0.00     0.040 A 
HETATM    6  C   UNL     1      -7.573   0.607 -33.759  1.00  0.00    -0.015 A 
HETATM    7  C   UNL     1      -6.132  -1.187 -32.953  1.00  0.00     0.017 A 
HETATM    8  C   UNL     1      -6.076  -1.682 -34.258  1.00  0.00     0.001 A 
HETATM    9  C   UNL     1      -6.761  -1.031 -35.301  1.00  0.00     0.001 A 
HETATM   10  C   UNL     1      -7.512   0.124 -35.058  1.00  0.00     0.011 A 
ENDROOT
BRANCH   1  11
HETATM   11  C   UNL     1      -9.677   1.817 -33.552  1.00  0.00     0.004 A 
HETATM   12  C   UNL     1     -10.541   0.753 -33.299  1.00  0.00     0.017 A 
HETATM   13  C   UNL     1     -10.282  -0.557 -32.631  1.00  0.00     0.069 C 
HETATM   14  N   UNL     1     -11.781   1.080 -33.805  1.00  0.00    -0.354 N 
HETATM   15  C   UNL     1     -12.939   0.211 -33.748  1.00  0.00     0.156 C 
HETATM   16  C   UNL     1     -11.750   2.327 -34.392  1.00  0.00     0.045 A 
HETATM   17  C   UNL     1     -10.455   2.827 -34.224  1.00  0.00     0.001 A 
HETATM   18  C   UNL     1     -12.747   3.056 -35.064  1.00  0.00     0.030 A 
HETATM   19  C   UNL     1     -10.166   4.114 -34.734  1.00  0.00     0.014 A 
HETATM   20  C   UNL     1     -11.152   4.845 -35.403  1.00  0.00     0.001 A 
HETATM   21  C   UNL     1     -12.426   4.318 -35.569  1.00  0.00     0.002 A 
ENDBRANCH   1  11
BRANCH   2  22
HETATM   22  C   UNL     1      -8.435   2.722 -30.819  1.00  0.00     0.229 C 
BRANCH  22  23
HETATM   23  C   UNL     1      -7.576   3.986 -30.764  1.00  0.00     0.235 C 
HETATM   24  N   UNL     1      -7.917   4.949 -31.686  1.00  0.00    -0.357 N 
HETATM   25  H   UNL     1      -8.552   4.693 -32.437  1.00  0.00     0.162 HD
HETATM   26  O   UNL     1      -6.606   4.090 -30.019  1.00  0.00    -0.272 OA
BRANCH  24  27
HETATM   27  C   UNL     1      -7.223   6.219 -31.792  1.00  0.00     0.154 C 
BRANCH  27  28
HETATM   28  C   UNL     1      -6.161   6.271 -32.899  1.00  0.00     0.139 C 
HETATM   29  O   UNL     1      -6.514   5.341 -33.946  1.00  0.00    -0.384 OA
HETATM   30  C   UNL     1      -5.369   4.525 -34.222  1.00  0.00     0.168 C 
HETATM   31  C   UNL     1      -4.529   4.539 -32.967  1.00  0.00     0.029 C 
HETATM   32  C   UNL     1      -4.738   5.945 -32.465  1.00  0.00     0.035 C 
ENDBRANCH  27  28
ENDBRANCH  24  27
ENDBRANCH  22  23
ENDBRANCH   2  22
TORSDOF 5
ENDMDL
MODEL 7
REMARK VINA RESULT:      -8.3      2.962      5.620
REMARK  5 active torsions:
REMARK  status: ('A' for Active; 'I' for Inactive)
REMARK    1  A    between atoms: C_7  and  C_8 
REMARK    2  A    between atoms: N_9  and  C_10 
REMARK    3  A    between atoms: C_10  and  C_11 
REMARK       I    between atoms: C_11  and  N_12 
REMARK    4  A    between atoms: N_12  and  C_13 
REMARK    5  A    between atoms: C_13  and  C_14 
ROOT
HETATM    1  C   UNL     1      -8.038   2.257 -33.165  1.00  0.00     0.158 A 
HETATM    2  N   UNL     1      -7.919   1.987 -31.741  1.00  0.00    -0.326 N 
HETATM    3  C   UNL     1      -7.287   0.787 -31.487  1.00  0.00     0.255 A 
HETATM    4  O   UNL     1      -6.965   0.321 -30.411  1.00  0.00    -0.267 OA
HETATM    5  C   UNL     1      -7.059   0.142 -32.789  1.00  0.00     0.040 A 
HETATM    6  C   UNL     1      -7.536   0.990 -33.790  1.00  0.00    -0.015 A 
HETATM    7  C   UNL     1      -6.478  -1.083 -33.062  1.00  0.00     0.017 A 
HETATM    8  C   UNL     1      -6.371  -1.458 -34.403  1.00  0.00     0.001 A 
HETATM    9  C   UNL     1      -6.839  -0.611 -35.424  1.00  0.00     0.001 A 
HETATM   10  C   UNL     1      -7.422   0.625 -35.123  1.00  0.00     0.011 A 
ENDROOT
BRANCH   1  11
HETATM   11  C   UNL     1      -9.437   2.506 -33.631  1.00  0.00     0.004 A 
HETATM   12  C   UNL     1      -9.903   3.716 -34.144  1.00  0.00     0.017 A 
HETATM   13  C   UNL     1      -9.181   5.000 -34.385  1.00  0.00     0.069 C 
HETATM   14  N   UNL     1     -11.248   3.576 -34.411  1.00  0.00    -0.354 N 
HETATM   15  C   UNL     1     -12.088   4.631 -34.941  1.00  0.00     0.156 C 
HETATM   16  C   UNL     1     -11.678   2.309 -34.078  1.00  0.00     0.045 A 
HETATM   17  C   UNL     1     -10.562   1.606 -33.615  1.00  0.00     0.001 A 
HETATM   18  C   UNL     1     -12.955   1.722 -34.136  1.00  0.00     0.030 A 
HETATM   19  C   UNL     1     -10.739   0.261 -33.217  1.00  0.00     0.014 A 
HETATM   20  C   UNL     1     -12.005  -0.330 -33.273  1.00  0.00     0.001 A 
HETATM   21  C   UNL     1     -13.100   0.395 -33.723  1.00  0.00     0.002 A 
ENDBRANCH   1  11
BRANCH   2  22
HETATM   22  C   UNL     1      -8.348   2.939 -30.723  1.00  0.00     0.229 C 
BRANCH  22  23
HETATM   23  C   UNL     1      -7.508   4.217 -30.715  1.00  0.00     0.235 C 
HETATM   24  N   UNL     1      -6.255   4.074 -30.162  1.00  0.00    -0.357 N 
HETATM   25  H   UNL     1      -6.054   3.225 -29.641  1.00  0.00     0.162 HD
HETATM   26  O   UNL     1      -7.953   5.299 -31.087  1.00  0.00    -0.272 OA
BRANCH  24  27
HETATM   27  C   UNL     1      -5.308   5.169 -30.064  1.00  0.00     0.154 C 
BRANCH  27  28
HETATM   28  C   UNL     1      -4.347   5.285 -31.255  1.00  0.00     0.139 C 
HETATM   29  O   UNL     1      -4.882   6.222 -32.214  1.00  0.00    -0.384 OA
HETATM   30  C   UNL     1      -4.866   5.598 -33.504  1.00  0.00     0.168 C 
HETATM   31  C   UNL     1      -4.892   4.110 -33.253  1.00  0.00     0.029 C 
HETATM   32  C   UNL     1      -4.061   3.988 -32.001  1.00  0.00     0.035 C 
ENDBRANCH  27  28
ENDBRANCH  24  27
ENDBRANCH  22  23
ENDBRANCH   2  22
TORSDOF 5
ENDMDL
MODEL 8
REMARK VINA RESULT:      -8.2      1.695      1.946
REMARK  5 active torsions:
REMARK  status: ('A' for Active; 'I' for Inactive)
REMARK    1  A    between atoms: C_7  and  C_8 
REMARK    2  A    between atoms: N_9  and  C_10 
REMARK    3  A    between atoms: C_10  and  C_11 
REMARK       I    between atoms: C_11  and  N_12 
REMARK    4  A    between atoms: N_12  and  C_13 
REMARK    5  A    between atoms: C_13  and  C_14 
ROOT
HETATM    1  C   UNL     1      -5.835   1.673 -32.139  1.00  0.00     0.158 A 
HETATM    2  N   UNL     1      -5.313   2.715 -33.009  1.00  0.00    -0.326 N 
HETATM    3  C   UNL     1      -6.315   3.405 -33.660  1.00  0.00     0.255 A 
HETATM    4  O   UNL     1      -6.211   4.376 -34.383  1.00  0.00    -0.267 OA
HETATM    5  C   UNL     1      -7.582   2.740 -33.315  1.00  0.00     0.040 A 
HETATM    6  C   UNL     1      -7.302   1.687 -32.443  1.00  0.00    -0.015 A 
HETATM    7  C   UNL     1      -8.864   3.044 -33.734  1.00  0.00     0.017 A 
HETATM    8  C   UNL     1      -9.904   2.253 -33.241  1.00  0.00     0.001 A 
HETATM    9  C   UNL     1      -9.640   1.193 -32.355  1.00  0.00     0.001 A 
HETATM   10  C   UNL     1      -8.334   0.906 -31.945  1.00  0.00     0.011 A 
ENDROOT
BRANCH   1  11
HETATM   11  C   UNL     1      -5.294   0.308 -32.419  1.00  0.00     0.004 A 
HETATM   12  C   UNL     1      -4.200  -0.266 -31.772  1.00  0.00     0.017 A 
HETATM   13  C   UNL     1      -3.343   0.272 -30.673  1.00  0.00     0.069 C 
HETATM   14  N   UNL     1      -3.971  -1.503 -32.335  1.00  0.00    -0.354 N 
HETATM   15  C   UNL     1      -2.902  -2.395 -31.935  1.00  0.00     0.156 C 
HETATM   16  C   UNL     1      -4.880  -1.752 -33.341  1.00  0.00     0.045 A 
HETATM   17  C   UNL     1      -5.740  -0.651 -33.398  1.00  0.00     0.001 A 
HETATM   18  C   UNL     1      -5.017  -2.847 -34.213  1.00  0.00     0.030 A 
HETATM   19  C   UNL     1      -6.783  -0.668 -34.353  1.00  0.00     0.014 A 
HETATM   20  C   UNL     1      -6.925  -1.754 -35.222  1.00  0.00     0.001 A 
HETATM   21  C   UNL     1      -6.048  -2.828 -35.154  1.00  0.00     0.002 A 
ENDBRANCH   1  11
BRANCH   2  22
HETATM   22  C   UNL     1      -3.891   3.029 -33.093  1.00  0.00     0.229 C 
BRANCH  22  23
HETATM   23  C   UNL     1      -3.479   4.168 -32.159  1.00  0.00     0.235 C 
HETATM   24  N   UNL     1      -2.329   4.825 -32.531  1.00  0.00    -0.357 N 
HETATM   25  H   UNL     1      -1.747   4.405 -33.251  1.00  0.00     0.162 HD
HETATM   26  O   UNL     1      -4.078   4.412 -31.115  1.00  0.00    -0.272 OA
BRANCH  24  27
HETATM   27  C   UNL     1      -1.775   5.934 -31.777  1.00  0.00     0.154 C 
BRANCH  27  28
HETATM   28  C   UNL     1      -0.279   5.802 -31.462  1.00  0.00     0.139 C 
HETATM   29  O   UNL     1      -0.046   4.571 -30.745  1.00  0.00    -0.384 OA
HETATM   30  C   UNL     1       0.723   4.875 -29.574  1.00  0.00     0.168 C 
HETATM   31  C   UNL     1       0.452   6.326 -29.257  1.00  0.00     0.029 C 
HETATM   32  C   UNL     1       0.323   6.930 -30.634  1.00  0.00     0.035 C 
ENDBRANCH  27  28
ENDBRANCH  24  27
ENDBRANCH  22  23
ENDBRANCH   2  22
TORSDOF 5
ENDMDL
MODEL 9
REMARK VINA RESULT:      -8.1      2.363      6.435
REMARK  5 active torsions:
REMARK  status: ('A' for Active; 'I' for Inactive)
REMARK    1  A    between atoms: C_7  and  C_8 
REMARK    2  A    between atoms: N_9  and  C_10 
REMARK    3  A    between atoms: C_10  and  C_11 
REMARK       I    between atoms: C_11  and  N_12 
REMARK    4  A    between atoms: N_12  and  C_13 
REMARK    5  A    between atoms: C_13  and  C_14 
ROOT
HETATM    1  C   UNL     1      -5.533   3.118 -32.370  1.00  0.00     0.158 A 
HETATM    2  N   UNL     1      -6.000   3.444 -31.033  1.00  0.00    -0.326 N 
HETATM    3  C   UNL     1      -5.178   4.351 -30.397  1.00  0.00     0.255 A 
HETATM    4  O   UNL     1      -5.338   4.880 -29.315  1.00  0.00    -0.267 OA
HETATM    5  C   UNL     1      -4.029   4.580 -31.287  1.00  0.00     0.040 A 
HETATM    6  C   UNL     1      -4.212   3.822 -32.445  1.00  0.00    -0.015 A 
HETATM    7  C   UNL     1      -2.925   5.388 -31.090  1.00  0.00     0.017 A 
HETATM    8  C   UNL     1      -1.973   5.436 -32.111  1.00  0.00     0.001 A 
HETATM    9  C   UNL     1      -2.147   4.685 -33.288  1.00  0.00     0.001 A 
HETATM   10  C   UNL     1      -3.274   3.875 -33.465  1.00  0.00     0.011 A 
ENDROOT
BRANCH   1  11
HETATM   11  C   UNL     1      -5.318   1.658 -32.611  1.00  0.00     0.004 A 
HETATM   12  C   UNL     1      -4.334   0.885 -31.997  1.00  0.00     0.017 A 
HETATM   13  C   UNL     1      -3.311   1.263 -30.977  1.00  0.00     0.069 C 
HETATM   14  N   UNL     1      -4.413  -0.393 -32.509  1.00  0.00    -0.354 N 
HETATM   15  C   UNL     1      -3.537  -1.481 -32.125  1.00  0.00     0.156 C 
HETATM   16  C   UNL     1      -5.418  -0.475 -33.449  1.00  0.00     0.045 A 
HETATM   17  C   UNL     1      -6.023   0.784 -33.514  1.00  0.00     0.001 A 
HETATM   18  C   UNL     1      -5.844  -1.546 -34.256  1.00  0.00     0.030 A 
HETATM   19  C   UNL     1      -7.105   0.960 -34.408  1.00  0.00     0.014 A 
HETATM   20  C   UNL     1      -7.533  -0.101 -35.212  1.00  0.00     0.001 A 
HETATM   21  C   UNL     1      -6.906  -1.337 -35.138  1.00  0.00     0.002 A 
ENDBRANCH   1  11
BRANCH   2  22
HETATM   22  C   UNL     1      -7.248   2.922 -30.488  1.00  0.00     0.229 C 
BRANCH  22  23
HETATM   23  C   UNL     1      -8.481   3.444 -31.226  1.00  0.00     0.235 C 
HETATM   24  N   UNL     1      -9.182   2.483 -31.919  1.00  0.00    -0.357 N 
HETATM   25  H   UNL     1      -8.746   1.574 -32.055  1.00  0.00     0.162 HD
HETATM   26  O   UNL     1      -8.767   4.637 -31.269  1.00  0.00    -0.272 OA
BRANCH  24  27
HETATM   27  C   UNL     1     -10.380   2.778 -32.682  1.00  0.00     0.154 C 
BRANCH  27  28
HETATM   28  C   UNL     1     -10.672   1.784 -33.815  1.00  0.00     0.139 C 
HETATM   29  O   UNL     1     -11.577   2.388 -34.762  1.00  0.00    -0.384 OA
HETATM   30  C   UNL     1     -12.659   1.476 -34.990  1.00  0.00     0.168 C 
HETATM   31  C   UNL     1     -12.737   0.600 -33.763  1.00  0.00     0.029 C 
HETATM   32  C   UNL     1     -11.284   0.456 -33.387  1.00  0.00     0.035 C 
ENDBRANCH  27  28
ENDBRANCH  24  27
ENDBRANCH  22  23
ENDBRANCH   2  22
TORSDOF 5
ENDMDL
MODEL 10
REMARK VINA RESULT:      -8.1      2.923      7.497
REMARK  5 active torsions:
REMARK  status: ('A' for Active; 'I' for Inactive)
REMARK    1  A    between atoms: C_7  and  C_8 
REMARK    2  A    between atoms: N_9  and  C_10 
REMARK    3  A    between atoms: C_10  and  C_11 
REMARK       I    between atoms: C_11  and  N_12 
REMARK    4  A    between atoms: N_12  and  C_13 
REMARK    5  A    between atoms: C_13  and  C_14 
ROOT
HETATM    1  C   UNL     1      -6.403   1.463 -31.909  1.00  0.00     0.158 A 
HETATM    2  N   UNL     1      -6.965   1.584 -33.244  1.00  0.00    -0.326 N 
HETATM    3  C   UNL     1      -6.460   0.639 -34.113  1.00  0.00     0.255 A 
HETATM    4  O   UNL     1      -6.787   0.427 -35.264  1.00  0.00    -0.267 OA
HETATM    5  C   UNL     1      -5.419  -0.099 -33.381  1.00  0.00     0.040 A 
HETATM    6  C   UNL     1      -5.351   0.410 -32.083  1.00  0.00    -0.015 A 
HETATM    7  C   UNL     1      -4.609  -1.128 -33.825  1.00  0.00     0.017 A 
HETATM    8  C   UNL     1      -3.700  -1.668 -32.912  1.00  0.00     0.001 A 
HETATM    9  C   UNL     1      -3.625  -1.173 -31.597  1.00  0.00     0.001 A 
HETATM   10  C   UNL     1      -4.456  -0.131 -31.172  1.00  0.00     0.011 A 
ENDROOT
BRANCH   1  11
HETATM   11  C   UNL     1      -5.759   2.711 -31.395  1.00  0.00     0.004 A 
HETATM   12  C   UNL     1      -6.267   3.507 -30.369  1.00  0.00     0.017 A 
HETATM   13  C   UNL     1      -7.493   3.332 -29.534  1.00  0.00     0.069 C 
HETATM   14  N   UNL     1      -5.430   4.591 -30.216  1.00  0.00    -0.354 N 
HETATM   15  C   UNL     1      -5.642   5.654 -29.253  1.00  0.00     0.156 C 
HETATM   16  C   UNL     1      -4.392   4.532 -31.120  1.00  0.00     0.045 A 
HETATM   17  C   UNL     1      -4.552   3.352 -31.852  1.00  0.00     0.001 A 
HETATM   18  C   UNL     1      -3.327   5.419 -31.364  1.00  0.00     0.030 A 
HETATM   19  C   UNL     1      -3.595   3.049 -32.848  1.00  0.00     0.014 A 
HETATM   20  C   UNL     1      -2.534   3.926 -33.095  1.00  0.00     0.001 A 
HETATM   21  C   UNL     1      -2.406   5.099 -32.364  1.00  0.00     0.002 A 
ENDBRANCH   1  11
BRANCH   2  22
HETATM   22  C   UNL     1      -8.009   2.549 -33.572  1.00  0.00     0.229 C 
BRANCH  22  23
HETATM   23  C   UNL     1      -9.382   2.142 -33.036  1.00  0.00     0.235 C 
HETATM   24  N   UNL     1     -10.047   1.219 -33.811  1.00  0.00    -0.357 N 
HETATM   25  H   UNL     1      -9.692   1.029 -34.744  1.00  0.00     0.162 HD
HETATM   26  O   UNL     1      -9.883   2.666 -32.045  1.00  0.00    -0.272 OA
BRANCH  24  27
HETATM   27  C   UNL     1     -11.361   0.706 -33.471  1.00  0.00     0.154 C 
BRANCH  27  28
HETATM   28  C   UNL     1     -12.518   1.376 -34.225  1.00  0.00     0.139 C 
HETATM   29  O   UNL     1     -12.065   1.788 -35.532  1.00  0.00    -0.384 OA
HETATM   30  C   UNL     1     -12.427   3.162 -35.717  1.00  0.00     0.168 C 
HETATM   31  C   UNL     1     -12.555   3.754 -34.334  1.00  0.00     0.029 C 
HETATM   32  C   UNL     1     -13.125   2.599 -33.549  1.00  0.00     0.035 C 
ENDBRANCH  27  28
ENDBRANCH  24  27
ENDBRANCH  22  23
ENDBRANCH   2  22
TORSDOF 5
ENDMDL
