MODEL 1
REMARK VINA RESULT:      -8.9      0.000      0.000
REMARK  8 active torsions:
REMARK  status: ('A' for Active; 'I' for Inactive)
REMARK    1  A    between atoms: O_2  and  C_3 
REMARK    2  A    between atoms: C_3  and  C_4 
REMARK    3  A    between atoms: C_9  and  N_10 
REMARK       I    between atoms: N_10  and  C_11 
REMARK    4  A    between atoms: C_11  and  C_12 
REMARK    5  A    between atoms: C_12  and  N_13 
REMARK    6  A    between atoms: N_17  and  C_19 
REMARK    7  A    between atoms: C_19  and  C_20 
REMARK    8  A    between atoms: C_23  and  N_24 
ROOT
HETATM    1  C   UNL     1      -4.344   5.100 -31.110  1.00  0.00     0.337 C 
ENDROOT
BRANCH   1   2
HETATM    2  C   UNL     1      -4.550   6.566 -31.461  1.00  0.00     0.248 C 
HETATM    3  N   UNL     1      -3.554   7.480 -31.325  1.00  0.00    -0.323 N 
HETATM    4  H   UNL     1      -3.882   8.452 -31.358  1.00  0.00     0.169 HD
HETATM    5  O   UNL     1      -5.702   6.907 -31.749  1.00  0.00    -0.271 OA
BRANCH   3   6
HETATM    6  C   UNL     1      -2.235   7.314 -30.915  1.00  0.00     0.080 C 
HETATM    7  C   UNL     1      -1.230   7.072 -31.843  1.00  0.00     0.136 C 
HETATM    8  N   UNL     1      -0.035   7.078 -31.164  1.00  0.00    -0.349 N 
HETATM    9  H   UNL     1       0.868   6.925 -31.599  1.00  0.00     0.166 HD
HETATM   10  C   UNL     1      -0.244   7.262 -29.820  1.00  0.00     0.045 A 
HETATM   11  C   UNL     1      -1.625   7.301 -29.615  1.00  0.00     0.020 A 
HETATM   12  C   UNL     1       0.690   7.330 -28.779  1.00  0.00     0.030 A 
HETATM   13  C   UNL     1      -2.079   7.265 -28.276  1.00  0.00     0.016 A 
HETATM   14  C   UNL     1      -1.161   7.325 -27.219  1.00  0.00     0.001 A 
HETATM   15  C   UNL     1       0.205   7.382 -27.472  1.00  0.00     0.002 A 
BRANCH   7  16
HETATM   16  C   UNL     1      -1.345   6.879 -33.270  1.00  0.00     0.312 C 
HETATM   17  O   UNL     1      -1.605   7.778 -34.058  1.00  0.00    -0.258 OA
BRANCH  16  18
HETATM   18  O   UNL     1      -1.109   5.579 -33.584  1.00  0.00    -0.321 OA
HETATM   19  C   UNL     1      -1.394   5.244 -34.945  1.00  0.00     0.213 C 
ENDBRANCH  16  18
ENDBRANCH   7  16
ENDBRANCH   3   6
ENDBRANCH   1   2
BRANCH   1  20
HETATM   20  N   UNL     1      -3.688   4.345 -32.297  1.00  0.00    -0.060 N 
HETATM   21  H   UNL     1      -2.962   5.027 -32.607  1.00  0.00     0.280 HD
HETATM   22  C   UNL     1      -4.606   4.160 -33.495  1.00  0.00     0.263 C 
HETATM   23  C   UNL     1      -5.660   3.052 -33.245  1.00  0.00     0.263 C 
HETATM   24  N   UNL     1      -5.037   1.749 -32.726  1.00  0.00    -0.064 N 
HETATM   25  H   UNL     1      -4.550   1.300 -33.518  1.00  0.00     0.280 HD
HETATM   26  C   UNL     1      -4.027   1.948 -31.592  1.00  0.00     0.263 C 
HETATM   27  C   UNL     1      -2.997   3.060 -31.909  1.00  0.00     0.263 C 
BRANCH  24  28
HETATM   28  C   UNL     1      -6.101   0.734 -32.297  1.00  0.00     0.273 C 
BRANCH  28  29
HETATM   29  C   UNL     1      -5.999  -0.588 -33.009  1.00  0.00    -0.032 A 
HETATM   30  C   UNL     1      -7.124  -1.145 -33.640  1.00  0.00     0.011 A 
HETATM   31  C   UNL     1      -7.030  -2.371 -34.308  1.00  0.00     0.037 A 
HETATM   32  C   UNL     1      -5.807  -3.052 -34.341  1.00  0.00     0.102 A 
HETATM   33  C   UNL     1      -4.679  -2.510 -33.714  1.00  0.00     0.037 A 
HETATM   34  C   UNL     1      -4.776  -1.281 -33.056  1.00  0.00     0.011 A 
BRANCH  32  35
HETATM   35  N   UNL     1      -5.707  -4.344 -35.035  1.00  0.00    -0.116 N 
HETATM   36  O   UNL     1      -6.449  -4.527 -36.007  1.00  0.00    -0.532 OA
HETATM   37  O   UNL     1      -4.901  -5.168 -34.584  1.00  0.00    -0.532 OA
ENDBRANCH  32  35
ENDBRANCH  28  29
ENDBRANCH  24  28
ENDBRANCH   1  20
TORSDOF 8
ENDMDL
MODEL 2
REMARK VINA RESULT:      -8.7      1.881      3.502
REMARK  8 active torsions:
REMARK  status: ('A' for Active; 'I' for Inactive)
REMARK    1  A    between atoms: O_2  and  C_3 
REMARK    2  A    between atoms: C_3  and  C_4 
REMARK    3  A    between atoms: C_9  and  N_10 
REMARK       I    between atoms: N_10  and  C_11 
REMARK    4  A    between atoms: C_11  and  C_12 
REMARK    5  A    between atoms: C_12  and  N_13 
REMARK    6  A    between atoms: N_17  and  C_19 
REMARK    7  A    between atoms: C_19  and  C_20 
REMARK    8  A    between atoms: C_23  and  N_24 
ROOT
HETATM    1  C   UNL     1      -5.415   4.555 -30.669  1.00  0.00     0.337 C 
ENDROOT
BRANCH   1   2
HETATM    2  C   UNL     1      -4.937   5.663 -29.743  1.00  0.00     0.248 C 
HETATM    3  N   UNL     1      -3.751   6.297 -29.939  1.00  0.00    -0.323 N 
HETATM    4  H   UNL     1      -3.437   6.838 -29.127  1.00  0.00     0.169 HD
HETATM    5  O   UNL     1      -5.616   5.866 -28.730  1.00  0.00    -0.271 OA
BRANCH   3   6
HETATM    6  C   UNL     1      -2.805   6.135 -30.947  1.00  0.00     0.080 C 
HETATM    7  C   UNL     1      -1.449   6.264 -30.671  1.00  0.00     0.136 C 
HETATM    8  N   UNL     1      -0.767   5.931 -31.817  1.00  0.00    -0.349 N 
HETATM    9  H   UNL     1       0.245   5.938 -31.899  1.00  0.00     0.166 HD
HETATM   10  C   UNL     1      -1.641   5.646 -32.836  1.00  0.00     0.045 A 
HETATM   11  C   UNL     1      -2.931   5.876 -32.353  1.00  0.00     0.020 A 
HETATM   12  C   UNL     1      -1.370   5.269 -34.157  1.00  0.00     0.030 A 
HETATM   13  C   UNL     1      -3.985   5.856 -33.296  1.00  0.00     0.016 A 
HETATM   14  C   UNL     1      -3.735   5.488 -34.625  1.00  0.00     0.001 A 
HETATM   15  C   UNL     1      -2.445   5.175 -35.040  1.00  0.00     0.002 A 
BRANCH   7  16
HETATM   16  C   UNL     1      -0.810   6.634 -29.431  1.00  0.00     0.312 C 
HETATM   17  O   UNL     1      -1.407   7.103 -28.472  1.00  0.00    -0.258 OA
BRANCH  16  18
HETATM   18  O   UNL     1       0.521   6.368 -29.496  1.00  0.00    -0.321 OA
HETATM   19  C   UNL     1       0.883   5.067 -29.025  1.00  0.00     0.213 C 
ENDBRANCH  16  18
ENDBRANCH   7  16
ENDBRANCH   3   6
ENDBRANCH   1   2
BRANCH   1  20
HETATM   20  N   UNL     1      -4.837   3.186 -30.219  1.00  0.00    -0.060 N 
HETATM   21  H   UNL     1      -4.395   3.432 -29.306  1.00  0.00     0.280 HD
HETATM   22  C   UNL     1      -3.702   2.677 -31.093  1.00  0.00     0.263 C 
HETATM   23  C   UNL     1      -4.222   2.124 -32.444  1.00  0.00     0.263 C 
HETATM   24  N   UNL     1      -5.375   1.126 -32.271  1.00  0.00    -0.064 N 
HETATM   25  H   UNL     1      -4.975   0.247 -31.908  1.00  0.00     0.280 HD
HETATM   26  C   UNL     1      -6.465   1.594 -31.302  1.00  0.00     0.263 C 
HETATM   27  C   UNL     1      -5.880   2.123 -29.970  1.00  0.00     0.263 C 
BRANCH  24  28
HETATM   28  C   UNL     1      -6.008   0.741 -33.613  1.00  0.00     0.273 C 
BRANCH  28  29
HETATM   29  C   UNL     1      -5.886  -0.723 -33.940  1.00  0.00    -0.032 A 
HETATM   30  C   UNL     1      -7.015  -1.459 -34.338  1.00  0.00     0.011 A 
HETATM   31  C   UNL     1      -6.903  -2.818 -34.649  1.00  0.00     0.037 A 
HETATM   32  C   UNL     1      -5.658  -3.453 -34.555  1.00  0.00     0.102 A 
HETATM   33  C   UNL     1      -4.527  -2.733 -34.157  1.00  0.00     0.037 A 
HETATM   34  C   UNL     1      -4.642  -1.372 -33.856  1.00  0.00     0.011 A 
BRANCH  32  35
HETATM   35  N   UNL     1      -5.540  -4.883 -34.873  1.00  0.00    -0.116 N 
HETATM   36  O   UNL     1      -6.273  -5.331 -35.763  1.00  0.00    -0.532 OA
HETATM   37  O   UNL     1      -4.728  -5.545 -34.213  1.00  0.00    -0.532 OA
ENDBRANCH  32  35
ENDBRANCH  28  29
ENDBRANCH  24  28
ENDBRANCH   1  20
TORSDOF 8
ENDMDL
MODEL 3
REMARK VINA RESULT:      -8.5      3.350      8.837
REMARK  8 active torsions:
REMARK  status: ('A' for Active; 'I' for Inactive)
REMARK    1  A    between atoms: O_2  and  C_3 
REMARK    2  A    between atoms: C_3  and  C_4 
REMARK    3  A    between atoms: C_9  and  N_10 
REMARK       I    between atoms: N_10  and  C_11 
REMARK    4  A    between atoms: C_11  and  C_12 
REMARK    5  A    between atoms: C_12  and  N_13 
REMARK    6  A    between atoms: N_17  and  C_19 
REMARK    7  A    between atoms: C_19  and  C_20 
REMARK    8  A    between atoms: C_23  and  N_24 
ROOT
HETATM    1  C   UNL     1      -6.432   3.372 -31.319  1.00  0.00     0.337 C 
ENDROOT
BRANCH   1   2
HETATM    2  C   UNL     1      -7.485   2.687 -30.458  1.00  0.00     0.248 C 
HETATM    3  N   UNL     1      -7.993   1.470 -30.784  1.00  0.00    -0.323 N 
HETATM    4  H   UNL     1      -8.851   1.234 -30.274  1.00  0.00     0.169 HD
HETATM    5  O   UNL     1      -7.949   3.351 -29.525  1.00  0.00    -0.271 OA
BRANCH   3   6
HETATM    6  C   UNL     1      -7.682   0.623 -31.844  1.00  0.00     0.080 C 
HETATM    7  C   UNL     1      -8.621   0.351 -32.831  1.00  0.00     0.136 C 
HETATM    8  N   UNL     1      -7.994  -0.402 -33.795  1.00  0.00    -0.349 N 
HETATM    9  H   UNL     1      -8.448  -0.744 -34.635  1.00  0.00     0.166 HD
HETATM   10  C   UNL     1      -6.697  -0.670 -33.432  1.00  0.00     0.045 A 
HETATM   11  C   UNL     1      -6.504  -0.135 -32.156  1.00  0.00     0.020 A 
HETATM   12  C   UNL     1      -5.718  -1.401 -34.116  1.00  0.00     0.030 A 
HETATM   13  C   UNL     1      -5.305  -0.479 -31.488  1.00  0.00     0.016 A 
HETATM   14  C   UNL     1      -4.315  -1.216 -32.152  1.00  0.00     0.001 A 
HETATM   15  C   UNL     1      -4.513  -1.647 -33.459  1.00  0.00     0.002 A 
BRANCH   7  16
HETATM   16  C   UNL     1      -9.997   0.780 -32.913  1.00  0.00     0.312 C 
HETATM   17  O   UNL     1     -10.938   0.015 -33.072  1.00  0.00    -0.258 OA
BRANCH  16  18
HETATM   18  O   UNL     1     -10.073   2.129 -32.771  1.00  0.00    -0.321 OA
HETATM   19  C   UNL     1     -10.833   2.783 -33.792  1.00  0.00     0.213 C 
ENDBRANCH  16  18
ENDBRANCH   7  16
ENDBRANCH   3   6
ENDBRANCH   1   2
BRANCH   1  20
HETATM   20  N   UNL     1      -7.109   4.217 -32.432  1.00  0.00    -0.060 N 
HETATM   21  H   UNL     1      -8.117   4.144 -32.170  1.00  0.00     0.280 HD
HETATM   22  C   UNL     1      -7.007   3.606 -33.820  1.00  0.00     0.263 C 
HETATM   23  C   UNL     1      -5.587   3.776 -34.419  1.00  0.00     0.263 C 
HETATM   24  N   UNL     1      -5.076   5.220 -34.330  1.00  0.00    -0.064 N 
HETATM   25  H   UNL     1      -5.588   5.775 -35.033  1.00  0.00     0.280 HD
HETATM   26  C   UNL     1      -5.282   5.872 -32.960  1.00  0.00     0.263 C 
HETATM   27  C   UNL     1      -6.721   5.676 -32.425  1.00  0.00     0.263 C 
BRANCH  24  28
HETATM   28  C   UNL     1      -3.604   5.335 -34.741  1.00  0.00     0.273 C 
BRANCH  28  29
HETATM   29  C   UNL     1      -2.648   5.298 -33.580  1.00  0.00    -0.032 A 
HETATM   30  C   UNL     1      -1.699   6.320 -33.408  1.00  0.00     0.011 A 
HETATM   31  C   UNL     1      -0.812   6.292 -32.326  1.00  0.00     0.037 A 
HETATM   32  C   UNL     1      -0.864   5.232 -31.412  1.00  0.00     0.102 A 
HETATM   33  C   UNL     1      -1.802   4.206 -31.573  1.00  0.00     0.037 A 
HETATM   34  C   UNL     1      -2.692   4.244 -32.651  1.00  0.00     0.011 A 
BRANCH  32  35
HETATM   35  N   UNL     1       0.072   5.195 -30.279  1.00  0.00    -0.116 N 
HETATM   36  O   UNL     1      -0.184   5.914 -29.306  1.00  0.00    -0.532 OA
HETATM   37  O   UNL     1       1.063   4.462 -30.387  1.00  0.00    -0.532 OA
ENDBRANCH  32  35
ENDBRANCH  28  29
ENDBRANCH  24  28
ENDBRANCH   1  20
TORSDOF 8
ENDMDL
MODEL 4
REMARK VINA RESULT:      -8.5      4.038      5.540
REMARK  8 active torsions:
REMARK  status: ('A' for Active; 'I' for Inactive)
REMARK    1  A    between atoms: O_2  and  C_3 
REMARK    2  A    between atoms: C_3  and  C_4 
REMARK    3  A    between atoms: C_9  and  N_10 
REMARK       I    between atoms: N_10  and  C_11 
REMARK    4  A    between atoms: C_11  and  C_12 
REMARK    5  A    between atoms: C_12  and  N_13 
REMARK    6  A    between atoms: N_17  and  C_19 
REMARK    7  A    between atoms: C_19  and  C_20 
REMARK    8  A    between atoms: C_23  and  N_24 
ROOT
HETATM    1  C   UNL     1      -9.323   3.065 -32.029  1.00  0.00     0.337 C 
ENDROOT
BRANCH   1   2
HETATM    2  C   UNL     1      -9.163   3.369 -30.547  1.00  0.00     0.248 C 
HETATM    3  N   UNL     1      -7.939   3.468 -29.966  1.00  0.00    -0.323 N 
HETATM    4  H   UNL     1      -7.967   3.431 -28.942  1.00  0.00     0.169 HD
HETATM    5  O   UNL     1     -10.199   3.388 -29.873  1.00  0.00    -0.271 OA
BRANCH   3   6
HETATM    6  C   UNL     1      -6.669   3.369 -30.528  1.00  0.00     0.080 C 
HETATM    7  C   UNL     1      -6.096   4.456 -31.177  1.00  0.00     0.136 C 
HETATM    8  N   UNL     1      -4.811   4.101 -31.510  1.00  0.00    -0.349 N 
HETATM    9  H   UNL     1      -4.160   4.709 -31.997  1.00  0.00     0.166 HD
HETATM   10  C   UNL     1      -4.558   2.801 -31.147  1.00  0.00     0.045 A 
HETATM   11  C   UNL     1      -5.743   2.277 -30.628  1.00  0.00     0.020 A 
HETATM   12  C   UNL     1      -3.387   2.049 -31.303  1.00  0.00     0.030 A 
HETATM   13  C   UNL     1      -5.780   0.883 -30.388  1.00  0.00     0.016 A 
HETATM   14  C   UNL     1      -4.622   0.110 -30.545  1.00  0.00     0.001 A 
HETATM   15  C   UNL     1      -3.436   0.695 -30.973  1.00  0.00     0.002 A 
BRANCH   7  16
HETATM   16  C   UNL     1      -6.669   5.753 -31.448  1.00  0.00     0.312 C 
HETATM   17  O   UNL     1      -7.253   6.426 -30.610  1.00  0.00    -0.258 OA
BRANCH  16  18
HETATM   18  O   UNL     1      -6.447   6.098 -32.743  1.00  0.00    -0.321 OA
HETATM   19  C   UNL     1      -7.235   5.367 -33.687  1.00  0.00     0.213 C 
ENDBRANCH  16  18
ENDBRANCH   7  16
ENDBRANCH   3   6
ENDBRANCH   1   2
BRANCH   1  20
HETATM   20  N   UNL     1     -10.064   1.716 -32.229  1.00  0.00    -0.060 N 
HETATM   21  H   UNL     1     -10.866   1.814 -31.567  1.00  0.00     0.280 HD
HETATM   22  C   UNL     1      -9.285   0.504 -31.742  1.00  0.00     0.263 C 
HETATM   23  C   UNL     1      -8.139   0.131 -32.716  1.00  0.00     0.263 C 
HETATM   24  N   UNL     1      -8.609   0.029 -34.173  1.00  0.00    -0.064 N 
HETATM   25  H   UNL     1      -9.155  -0.841 -34.264  1.00  0.00     0.280 HD
HETATM   26  C   UNL     1      -9.488   1.198 -34.628  1.00  0.00     0.263 C 
HETATM   27  C   UNL     1     -10.619   1.512 -33.618  1.00  0.00     0.263 C 
BRANCH  24  28
HETATM   28  C   UNL     1      -7.437  -0.144 -35.145  1.00  0.00     0.273 C 
BRANCH  28  29
HETATM   29  C   UNL     1      -6.424  -1.161 -34.696  1.00  0.00    -0.032 A 
HETATM   30  C   UNL     1      -5.232  -0.752 -34.074  1.00  0.00     0.011 A 
HETATM   31  C   UNL     1      -4.291  -1.697 -33.650  1.00  0.00     0.037 A 
HETATM   32  C   UNL     1      -4.534  -3.061 -33.854  1.00  0.00     0.102 A 
HETATM   33  C   UNL     1      -5.716  -3.482 -34.474  1.00  0.00     0.037 A 
HETATM   34  C   UNL     1      -6.657  -2.534 -34.888  1.00  0.00     0.011 A 
BRANCH  32  35
HETATM   35  N   UNL     1      -3.544  -4.055 -33.416  1.00  0.00    -0.116 N 
HETATM   36  O   UNL     1      -3.106  -3.953 -32.264  1.00  0.00    -0.532 OA
HETATM   37  O   UNL     1      -3.201  -4.913 -34.240  1.00  0.00    -0.532 OA
ENDBRANCH  32  35
ENDBRANCH  28  29
ENDBRANCH  24  28
ENDBRANCH   1  20
TORSDOF 8
ENDMDL
MODEL 5
REMARK VINA RESULT:      -8.2      1.667      2.649
REMARK  8 active torsions:
REMARK  status: ('A' for Active; 'I' for Inactive)
REMARK    1  A    between atoms: O_2  and  C_3 
REMARK    2  A    between atoms: C_3  and  C_4 
REMARK    3  A    between atoms: C_9  and  N_10 
REMARK       I    between atoms: N_10  and  C_11 
REMARK    4  A    between atoms: C_11  and  C_12 
REMARK    5  A    between atoms: C_12  and  N_13 
REMARK    6  A    between atoms: N_17  and  C_19 
REMARK    7  A    between atoms: C_19  and  C_20 
REMARK    8  A    between atoms: C_23  and  N_24 
ROOT
HETATM    1  C   UNL     1      -4.929   5.241 -31.319  1.00  0.00     0.337 C 
ENDROOT
BRANCH   1   2
HETATM    2  C   UNL     1      -4.248   5.961 -32.475  1.00  0.00     0.248 C 
HETATM    3  N   UNL     1      -3.163   6.754 -32.282  1.00  0.00    -0.323 N 
HETATM    4  H   UNL     1      -2.954   7.364 -33.080  1.00  0.00     0.169 HD
HETATM    5  O   UNL     1      -4.811   5.894 -33.573  1.00  0.00    -0.271 OA
BRANCH   3   6
HETATM    6  C   UNL     1      -2.457   7.041 -31.117  1.00  0.00     0.080 C 
HETATM    7  C   UNL     1      -2.807   8.130 -30.327  1.00  0.00     0.136 C 
HETATM    8  N   UNL     1      -2.025   8.083 -29.198  1.00  0.00    -0.349 N 
HETATM    9  H   UNL     1      -2.071   8.763 -28.446  1.00  0.00     0.166 HD
HETATM   10  C   UNL     1      -1.145   7.032 -29.262  1.00  0.00     0.045 A 
HETATM   11  C   UNL     1      -1.314   6.424 -30.507  1.00  0.00     0.020 A 
HETATM   12  C   UNL     1      -0.178   6.629 -28.333  1.00  0.00     0.030 A 
HETATM   13  C   UNL     1      -0.360   5.449 -30.883  1.00  0.00     0.016 A 
HETATM   14  C   UNL     1       0.621   5.036 -29.972  1.00  0.00     0.001 A 
HETATM   15  C   UNL     1       0.692   5.604 -28.705  1.00  0.00     0.002 A 
BRANCH   7  16
HETATM   16  C   UNL     1      -3.818   9.133 -30.568  1.00  0.00     0.312 C 
HETATM   17  O   UNL     1      -3.578  10.242 -31.026  1.00  0.00    -0.258 OA
BRANCH  16  18
HETATM   18  O   UNL     1      -5.041   8.653 -30.226  1.00  0.00    -0.321 OA
HETATM   19  C   UNL     1      -6.057   8.888 -31.205  1.00  0.00     0.213 C 
ENDBRANCH  16  18
ENDBRANCH   7  16
ENDBRANCH   3   6
ENDBRANCH   1   2
BRANCH   1  20
HETATM   20  N   UNL     1      -4.142   3.957 -30.942  1.00  0.00    -0.060 N 
HETATM   21  H   UNL     1      -3.435   4.331 -30.272  1.00  0.00     0.280 HD
HETATM   22  C   UNL     1      -3.337   3.366 -32.089  1.00  0.00     0.263 C 
HETATM   23  C   UNL     1      -4.245   2.628 -33.106  1.00  0.00     0.263 C 
HETATM   24  N   UNL     1      -5.201   1.634 -32.434  1.00  0.00    -0.064 N 
HETATM   25  H   UNL     1      -4.643   0.820 -32.133  1.00  0.00     0.280 HD
HETATM   26  C   UNL     1      -5.928   2.198 -31.210  1.00  0.00     0.263 C 
HETATM   27  C   UNL     1      -4.965   2.911 -30.230  1.00  0.00     0.263 C 
BRANCH  24  28
HETATM   28  C   UNL     1      -6.223   1.062 -33.423  1.00  0.00     0.273 C 
BRANCH  28  29
HETATM   29  C   UNL     1      -5.995  -0.387 -33.756  1.00  0.00    -0.032 A 
HETATM   30  C   UNL     1      -4.723  -0.963 -33.596  1.00  0.00     0.011 A 
HETATM   31  C   UNL     1      -4.510  -2.312 -33.899  1.00  0.00     0.037 A 
HETATM   32  C   UNL     1      -5.570  -3.094 -34.374  1.00  0.00     0.102 A 
HETATM   33  C   UNL     1      -6.841  -2.533 -34.541  1.00  0.00     0.037 A 
HETATM   34  C   UNL     1      -7.051  -1.186 -34.228  1.00  0.00     0.011 A 
BRANCH  32  35
HETATM   35  N   UNL     1      -5.348  -4.509 -34.701  1.00  0.00    -0.116 N 
HETATM   36  O   UNL     1      -6.083  -5.020 -35.554  1.00  0.00    -0.532 OA
HETATM   37  O   UNL     1      -4.451  -5.099 -34.083  1.00  0.00    -0.532 OA
ENDBRANCH  32  35
ENDBRANCH  28  29
ENDBRANCH  24  28
ENDBRANCH   1  20
TORSDOF 8
ENDMDL
MODEL 6
REMARK VINA RESULT:      -8.2      2.928      4.123
REMARK  8 active torsions:
REMARK  status: ('A' for Active; 'I' for Inactive)
REMARK    1  A    between atoms: O_2  and  C_3 
REMARK    2  A    between atoms: C_3  and  C_4 
REMARK    3  A    between atoms: C_9  and  N_10 
REMARK       I    between atoms: N_10  and  C_11 
REMARK    4  A    between atoms: C_11  and  C_12 
REMARK    5  A    between atoms: C_12  and  N_13 
REMARK    6  A    between atoms: N_17  and  C_19 
REMARK    7  A    between atoms: C_19  and  C_20 
REMARK    8  A    between atoms: C_23  and  N_24 
ROOT
HETATM    1  C   UNL     1      -6.947   4.073 -31.721  1.00  0.00     0.337 C 
ENDROOT
BRANCH   1   2
HETATM    2  C   UNL     1      -6.306   4.345 -30.368  1.00  0.00     0.248 C 
HETATM    3  N   UNL     1      -4.963   4.496 -30.231  1.00  0.00    -0.323 N 
HETATM    4  H   UNL     1      -4.640   4.429 -29.260  1.00  0.00     0.169 HD
HETATM    5  O   UNL     1      -7.052   4.288 -29.384  1.00  0.00    -0.271 OA
BRANCH   3   6
HETATM    6  C   UNL     1      -3.957   4.484 -31.192  1.00  0.00     0.080 C 
HETATM    7  C   UNL     1      -3.419   3.283 -31.639  1.00  0.00     0.136 C 
HETATM    8  N   UNL     1      -2.550   3.579 -32.661  1.00  0.00    -0.349 N 
HETATM    9  H   UNL     1      -2.014   2.885 -33.172  1.00  0.00     0.166 HD
HETATM   10  C   UNL     1      -2.469   4.936 -32.850  1.00  0.00     0.045 A 
HETATM   11  C   UNL     1      -3.256   5.540 -31.867  1.00  0.00     0.020 A 
HETATM   12  C   UNL     1      -1.707   5.658 -33.776  1.00  0.00     0.030 A 
HETATM   13  C   UNL     1      -3.152   6.944 -31.731  1.00  0.00     0.016 A 
HETATM   14  C   UNL     1      -2.389   7.685 -32.642  1.00  0.00     0.001 A 
HETATM   15  C   UNL     1      -1.697   7.049 -33.666  1.00  0.00     0.002 A 
BRANCH   7  16
HETATM   16  C   UNL     1      -3.704   1.941 -31.186  1.00  0.00     0.312 C 
HETATM   17  O   UNL     1      -4.490   1.681 -30.286  1.00  0.00    -0.258 OA
BRANCH  16  18
HETATM   18  O   UNL     1      -2.988   1.044 -31.912  1.00  0.00    -0.321 OA
HETATM   19  C   UNL     1      -2.925  -0.262 -31.332  1.00  0.00     0.213 C 
ENDBRANCH  16  18
ENDBRANCH   7  16
ENDBRANCH   3   6
ENDBRANCH   1   2
BRANCH   1  20
HETATM   20  N   UNL     1      -8.086   3.029 -31.581  1.00  0.00    -0.060 N 
HETATM   21  H   UNL     1      -8.586   3.372 -30.732  1.00  0.00     0.280 HD
HETATM   22  C   UNL     1      -7.603   1.630 -31.229  1.00  0.00     0.263 C 
HETATM   23  C   UNL     1      -6.968   0.918 -32.450  1.00  0.00     0.263 C 
HETATM   24  N   UNL     1      -7.856   0.977 -33.699  1.00  0.00    -0.064 N 
HETATM   25  H   UNL     1      -8.642   0.325 -33.553  1.00  0.00     0.280 HD
HETATM   26  C   UNL     1      -8.433   2.366 -33.989  1.00  0.00     0.263 C 
HETATM   27  C   UNL     1      -9.062   3.017 -32.733  1.00  0.00     0.263 C 
BRANCH  24  28
HETATM   28  C   UNL     1      -7.136   0.447 -34.943  1.00  0.00     0.273 C 
BRANCH  28  29
HETATM   29  C   UNL     1      -6.475  -0.888 -34.736  1.00  0.00    -0.032 A 
HETATM   30  C   UNL     1      -7.198  -2.077 -34.927  1.00  0.00     0.011 A 
HETATM   31  C   UNL     1      -6.585  -3.321 -34.741  1.00  0.00     0.037 A 
HETATM   32  C   UNL     1      -5.240  -3.381 -34.352  1.00  0.00     0.102 A 
HETATM   33  C   UNL     1      -4.509  -2.205 -34.155  1.00  0.00     0.037 A 
HETATM   34  C   UNL     1      -5.125  -0.965 -34.351  1.00  0.00     0.011 A 
BRANCH  32  35
HETATM   35  N   UNL     1      -4.595  -4.686 -34.148  1.00  0.00    -0.116 N 
HETATM   36  O   UNL     1      -5.104  -5.666 -34.704  1.00  0.00    -0.532 OA
HETATM   37  O   UNL     1      -3.598  -4.716 -33.415  1.00  0.00    -0.532 OA
ENDBRANCH  32  35
ENDBRANCH  28  29
ENDBRANCH  24  28
ENDBRANCH   1  20
TORSDOF 8
ENDMDL
MODEL 7
REMARK VINA RESULT:      -8.0      2.070      3.554
REMARK  8 active torsions:
REMARK  status: ('A' for Active; 'I' for Inactive)
REMARK    1  A    between atoms: O_2  and  C_3 
REMARK    2  A    between atoms: C_3  and  C_4 
REMARK    3  A    between atoms: C_9  and  N_10 
REMARK       I    between atoms: N_10  and  C_11 
REMARK    4  A    between atoms: C_11  and  C_12 
REMARK    5  A    between atoms: C_12  and  N_13 
REMARK    6  A    between atoms: N_17  and  C_19 
REMARK    7  A    between atoms: C_19  and  C_20 
REMARK    8  A    between atoms: C_23  and  N_24 
ROOT
HETATM    1  C   UNL     1      -4.686   5.307 -31.683  1.00  0.00     0.337 C 
ENDROOT
BRANCH   1   2
HETATM    2  C   UNL     1      -5.344   6.437 -30.906  1.00  0.00     0.248 C 
HETATM    3  N   UNL     1      -4.662   7.158 -29.978  1.00  0.00    -0.323 N 
HETATM    4  H   UNL     1      -5.268   7.712 -29.363  1.00  0.00     0.169 HD
HETATM    5  O   UNL     1      -6.562   6.578 -31.063  1.00  0.00    -0.271 OA
BRANCH   3   6
HETATM    6  C   UNL     1      -3.330   7.079 -29.582  1.00  0.00     0.080 C 
HETATM    7  C   UNL     1      -2.992   7.048 -28.235  1.00  0.00     0.136 C 
HETATM    8  N   UNL     1      -1.636   6.843 -28.159  1.00  0.00    -0.349 N 
HETATM    9  H   UNL     1      -1.118   6.779 -27.288  1.00  0.00     0.166 HD
HETATM   10  C   UNL     1      -1.082   6.796 -29.413  1.00  0.00     0.045 A 
HETATM   11  C   UNL     1      -2.104   7.054 -30.329  1.00  0.00     0.020 A 
HETATM   12  C   UNL     1       0.255   6.609 -29.786  1.00  0.00     0.030 A 
HETATM   13  C   UNL     1      -1.725   7.271 -31.675  1.00  0.00     0.016 A 
HETATM   14  C   UNL     1      -0.391   7.096 -32.067  1.00  0.00     0.001 A 
HETATM   15  C   UNL     1       0.579   6.745 -31.135  1.00  0.00     0.002 A 
BRANCH   7  16
HETATM   16  C   UNL     1      -3.856   7.164 -27.084  1.00  0.00     0.312 C 
HETATM   17  O   UNL     1      -4.696   6.329 -26.778  1.00  0.00    -0.258 OA
BRANCH  16  18
HETATM   18  O   UNL     1      -3.580   8.311 -26.409  1.00  0.00    -0.321 OA
HETATM   19  C   UNL     1      -3.434   8.138 -24.996  1.00  0.00     0.213 C 
ENDBRANCH  16  18
ENDBRANCH   7  16
ENDBRANCH   3   6
ENDBRANCH   1   2
BRANCH   1  20
HETATM   20  N   UNL     1      -4.618   4.021 -30.816  1.00  0.00    -0.060 N 
HETATM   21  H   UNL     1      -4.222   4.387 -29.923  1.00  0.00     0.280 HD
HETATM   22  C   UNL     1      -3.614   2.993 -31.312  1.00  0.00     0.263 C 
HETATM   23  C   UNL     1      -4.134   2.239 -32.563  1.00  0.00     0.263 C 
HETATM   24  N   UNL     1      -5.553   1.688 -32.375  1.00  0.00    -0.064 N 
HETATM   25  H   UNL     1      -5.490   0.876 -31.742  1.00  0.00     0.280 HD
HETATM   26  C   UNL     1      -6.538   2.693 -31.770  1.00  0.00     0.263 C 
HETATM   27  C   UNL     1      -5.963   3.401 -30.519  1.00  0.00     0.263 C 
BRANCH  24  28
HETATM   28  C   UNL     1      -6.128   1.122 -33.678  1.00  0.00     0.273 C 
BRANCH  28  29
HETATM   29  C   UNL     1      -5.830  -0.337 -33.886  1.00  0.00    -0.032 A 
HETATM   30  C   UNL     1      -6.778  -1.176 -34.497  1.00  0.00     0.011 A 
HETATM   31  C   UNL     1      -6.501  -2.533 -34.698  1.00  0.00     0.037 A 
HETATM   32  C   UNL     1      -5.274  -3.062 -34.280  1.00  0.00     0.102 A 
HETATM   33  C   UNL     1      -4.322  -2.238 -33.667  1.00  0.00     0.037 A 
HETATM   34  C   UNL     1      -4.600  -0.881 -33.477  1.00  0.00     0.011 A 
BRANCH  32  35
HETATM   35  N   UNL     1      -4.984  -4.488 -34.482  1.00  0.00    -0.116 N 
HETATM   36  O   UNL     1      -5.859  -5.177 -35.020  1.00  0.00    -0.532 OA
HETATM   37  O   UNL     1      -3.890  -4.906 -34.080  1.00  0.00    -0.532 OA
ENDBRANCH  32  35
ENDBRANCH  28  29
ENDBRANCH  24  28
ENDBRANCH   1  20
TORSDOF 8
ENDMDL
MODEL 8
REMARK VINA RESULT:      -8.0      3.082      9.767
REMARK  8 active torsions:
REMARK  status: ('A' for Active; 'I' for Inactive)
REMARK    1  A    between atoms: O_2  and  C_3 
REMARK    2  A    between atoms: C_3  and  C_4 
REMARK    3  A    between atoms: C_9  and  N_10 
REMARK       I    between atoms: N_10  and  C_11 
REMARK    4  A    between atoms: C_11  and  C_12 
REMARK    5  A    between atoms: C_12  and  N_13 
REMARK    6  A    between atoms: N_17  and  C_19 
REMARK    7  A    between atoms: C_19  and  C_20 
REMARK    8  A    between atoms: C_23  and  N_24 
ROOT
HETATM    1  C   UNL     1      -3.617   2.599 -32.958  1.00  0.00     0.337 C 
ENDROOT
BRANCH   1   2
HETATM    2  C   UNL     1      -3.396   1.808 -31.676  1.00  0.00     0.248 C 
HETATM    3  N   UNL     1      -4.185   0.754 -31.342  1.00  0.00    -0.323 N 
HETATM    4  H   UNL     1      -4.093   0.468 -30.361  1.00  0.00     0.169 HD
HETATM    5  O   UNL     1      -2.551   2.254 -30.893  1.00  0.00    -0.271 OA
BRANCH   3   6
HETATM    6  C   UNL     1      -5.246   0.175 -32.031  1.00  0.00     0.080 C 
HETATM    7  C   UNL     1      -6.543   0.642 -31.856  1.00  0.00     0.136 C 
HETATM    8  N   UNL     1      -7.343  -0.031 -32.748  1.00  0.00    -0.349 N 
HETATM    9  H   UNL     1      -8.344   0.113 -32.837  1.00  0.00     0.166 HD
HETATM   10  C   UNL     1      -6.613  -0.955 -33.453  1.00  0.00     0.045 A 
HETATM   11  C   UNL     1      -5.312  -0.930 -32.946  1.00  0.00     0.020 A 
HETATM   12  C   UNL     1      -7.033  -1.845 -34.448  1.00  0.00     0.030 A 
HETATM   13  C   UNL     1      -4.434  -1.954 -33.373  1.00  0.00     0.016 A 
HETATM   14  C   UNL     1      -4.837  -2.860 -34.363  1.00  0.00     0.001 A 
HETATM   15  C   UNL     1      -6.113  -2.787 -34.909  1.00  0.00     0.002 A 
BRANCH   7  16
HETATM   16  C   UNL     1      -7.022   1.664 -30.956  1.00  0.00     0.312 C 
HETATM   17  O   UNL     1      -6.545   1.872 -29.849  1.00  0.00    -0.258 OA
BRANCH  16  18
HETATM   18  O   UNL     1      -8.048   2.345 -31.529  1.00  0.00    -0.321 OA
HETATM   19  C   UNL     1      -8.927   2.977 -30.594  1.00  0.00     0.213 C 
ENDBRANCH  16  18
ENDBRANCH   7  16
ENDBRANCH   3   6
ENDBRANCH   1   2
BRANCH   1  20
HETATM   20  N   UNL     1      -4.717   3.673 -32.748  1.00  0.00    -0.060 N 
HETATM   21  H   UNL     1      -5.573   3.084 -32.650  1.00  0.00     0.280 HD
HETATM   22  C   UNL     1      -4.967   4.548 -33.966  1.00  0.00     0.263 C 
HETATM   23  C   UNL     1      -3.843   5.597 -34.160  1.00  0.00     0.263 C 
HETATM   24  N   UNL     1      -3.538   6.382 -32.877  1.00  0.00    -0.064 N 
HETATM   25  H   UNL     1      -4.316   7.042 -32.723  1.00  0.00     0.280 HD
HETATM   26  C   UNL     1      -3.397   5.506 -31.628  1.00  0.00     0.263 C 
HETATM   27  C   UNL     1      -4.556   4.489 -31.488  1.00  0.00     0.263 C 
BRANCH  24  28
HETATM   28  C   UNL     1      -2.298   7.270 -33.027  1.00  0.00     0.273 C 
BRANCH  28  29
HETATM   29  C   UNL     1      -1.458   7.352 -31.781  1.00  0.00    -0.032 A 
HETATM   30  C   UNL     1      -0.224   6.684 -31.711  1.00  0.00     0.011 A 
HETATM   31  C   UNL     1       0.562   6.764 -30.556  1.00  0.00     0.037 A 
HETATM   32  C   UNL     1       0.111   7.507 -29.458  1.00  0.00     0.102 A 
HETATM   33  C   UNL     1      -1.118   8.174 -29.513  1.00  0.00     0.037 A 
HETATM   34  C   UNL     1      -1.895   8.098 -30.673  1.00  0.00     0.011 A 
BRANCH  32  35
HETATM   35  N   UNL     1       0.931   7.585 -28.240  1.00  0.00    -0.116 N 
HETATM   36  O   UNL     1       0.825   6.664 -27.422  1.00  0.00    -0.532 OA
HETATM   37  O   UNL     1       1.656   8.580 -28.109  1.00  0.00    -0.532 OA
ENDBRANCH  32  35
ENDBRANCH  28  29
ENDBRANCH  24  28
ENDBRANCH   1  20
TORSDOF 8
ENDMDL
MODEL 9
REMARK VINA RESULT:      -8.0      3.583      9.447
REMARK  8 active torsions:
REMARK  status: ('A' for Active; 'I' for Inactive)
REMARK    1  A    between atoms: O_2  and  C_3 
REMARK    2  A    between atoms: C_3  and  C_4 
REMARK    3  A    between atoms: C_9  and  N_10 
REMARK       I    between atoms: N_10  and  C_11 
REMARK    4  A    between atoms: C_11  and  C_12 
REMARK    5  A    between atoms: C_12  and  N_13 
REMARK    6  A    between atoms: N_17  and  C_19 
REMARK    7  A    between atoms: C_19  and  C_20 
REMARK    8  A    between atoms: C_23  and  N_24 
ROOT
HETATM    1  C   UNL     1      -6.418   3.478 -31.362  1.00  0.00     0.337 C 
ENDROOT
BRANCH   1   2
HETATM    2  C   UNL     1      -7.563   2.917 -30.531  1.00  0.00     0.248 C 
HETATM    3  N   UNL     1      -8.466   2.046 -31.054  1.00  0.00    -0.323 N 
HETATM    4  H   UNL     1      -9.310   1.937 -30.482  1.00  0.00     0.169 HD
HETATM    5  O   UNL     1      -7.709   3.394 -29.401  1.00  0.00    -0.271 OA
BRANCH   3   6
HETATM    6  C   UNL     1      -8.535   1.482 -32.325  1.00  0.00     0.080 C 
HETATM    7  C   UNL     1      -9.527   1.869 -33.218  1.00  0.00     0.136 C 
HETATM    8  N   UNL     1      -9.267   1.244 -34.413  1.00  0.00    -0.349 N 
HETATM    9  H   UNL     1      -9.838   1.347 -35.246  1.00  0.00     0.166 HD
HETATM   10  C   UNL     1      -8.171   0.424 -34.303  1.00  0.00     0.045 A 
HETATM   11  C   UNL     1      -7.755   0.465 -32.971  1.00  0.00     0.020 A 
HETATM   12  C   UNL     1      -7.572  -0.390 -35.272  1.00  0.00     0.030 A 
HETATM   13  C   UNL     1      -6.772  -0.472 -32.574  1.00  0.00     0.016 A 
HETATM   14  C   UNL     1      -6.164  -1.301 -33.526  1.00  0.00     0.001 A 
HETATM   15  C   UNL     1      -6.545  -1.239 -34.862  1.00  0.00     0.002 A 
BRANCH   7  16
HETATM   16  C   UNL     1     -10.628   2.779 -33.007  1.00  0.00     0.312 C 
HETATM   17  O   UNL     1     -10.493   3.927 -32.607  1.00  0.00    -0.258 OA
BRANCH  16  18
HETATM   18  O   UNL     1     -11.800   2.174 -33.330  1.00  0.00    -0.321 OA
HETATM   19  C   UNL     1     -12.953   3.006 -33.169  1.00  0.00     0.213 C 
ENDBRANCH  16  18
ENDBRANCH   7  16
ENDBRANCH   3   6
ENDBRANCH   1   2
BRANCH   1  20
HETATM   20  N   UNL     1      -6.912   4.661 -32.236  1.00  0.00    -0.060 N 
HETATM   21  H   UNL     1      -7.932   4.677 -32.015  1.00  0.00     0.280 HD
HETATM   22  C   UNL     1      -6.827   4.403 -33.732  1.00  0.00     0.263 C 
HETATM   23  C   UNL     1      -5.369   4.502 -34.249  1.00  0.00     0.263 C 
HETATM   24  N   UNL     1      -4.666   5.787 -33.794  1.00  0.00    -0.064 N 
HETATM   25  H   UNL     1      -5.059   6.568 -34.342  1.00  0.00     0.280 HD
HETATM   26  C   UNL     1      -4.847   6.105 -32.307  1.00  0.00     0.263 C 
HETATM   27  C   UNL     1      -6.324   6.000 -31.858  1.00  0.00     0.263 C 
BRANCH  24  28
HETATM   28  C   UNL     1      -3.173   5.780 -34.142  1.00  0.00     0.273 C 
BRANCH  28  29
HETATM   29  C   UNL     1      -2.273   5.953 -32.950  1.00  0.00    -0.032 A 
HETATM   30  C   UNL     1      -1.829   4.833 -32.227  1.00  0.00     0.011 A 
HETATM   31  C   UNL     1      -0.986   4.990 -31.120  1.00  0.00     0.037 A 
HETATM   32  C   UNL     1      -0.590   6.274 -30.725  1.00  0.00     0.102 A 
HETATM   33  C   UNL     1      -1.028   7.398 -31.434  1.00  0.00     0.037 A 
HETATM   34  C   UNL     1      -1.862   7.234 -32.544  1.00  0.00     0.011 A 
BRANCH  32  35
HETATM   35  N   UNL     1       0.288   6.442 -29.558  1.00  0.00    -0.116 N 
HETATM   36  O   UNL     1       0.716   7.579 -29.327  1.00  0.00    -0.532 OA
HETATM   37  O   UNL     1       0.556   5.429 -28.900  1.00  0.00    -0.532 OA
ENDBRANCH  32  35
ENDBRANCH  28  29
ENDBRANCH  24  28
ENDBRANCH   1  20
TORSDOF 8
ENDMDL
MODEL 10
REMARK VINA RESULT:      -7.8      1.558      2.195
REMARK  8 active torsions:
REMARK  status: ('A' for Active; 'I' for Inactive)
REMARK    1  A    between atoms: O_2  and  C_3 
REMARK    2  A    between atoms: C_3  and  C_4 
REMARK    3  A    between atoms: C_9  and  N_10 
REMARK       I    between atoms: N_10  and  C_11 
REMARK    4  A    between atoms: C_11  and  C_12 
REMARK    5  A    between atoms: C_12  and  N_13 
REMARK    6  A    between atoms: N_17  and  C_19 
REMARK    7  A    between atoms: C_19  and  C_20 
REMARK    8  A    between atoms: C_23  and  N_24 
ROOT
HETATM    1  C   UNL     1      -5.759   4.991 -30.907  1.00  0.00     0.337 C 
ENDROOT
BRANCH   1   2
HETATM    2  C   UNL     1      -5.192   6.093 -31.789  1.00  0.00     0.248 C 
HETATM    3  N   UNL     1      -4.174   6.890 -31.371  1.00  0.00    -0.323 N 
HETATM    4  H   UNL     1      -4.051   7.732 -31.944  1.00  0.00     0.169 HD
HETATM    5  O   UNL     1      -5.789   6.314 -32.848  1.00  0.00    -0.271 OA
BRANCH   3   6
HETATM    6  C   UNL     1      -3.451   6.871 -30.182  1.00  0.00     0.080 C 
HETATM    7  C   UNL     1      -2.153   6.375 -30.150  1.00  0.00     0.136 C 
HETATM    8  N   UNL     1      -1.661   6.601 -28.888  1.00  0.00    -0.349 N 
HETATM    9  H   UNL     1      -0.729   6.336 -28.584  1.00  0.00     0.166 HD
HETATM   10  C   UNL     1      -2.619   7.175 -28.090  1.00  0.00     0.045 A 
HETATM   11  C   UNL     1      -3.792   7.255 -28.842  1.00  0.00     0.020 A 
HETATM   12  C   UNL     1      -2.538   7.563 -26.747  1.00  0.00     0.030 A 
HETATM   13  C   UNL     1      -4.975   7.615 -28.154  1.00  0.00     0.016 A 
HETATM   14  C   UNL     1      -4.918   8.000 -26.808  1.00  0.00     0.001 A 
HETATM   15  C   UNL     1      -3.708   7.996 -26.124  1.00  0.00     0.002 A 
BRANCH   7  16
HETATM   16  C   UNL     1      -1.393   5.764 -31.215  1.00  0.00     0.312 C 
HETATM   17  O   UNL     1      -0.583   4.864 -31.041  1.00  0.00    -0.258 OA
BRANCH  16  18
HETATM   18  O   UNL     1      -1.727   6.324 -32.406  1.00  0.00    -0.321 OA
HETATM   19  C   UNL     1      -0.725   7.190 -32.948  1.00  0.00     0.213 C 
ENDBRANCH  16  18
ENDBRANCH   7  16
ENDBRANCH   3   6
ENDBRANCH   1   2
BRANCH   1  20
HETATM   20  N   UNL     1      -4.728   3.842 -30.745  1.00  0.00    -0.060 N 
HETATM   21  H   UNL     1      -4.030   4.272 -30.100  1.00  0.00     0.280 HD
HETATM   22  C   UNL     1      -3.959   3.518 -32.016  1.00  0.00     0.263 C 
HETATM   23  C   UNL     1      -4.828   2.727 -33.027  1.00  0.00     0.263 C 
HETATM   24  N   UNL     1      -5.524   1.517 -32.390  1.00  0.00    -0.064 N 
HETATM   25  H   UNL     1      -4.806   0.793 -32.231  1.00  0.00     0.280 HD
HETATM   26  C   UNL     1      -6.204   1.821 -31.052  1.00  0.00     0.263 C 
HETATM   27  C   UNL     1      -5.280   2.601 -30.086  1.00  0.00     0.263 C 
BRANCH  24  28
HETATM   28  C   UNL     1      -6.529   0.864 -33.345  1.00  0.00     0.273 C 
BRANCH  28  29
HETATM   29  C   UNL     1      -6.192  -0.559 -33.698  1.00  0.00    -0.032 A 
HETATM   30  C   UNL     1      -7.149  -1.385 -34.311  1.00  0.00     0.011 A 
HETATM   31  C   UNL     1      -6.836  -2.707 -34.646  1.00  0.00     0.037 A 
HETATM   32  C   UNL     1      -5.561  -3.214 -34.362  1.00  0.00     0.102 A 
HETATM   33  C   UNL     1      -4.600  -2.402 -33.749  1.00  0.00     0.037 A 
HETATM   34  C   UNL     1      -4.915  -1.079 -33.424  1.00  0.00     0.011 A 
BRANCH  32  35
HETATM   35  N   UNL     1      -5.232  -4.604 -34.705  1.00  0.00    -0.116 N 
HETATM   36  O   UNL     1      -4.138  -5.041 -34.328  1.00  0.00    -0.532 OA
HETATM   37  O   UNL     1      -6.065  -5.236 -35.368  1.00  0.00    -0.532 OA
ENDBRANCH  32  35
ENDBRANCH  28  29
ENDBRANCH  24  28
ENDBRANCH   1  20
TORSDOF 8
ENDMDL
