MODEL 1
REMARK VINA RESULT:      -9.4      0.000      0.000
REMARK  6 active torsions:
REMARK  status: ('A' for Active; 'I' for Inactive)
REMARK    1  A    between atoms: C_2  and  N_3 
REMARK    2  A    between atoms: N_7  and  C_8 
REMARK    3  A    between atoms: C_11  and  N_12 
REMARK    4  A    between atoms: C_13  and  N_14 
REMARK       I    between atoms: N_14  and  C_15 
REMARK    5  A    between atoms: C_15  and  C_16 
REMARK    6  A    between atoms: C_18  and  C_19 
ROOT
HETATM    1  N   UNL     1     -10.906   3.667 -32.674  1.00  0.00    -0.338 N 
HETATM    2  C   UNL     1     -11.608   2.652 -33.214  1.00  0.00     0.157 C 
HETATM    3  S   UNL     1     -13.279   2.693 -33.086  1.00  0.00    -0.047 SA
HETATM    4  H   UNL     1     -11.479   4.483 -32.481  1.00  0.00     0.168 HD
ENDROOT
BRANCH   2   5
HETATM    5  N   UNL     1     -11.063   1.651 -33.955  1.00  0.00    -0.199 NA
HETATM    6  C   UNL     1     -10.353   0.560 -33.462  1.00  0.00     0.261 C 
HETATM    7  O   UNL     1     -10.834  -0.343 -32.786  1.00  0.00    -0.271 OA
HETATM    8  H   UNL     1     -10.573   2.084 -34.733  1.00  0.00     0.139 HD
BRANCH   6   9
HETATM    9  C   UNL     1      -8.994   0.489 -33.966  1.00  0.00     0.138 A 
HETATM   10  O   UNL     1      -8.221  -0.604 -33.675  1.00  0.00    -0.305 OA
HETATM   11  C   UNL     1      -7.032  -0.459 -34.341  1.00  0.00     0.088 A 
HETATM   12  C   UNL     1      -7.018   0.762 -34.985  1.00  0.00     0.041 A 
HETATM   13  C   UNL     1      -8.281   1.358 -34.766  1.00  0.00     0.045 A 
BRANCH  11  14
HETATM   14  C   UNL     1      -6.098  -1.580 -34.233  1.00  0.00     0.020 A 
HETATM   15  C   UNL     1      -4.859  -1.496 -33.565  1.00  0.00     0.048 A 
HETATM   16 CL   UNL     1      -4.272  -0.031 -32.849  1.00  0.00    -0.083 Cl
HETATM   17  C   UNL     1      -4.008  -2.605 -33.485  1.00  0.00     0.048 A 
HETATM   18  C   UNL     1      -4.377  -3.808 -34.077  1.00  0.00     0.035 A 
HETATM   19 CL   UNL     1      -3.326  -5.165 -33.982  1.00  0.00    -0.084 Cl
HETATM   20  C   UNL     1      -5.587  -3.914 -34.752  1.00  0.00     0.025 A 
HETATM   21  C   UNL     1      -6.441  -2.808 -34.829  1.00  0.00     0.017 A 
ENDBRANCH  11  14
ENDBRANCH   6   9
ENDBRANCH   2   5
BRANCH   1  22
HETATM   22  C   UNL     1      -9.618   3.720 -32.116  1.00  0.00     0.034 A 
HETATM   23  C   UNL     1      -8.517   4.288 -32.748  1.00  0.00     0.032 A 
HETATM   24  C   UNL     1      -7.260   4.295 -32.121  1.00  0.00     0.031 A 
HETATM   25  C   UNL     1      -7.071   3.743 -30.848  1.00  0.00     0.030 A 
HETATM   26  C   UNL     1      -8.181   3.112 -30.263  1.00  0.00     0.031 A 
HETATM   27  C   UNL     1      -9.431   3.088 -30.888  1.00  0.00     0.032 A 
BRANCH  25  28
HETATM   28  N   UNL     1      -5.858   3.768 -30.160  1.00  0.00    -0.378 N 
HETATM   29  C   UNL     1      -5.302   5.108 -29.880  1.00  0.00     0.150 C 
HETATM   30  C   UNL     1      -4.260   5.509 -30.946  1.00  0.00     0.254 C 
HETATM   31  N   UNL     1      -3.159   4.443 -31.034  1.00  0.00    -0.068 N 
HETATM   32  H   UNL     1      -2.756   4.346 -30.092  1.00  0.00     0.280 HD
HETATM   33  C   UNL     1      -3.786   3.086 -31.382  1.00  0.00     0.254 C 
HETATM   34  C   UNL     1      -4.863   2.701 -30.346  1.00  0.00     0.150 C 
BRANCH  31  35
HETATM   35  C   UNL     1      -2.046   4.795 -31.988  1.00  0.00     0.230 C 
HETATM   36  C   UNL     1      -2.371   4.328 -33.395  1.00  0.00     0.034 C 
ENDBRANCH  31  35
ENDBRANCH  25  28
ENDBRANCH   1  22
TORSDOF 6
ENDMDL
MODEL 2
REMARK VINA RESULT:      -9.2      2.455      3.852
REMARK  6 active torsions:
REMARK  status: ('A' for Active; 'I' for Inactive)
REMARK    1  A    between atoms: C_2  and  N_3 
REMARK    2  A    between atoms: N_7  and  C_8 
REMARK    3  A    between atoms: C_11  and  N_12 
REMARK    4  A    between atoms: C_13  and  N_14 
REMARK       I    between atoms: N_14  and  C_15 
REMARK    5  A    between atoms: C_15  and  C_16 
REMARK    6  A    between atoms: C_18  and  C_19 
ROOT
HETATM    1  N   UNL     1      -8.205   5.244 -32.714  1.00  0.00    -0.338 N 
HETATM    2  C   UNL     1      -8.855   4.413 -31.878  1.00  0.00     0.157 C 
HETATM    3  S   UNL     1     -10.357   4.886 -31.305  1.00  0.00    -0.047 SA
HETATM    4  H   UNL     1      -8.814   5.949 -33.120  1.00  0.00     0.168 HD
ENDROOT
BRANCH   2   5
HETATM    5  N   UNL     1      -8.427   3.164 -31.552  1.00  0.00    -0.199 NA
HETATM    6  C   UNL     1      -7.387   2.855 -30.679  1.00  0.00     0.261 C 
HETATM    7  O   UNL     1      -7.404   3.051 -29.469  1.00  0.00    -0.271 OA
HETATM    8  H   UNL     1      -8.346   2.638 -32.418  1.00  0.00     0.139 HD
BRANCH   6   9
HETATM    9  C   UNL     1      -6.315   2.108 -31.312  1.00  0.00     0.138 A 
HETATM   10  O   UNL     1      -6.584   0.892 -31.881  1.00  0.00    -0.305 OA
HETATM   11  C   UNL     1      -5.432   0.451 -32.478  1.00  0.00     0.088 A 
HETATM   12  C   UNL     1      -4.413   1.345 -32.216  1.00  0.00     0.041 A 
HETATM   13  C   UNL     1      -4.983   2.416 -31.491  1.00  0.00     0.045 A 
BRANCH  11  14
HETATM   14  C   UNL     1      -5.540  -0.800 -33.231  1.00  0.00     0.020 A 
HETATM   15  C   UNL     1      -4.564  -1.817 -33.188  1.00  0.00     0.048 A 
HETATM   16 CL   UNL     1      -3.091  -1.673 -32.288  1.00  0.00    -0.083 Cl
HETATM   17  C   UNL     1      -4.724  -2.999 -33.923  1.00  0.00     0.048 A 
HETATM   18  C   UNL     1      -5.853  -3.176 -34.715  1.00  0.00     0.035 A 
HETATM   19 CL   UNL     1      -6.043  -4.625 -35.620  1.00  0.00    -0.084 Cl
HETATM   20  C   UNL     1      -6.824  -2.184 -34.783  1.00  0.00     0.025 A 
HETATM   21  C   UNL     1      -6.668  -1.005 -34.047  1.00  0.00     0.017 A 
ENDBRANCH  11  14
ENDBRANCH   6   9
ENDBRANCH   2   5
BRANCH   1  22
HETATM   22  C   UNL     1      -6.835   5.468 -32.934  1.00  0.00     0.034 A 
HETATM   23  C   UNL     1      -6.068   6.376 -32.212  1.00  0.00     0.032 A 
HETATM   24  C   UNL     1      -4.703   6.544 -32.500  1.00  0.00     0.031 A 
HETATM   25  C   UNL     1      -4.069   5.808 -33.509  1.00  0.00     0.030 A 
HETATM   26  C   UNL     1      -4.882   4.953 -34.271  1.00  0.00     0.031 A 
HETATM   27  C   UNL     1      -6.243   4.792 -33.999  1.00  0.00     0.032 A 
BRANCH  25  28
HETATM   28  N   UNL     1      -2.709   5.899 -33.802  1.00  0.00    -0.378 N 
HETATM   29  C   UNL     1      -1.877   4.758 -33.366  1.00  0.00     0.150 C 
HETATM   30  C   UNL     1      -1.207   5.048 -32.005  1.00  0.00     0.254 C 
HETATM   31  N   UNL     1      -0.393   6.347 -32.087  1.00  0.00    -0.068 N 
HETATM   32  H   UNL     1       0.283   6.234 -32.853  1.00  0.00     0.280 HD
HETATM   33  C   UNL     1      -1.316   7.507 -32.487  1.00  0.00     0.254 C 
HETATM   34  C   UNL     1      -2.027   7.201 -33.823  1.00  0.00     0.150 C 
BRANCH  31  35
HETATM   35  C   UNL     1       0.373   6.665 -30.828  1.00  0.00     0.230 C 
HETATM   36  C   UNL     1       0.385   5.475 -29.886  1.00  0.00     0.034 C 
ENDBRANCH  31  35
ENDBRANCH  25  28
ENDBRANCH   1  22
TORSDOF 6
ENDMDL
MODEL 3
REMARK VINA RESULT:      -9.1      4.746      7.225
REMARK  6 active torsions:
REMARK  status: ('A' for Active; 'I' for Inactive)
REMARK    1  A    between atoms: C_2  and  N_3 
REMARK    2  A    between atoms: N_7  and  C_8 
REMARK    3  A    between atoms: C_11  and  N_12 
REMARK    4  A    between atoms: C_13  and  N_14 
REMARK       I    between atoms: N_14  and  C_15 
REMARK    5  A    between atoms: C_15  and  C_16 
REMARK    6  A    between atoms: C_18  and  C_19 
ROOT
HETATM    1  N   UNL     1      -0.755   5.270 -32.584  1.00  0.00    -0.338 N 
HETATM    2  C   UNL     1      -1.955   5.042 -33.152  1.00  0.00     0.157 C 
HETATM    3  S   UNL     1      -2.080   5.186 -34.817  1.00  0.00    -0.047 SA
HETATM    4  H   UNL     1       0.009   5.243 -33.254  1.00  0.00     0.168 HD
ENDROOT
BRANCH   2   5
HETATM    5  N   UNL     1      -3.048   4.593 -32.480  1.00  0.00    -0.199 NA
HETATM    6  C   UNL     1      -3.239   3.302 -31.994  1.00  0.00     0.261 C 
HETATM    7  O   UNL     1      -2.598   2.794 -31.081  1.00  0.00    -0.271 OA
HETATM    8  H   UNL     1      -3.867   4.917 -32.987  1.00  0.00     0.139 HD
BRANCH   6   9
HETATM    9  C   UNL     1      -4.402   2.645 -32.562  1.00  0.00     0.138 A 
HETATM   10  O   UNL     1      -4.295   1.359 -33.020  1.00  0.00    -0.305 OA
HETATM   11  C   UNL     1      -5.544   0.955 -33.415  1.00  0.00     0.088 A 
HETATM   12  C   UNL     1      -6.424   2.011 -33.287  1.00  0.00     0.041 A 
HETATM   13  C   UNL     1      -5.700   3.084 -32.719  1.00  0.00     0.045 A 
BRANCH  11  14
HETATM   14  C   UNL     1      -5.658  -0.437 -33.850  1.00  0.00     0.020 A 
HETATM   15  C   UNL     1      -6.762  -0.936 -34.572  1.00  0.00     0.048 A 
HETATM   16 CL   UNL     1      -8.142   0.032 -34.972  1.00  0.00    -0.083 Cl
HETATM   17  C   UNL     1      -6.814  -2.278 -34.971  1.00  0.00     0.048 A 
HETATM   18  C   UNL     1      -5.771  -3.139 -34.647  1.00  0.00     0.035 A 
HETATM   19 CL   UNL     1      -5.842  -4.786 -35.134  1.00  0.00    -0.084 Cl
HETATM   20  C   UNL     1      -4.677  -2.676 -33.926  1.00  0.00     0.025 A 
HETATM   21  C   UNL     1      -4.622  -1.334 -33.530  1.00  0.00     0.017 A 
ENDBRANCH  11  14
ENDBRANCH   6   9
ENDBRANCH   2   5
BRANCH   1  22
HETATM   22  C   UNL     1      -0.397   5.768 -31.320  1.00  0.00     0.034 A 
HETATM   23  C   UNL     1      -0.715   7.044 -30.867  1.00  0.00     0.032 A 
HETATM   24  C   UNL     1      -0.314   7.467 -29.589  1.00  0.00     0.031 A 
HETATM   25  C   UNL     1       0.408   6.629 -28.730  1.00  0.00     0.030 A 
HETATM   26  C   UNL     1       0.779   5.374 -29.239  1.00  0.00     0.031 A 
HETATM   27  C   UNL     1       0.396   4.952 -30.516  1.00  0.00     0.032 A 
BRANCH  25  28
HETATM   28  N   UNL     1       0.787   6.980 -27.434  1.00  0.00    -0.378 N 
HETATM   29  C   UNL     1      -0.168   6.625 -26.364  1.00  0.00     0.150 C 
HETATM   30  C   UNL     1      -1.072   7.824 -26.008  1.00  0.00     0.254 C 
HETATM   31  N   UNL     1      -0.212   9.036 -25.624  1.00  0.00    -0.068 N 
HETATM   32  H   UNL     1       0.394   8.744 -24.847  1.00  0.00     0.280 HD
HETATM   33  C   UNL     1       0.719   9.395 -26.792  1.00  0.00     0.254 C 
HETATM   34  C   UNL     1       1.592   8.185 -27.184  1.00  0.00     0.150 C 
BRANCH  31  35
HETATM   35  C   UNL     1      -1.011  10.232 -25.172  1.00  0.00     0.230 C 
HETATM   36  C   UNL     1      -2.061   9.827 -24.153  1.00  0.00     0.034 C 
ENDBRANCH  31  35
ENDBRANCH  25  28
ENDBRANCH   1  22
TORSDOF 6
ENDMDL
MODEL 4
REMARK VINA RESULT:      -9.1      1.578      2.318
REMARK  6 active torsions:
REMARK  status: ('A' for Active; 'I' for Inactive)
REMARK    1  A    between atoms: C_2  and  N_3 
REMARK    2  A    between atoms: N_7  and  C_8 
REMARK    3  A    between atoms: C_11  and  N_12 
REMARK    4  A    between atoms: C_13  and  N_14 
REMARK       I    between atoms: N_14  and  C_15 
REMARK    5  A    between atoms: C_15  and  C_16 
REMARK    6  A    between atoms: C_18  and  C_19 
ROOT
HETATM    1  N   UNL     1      -9.099   4.610 -32.464  1.00  0.00    -0.338 N 
HETATM    2  C   UNL     1     -10.048   3.684 -32.227  1.00  0.00     0.157 C 
HETATM    3  S   UNL     1     -11.347   4.113 -31.259  1.00  0.00    -0.047 SA
HETATM    4  H   UNL     1      -9.409   5.554 -32.248  1.00  0.00     0.168 HD
ENDROOT
BRANCH   2   5
HETATM    5  N   UNL     1     -10.084   2.456 -32.811  1.00  0.00    -0.199 NA
HETATM    6  C   UNL     1      -9.358   1.337 -32.410  1.00  0.00     0.261 C 
HETATM    7  O   UNL     1      -9.530   0.728 -31.360  1.00  0.00    -0.271 OA
HETATM    8  H   UNL     1     -10.012   2.597 -33.814  1.00  0.00     0.139 HD
BRANCH   6   9
HETATM    9  C   UNL     1      -8.468   0.836 -33.441  1.00  0.00     0.138 A 
HETATM   10  O   UNL     1      -7.610  -0.193 -33.152  1.00  0.00    -0.305 OA
HETATM   11  C   UNL     1      -6.959  -0.526 -34.311  1.00  0.00     0.088 A 
HETATM   12  C   UNL     1      -7.341   0.344 -35.313  1.00  0.00     0.041 A 
HETATM   13  C   UNL     1      -8.323   1.199 -34.764  1.00  0.00     0.045 A 
BRANCH  11  14
HETATM   14  C   UNL     1      -6.060  -1.678 -34.230  1.00  0.00     0.020 A 
HETATM   15  C   UNL     1      -4.765  -1.613 -33.677  1.00  0.00     0.048 A 
HETATM   16 CL   UNL     1      -4.065  -0.143 -33.085  1.00  0.00    -0.083 Cl
HETATM   17  C   UNL     1      -3.950  -2.752 -33.617  1.00  0.00     0.048 A 
HETATM   18  C   UNL     1      -4.414  -3.964 -34.117  1.00  0.00     0.035 A 
HETATM   19 CL   UNL     1      -3.408  -5.356 -34.048  1.00  0.00    -0.084 Cl
HETATM   20  C   UNL     1      -5.682  -4.052 -34.679  1.00  0.00     0.025 A 
HETATM   21  C   UNL     1      -6.498  -2.917 -34.735  1.00  0.00     0.017 A 
ENDBRANCH  11  14
ENDBRANCH   6   9
ENDBRANCH   2   5
BRANCH   1  22
HETATM   22  C   UNL     1      -7.721   4.496 -32.710  1.00  0.00     0.034 A 
HETATM   23  C   UNL     1      -7.121   4.788 -33.930  1.00  0.00     0.032 A 
HETATM   24  C   UNL     1      -5.733   4.642 -34.095  1.00  0.00     0.031 A 
HETATM   25  C   UNL     1      -4.911   4.208 -33.048  1.00  0.00     0.030 A 
HETATM   26  C   UNL     1      -5.550   3.851 -31.850  1.00  0.00     0.031 A 
HETATM   27  C   UNL     1      -6.932   3.980 -31.684  1.00  0.00     0.032 A 
BRANCH  25  28
HETATM   28  N   UNL     1      -3.524   4.094 -33.143  1.00  0.00    -0.378 N 
HETATM   29  C   UNL     1      -2.810   3.838 -31.875  1.00  0.00     0.150 C 
HETATM   30  C   UNL     1      -2.271   5.151 -31.266  1.00  0.00     0.254 C 
HETATM   31  N   UNL     1      -1.381   5.876 -32.285  1.00  0.00    -0.068 N 
HETATM   32  H   UNL     1      -0.635   5.222 -32.555  1.00  0.00     0.280 HD
HETATM   33  C   UNL     1      -2.189   6.167 -33.558  1.00  0.00     0.254 C 
HETATM   34  C   UNL     1      -2.770   4.863 -34.144  1.00  0.00     0.150 C 
BRANCH  31  35
HETATM   35  C   UNL     1      -0.735   7.128 -31.747  1.00  0.00     0.230 C 
HETATM   36  C   UNL     1       0.642   6.826 -31.183  1.00  0.00     0.034 C 
ENDBRANCH  31  35
ENDBRANCH  25  28
ENDBRANCH   1  22
TORSDOF 6
ENDMDL
MODEL 5
REMARK VINA RESULT:      -8.9      3.058      5.919
REMARK  6 active torsions:
REMARK  status: ('A' for Active; 'I' for Inactive)
REMARK    1  A    between atoms: C_2  and  N_3 
REMARK    2  A    between atoms: N_7  and  C_8 
REMARK    3  A    between atoms: C_11  and  N_12 
REMARK    4  A    between atoms: C_13  and  N_14 
REMARK       I    between atoms: N_14  and  C_15 
REMARK    5  A    between atoms: C_15  and  C_16 
REMARK    6  A    between atoms: C_18  and  C_19 
ROOT
HETATM    1  N   UNL     1      -3.953   6.419 -30.620  1.00  0.00    -0.338 N 
HETATM    2  C   UNL     1      -2.784   5.890 -31.030  1.00  0.00     0.157 C 
HETATM    3  S   UNL     1      -1.495   6.930 -31.289  1.00  0.00    -0.047 SA
HETATM    4  H   UNL     1      -3.851   7.362 -30.254  1.00  0.00     0.168 HD
ENDROOT
BRANCH   2   5
HETATM    5  N   UNL     1      -2.544   4.557 -31.142  1.00  0.00    -0.199 NA
HETATM    6  C   UNL     1      -2.852   3.758 -32.240  1.00  0.00     0.261 C 
HETATM    7  O   UNL     1      -2.319   3.840 -33.341  1.00  0.00    -0.271 OA
HETATM    8  H   UNL     1      -2.850   4.122 -30.277  1.00  0.00     0.139 HD
BRANCH   6   9
HETATM    9  C   UNL     1      -3.766   2.676 -31.919  1.00  0.00     0.138 A 
HETATM   10  O   UNL     1      -3.967   1.670 -32.826  1.00  0.00    -0.305 OA
HETATM   11  C   UNL     1      -4.794   0.746 -32.242  1.00  0.00     0.088 A 
HETATM   12  C   UNL     1      -5.184   1.206 -31.001  1.00  0.00     0.041 A 
HETATM   13  C   UNL     1      -4.509   2.429 -30.784  1.00  0.00     0.045 A 
BRANCH  11  14
HETATM   14  C   UNL     1      -5.053  -0.464 -33.024  1.00  0.00     0.020 A 
HETATM   15  C   UNL     1      -4.244  -1.617 -32.958  1.00  0.00     0.048 A 
HETATM   16 CL   UNL     1      -2.811  -1.710 -31.990  1.00  0.00    -0.083 Cl
HETATM   17  C   UNL     1      -4.546  -2.752 -33.723  1.00  0.00     0.048 A 
HETATM   18  C   UNL     1      -5.650  -2.746 -34.569  1.00  0.00     0.035 A 
HETATM   19 CL   UNL     1      -6.012  -4.137 -35.510  1.00  0.00    -0.084 Cl
HETATM   20  C   UNL     1      -6.456  -1.617 -34.661  1.00  0.00     0.025 A 
HETATM   21  C   UNL     1      -6.159  -0.485 -33.894  1.00  0.00     0.017 A 
ENDBRANCH  11  14
ENDBRANCH   6   9
ENDBRANCH   2   5
BRANCH   1  22
HETATM   22  C   UNL     1      -5.284   6.021 -30.826  1.00  0.00     0.034 A 
HETATM   23  C   UNL     1      -5.952   6.133 -32.041  1.00  0.00     0.032 A 
HETATM   24  C   UNL     1      -7.288   5.715 -32.161  1.00  0.00     0.031 A 
HETATM   25  C   UNL     1      -7.988   5.171 -31.077  1.00  0.00     0.030 A 
HETATM   26  C   UNL     1      -7.315   5.136 -29.845  1.00  0.00     0.031 A 
HETATM   27  C   UNL     1      -5.991   5.565 -29.716  1.00  0.00     0.032 A 
BRANCH  25  28
HETATM   28  N   UNL     1      -9.297   4.694 -31.154  1.00  0.00    -0.378 N 
HETATM   29  C   UNL     1      -9.585   3.470 -30.378  1.00  0.00     0.150 C 
HETATM   30  C   UNL     1      -9.487   2.213 -31.270  1.00  0.00     0.254 C 
HETATM   31  N   UNL     1     -10.421   2.353 -32.480  1.00  0.00    -0.068 N 
HETATM   32  H   UNL     1     -11.368   2.515 -32.115  1.00  0.00     0.280 HD
HETATM   33  C   UNL     1     -10.041   3.607 -33.280  1.00  0.00     0.254 C 
HETATM   34  C   UNL     1     -10.089   4.861 -32.381  1.00  0.00     0.150 C 
BRANCH  31  35
HETATM   35  C   UNL     1     -10.461   1.131 -33.363  1.00  0.00     0.230 C 
HETATM   36  C   UNL     1      -9.742  -0.034 -32.707  1.00  0.00     0.034 C 
ENDBRANCH  31  35
ENDBRANCH  25  28
ENDBRANCH   1  22
TORSDOF 6
ENDMDL
MODEL 6
REMARK VINA RESULT:      -8.8      2.809      6.192
REMARK  6 active torsions:
REMARK  status: ('A' for Active; 'I' for Inactive)
REMARK    1  A    between atoms: C_2  and  N_3 
REMARK    2  A    between atoms: N_7  and  C_8 
REMARK    3  A    between atoms: C_11  and  N_12 
REMARK    4  A    between atoms: C_13  and  N_14 
REMARK       I    between atoms: N_14  and  C_15 
REMARK    5  A    between atoms: C_15  and  C_16 
REMARK    6  A    between atoms: C_18  and  C_19 
ROOT
HETATM    1  N   UNL     1      -6.251   5.738 -30.840  1.00  0.00    -0.338 N 
HETATM    2  C   UNL     1      -4.982   5.470 -30.477  1.00  0.00     0.157 C 
HETATM    3  S   UNL     1      -3.955   6.762 -30.184  1.00  0.00    -0.047 SA
HETATM    4  H   UNL     1      -6.524   6.696 -30.638  1.00  0.00     0.168 HD
ENDROOT
BRANCH   2   5
HETATM    5  N   UNL     1      -4.505   4.223 -30.222  1.00  0.00    -0.199 NA
HETATM    6  C   UNL     1      -4.123   3.280 -31.174  1.00  0.00     0.261 C 
HETATM    7  O   UNL     1      -3.154   3.386 -31.917  1.00  0.00    -0.271 OA
HETATM    8  H   UNL     1      -5.109   3.807 -29.518  1.00  0.00     0.139 HD
BRANCH   6   9
HETATM    9  C   UNL     1      -4.892   2.051 -31.099  1.00  0.00     0.138 A 
HETATM   10  O   UNL     1      -4.891   1.188 -32.162  1.00  0.00    -0.305 OA
HETATM   11  C   UNL     1      -5.612   0.081 -31.797  1.00  0.00     0.088 A 
HETATM   12  C   UNL     1      -6.139   0.278 -30.537  1.00  0.00     0.041 A 
HETATM   13  C   UNL     1      -5.659   1.526 -30.080  1.00  0.00     0.045 A 
BRANCH  11  14
HETATM   14  C   UNL     1      -5.648  -1.009 -32.774  1.00  0.00     0.020 A 
HETATM   15  C   UNL     1      -4.566  -1.884 -32.998  1.00  0.00     0.048 A 
HETATM   16 CL   UNL     1      -3.044  -1.729 -32.187  1.00  0.00    -0.083 Cl
HETATM   17  C   UNL     1      -4.660  -2.917 -33.941  1.00  0.00     0.048 A 
HETATM   18  C   UNL     1      -5.829  -3.082 -34.675  1.00  0.00     0.035 A 
HETATM   19 CL   UNL     1      -5.938  -4.346 -35.835  1.00  0.00    -0.084 Cl
HETATM   20  C   UNL     1      -6.906  -2.225 -34.481  1.00  0.00     0.025 A 
HETATM   21  C   UNL     1      -6.815  -1.196 -33.538  1.00  0.00     0.017 A 
ENDBRANCH  11  14
ENDBRANCH   6   9
ENDBRANCH   2   5
BRANCH   1  22
HETATM   22  C   UNL     1      -7.161   5.037 -31.648  1.00  0.00     0.034 A 
HETATM   23  C   UNL     1      -8.262   4.343 -31.160  1.00  0.00     0.032 A 
HETATM   24  C   UNL     1      -9.122   3.661 -32.037  1.00  0.00     0.031 A 
HETATM   25  C   UNL     1      -8.909   3.659 -33.421  1.00  0.00     0.030 A 
HETATM   26  C   UNL     1      -7.751   4.305 -33.881  1.00  0.00     0.031 A 
HETATM   27  C   UNL     1      -6.883   4.973 -33.012  1.00  0.00     0.032 A 
BRANCH  25  28
HETATM   28  N   UNL     1      -9.758   3.042 -34.339  1.00  0.00    -0.378 N 
HETATM   29  C   UNL     1     -10.887   3.862 -34.828  1.00  0.00     0.150 C 
HETATM   30  C   UNL     1     -12.173   3.567 -34.027  1.00  0.00     0.254 C 
HETATM   31  N   UNL     1     -12.494   2.067 -34.082  1.00  0.00    -0.068 N 
HETATM   32  H   UNL     1     -12.569   1.809 -35.075  1.00  0.00     0.280 HD
HETATM   33  C   UNL     1     -11.314   1.268 -33.512  1.00  0.00     0.254 C 
HETATM   34  C   UNL     1     -10.014   1.596 -34.277  1.00  0.00     0.150 C 
BRANCH  31  35
HETATM   35  C   UNL     1     -13.788   1.695 -33.402  1.00  0.00     0.230 C 
HETATM   36  C   UNL     1     -14.537   0.645 -34.202  1.00  0.00     0.034 C 
ENDBRANCH  31  35
ENDBRANCH  25  28
ENDBRANCH   1  22
TORSDOF 6
ENDMDL
MODEL 7
REMARK VINA RESULT:      -8.6      2.052      2.760
REMARK  6 active torsions:
REMARK  status: ('A' for Active; 'I' for Inactive)
REMARK    1  A    between atoms: C_2  and  N_3 
REMARK    2  A    between atoms: N_7  and  C_8 
REMARK    3  A    between atoms: C_11  and  N_12 
REMARK    4  A    between atoms: C_13  and  N_14 
REMARK       I    between atoms: N_14  and  C_15 
REMARK    5  A    between atoms: C_15  and  C_16 
REMARK    6  A    between atoms: C_18  and  C_19 
ROOT
HETATM    1  N   UNL     1      -9.370   5.677 -34.578  1.00  0.00    -0.338 N 
HETATM    2  C   UNL     1     -10.476   5.076 -35.056  1.00  0.00     0.157 C 
HETATM    3  S   UNL     1     -11.828   6.025 -35.346  1.00  0.00    -0.047 SA
HETATM    4  H   UNL     1      -9.388   6.686 -34.697  1.00  0.00     0.168 HD
ENDROOT
BRANCH   2   5
HETATM    5  N   UNL     1     -10.540   3.770 -35.427  1.00  0.00    -0.199 NA
HETATM    6  C   UNL     1     -11.530   2.861 -35.059  1.00  0.00     0.261 C 
HETATM    7  O   UNL     1     -12.700   2.913 -35.422  1.00  0.00    -0.271 OA
HETATM    8  H   UNL     1      -9.614   3.374 -35.295  1.00  0.00     0.139 HD
BRANCH   6   9
HETATM    9  C   UNL     1     -11.012   1.720 -34.326  1.00  0.00     0.138 A 
HETATM   10  O   UNL     1      -9.681   1.408 -34.414  1.00  0.00    -0.305 OA
HETATM   11  C   UNL     1      -9.446   0.358 -33.564  1.00  0.00     0.088 A 
HETATM   12  C   UNL     1     -10.640  -0.048 -33.003  1.00  0.00     0.041 A 
HETATM   13  C   UNL     1     -11.638   0.837 -33.471  1.00  0.00     0.045 A 
BRANCH  11  14
HETATM   14  C   UNL     1      -8.050  -0.065 -33.442  1.00  0.00     0.020 A 
HETATM   15  C   UNL     1      -7.240   0.248 -32.331  1.00  0.00     0.048 A 
HETATM   16 CL   UNL     1      -7.788   1.225 -31.010  1.00  0.00    -0.083 Cl
HETATM   17  C   UNL     1      -5.912  -0.192 -32.264  1.00  0.00     0.048 A 
HETATM   18  C   UNL     1      -5.373  -0.938 -33.306  1.00  0.00     0.035 A 
HETATM   19 CL   UNL     1      -3.741  -1.470 -33.222  1.00  0.00    -0.084 Cl
HETATM   20  C   UNL     1      -6.147  -1.250 -34.418  1.00  0.00     0.025 A 
HETATM   21  C   UNL     1      -7.476  -0.815 -34.485  1.00  0.00     0.017 A 
ENDBRANCH  11  14
ENDBRANCH   6   9
ENDBRANCH   2   5
BRANCH   1  22
HETATM   22  C   UNL     1      -8.337   5.212 -33.747  1.00  0.00     0.034 A 
HETATM   23  C   UNL     1      -7.509   4.139 -34.060  1.00  0.00     0.032 A 
HETATM   24  C   UNL     1      -6.501   3.732 -33.169  1.00  0.00     0.031 A 
HETATM   25  C   UNL     1      -6.290   4.388 -31.950  1.00  0.00     0.030 A 
HETATM   26  C   UNL     1      -7.185   5.421 -31.626  1.00  0.00     0.031 A 
HETATM   27  C   UNL     1      -8.200   5.820 -32.501  1.00  0.00     0.032 A 
BRANCH  25  28
HETATM   28  N   UNL     1      -5.273   4.059 -31.054  1.00  0.00    -0.378 N 
HETATM   29  C   UNL     1      -4.759   5.170 -30.225  1.00  0.00     0.150 C 
HETATM   30  C   UNL     1      -3.484   5.779 -30.846  1.00  0.00     0.254 C 
HETATM   31  N   UNL     1      -2.426   4.687 -31.054  1.00  0.00    -0.068 N 
HETATM   32  H   UNL     1      -2.259   4.248 -30.139  1.00  0.00     0.280 HD
HETATM   33  C   UNL     1      -2.993   3.590 -31.966  1.00  0.00     0.254 C 
HETATM   34  C   UNL     1      -4.295   3.010 -31.375  1.00  0.00     0.150 C 
BRANCH  31  35
HETATM   35  C   UNL     1      -1.109   5.205 -31.573  1.00  0.00     0.230 C 
HETATM   36  C   UNL     1      -1.129   5.314 -33.087  1.00  0.00     0.034 C 
ENDBRANCH  31  35
ENDBRANCH  25  28
ENDBRANCH   1  22
TORSDOF 6
ENDMDL
MODEL 8
REMARK VINA RESULT:      -8.5      3.060      6.220
REMARK  6 active torsions:
REMARK  status: ('A' for Active; 'I' for Inactive)
REMARK    1  A    between atoms: C_2  and  N_3 
REMARK    2  A    between atoms: N_7  and  C_8 
REMARK    3  A    between atoms: C_11  and  N_12 
REMARK    4  A    between atoms: C_13  and  N_14 
REMARK       I    between atoms: N_14  and  C_15 
REMARK    5  A    between atoms: C_15  and  C_16 
REMARK    6  A    between atoms: C_18  and  C_19 
ROOT
HETATM    1  N   UNL     1      -4.936   5.962 -31.212  1.00  0.00    -0.338 N 
HETATM    2  C   UNL     1      -3.661   5.539 -31.116  1.00  0.00     0.157 C 
HETATM    3  S   UNL     1      -2.456   6.694 -30.961  1.00  0.00    -0.047 SA
HETATM    4  H   UNL     1      -5.055   6.925 -30.912  1.00  0.00     0.168 HD
ENDROOT
BRANCH   2   5
HETATM    5  N   UNL     1      -3.290   4.234 -31.023  1.00  0.00    -0.199 NA
HETATM    6  C   UNL     1      -3.329   3.296 -32.051  1.00  0.00     0.261 C 
HETATM    7  O   UNL     1      -2.617   3.319 -33.050  1.00  0.00    -0.271 OA
HETATM    8  H   UNL     1      -3.707   3.863 -30.174  1.00  0.00     0.139 HD
BRANCH   6   9
HETATM    9  C   UNL     1      -4.189   2.164 -31.758  1.00  0.00     0.138 A 
HETATM   10  O   UNL     1      -4.427   1.227 -32.729  1.00  0.00    -0.305 OA
HETATM   11  C   UNL     1      -5.185   0.233 -32.167  1.00  0.00     0.088 A 
HETATM   12  C   UNL     1      -5.499   0.580 -30.868  1.00  0.00     0.041 A 
HETATM   13  C   UNL     1      -4.842   1.802 -30.599  1.00  0.00     0.045 A 
BRANCH  11  14
HETATM   14  C   UNL     1      -5.468  -0.918 -33.026  1.00  0.00     0.020 A 
HETATM   15  C   UNL     1      -6.750  -1.208 -33.535  1.00  0.00     0.048 A 
HETATM   16 CL   UNL     1      -8.153  -0.269 -33.150  1.00  0.00    -0.083 Cl
HETATM   17  C   UNL     1      -6.961  -2.321 -34.361  1.00  0.00     0.048 A 
HETATM   18  C   UNL     1      -5.899  -3.160 -34.680  1.00  0.00     0.035 A 
HETATM   19 CL   UNL     1      -6.163  -4.527 -35.688  1.00  0.00    -0.084 Cl
HETATM   20  C   UNL     1      -4.627  -2.902 -34.181  1.00  0.00     0.025 A 
HETATM   21  C   UNL     1      -4.415  -1.789 -33.359  1.00  0.00     0.017 A 
ENDBRANCH  11  14
ENDBRANCH   6   9
ENDBRANCH   2   5
BRANCH   1  22
HETATM   22  C   UNL     1      -6.055   5.418 -31.864  1.00  0.00     0.034 A 
HETATM   23  C   UNL     1      -6.309   5.558 -33.224  1.00  0.00     0.032 A 
HETATM   24  C   UNL     1      -7.457   4.987 -33.798  1.00  0.00     0.031 A 
HETATM   25  C   UNL     1      -8.376   4.258 -33.033  1.00  0.00     0.030 A 
HETATM   26  C   UNL     1      -8.135   4.193 -31.651  1.00  0.00     0.031 A 
HETATM   27  C   UNL     1      -7.002   4.772 -31.072  1.00  0.00     0.032 A 
BRANCH  25  28
HETATM   28  N   UNL     1      -9.504   3.628 -33.560  1.00  0.00    -0.378 N 
HETATM   29  C   UNL     1     -10.177   4.333 -34.671  1.00  0.00     0.150 C 
HETATM   30  C   UNL     1     -11.365   5.172 -34.154  1.00  0.00     0.254 C 
HETATM   31  N   UNL     1     -12.339   4.280 -33.373  1.00  0.00    -0.068 N 
HETATM   32  H   UNL     1     -12.627   3.520 -34.003  1.00  0.00     0.280 HD
HETATM   33  C   UNL     1     -11.601   3.619 -32.200  1.00  0.00     0.254 C 
HETATM   34  C   UNL     1     -10.383   2.818 -32.705  1.00  0.00     0.150 C 
BRANCH  31  35
HETATM   35  C   UNL     1     -13.581   4.997 -32.906  1.00  0.00     0.230 C 
HETATM   36  C   UNL     1     -14.268   4.223 -31.796  1.00  0.00     0.034 C 
ENDBRANCH  31  35
ENDBRANCH  25  28
ENDBRANCH   1  22
TORSDOF 6
ENDMDL
MODEL 9
REMARK VINA RESULT:      -8.4      5.645     10.201
REMARK  6 active torsions:
REMARK  status: ('A' for Active; 'I' for Inactive)
REMARK    1  A    between atoms: C_2  and  N_3 
REMARK    2  A    between atoms: N_7  and  C_8 
REMARK    3  A    between atoms: C_11  and  N_12 
REMARK    4  A    between atoms: C_13  and  N_14 
REMARK       I    between atoms: N_14  and  C_15 
REMARK    5  A    between atoms: C_15  and  C_16 
REMARK    6  A    between atoms: C_18  and  C_19 
ROOT
HETATM    1  N   UNL     1      -4.214   5.001 -34.406  1.00  0.00    -0.338 N 
HETATM    2  C   UNL     1      -3.020   5.423 -33.947  1.00  0.00     0.157 C 
HETATM    3  S   UNL     1      -1.676   5.201 -34.925  1.00  0.00    -0.047 SA
HETATM    4  H   UNL     1      -4.214   4.835 -35.409  1.00  0.00     0.168 HD
ENDROOT
BRANCH   2   5
HETATM    5  N   UNL     1      -2.844   6.119 -32.793  1.00  0.00    -0.199 NA
HETATM    6  C   UNL     1      -1.855   7.069 -32.551  1.00  0.00     0.261 C 
HETATM    7  O   UNL     1      -1.785   8.164 -33.099  1.00  0.00    -0.271 OA
HETATM    8  H   UNL     1      -2.905   5.453 -32.028  1.00  0.00     0.139 HD
BRANCH   6   9
HETATM    9  C   UNL     1      -0.984   6.717 -31.445  1.00  0.00     0.138 A 
HETATM   10  O   UNL     1      -0.839   7.586 -30.396  1.00  0.00    -0.305 OA
HETATM   11  C   UNL     1      -0.044   6.976 -29.460  1.00  0.00     0.088 A 
HETATM   12  C   UNL     1       0.382   5.758 -29.952  1.00  0.00     0.041 A 
HETATM   13  C   UNL     1      -0.237   5.581 -31.209  1.00  0.00     0.045 A 
BRANCH  11  14
HETATM   14  C   UNL     1       0.153   7.712 -28.211  1.00  0.00     0.020 A 
HETATM   15  C   UNL     1      -0.825   7.796 -27.199  1.00  0.00     0.048 A 
HETATM   16 CL   UNL     1      -2.399   7.088 -27.346  1.00  0.00    -0.083 Cl
HETATM   17  C   UNL     1      -0.578   8.509 -26.018  1.00  0.00     0.048 A 
HETATM   18  C   UNL     1       0.641   9.153 -25.837  1.00  0.00     0.035 A 
HETATM   19 CL   UNL     1       0.937  10.031 -24.390  1.00  0.00    -0.084 Cl
HETATM   20  C   UNL     1       1.617   9.095 -26.825  1.00  0.00     0.025 A 
HETATM   21  C   UNL     1       1.374   8.381 -28.004  1.00  0.00     0.017 A 
ENDBRANCH  11  14
ENDBRANCH   6   9
ENDBRANCH   2   5
BRANCH   1  22
HETATM   22  C   UNL     1      -5.355   4.523 -33.742  1.00  0.00     0.034 A 
HETATM   23  C   UNL     1      -6.525   5.257 -33.576  1.00  0.00     0.032 A 
HETATM   24  C   UNL     1      -7.622   4.706 -32.893  1.00  0.00     0.031 A 
HETATM   25  C   UNL     1      -7.582   3.411 -32.363  1.00  0.00     0.030 A 
HETATM   26  C   UNL     1      -6.366   2.719 -32.479  1.00  0.00     0.031 A 
HETATM   27  C   UNL     1      -5.265   3.267 -33.145  1.00  0.00     0.032 A 
BRANCH  25  28
HETATM   28  N   UNL     1      -8.658   2.798 -31.720  1.00  0.00    -0.378 N 
HETATM   29  C   UNL     1      -8.740   1.329 -31.858  1.00  0.00     0.150 C 
HETATM   30  C   UNL     1      -9.698   0.932 -33.002  1.00  0.00     0.254 C 
HETATM   31  N   UNL     1     -11.080   1.560 -32.772  1.00  0.00    -0.068 N 
HETATM   32  H   UNL     1     -11.405   1.248 -31.847  1.00  0.00     0.280 HD
HETATM   33  C   UNL     1     -10.942   3.087 -32.694  1.00  0.00     0.254 C 
HETATM   34  C   UNL     1      -9.948   3.489 -31.584  1.00  0.00     0.150 C 
BRANCH  31  35
HETATM   35  C   UNL     1     -12.111   1.153 -33.794  1.00  0.00     0.230 C 
HETATM   36  C   UNL     1     -11.938   1.940 -35.080  1.00  0.00     0.034 C 
ENDBRANCH  31  35
ENDBRANCH  25  28
ENDBRANCH   1  22
TORSDOF 6
ENDMDL
MODEL 10
REMARK VINA RESULT:      -8.3      4.132      7.665
REMARK  6 active torsions:
REMARK  status: ('A' for Active; 'I' for Inactive)
REMARK    1  A    between atoms: C_2  and  N_3 
REMARK    2  A    between atoms: N_7  and  C_8 
REMARK    3  A    between atoms: C_11  and  N_12 
REMARK    4  A    between atoms: C_13  and  N_14 
REMARK       I    between atoms: N_14  and  C_15 
REMARK    5  A    between atoms: C_15  and  C_16 
REMARK    6  A    between atoms: C_18  and  C_19 
ROOT
HETATM    1  N   UNL     1      -3.475   5.429 -33.619  1.00  0.00    -0.338 N 
HETATM    2  C   UNL     1      -3.122   6.427 -32.786  1.00  0.00     0.157 C 
HETATM    3  S   UNL     1      -1.676   7.223 -33.077  1.00  0.00    -0.047 SA
HETATM    4  H   UNL     1      -2.955   5.443 -34.492  1.00  0.00     0.168 HD
ENDROOT
BRANCH   2   5
HETATM    5  N   UNL     1      -3.911   6.909 -31.790  1.00  0.00    -0.199 NA
HETATM    6  C   UNL     1      -3.848   6.548 -30.446  1.00  0.00     0.261 C 
HETATM    7  O   UNL     1      -2.916   6.807 -29.692  1.00  0.00    -0.271 OA
HETATM    8  H   UNL     1      -4.868   6.891 -32.128  1.00  0.00     0.139 HD
BRANCH   6   9
HETATM    9  C   UNL     1      -5.083   5.967 -29.953  1.00  0.00     0.138 A 
HETATM   10  O   UNL     1      -5.999   5.472 -30.844  1.00  0.00    -0.305 OA
HETATM   11  C   UNL     1      -7.017   4.908 -30.119  1.00  0.00     0.088 A 
HETATM   12  C   UNL     1      -6.789   5.120 -28.774  1.00  0.00     0.041 A 
HETATM   13  C   UNL     1      -5.541   5.775 -28.667  1.00  0.00     0.045 A 
BRANCH  11  14
HETATM   14  C   UNL     1      -8.057   4.233 -30.897  1.00  0.00     0.020 A 
HETATM   15  C   UNL     1      -8.795   4.866 -31.917  1.00  0.00     0.048 A 
HETATM   16 CL   UNL     1      -8.599   6.538 -32.325  1.00  0.00    -0.083 Cl
HETATM   17  C   UNL     1      -9.774   4.168 -32.636  1.00  0.00     0.048 A 
HETATM   18  C   UNL     1     -10.034   2.834 -32.340  1.00  0.00     0.035 A 
HETATM   19 CL   UNL     1     -11.241   1.983 -33.220  1.00  0.00    -0.084 Cl
HETATM   20  C   UNL     1      -9.329   2.190 -31.330  1.00  0.00     0.025 A 
HETATM   21  C   UNL     1      -8.348   2.885 -30.614  1.00  0.00     0.017 A 
ENDBRANCH  11  14
ENDBRANCH   6   9
ENDBRANCH   2   5
BRANCH   1  22
HETATM   22  C   UNL     1      -4.226   4.260 -33.413  1.00  0.00     0.034 A 
HETATM   23  C   UNL     1      -5.463   4.015 -33.999  1.00  0.00     0.032 A 
HETATM   24  C   UNL     1      -6.154   2.821 -33.736  1.00  0.00     0.031 A 
HETATM   25  C   UNL     1      -5.627   1.839 -32.887  1.00  0.00     0.030 A 
HETATM   26  C   UNL     1      -4.412   2.142 -32.251  1.00  0.00     0.031 A 
HETATM   27  C   UNL     1      -3.727   3.336 -32.497  1.00  0.00     0.032 A 
BRANCH  25  28
HETATM   28  N   UNL     1      -6.246   0.616 -32.632  1.00  0.00    -0.378 N 
HETATM   29  C   UNL     1      -5.388  -0.429 -32.034  1.00  0.00     0.150 C 
HETATM   30  C   UNL     1      -4.833  -1.377 -33.119  1.00  0.00     0.254 C 
HETATM   31  N   UNL     1      -5.988  -1.983 -33.929  1.00  0.00    -0.068 N 
HETATM   32  H   UNL     1      -6.611  -2.455 -33.261  1.00  0.00     0.280 HD
HETATM   33  C   UNL     1      -6.810  -0.857 -34.572  1.00  0.00     0.254 C 
HETATM   34  C   UNL     1      -7.327   0.122 -33.497  1.00  0.00     0.150 C 
BRANCH  31  35
HETATM   35  C   UNL     1      -5.547  -2.995 -34.955  1.00  0.00     0.230 C 
HETATM   36  C   UNL     1      -6.604  -4.067 -35.148  1.00  0.00     0.034 C 
ENDBRANCH  31  35
ENDBRANCH  25  28
ENDBRANCH   1  22
TORSDOF 6
ENDMDL
