MODEL 1
REMARK VINA RESULT:      -9.6      0.000      0.000
REMARK  7 active torsions:
REMARK  status: ('A' for Active; 'I' for Inactive)
REMARK    1  A    between atoms: C_6  and  N_7 
REMARK       I    between atoms: N_7  and  C_8 
REMARK    2  A    between atoms: C_8  and  C_9 
REMARK    3  A    between atoms: C_9  and  O_10 
REMARK    4  A    between atoms: O_10  and  C_11 
REMARK    5  A    between atoms: C_11  and  C_12 
REMARK       I    between atoms: C_12  and  N_13 
REMARK    6  A    between atoms: N_13  and  N_14 
REMARK       I    between atoms: N_14  and  C_15 
REMARK    7  A    between atoms: C_15  and  C_16 
ROOT
HETATM    1  C   UNL     1      -4.619   4.003 -31.124  1.00  0.00     0.259 C 
HETATM    2  N   UNL     1      -3.289   4.230 -31.410  1.00  0.00    -0.265 N 
HETATM    3  O   UNL     1      -5.201   4.539 -30.182  1.00  0.00    -0.269 OA
HETATM    4  H   UNL     1      -2.809   3.785 -32.192  1.00  0.00     0.190 HD
ENDROOT
BRANCH   1   5
HETATM    5  C   UNL     1      -5.283   2.971 -32.033  1.00  0.00     0.272 C 
BRANCH   5   6
HETATM    6  O   UNL     1      -6.645   3.306 -32.302  1.00  0.00    -0.373 OA
BRANCH   6   7
HETATM    7  C   UNL     1      -7.242   2.421 -33.246  1.00  0.00     0.271 C 
BRANCH   7   8
HETATM    8  C   UNL     1      -6.984   0.925 -33.011  1.00  0.00     0.245 C 
HETATM    9  N   UNL     1      -6.197   0.365 -34.001  1.00  0.00    -0.325 N 
HETATM   10  H   UNL     1      -5.982   0.979 -34.783  1.00  0.00     0.169 HD
HETATM   11  O   UNL     1      -7.425   0.363 -32.014  1.00  0.00    -0.271 OA
BRANCH   9  12
HETATM   12  C   UNL     1      -5.677  -0.944 -34.053  1.00  0.00     0.036 A 
HETATM   13  C   UNL     1      -6.290  -2.001 -34.728  1.00  0.00     0.053 A 
HETATM   14  C   UNL     1      -5.725  -3.283 -34.703  1.00  0.00     0.042 A 
HETATM   15  C   UNL     1      -4.531  -3.531 -34.010  1.00  0.00    -0.040 A 
HETATM   16 CL   UNL     1      -6.553  -4.547 -35.544  1.00  0.00    -0.084 Cl
HETATM   17  C   UNL     1      -3.911  -4.900 -33.957  1.00  0.00     0.050 C 
HETATM   18  C   UNL     1      -3.917  -2.465 -33.342  1.00  0.00     0.011 A 
HETATM   19  C   UNL     1      -4.485  -1.187 -33.361  1.00  0.00     0.030 A 
ENDBRANCH   9  12
ENDBRANCH   7   8
ENDBRANCH   6   7
ENDBRANCH   5   6
ENDBRANCH   1   5
BRANCH   2  20
HETATM   20  N   UNL     1      -2.557   5.085 -30.585  1.00  0.00    -0.262 N 
HETATM   21  C   UNL     1      -1.210   5.266 -30.825  1.00  0.00     0.286 C 
HETATM   22  O   UNL     1      -0.649   4.768 -31.800  1.00  0.00    -0.264 OA
HETATM   23  H   UNL     1      -3.018   5.405 -29.738  1.00  0.00     0.190 HD
BRANCH  21  24
HETATM   24  C   UNL     1      -0.511   6.082 -29.858  1.00  0.00     0.103 A 
HETATM   25  N   UNL     1      -0.539   5.786 -28.511  1.00  0.00    -0.351 N 
HETATM   26  H   UNL     1      -1.042   5.000 -28.120  1.00  0.00     0.166 HD
HETATM   27  C   UNL     1       0.207   6.686 -27.788  1.00  0.00     0.043 A 
HETATM   28  C   UNL     1       0.728   7.604 -28.697  1.00  0.00    -0.007 A 
HETATM   29  C   UNL     1       0.460   6.757 -26.413  1.00  0.00     0.030 A 
HETATM   30  C   UNL     1       0.271   7.219 -29.989  1.00  0.00     0.049 A 
HETATM   31  C   UNL     1       1.541   8.648 -28.217  1.00  0.00     0.014 A 
HETATM   32  C   UNL     1       1.806   8.735 -26.846  1.00  0.00     0.001 A 
HETATM   33  C   UNL     1       1.272   7.802 -25.959  1.00  0.00     0.002 A 
ENDBRANCH  21  24
ENDBRANCH   2  20
TORSDOF 7
ENDMDL
MODEL 2
REMARK VINA RESULT:      -9.4      4.811      9.141
REMARK  7 active torsions:
REMARK  status: ('A' for Active; 'I' for Inactive)
REMARK    1  A    between atoms: C_6  and  N_7 
REMARK       I    between atoms: N_7  and  C_8 
REMARK    2  A    between atoms: C_8  and  C_9 
REMARK    3  A    between atoms: C_9  and  O_10 
REMARK    4  A    between atoms: O_10  and  C_11 
REMARK    5  A    between atoms: C_11  and  C_12 
REMARK       I    between atoms: C_12  and  N_13 
REMARK    6  A    between atoms: N_13  and  N_14 
REMARK       I    between atoms: N_14  and  C_15 
REMARK    7  A    between atoms: C_15  and  C_16 
ROOT
HETATM    1  C   UNL     1      -5.769   3.550 -33.274  1.00  0.00     0.259 C 
HETATM    2  N   UNL     1      -6.767   3.799 -32.357  1.00  0.00    -0.265 N 
HETATM    3  O   UNL     1      -5.969   2.971 -34.340  1.00  0.00    -0.269 OA
HETATM    4  H   UNL     1      -6.599   4.281 -31.474  1.00  0.00     0.190 HD
ENDROOT
BRANCH   1   5
HETATM    5  C   UNL     1      -4.380   3.988 -32.814  1.00  0.00     0.272 C 
BRANCH   5   6
HETATM    6  O   UNL     1      -3.497   2.874 -32.671  1.00  0.00    -0.373 OA
BRANCH   6   7
HETATM    7  C   UNL     1      -3.755   2.129 -31.483  1.00  0.00     0.271 C 
BRANCH   7   8
HETATM    8  C   UNL     1      -4.114   0.651 -31.690  1.00  0.00     0.245 C 
HETATM    9  N   UNL     1      -4.746   0.427 -32.900  1.00  0.00    -0.325 N 
HETATM   10  H   UNL     1      -4.971   1.263 -33.433  1.00  0.00     0.169 HD
HETATM   11  O   UNL     1      -3.808  -0.191 -30.852  1.00  0.00    -0.271 OA
BRANCH   9  12
HETATM   12  C   UNL     1      -5.118  -0.811 -33.463  1.00  0.00     0.036 A 
HETATM   13  C   UNL     1      -4.291  -1.935 -33.492  1.00  0.00     0.053 A 
HETATM   14  C   UNL     1      -4.724  -3.120 -34.101  1.00  0.00     0.042 A 
HETATM   15  C   UNL     1      -5.995  -3.208 -34.685  1.00  0.00    -0.040 A 
HETATM   16 CL   UNL     1      -3.636  -4.464 -34.117  1.00  0.00    -0.084 Cl
HETATM   17  C   UNL     1      -6.480  -4.463 -35.356  1.00  0.00     0.050 C 
HETATM   18  C   UNL     1      -6.824  -2.079 -34.646  1.00  0.00     0.011 A 
HETATM   19  C   UNL     1      -6.388  -0.894 -34.044  1.00  0.00     0.030 A 
ENDBRANCH   9  12
ENDBRANCH   7   8
ENDBRANCH   6   7
ENDBRANCH   5   6
ENDBRANCH   1   5
BRANCH   2  20
HETATM   20  N   UNL     1      -8.063   3.357 -32.632  1.00  0.00    -0.262 N 
HETATM   21  C   UNL     1      -8.424   2.070 -32.290  1.00  0.00     0.286 C 
HETATM   22  O   UNL     1      -7.668   1.324 -31.667  1.00  0.00    -0.264 OA
HETATM   23  H   UNL     1      -8.630   3.953 -33.227  1.00  0.00     0.190 HD
BRANCH  21  24
HETATM   24  C   UNL     1      -9.747   1.663 -32.709  1.00  0.00     0.103 A 
HETATM   25  N   UNL     1     -10.750   2.586 -32.922  1.00  0.00    -0.351 N 
HETATM   26  H   UNL     1     -10.631   3.583 -32.798  1.00  0.00     0.166 HD
HETATM   27  C   UNL     1     -11.911   1.973 -33.329  1.00  0.00     0.043 A 
HETATM   28  C   UNL     1     -11.654   0.605 -33.370  1.00  0.00    -0.007 A 
HETATM   29  C   UNL     1     -13.156   2.519 -33.662  1.00  0.00     0.030 A 
HETATM   30  C   UNL     1     -10.299   0.421 -32.978  1.00  0.00     0.049 A 
HETATM   31  C   UNL     1     -12.688  -0.268 -33.761  1.00  0.00     0.014 A 
HETATM   32  C   UNL     1     -13.939   0.260 -34.098  1.00  0.00     0.001 A 
HETATM   33  C   UNL     1     -14.167   1.634 -34.049  1.00  0.00     0.002 A 
ENDBRANCH  21  24
ENDBRANCH   2  20
TORSDOF 7
ENDMDL
MODEL 3
REMARK VINA RESULT:      -9.3      3.807     10.860
REMARK  7 active torsions:
REMARK  status: ('A' for Active; 'I' for Inactive)
REMARK    1  A    between atoms: C_6  and  N_7 
REMARK       I    between atoms: N_7  and  C_8 
REMARK    2  A    between atoms: C_8  and  C_9 
REMARK    3  A    between atoms: C_9  and  O_10 
REMARK    4  A    between atoms: O_10  and  C_11 
REMARK    5  A    between atoms: C_11  and  C_12 
REMARK       I    between atoms: C_12  and  N_13 
REMARK    6  A    between atoms: N_13  and  N_14 
REMARK       I    between atoms: N_14  and  C_15 
REMARK    7  A    between atoms: C_15  and  C_16 
ROOT
HETATM    1  C   UNL     1      -5.457   4.187 -33.478  1.00  0.00     0.259 C 
HETATM    2  N   UNL     1      -5.170   3.168 -32.595  1.00  0.00    -0.265 N 
HETATM    3  O   UNL     1      -6.008   3.997 -34.561  1.00  0.00    -0.269 OA
HETATM    4  H   UNL     1      -4.715   3.328 -31.696  1.00  0.00     0.190 HD
ENDROOT
BRANCH   1   5
HETATM    5  C   UNL     1      -4.961   5.559 -33.026  1.00  0.00     0.272 C 
BRANCH   5   6
HETATM    6  O   UNL     1      -4.150   6.180 -34.024  1.00  0.00    -0.373 OA
BRANCH   6   7
HETATM    7  C   UNL     1      -2.768   5.876 -33.863  1.00  0.00     0.271 C 
BRANCH   7   8
HETATM    8  C   UNL     1      -1.970   6.850 -32.984  1.00  0.00     0.245 C 
HETATM    9  N   UNL     1      -1.907   6.438 -31.665  1.00  0.00    -0.325 N 
HETATM   10  H   UNL     1      -2.466   5.618 -31.441  1.00  0.00     0.169 HD
HETATM   11  O   UNL     1      -1.441   7.844 -33.472  1.00  0.00    -0.271 OA
BRANCH   9  12
HETATM   12  C   UNL     1      -1.177   7.025 -30.612  1.00  0.00     0.036 A 
HETATM   13  C   UNL     1      -1.659   8.060 -29.810  1.00  0.00     0.053 A 
HETATM   14  C   UNL     1      -0.856   8.612 -28.803  1.00  0.00     0.042 A 
HETATM   15  C   UNL     1       0.441   8.133 -28.572  1.00  0.00    -0.040 A 
HETATM   16 CL   UNL     1      -1.514   9.908 -27.865  1.00  0.00    -0.084 Cl
HETATM   17  C   UNL     1       1.328   8.716 -27.507  1.00  0.00     0.050 C 
HETATM   18  C   UNL     1       0.916   7.088 -29.374  1.00  0.00     0.011 A 
HETATM   19  C   UNL     1       0.116   6.542 -30.384  1.00  0.00     0.030 A 
ENDBRANCH   9  12
ENDBRANCH   7   8
ENDBRANCH   6   7
ENDBRANCH   5   6
ENDBRANCH   1   5
BRANCH   2  20
HETATM   20  N   UNL     1      -5.495   1.857 -32.948  1.00  0.00    -0.262 N 
HETATM   21  C   UNL     1      -4.518   0.883 -32.900  1.00  0.00     0.286 C 
HETATM   22  O   UNL     1      -3.389   1.113 -32.469  1.00  0.00    -0.264 OA
HETATM   23  H   UNL     1      -6.399   1.714 -33.387  1.00  0.00     0.190 HD
BRANCH  21  24
HETATM   24  C   UNL     1      -4.915  -0.420 -33.385  1.00  0.00     0.103 A 
HETATM   25  N   UNL     1      -4.039  -1.485 -33.387  1.00  0.00    -0.351 N 
HETATM   26  H   UNL     1      -3.083  -1.426 -33.061  1.00  0.00     0.166 HD
HETATM   27  C   UNL     1      -4.638  -2.622 -33.875  1.00  0.00     0.043 A 
HETATM   28  C   UNL     1      -5.945  -2.278 -34.212  1.00  0.00    -0.007 A 
HETATM   29  C   UNL     1      -4.130  -3.915 -34.042  1.00  0.00     0.030 A 
HETATM   30  C   UNL     1      -6.108  -0.898 -33.904  1.00  0.00     0.049 A 
HETATM   31  C   UNL     1      -6.793  -3.268 -34.743  1.00  0.00     0.014 A 
HETATM   32  C   UNL     1      -6.302  -4.568 -34.916  1.00  0.00     0.001 A 
HETATM   33  C   UNL     1      -4.990  -4.883 -34.570  1.00  0.00     0.002 A 
ENDBRANCH  21  24
ENDBRANCH   2  20
TORSDOF 7
ENDMDL
MODEL 4
REMARK VINA RESULT:      -9.0      1.852      2.428
REMARK  7 active torsions:
REMARK  status: ('A' for Active; 'I' for Inactive)
REMARK    1  A    between atoms: C_6  and  N_7 
REMARK       I    between atoms: N_7  and  C_8 
REMARK    2  A    between atoms: C_8  and  C_9 
REMARK    3  A    between atoms: C_9  and  O_10 
REMARK    4  A    between atoms: O_10  and  C_11 
REMARK    5  A    between atoms: C_11  and  C_12 
REMARK       I    between atoms: C_12  and  N_13 
REMARK    6  A    between atoms: N_13  and  N_14 
REMARK       I    between atoms: N_14  and  C_15 
REMARK    7  A    between atoms: C_15  and  C_16 
ROOT
HETATM    1  C   UNL     1      -2.927   4.955 -31.757  1.00  0.00     0.259 C 
HETATM    2  N   UNL     1      -1.563   5.121 -31.643  1.00  0.00    -0.265 N 
HETATM    3  O   UNL     1      -3.735   5.557 -31.050  1.00  0.00    -0.269 OA
HETATM    4  H   UNL     1      -0.895   4.622 -32.231  1.00  0.00     0.190 HD
ENDROOT
BRANCH   1   5
HETATM    5  C   UNL     1      -3.341   3.902 -32.782  1.00  0.00     0.272 C 
BRANCH   5   6
HETATM    6  O   UNL     1      -4.182   2.903 -32.200  1.00  0.00    -0.373 OA
BRANCH   6   7
HETATM    7  C   UNL     1      -3.436   1.914 -31.495  1.00  0.00     0.271 C 
BRANCH   7   8
HETATM    8  C   UNL     1      -3.902   0.464 -31.692  1.00  0.00     0.245 C 
HETATM    9  N   UNL     1      -4.480   0.261 -32.932  1.00  0.00    -0.325 N 
HETATM   10  H   UNL     1      -4.604   1.099 -33.495  1.00  0.00     0.169 HD
HETATM   11  O   UNL     1      -3.715  -0.377 -30.819  1.00  0.00    -0.271 OA
BRANCH   9  12
HETATM   12  C   UNL     1      -4.919  -0.956 -33.490  1.00  0.00     0.036 A 
HETATM   13  C   UNL     1      -4.151  -2.121 -33.526  1.00  0.00     0.053 A 
HETATM   14  C   UNL     1      -4.648  -3.283 -34.130  1.00  0.00     0.042 A 
HETATM   15  C   UNL     1      -5.929  -3.306 -34.701  1.00  0.00    -0.040 A 
HETATM   16 CL   UNL     1      -3.629  -4.680 -34.156  1.00  0.00    -0.084 Cl
HETATM   17  C   UNL     1      -6.482  -4.536 -35.367  1.00  0.00     0.050 C 
HETATM   18  C   UNL     1      -6.699  -2.138 -34.655  1.00  0.00     0.011 A 
HETATM   19  C   UNL     1      -6.198  -0.975 -34.058  1.00  0.00     0.030 A 
ENDBRANCH   9  12
ENDBRANCH   7   8
ENDBRANCH   6   7
ENDBRANCH   5   6
ENDBRANCH   1   5
BRANCH   2  20
HETATM   20  N   UNL     1      -1.066   5.991 -30.671  1.00  0.00    -0.262 N 
HETATM   21  C   UNL     1      -0.033   5.576 -29.857  1.00  0.00     0.286 C 
HETATM   22  O   UNL     1       0.529   4.493 -30.018  1.00  0.00    -0.264 OA
HETATM   23  H   UNL     1      -1.606   6.834 -30.496  1.00  0.00     0.190 HD
BRANCH  21  24
HETATM   24  C   UNL     1       0.344   6.500 -28.810  1.00  0.00     0.103 A 
HETATM   25  N   UNL     1      -0.071   7.815 -28.827  1.00  0.00    -0.351 N 
HETATM   26  H   UNL     1      -0.649   8.212 -29.557  1.00  0.00     0.166 HD
HETATM   27  C   UNL     1       0.393   8.497 -27.727  1.00  0.00     0.043 A 
HETATM   28  C   UNL     1       1.144   7.594 -26.978  1.00  0.00    -0.007 A 
HETATM   29  C   UNL     1       0.206   9.829 -27.341  1.00  0.00     0.030 A 
HETATM   30  C   UNL     1       1.109   6.348 -27.665  1.00  0.00     0.049 A 
HETATM   31  C   UNL     1       1.743   8.037 -25.783  1.00  0.00     0.014 A 
HETATM   32  C   UNL     1       1.567   9.366 -25.381  1.00  0.00     0.001 A 
HETATM   33  C   UNL     1       0.809  10.246 -26.150  1.00  0.00     0.002 A 
ENDBRANCH  21  24
ENDBRANCH   2  20
TORSDOF 7
ENDMDL
MODEL 5
REMARK VINA RESULT:      -8.9      3.584     11.483
REMARK  7 active torsions:
REMARK  status: ('A' for Active; 'I' for Inactive)
REMARK    1  A    between atoms: C_6  and  N_7 
REMARK       I    between atoms: N_7  and  C_8 
REMARK    2  A    between atoms: C_8  and  C_9 
REMARK    3  A    between atoms: C_9  and  O_10 
REMARK    4  A    between atoms: O_10  and  C_11 
REMARK    5  A    between atoms: C_11  and  C_12 
REMARK       I    between atoms: C_12  and  N_13 
REMARK    6  A    between atoms: N_13  and  N_14 
REMARK       I    between atoms: N_14  and  C_15 
REMARK    7  A    between atoms: C_15  and  C_16 
ROOT
HETATM    1  C   UNL     1      -2.794   3.805 -32.148  1.00  0.00     0.259 C 
HETATM    2  N   UNL     1      -3.217   2.714 -31.418  1.00  0.00    -0.265 N 
HETATM    3  O   UNL     1      -2.647   3.776 -33.368  1.00  0.00    -0.269 OA
HETATM    4  H   UNL     1      -3.340   2.741 -30.406  1.00  0.00     0.190 HD
ENDROOT
BRANCH   1   5
HETATM    5  C   UNL     1      -2.453   5.026 -31.297  1.00  0.00     0.272 C 
BRANCH   5   6
HETATM    6  O   UNL     1      -1.444   5.831 -31.912  1.00  0.00    -0.373 OA
BRANCH   6   7
HETATM    7  C   UNL     1      -0.129   5.414 -31.555  1.00  0.00     0.271 C 
BRANCH   7   8
HETATM    8  C   UNL     1       0.299   5.727 -30.115  1.00  0.00     0.245 C 
HETATM    9  N   UNL     1       0.031   7.037 -29.759  1.00  0.00    -0.325 N 
HETATM   10  H   UNL     1      -0.314   7.628 -30.511  1.00  0.00     0.169 HD
HETATM   11  O   UNL     1       0.783   4.854 -29.401  1.00  0.00    -0.271 OA
BRANCH   9  12
HETATM   12  C   UNL     1       0.192   7.637 -28.493  1.00  0.00     0.036 A 
HETATM   13  C   UNL     1      -0.812   7.700 -27.526  1.00  0.00     0.053 A 
HETATM   14  C   UNL     1      -0.582   8.344 -26.304  1.00  0.00     0.042 A 
HETATM   15  C   UNL     1       0.660   8.931 -26.021  1.00  0.00    -0.040 A 
HETATM   16 CL   UNL     1      -1.880   8.401 -25.163  1.00  0.00    -0.084 Cl
HETATM   17  C   UNL     1       0.929   9.641 -24.723  1.00  0.00     0.050 C 
HETATM   18  C   UNL     1       1.666   8.858 -26.992  1.00  0.00     0.011 A 
HETATM   19  C   UNL     1       1.433   8.220 -28.215  1.00  0.00     0.030 A 
ENDBRANCH   9  12
ENDBRANCH   7   8
ENDBRANCH   6   7
ENDBRANCH   5   6
ENDBRANCH   1   5
BRANCH   2  20
HETATM   20  N   UNL     1      -3.468   1.512 -32.083  1.00  0.00    -0.262 N 
HETATM   21  C   UNL     1      -4.767   1.174 -32.400  1.00  0.00     0.286 C 
HETATM   22  O   UNL     1      -5.708   1.941 -32.196  1.00  0.00    -0.264 OA
HETATM   23  H   UNL     1      -2.692   0.860 -32.152  1.00  0.00     0.190 HD
BRANCH  21  24
HETATM   24  C   UNL     1      -4.943  -0.135 -32.989  1.00  0.00     0.103 A 
HETATM   25  N   UNL     1      -6.181  -0.575 -33.407  1.00  0.00    -0.351 N 
HETATM   26  H   UNL     1      -7.028  -0.027 -33.328  1.00  0.00     0.166 HD
HETATM   27  C   UNL     1      -6.104  -1.837 -33.947  1.00  0.00     0.043 A 
HETATM   28  C   UNL     1      -4.771  -2.232 -33.865  1.00  0.00    -0.007 A 
HETATM   29  C   UNL     1      -7.101  -2.651 -34.497  1.00  0.00     0.030 A 
HETATM   30  C   UNL     1      -4.053  -1.161 -33.261  1.00  0.00     0.049 A 
HETATM   31  C   UNL     1      -4.408  -3.501 -34.353  1.00  0.00     0.014 A 
HETATM   32  C   UNL     1      -5.391  -4.329 -34.908  1.00  0.00     0.001 A 
HETATM   33  C   UNL     1      -6.717  -3.907 -34.978  1.00  0.00     0.002 A 
ENDBRANCH  21  24
ENDBRANCH   2  20
TORSDOF 7
ENDMDL
MODEL 6
REMARK VINA RESULT:      -8.7      4.196      9.330
REMARK  7 active torsions:
REMARK  status: ('A' for Active; 'I' for Inactive)
REMARK    1  A    between atoms: C_6  and  N_7 
REMARK       I    between atoms: N_7  and  C_8 
REMARK    2  A    between atoms: C_8  and  C_9 
REMARK    3  A    between atoms: C_9  and  O_10 
REMARK    4  A    between atoms: O_10  and  C_11 
REMARK    5  A    between atoms: C_11  and  C_12 
REMARK       I    between atoms: C_12  and  N_13 
REMARK    6  A    between atoms: N_13  and  N_14 
REMARK       I    between atoms: N_14  and  C_15 
REMARK    7  A    between atoms: C_15  and  C_16 
ROOT
HETATM    1  C   UNL     1      -3.655   3.684 -32.151  1.00  0.00     0.259 C 
HETATM    2  N   UNL     1      -4.734   2.836 -32.025  1.00  0.00    -0.265 N 
HETATM    3  O   UNL     1      -2.578   3.330 -32.630  1.00  0.00    -0.269 OA
HETATM    4  H   UNL     1      -5.626   3.132 -31.629  1.00  0.00     0.190 HD
ENDROOT
BRANCH   1   5
HETATM    5  C   UNL     1      -3.890   5.078 -31.573  1.00  0.00     0.272 C 
BRANCH   5   6
HETATM    6  O   UNL     1      -4.238   6.018 -32.591  1.00  0.00    -0.373 OA
BRANCH   6   7
HETATM    7  C   UNL     1      -5.629   6.328 -32.588  1.00  0.00     0.271 C 
BRANCH   7   8
HETATM    8  C   UNL     1      -6.512   5.429 -33.466  1.00  0.00     0.245 C 
HETATM    9  N   UNL     1      -7.834   5.431 -33.057  1.00  0.00    -0.325 N 
HETATM   10  H   UNL     1      -8.020   5.935 -32.194  1.00  0.00     0.169 HD
HETATM   11  O   UNL     1      -6.039   4.836 -34.430  1.00  0.00    -0.271 OA
BRANCH   9  12
HETATM   12  C   UNL     1      -8.932   4.811 -33.688  1.00  0.00     0.036 A 
HETATM   13  C   UNL     1      -9.377   3.522 -33.391  1.00  0.00     0.053 A 
HETATM   14  C   UNL     1     -10.457   2.965 -34.087  1.00  0.00     0.042 A 
HETATM   15  C   UNL     1     -11.120   3.689 -35.088  1.00  0.00    -0.040 A 
HETATM   16 CL   UNL     1     -10.937   1.354 -33.679  1.00  0.00    -0.084 Cl
HETATM   17  C   UNL     1     -12.274   3.110 -35.859  1.00  0.00     0.050 C 
HETATM   18  C   UNL     1     -10.675   4.985 -35.376  1.00  0.00     0.011 A 
HETATM   19  C   UNL     1      -9.591   5.538 -34.685  1.00  0.00     0.030 A 
ENDBRANCH   9  12
ENDBRANCH   7   8
ENDBRANCH   6   7
ENDBRANCH   5   6
ENDBRANCH   1   5
BRANCH   2  20
HETATM   20  N   UNL     1      -4.601   1.508 -32.435  1.00  0.00    -0.262 N 
HETATM   21  C   UNL     1      -5.525   0.976 -33.311  1.00  0.00     0.286 C 
HETATM   22  O   UNL     1      -6.414   1.661 -33.817  1.00  0.00    -0.264 OA
HETATM   23  H   UNL     1      -3.922   0.943 -31.933  1.00  0.00     0.190 HD
BRANCH  21  24
HETATM   24  C   UNL     1      -5.372  -0.434 -33.595  1.00  0.00     0.103 A 
HETATM   25  N   UNL     1      -6.394  -1.170 -34.156  1.00  0.00    -0.351 N 
HETATM   26  H   UNL     1      -7.298  -0.784 -34.395  1.00  0.00     0.166 HD
HETATM   27  C   UNL     1      -6.018  -2.478 -34.349  1.00  0.00     0.043 A 
HETATM   28  C   UNL     1      -4.709  -2.595 -33.888  1.00  0.00    -0.007 A 
HETATM   29  C   UNL     1      -6.727  -3.555 -34.893  1.00  0.00     0.030 A 
HETATM   30  C   UNL     1      -4.315  -1.311 -33.416  1.00  0.00     0.049 A 
HETATM   31  C   UNL     1      -4.070  -3.847 -33.969  1.00  0.00     0.014 A 
HETATM   32  C   UNL     1      -4.763  -4.935 -34.511  1.00  0.00     0.001 A 
HETATM   33  C   UNL     1      -6.071  -4.789 -34.965  1.00  0.00     0.002 A 
ENDBRANCH  21  24
ENDBRANCH   2  20
TORSDOF 7
ENDMDL
MODEL 7
REMARK VINA RESULT:      -8.7      4.355     11.885
REMARK  7 active torsions:
REMARK  status: ('A' for Active; 'I' for Inactive)
REMARK    1  A    between atoms: C_6  and  N_7 
REMARK       I    between atoms: N_7  and  C_8 
REMARK    2  A    between atoms: C_8  and  C_9 
REMARK    3  A    between atoms: C_9  and  O_10 
REMARK    4  A    between atoms: O_10  and  C_11 
REMARK    5  A    between atoms: C_11  and  C_12 
REMARK       I    between atoms: C_12  and  N_13 
REMARK    6  A    between atoms: N_13  and  N_14 
REMARK       I    between atoms: N_14  and  C_15 
REMARK    7  A    between atoms: C_15  and  C_16 
ROOT
HETATM    1  C   UNL     1      -2.538   4.044 -32.019  1.00  0.00     0.259 C 
HETATM    2  N   UNL     1      -3.233   3.131 -31.256  1.00  0.00    -0.265 N 
HETATM    3  O   UNL     1      -2.522   4.013 -33.249  1.00  0.00    -0.269 OA
HETATM    4  H   UNL     1      -3.247   3.159 -30.236  1.00  0.00     0.190 HD
ENDROOT
BRANCH   1   5
HETATM    5  C   UNL     1      -1.729   5.049 -31.201  1.00  0.00     0.272 C 
BRANCH   5   6
HETATM    6  O   UNL     1      -2.549   6.113 -30.715  1.00  0.00    -0.373 OA
BRANCH   6   7
HETATM    7  C   UNL     1      -1.793   7.285 -30.421  1.00  0.00     0.271 C 
BRANCH   7   8
HETATM    8  C   UNL     1      -1.370   7.451 -28.954  1.00  0.00     0.245 C 
HETATM    9  N   UNL     1      -0.205   8.187 -28.823  1.00  0.00    -0.325 N 
HETATM   10  H   UNL     1       0.255   8.428 -29.697  1.00  0.00     0.169 HD
HETATM   11  O   UNL     1      -2.056   6.991 -28.048  1.00  0.00    -0.271 OA
BRANCH   9  12
HETATM   12  C   UNL     1       0.411   8.622 -27.632  1.00  0.00     0.036 A 
HETATM   13  C   UNL     1       0.024   9.760 -26.924  1.00  0.00     0.053 A 
HETATM   14  C   UNL     1       0.711  10.143 -25.765  1.00  0.00     0.042 A 
HETATM   15  C   UNL     1       1.792   9.391 -25.285  1.00  0.00    -0.040 A 
HETATM   16 CL   UNL     1       0.188  11.578 -24.953  1.00  0.00    -0.084 Cl
HETATM   17  C   UNL     1       2.555   9.787 -24.052  1.00  0.00     0.050 C 
HETATM   18  C   UNL     1       2.171   8.245 -25.996  1.00  0.00     0.011 A 
HETATM   19  C   UNL     1       1.489   7.867 -27.157  1.00  0.00     0.030 A 
ENDBRANCH   9  12
ENDBRANCH   7   8
ENDBRANCH   6   7
ENDBRANCH   5   6
ENDBRANCH   1   5
BRANCH   2  20
HETATM   20  N   UNL     1      -3.934   2.107 -31.897  1.00  0.00    -0.262 N 
HETATM   21  C   UNL     1      -3.539   0.799 -31.713  1.00  0.00     0.286 C 
HETATM   22  O   UNL     1      -2.642   0.494 -30.927  1.00  0.00    -0.264 OA
HETATM   23  H   UNL     1      -4.602   2.390 -32.609  1.00  0.00     0.190 HD
BRANCH  21  24
HETATM   24  C   UNL     1      -4.251  -0.183 -32.499  1.00  0.00     0.103 A 
HETATM   25  N   UNL     1      -3.672  -1.386 -32.845  1.00  0.00    -0.351 N 
HETATM   26  H   UNL     1      -2.732  -1.653 -32.582  1.00  0.00     0.166 HD
HETATM   27  C   UNL     1      -4.539  -2.163 -33.577  1.00  0.00     0.043 A 
HETATM   28  C   UNL     1      -5.716  -1.433 -33.719  1.00  0.00    -0.007 A 
HETATM   29  C   UNL     1      -4.373  -3.443 -34.117  1.00  0.00     0.030 A 
HETATM   30  C   UNL     1      -5.525  -0.195 -33.044  1.00  0.00     0.049 A 
HETATM   31  C   UNL     1      -6.786  -2.002 -34.436  1.00  0.00     0.014 A 
HETATM   32  C   UNL     1      -6.639  -3.282 -34.983  1.00  0.00     0.001 A 
HETATM   33  C   UNL     1      -5.449  -3.990 -34.824  1.00  0.00     0.002 A 
ENDBRANCH  21  24
ENDBRANCH   2  20
TORSDOF 7
ENDMDL
MODEL 8
REMARK VINA RESULT:      -8.5      2.604      3.554
REMARK  7 active torsions:
REMARK  status: ('A' for Active; 'I' for Inactive)
REMARK    1  A    between atoms: C_6  and  N_7 
REMARK       I    between atoms: N_7  and  C_8 
REMARK    2  A    between atoms: C_8  and  C_9 
REMARK    3  A    between atoms: C_9  and  O_10 
REMARK    4  A    between atoms: O_10  and  C_11 
REMARK    5  A    between atoms: C_11  and  C_12 
REMARK       I    between atoms: C_12  and  N_13 
REMARK    6  A    between atoms: N_13  and  N_14 
REMARK       I    between atoms: N_14  and  C_15 
REMARK    7  A    between atoms: C_15  and  C_16 
ROOT
HETATM    1  C   UNL     1      -8.132   4.970 -32.785  1.00  0.00     0.259 C 
HETATM    2  N   UNL     1      -7.009   4.986 -33.584  1.00  0.00    -0.265 N 
HETATM    3  O   UNL     1      -8.102   5.234 -31.584  1.00  0.00    -0.269 OA
HETATM    4  H   UNL     1      -7.037   4.768 -34.580  1.00  0.00     0.190 HD
ENDROOT
BRANCH   1   5
HETATM    5  C   UNL     1      -9.401   4.521 -33.506  1.00  0.00     0.272 C 
BRANCH   5   6
HETATM    6  O   UNL     1      -9.138   3.450 -34.416  1.00  0.00    -0.373 OA
BRANCH   6   7
HETATM    7  C   UNL     1      -9.049   2.191 -33.756  1.00  0.00     0.271 C 
BRANCH   7   8
HETATM    8  C   UNL     1      -7.745   1.412 -33.983  1.00  0.00     0.245 C 
HETATM    9  N   UNL     1      -7.861   0.078 -33.635  1.00  0.00    -0.325 N 
HETATM   10  H   UNL     1      -8.741  -0.180 -33.195  1.00  0.00     0.169 HD
HETATM   11  O   UNL     1      -6.760   1.966 -34.460  1.00  0.00    -0.271 OA
BRANCH   9  12
HETATM   12  C   UNL     1      -6.907  -0.945 -33.809  1.00  0.00     0.036 A 
HETATM   13  C   UNL     1      -7.144  -2.120 -34.522  1.00  0.00     0.053 A 
HETATM   14  C   UNL     1      -6.152  -3.105 -34.621  1.00  0.00     0.042 A 
HETATM   15  C   UNL     1      -4.900  -2.929 -34.015  1.00  0.00    -0.040 A 
HETATM   16 CL   UNL     1      -6.527  -4.544 -35.503  1.00  0.00    -0.084 Cl
HETATM   17  C   UNL     1      -3.823  -3.975 -34.094  1.00  0.00     0.050 C 
HETATM   18  C   UNL     1      -4.665  -1.744 -33.307  1.00  0.00     0.011 A 
HETATM   19  C   UNL     1      -5.658  -0.765 -33.203  1.00  0.00     0.030 A 
ENDBRANCH   9  12
ENDBRANCH   7   8
ENDBRANCH   6   7
ENDBRANCH   5   6
ENDBRANCH   1   5
BRANCH   2  20
HETATM   20  N   UNL     1      -5.774   5.291 -33.008  1.00  0.00    -0.262 N 
HETATM   21  C   UNL     1      -4.644   5.301 -33.799  1.00  0.00     0.286 C 
HETATM   22  O   UNL     1      -4.700   5.138 -35.017  1.00  0.00    -0.264 OA
HETATM   23  H   UNL     1      -5.742   5.326 -31.993  1.00  0.00     0.190 HD
BRANCH  21  24
HETATM   24  C   UNL     1      -3.397   5.520 -33.099  1.00  0.00     0.103 A 
HETATM   25  N   UNL     1      -3.209   6.624 -32.293  1.00  0.00    -0.351 N 
HETATM   26  H   UNL     1      -3.911   7.338 -32.146  1.00  0.00     0.166 HD
HETATM   27  C   UNL     1      -1.959   6.614 -31.722  1.00  0.00     0.043 A 
HETATM   28  C   UNL     1      -1.312   5.470 -32.181  1.00  0.00    -0.007 A 
HETATM   29  C   UNL     1      -1.358   7.520 -30.840  1.00  0.00     0.030 A 
HETATM   30  C   UNL     1      -2.219   4.794 -33.045  1.00  0.00     0.049 A 
HETATM   31  C   UNL     1       0.001   5.211 -31.745  1.00  0.00     0.014 A 
HETATM   32  C   UNL     1       0.619   6.105 -30.863  1.00  0.00     0.001 A 
HETATM   33  C   UNL     1      -0.054   7.242 -30.418  1.00  0.00     0.002 A 
ENDBRANCH  21  24
ENDBRANCH   2  20
TORSDOF 7
ENDMDL
MODEL 9
REMARK VINA RESULT:      -8.4      5.020      9.682
REMARK  7 active torsions:
REMARK  status: ('A' for Active; 'I' for Inactive)
REMARK    1  A    between atoms: C_6  and  N_7 
REMARK       I    between atoms: N_7  and  C_8 
REMARK    2  A    between atoms: C_8  and  C_9 
REMARK    3  A    between atoms: C_9  and  O_10 
REMARK    4  A    between atoms: O_10  and  C_11 
REMARK    5  A    between atoms: C_11  and  C_12 
REMARK       I    between atoms: C_12  and  N_13 
REMARK    6  A    between atoms: N_13  and  N_14 
REMARK       I    between atoms: N_14  and  C_15 
REMARK    7  A    between atoms: C_15  and  C_16 
ROOT
HETATM    1  C   UNL     1     -10.158   1.548 -33.923  1.00  0.00     0.259 C 
HETATM    2  N   UNL     1      -9.106   1.276 -34.771  1.00  0.00    -0.265 N 
HETATM    3  O   UNL     1     -10.428   0.850 -32.947  1.00  0.00    -0.269 OA
HETATM    4  H   UNL     1      -8.884   1.858 -35.579  1.00  0.00     0.190 HD
ENDROOT
BRANCH   1   5
HETATM    5  C   UNL     1     -11.003   2.748 -34.346  1.00  0.00     0.272 C 
BRANCH   5   6
HETATM    6  O   UNL     1     -10.311   3.980 -34.134  1.00  0.00    -0.373 OA
BRANCH   6   7
HETATM    7  C   UNL     1      -9.230   3.841 -33.215  1.00  0.00     0.271 C 
BRANCH   7   8
HETATM    8  C   UNL     1      -7.938   4.581 -33.591  1.00  0.00     0.245 C 
HETATM    9  N   UNL     1      -6.810   3.957 -33.090  1.00  0.00    -0.325 N 
HETATM   10  H   UNL     1      -6.988   3.168 -32.474  1.00  0.00     0.169 HD
HETATM   11  O   UNL     1      -7.974   5.586 -34.294  1.00  0.00    -0.271 OA
BRANCH   9  12
HETATM   12  C   UNL     1      -5.461   4.294 -33.325  1.00  0.00     0.036 A 
HETATM   13  C   UNL     1      -4.459   4.226 -32.356  1.00  0.00     0.053 A 
HETATM   14  C   UNL     1      -3.148   4.611 -32.662  1.00  0.00     0.042 A 
HETATM   15  C   UNL     1      -2.810   5.064 -33.945  1.00  0.00    -0.040 A 
HETATM   16 CL   UNL     1      -1.965   4.520 -31.403  1.00  0.00    -0.084 Cl
HETATM   17  C   UNL     1      -1.413   5.496 -34.295  1.00  0.00     0.050 C 
HETATM   18  C   UNL     1      -3.817   5.123 -34.915  1.00  0.00     0.011 A 
HETATM   19  C   UNL     1      -5.129   4.745 -34.607  1.00  0.00     0.030 A 
ENDBRANCH   9  12
ENDBRANCH   7   8
ENDBRANCH   6   7
ENDBRANCH   5   6
ENDBRANCH   1   5
BRANCH   2  20
HETATM   20  N   UNL     1      -8.322   0.146 -34.534  1.00  0.00    -0.262 N 
HETATM   21  C   UNL     1      -6.949   0.275 -34.484  1.00  0.00     0.286 C 
HETATM   22  O   UNL     1      -6.394   1.371 -34.552  1.00  0.00    -0.264 OA
HETATM   23  H   UNL     1      -8.794  -0.753 -34.577  1.00  0.00     0.190 HD
BRANCH  21  24
HETATM   24  C   UNL     1      -6.213  -0.962 -34.342  1.00  0.00     0.103 A 
HETATM   25  N   UNL     1      -6.710  -2.155 -34.825  1.00  0.00    -0.351 N 
HETATM   26  H   UNL     1      -7.602  -2.242 -35.294  1.00  0.00     0.166 HD
HETATM   27  C   UNL     1      -5.835  -3.189 -34.591  1.00  0.00     0.043 A 
HETATM   28  C   UNL     1      -4.738  -2.649 -33.925  1.00  0.00    -0.007 A 
HETATM   29  C   UNL     1      -5.928  -4.547 -34.917  1.00  0.00     0.030 A 
HETATM   30  C   UNL     1      -4.986  -1.255 -33.771  1.00  0.00     0.049 A 
HETATM   31  C   UNL     1      -3.678  -3.501 -33.560  1.00  0.00     0.014 A 
HETATM   32  C   UNL     1      -3.753  -4.862 -33.879  1.00  0.00     0.001 A 
HETATM   33  C   UNL     1      -4.863  -5.374 -34.547  1.00  0.00     0.002 A 
ENDBRANCH  21  24
ENDBRANCH   2  20
TORSDOF 7
ENDMDL
MODEL 10
REMARK VINA RESULT:      -8.3      1.782      2.094
REMARK  7 active torsions:
REMARK  status: ('A' for Active; 'I' for Inactive)
REMARK    1  A    between atoms: C_6  and  N_7 
REMARK       I    between atoms: N_7  and  C_8 
REMARK    2  A    between atoms: C_8  and  C_9 
REMARK    3  A    between atoms: C_9  and  O_10 
REMARK    4  A    between atoms: O_10  and  C_11 
REMARK    5  A    between atoms: C_11  and  C_12 
REMARK       I    between atoms: C_12  and  N_13 
REMARK    6  A    between atoms: N_13  and  N_14 
REMARK       I    between atoms: N_14  and  C_15 
REMARK    7  A    between atoms: C_15  and  C_16 
ROOT
HETATM    1  C   UNL     1      -5.578   3.716 -30.944  1.00  0.00     0.259 C 
HETATM    2  N   UNL     1      -5.536   4.983 -30.404  1.00  0.00    -0.265 N 
HETATM    3  O   UNL     1      -4.642   2.921 -30.859  1.00  0.00    -0.269 OA
HETATM    4  H   UNL     1      -6.314   5.640 -30.475  1.00  0.00     0.190 HD
ENDROOT
BRANCH   1   5
HETATM    5  C   UNL     1      -6.857   3.415 -31.723  1.00  0.00     0.272 C 
BRANCH   5   6
HETATM    6  O   UNL     1      -6.578   3.092 -33.087  1.00  0.00    -0.373 OA
BRANCH   6   7
HETATM    7  C   UNL     1      -7.588   2.269 -33.664  1.00  0.00     0.271 C 
BRANCH   7   8
HETATM    8  C   UNL     1      -7.360   0.755 -33.546  1.00  0.00     0.245 C 
HETATM    9  N   UNL     1      -6.091   0.381 -33.951  1.00  0.00    -0.325 N 
HETATM   10  H   UNL     1      -5.528   1.125 -34.355  1.00  0.00     0.169 HD
HETATM   11  O   UNL     1      -8.236   0.023 -33.097  1.00  0.00    -0.271 OA
BRANCH   9  12
HETATM   12  C   UNL     1      -5.505  -0.899 -33.879  1.00  0.00     0.036 A 
HETATM   13  C   UNL     1      -4.544  -1.266 -32.936  1.00  0.00     0.053 A 
HETATM   14  C   UNL     1      -3.986  -2.550 -32.952  1.00  0.00     0.042 A 
HETATM   15  C   UNL     1      -4.384  -3.497 -33.906  1.00  0.00    -0.040 A 
HETATM   16 CL   UNL     1      -2.784  -2.924 -31.766  1.00  0.00    -0.084 Cl
HETATM   17  C   UNL     1      -3.792  -4.878 -33.954  1.00  0.00     0.050 C 
HETATM   18  C   UNL     1      -5.355  -3.127 -34.845  1.00  0.00     0.011 A 
HETATM   19  C   UNL     1      -5.907  -1.842 -34.832  1.00  0.00     0.030 A 
ENDBRANCH   9  12
ENDBRANCH   7   8
ENDBRANCH   6   7
ENDBRANCH   5   6
ENDBRANCH   1   5
BRANCH   2  20
HETATM   20  N   UNL     1      -4.376   5.401 -29.749  1.00  0.00    -0.262 N 
HETATM   21  C   UNL     1      -3.858   6.650 -30.023  1.00  0.00     0.286 C 
HETATM   22  O   UNL     1      -4.437   7.448 -30.760  1.00  0.00    -0.264 OA
HETATM   23  H   UNL     1      -3.870   4.693 -29.224  1.00  0.00     0.190 HD
BRANCH  21  24
HETATM   24  C   UNL     1      -2.598   6.955 -29.382  1.00  0.00     0.103 A 
HETATM   25  N   UNL     1      -2.381   6.672 -28.050  1.00  0.00    -0.351 N 
HETATM   26  H   UNL     1      -3.073   6.246 -27.446  1.00  0.00     0.166 HD
HETATM   27  C   UNL     1      -1.112   7.033 -27.665  1.00  0.00     0.043 A 
HETATM   28  C   UNL     1      -0.489   7.579 -28.785  1.00  0.00    -0.007 A 
HETATM   29  C   UNL     1      -0.472   6.918 -26.426  1.00  0.00     0.030 A 
HETATM   30  C   UNL     1      -1.428   7.529 -29.853  1.00  0.00     0.049 A 
HETATM   31  C   UNL     1       0.837   8.037 -28.668  1.00  0.00     0.014 A 
HETATM   32  C   UNL     1       1.493   7.929 -27.437  1.00  0.00     0.001 A 
HETATM   33  C   UNL     1       0.845   7.377 -26.333  1.00  0.00     0.002 A 
ENDBRANCH  21  24
ENDBRANCH   2  20
TORSDOF 7
ENDMDL
