MODEL 1
REMARK VINA RESULT:      -7.3      0.000      0.000
REMARK  4 active torsions:
REMARK  status: ('A' for Active; 'I' for Inactive)
REMARK    1  A    between atoms: O_2  and  C_3 
REMARK    2  A    between atoms: C_4  and  O_5 
REMARK    3  A    between atoms: C_9  and  N_10 
REMARK    4  A    between atoms: N_10  and  C_11 
ROOT
HETATM    1  C   UNL     1      -5.242  -1.463 -34.063  1.00  0.00     0.102 A 
HETATM    2  C   UNL     1      -4.232  -1.249 -33.108  1.00  0.00     0.118 A 
HETATM    3  C   UNL     1      -4.230  -0.015 -32.465  1.00  0.00     0.086 A 
HETATM    4  C   UNL     1      -5.167   0.971 -32.753  1.00  0.00     0.010 A 
HETATM    5  C   UNL     1      -4.890   2.180 -31.947  1.00  0.00     0.267 C 
HETATM    6  O   UNL     1      -3.792   1.779 -31.121  1.00  0.00    -0.287 OA
HETATM    7  C   UNL     1      -3.313   0.546 -31.473  1.00  0.00     0.299 C 
HETATM    8  O   UNL     1      -2.292   0.095 -31.004  1.00  0.00    -0.259 OA
HETATM    9  C   UNL     1      -6.160   0.763 -33.697  1.00  0.00     0.015 A 
HETATM   10  C   UNL     1      -6.185  -0.463 -34.358  1.00  0.00     0.040 A 
ENDROOT
BRANCH   5  11
HETATM   11  N   UNL     1      -4.489   3.294 -32.789  1.00  0.00    -0.346 N 
HETATM   12  H   UNL     1      -5.301   3.818 -33.113  1.00  0.00     0.164 HD
BRANCH  11  13
HETATM   13  C   UNL     1      -3.420   4.121 -32.466  1.00  0.00     0.102 A 
HETATM   14  N   UNL     1      -3.258   4.623 -31.228  1.00  0.00    -0.351 N 
HETATM   15  H   UNL     1      -3.966   4.393 -30.528  1.00  0.00     0.166 HD
HETATM   16  C   UNL     1      -2.201   5.356 -30.847  1.00  0.00     0.109 A 
HETATM   17  C   UNL     1      -1.182   5.615 -31.750  1.00  0.00     0.026 A 
HETATM   18 BR   UNL     1       0.308   6.643 -31.228  1.00  0.00    -0.050 Br
HETATM   19  C   UNL     1      -1.265   5.091 -33.031  1.00  0.00     0.024 A 
HETATM   20  C   UNL     1      -2.380   4.328 -33.385  1.00  0.00     0.050 A 
ENDBRANCH  11  13
ENDBRANCH   5  11
BRANCH   2  21
HETATM   21  O   UNL     1      -3.255  -2.193 -32.993  1.00  0.00    -0.352 OA
HETATM   22  C   UNL     1      -3.373  -3.095 -31.897  1.00  0.00     0.210 C 
ENDBRANCH   2  21
BRANCH   1  23
HETATM   23  O   UNL     1      -5.360  -2.598 -34.824  1.00  0.00    -0.353 OA
HETATM   24  C   UNL     1      -6.637  -3.224 -34.722  1.00  0.00     0.210 C 
ENDBRANCH   1  23
TORSDOF 4
ENDMDL
MODEL 2
REMARK VINA RESULT:      -7.1      4.765      6.224
REMARK  4 active torsions:
REMARK  status: ('A' for Active; 'I' for Inactive)
REMARK    1  A    between atoms: O_2  and  C_3 
REMARK    2  A    between atoms: C_4  and  O_5 
REMARK    3  A    between atoms: C_9  and  N_10 
REMARK    4  A    between atoms: N_10  and  C_11 
ROOT
HETATM    1  C   UNL     1      -4.822  -2.603 -34.189  1.00  0.00     0.102 A 
HETATM    2  C   UNL     1      -4.705  -1.435 -33.416  1.00  0.00     0.118 A 
HETATM    3  C   UNL     1      -5.882  -0.748 -33.137  1.00  0.00     0.086 A 
HETATM    4  C   UNL     1      -7.119  -1.178 -33.605  1.00  0.00     0.010 A 
HETATM    5  C   UNL     1      -8.173  -0.230 -33.185  1.00  0.00     0.267 C 
HETATM    6  O   UNL     1      -7.464   0.712 -32.374  1.00  0.00    -0.287 OA
HETATM    7  C   UNL     1      -6.112   0.503 -32.415  1.00  0.00     0.299 C 
HETATM    8  O   UNL     1      -5.326   1.284 -31.926  1.00  0.00    -0.259 OA
HETATM    9  C   UNL     1      -7.235  -2.327 -34.371  1.00  0.00     0.015 A 
HETATM   10  C   UNL     1      -6.072  -3.034 -34.668  1.00  0.00     0.040 A 
ENDROOT
BRANCH   5  11
HETATM   11  N   UNL     1      -8.757   0.449 -34.330  1.00  0.00    -0.346 N 
HETATM   12  H   UNL     1      -8.973  -0.212 -35.076  1.00  0.00     0.164 HD
BRANCH  11  13
HETATM   13  C   UNL     1      -9.732   1.429 -34.194  1.00  0.00     0.102 A 
HETATM   14  N   UNL     1      -9.599   2.648 -34.751  1.00  0.00    -0.351 N 
HETATM   15  H   UNL     1      -8.737   2.841 -35.265  1.00  0.00     0.166 HD
HETATM   16  C   UNL     1     -10.547   3.596 -34.718  1.00  0.00     0.109 A 
HETATM   17  C   UNL     1     -11.760   3.335 -34.101  1.00  0.00     0.026 A 
HETATM   18 BR   UNL     1     -13.100   4.658 -34.049  1.00  0.00    -0.050 Br
HETATM   19  C   UNL     1     -11.980   2.084 -33.545  1.00  0.00     0.024 A 
HETATM   20  C   UNL     1     -10.968   1.123 -33.605  1.00  0.00     0.050 A 
ENDBRANCH  11  13
ENDBRANCH   5  11
BRANCH   2  21
HETATM   21  O   UNL     1      -3.450  -0.986 -33.129  1.00  0.00    -0.352 OA
HETATM   22  C   UNL     1      -2.930  -1.338 -31.849  1.00  0.00     0.210 C 
ENDBRANCH   2  21
BRANCH   1  23
HETATM   23  O   UNL     1      -3.762  -3.370 -34.600  1.00  0.00    -0.353 OA
HETATM   24  C   UNL     1      -3.621  -4.587 -33.869  1.00  0.00     0.210 C 
ENDBRANCH   1  23
TORSDOF 4
ENDMDL
MODEL 3
REMARK VINA RESULT:      -7.1      4.607      6.388
REMARK  4 active torsions:
REMARK  status: ('A' for Active; 'I' for Inactive)
REMARK    1  A    between atoms: O_2  and  C_3 
REMARK    2  A    between atoms: C_4  and  O_5 
REMARK    3  A    between atoms: C_9  and  N_10 
REMARK    4  A    between atoms: N_10  and  C_11 
ROOT
HETATM    1  C   UNL     1      -4.323  -1.915 -32.939  1.00  0.00     0.102 A 
HETATM    2  C   UNL     1      -5.089  -1.485 -34.036  1.00  0.00     0.118 A 
HETATM    3  C   UNL     1      -5.727  -0.255 -33.910  1.00  0.00     0.086 A 
HETATM    4  C   UNL     1      -5.631   0.514 -32.755  1.00  0.00     0.010 A 
HETATM    5  C   UNL     1      -6.444   1.742 -32.899  1.00  0.00     0.267 C 
HETATM    6  O   UNL     1      -6.930   1.659 -34.242  1.00  0.00    -0.287 OA
HETATM    7  C   UNL     1      -6.623   0.457 -34.822  1.00  0.00     0.299 C 
HETATM    8  O   UNL     1      -7.077   0.127 -35.895  1.00  0.00    -0.259 OA
HETATM    9  C   UNL     1      -4.880   0.088 -31.671  1.00  0.00     0.015 A 
HETATM   10  C   UNL     1      -4.232  -1.140 -31.769  1.00  0.00     0.040 A 
ENDROOT
BRANCH   5  11
HETATM   11  N   UNL     1      -7.562   1.744 -31.971  1.00  0.00    -0.346 N 
HETATM   12  H   UNL     1      -7.497   2.528 -31.321  1.00  0.00     0.164 HD
BRANCH  11  13
HETATM   13  C   UNL     1      -8.868   1.506 -32.382  1.00  0.00     0.102 A 
HETATM   14  N   UNL     1      -9.629   2.473 -32.930  1.00  0.00    -0.351 N 
HETATM   15  H   UNL     1      -9.219   3.406 -33.014  1.00  0.00     0.166 HD
HETATM   16  C   UNL     1     -10.862   2.272 -33.416  1.00  0.00     0.109 A 
HETATM   17  C   UNL     1     -11.412   1.000 -33.394  1.00  0.00     0.026 A 
HETATM   18 BR   UNL     1     -13.144   0.705 -34.075  1.00  0.00    -0.050 Br
HETATM   19  C   UNL     1     -10.665  -0.050 -32.883  1.00  0.00     0.024 A 
HETATM   20  C   UNL     1      -9.383   0.201 -32.391  1.00  0.00     0.050 A 
ENDBRANCH  11  13
ENDBRANCH   5  11
BRANCH   2  21
HETATM   21  O   UNL     1      -5.269  -2.357 -35.068  1.00  0.00    -0.352 OA
HETATM   22  C   UNL     1      -6.332  -3.296 -34.923  1.00  0.00     0.210 C 
ENDBRANCH   2  21
BRANCH   1  23
HETATM   23  O   UNL     1      -3.672  -3.121 -32.874  1.00  0.00    -0.353 OA
HETATM   24  C   UNL     1      -2.880  -3.280 -31.698  1.00  0.00     0.210 C 
ENDBRANCH   1  23
TORSDOF 4
ENDMDL
MODEL 4
REMARK VINA RESULT:      -7.0      1.704      1.930
REMARK  4 active torsions:
REMARK  status: ('A' for Active; 'I' for Inactive)
REMARK    1  A    between atoms: O_2  and  C_3 
REMARK    2  A    between atoms: C_4  and  O_5 
REMARK    3  A    between atoms: C_9  and  N_10 
REMARK    4  A    between atoms: N_10  and  C_11 
ROOT
HETATM    1  C   UNL     1      -5.967  -1.331 -34.633  1.00  0.00     0.102 A 
HETATM    2  C   UNL     1      -5.052  -0.779 -33.720  1.00  0.00     0.118 A 
HETATM    3  C   UNL     1      -5.338   0.496 -33.240  1.00  0.00     0.086 A 
HETATM    4  C   UNL     1      -6.463   1.204 -33.646  1.00  0.00     0.010 A 
HETATM    5  C   UNL     1      -6.479   2.536 -33.003  1.00  0.00     0.267 C 
HETATM    6  O   UNL     1      -5.339   2.497 -32.139  1.00  0.00    -0.287 OA
HETATM    7  C   UNL     1      -4.590   1.367 -32.334  1.00  0.00     0.299 C 
HETATM    8  O   UNL     1      -3.506   1.219 -31.817  1.00  0.00    -0.259 OA
HETATM    9  C   UNL     1      -7.364   0.662 -34.550  1.00  0.00     0.015 A 
HETATM   10  C   UNL     1      -7.102  -0.611 -35.048  1.00  0.00     0.040 A 
ENDROOT
BRANCH   5  11
HETATM   11  N   UNL     1      -6.315   3.596 -33.984  1.00  0.00    -0.346 N 
HETATM   12  H   UNL     1      -7.211   4.034 -34.201  1.00  0.00     0.164 HD
BRANCH  11  13
HETATM   13  C   UNL     1      -5.279   4.519 -33.914  1.00  0.00     0.102 A 
HETATM   14  N   UNL     1      -5.016   5.209 -32.788  1.00  0.00    -0.351 N 
HETATM   15  H   UNL     1      -5.624   5.048 -31.982  1.00  0.00     0.166 HD
HETATM   16  C   UNL     1      -3.978   6.046 -32.646  1.00  0.00     0.109 A 
HETATM   17  C   UNL     1      -3.087   6.222 -33.693  1.00  0.00     0.026 A 
HETATM   18 BR   UNL     1      -1.625   7.395 -33.506  1.00  0.00    -0.050 Br
HETATM   19  C   UNL     1      -3.275   5.508 -34.867  1.00  0.00     0.024 A 
HETATM   20  C   UNL     1      -4.366   4.642 -34.971  1.00  0.00     0.050 A 
ENDBRANCH  11  13
ENDBRANCH   5  11
BRANCH   2  21
HETATM   21  O   UNL     1      -3.893  -1.459 -33.491  1.00  0.00    -0.352 OA
HETATM   22  C   UNL     1      -3.838  -2.229 -32.292  1.00  0.00     0.210 C 
ENDBRANCH   2  21
BRANCH   1  23
HETATM   23  O   UNL     1      -5.814  -2.550 -35.242  1.00  0.00    -0.353 OA
HETATM   24  C   UNL     1      -6.704  -3.551 -34.750  1.00  0.00     0.210 C 
ENDBRANCH   1  23
TORSDOF 4
ENDMDL
MODEL 5
REMARK VINA RESULT:      -7.0      2.234      2.707
REMARK  4 active torsions:
REMARK  status: ('A' for Active; 'I' for Inactive)
REMARK    1  A    between atoms: O_2  and  C_3 
REMARK    2  A    between atoms: C_4  and  O_5 
REMARK    3  A    between atoms: C_9  and  N_10 
REMARK    4  A    between atoms: N_10  and  C_11 
ROOT
HETATM    1  C   UNL     1      -5.733  -2.029 -34.200  1.00  0.00     0.102 A 
HETATM    2  C   UNL     1      -5.035  -1.418 -33.145  1.00  0.00     0.118 A 
HETATM    3  C   UNL     1      -5.744  -0.505 -32.371  1.00  0.00     0.086 A 
HETATM    4  C   UNL     1      -7.075  -0.195 -32.626  1.00  0.00     0.010 A 
HETATM    5  C   UNL     1      -7.546   0.831 -31.670  1.00  0.00     0.267 C 
HETATM    6  O   UNL     1      -6.423   1.011 -30.802  1.00  0.00    -0.287 OA
HETATM    7  C   UNL     1      -5.321   0.331 -31.247  1.00  0.00     0.299 C 
HETATM    8  O   UNL     1      -4.229   0.478 -30.745  1.00  0.00    -0.259 OA
HETATM    9  C   UNL     1      -7.764  -0.794 -33.669  1.00  0.00     0.015 A 
HETATM   10  C   UNL     1      -7.077  -1.711 -34.462  1.00  0.00     0.040 A 
ENDROOT
BRANCH   5  11
HETATM   11  N   UNL     1      -7.850   2.081 -32.345  1.00  0.00    -0.346 N 
HETATM   12  H   UNL     1      -8.713   2.489 -31.987  1.00  0.00     0.164 HD
BRANCH  11  13
HETATM   13  C   UNL     1      -6.879   3.040 -32.604  1.00  0.00     0.102 A 
HETATM   14  N   UNL     1      -6.260   3.711 -31.614  1.00  0.00    -0.351 N 
HETATM   15  H   UNL     1      -6.546   3.507 -30.654  1.00  0.00     0.166 HD
HETATM   16  C   UNL     1      -5.260   4.583 -31.809  1.00  0.00     0.109 A 
HETATM   17  C   UNL     1      -4.793   4.818 -33.093  1.00  0.00     0.026 A 
HETATM   18 BR   UNL     1      -3.389   6.041 -33.380  1.00  0.00    -0.050 Br
HETATM   19  C   UNL     1      -5.357   4.128 -34.154  1.00  0.00     0.024 A 
HETATM   20  C   UNL     1      -6.393   3.224 -33.907  1.00  0.00     0.050 A 
ENDBRANCH  11  13
ENDBRANCH   5  11
BRANCH   2  21
HETATM   21  O   UNL     1      -3.694  -1.647 -33.052  1.00  0.00    -0.352 OA
HETATM   22  C   UNL     1      -3.285  -2.639 -32.114  1.00  0.00     0.210 C 
ENDBRANCH   2  21
BRANCH   1  23
HETATM   23  O   UNL     1      -5.174  -2.911 -35.090  1.00  0.00    -0.353 OA
HETATM   24  C   UNL     1      -5.795  -4.195 -35.088  1.00  0.00     0.210 C 
ENDBRANCH   1  23
TORSDOF 4
ENDMDL
MODEL 6
REMARK VINA RESULT:      -6.9     15.599     16.662
REMARK  4 active torsions:
REMARK  status: ('A' for Active; 'I' for Inactive)
REMARK    1  A    between atoms: O_2  and  C_3 
REMARK    2  A    between atoms: C_4  and  O_5 
REMARK    3  A    between atoms: C_9  and  N_10 
REMARK    4  A    between atoms: N_10  and  C_11 
ROOT
HETATM    1  C   UNL     1      -7.963 -12.783 -39.832  1.00  0.00     0.102 A 
HETATM    2  C   UNL     1      -7.469 -13.095 -38.553  1.00  0.00     0.118 A 
HETATM    3  C   UNL     1      -6.126 -12.817 -38.316  1.00  0.00     0.086 A 
HETATM    4  C   UNL     1      -5.300 -12.270 -39.291  1.00  0.00     0.010 A 
HETATM    5  C   UNL     1      -3.926 -12.126 -38.764  1.00  0.00     0.267 C 
HETATM    6  O   UNL     1      -4.052 -12.542 -37.401  1.00  0.00    -0.287 OA
HETATM    7  C   UNL     1      -5.294 -13.055 -37.137  1.00  0.00     0.299 C 
HETATM    8  O   UNL     1      -5.552 -13.604 -36.090  1.00  0.00    -0.259 OA
HETATM    9  C   UNL     1      -5.785 -11.966 -40.554  1.00  0.00     0.015 A 
HETATM   10  C   UNL     1      -7.125 -12.235 -40.820  1.00  0.00     0.040 A 
ENDROOT
BRANCH   5  11
HETATM   11  N   UNL     1      -3.000 -13.002 -39.461  1.00  0.00    -0.346 N 
HETATM   12  H   UNL     1      -2.680 -12.577 -40.332  1.00  0.00     0.164 HD
BRANCH  11  13
HETATM   13  C   UNL     1      -1.985 -13.686 -38.802  1.00  0.00     0.102 A 
HETATM   14  N   UNL     1      -2.247 -14.646 -37.896  1.00  0.00    -0.351 N 
HETATM   15  H   UNL     1      -3.228 -14.845 -37.687  1.00  0.00     0.166 HD
HETATM   16  C   UNL     1      -1.305 -15.389 -37.297  1.00  0.00     0.109 A 
HETATM   17  C   UNL     1       0.029 -15.202 -37.621  1.00  0.00     0.026 A 
HETATM   18 BR   UNL     1       1.362 -16.240 -36.787  1.00  0.00    -0.050 Br
HETATM   19  C   UNL     1       0.365 -14.258 -38.580  1.00  0.00     0.024 A 
HETATM   20  C   UNL     1      -0.647 -13.509 -39.183  1.00  0.00     0.050 A 
ENDBRANCH  11  13
ENDBRANCH   5  11
BRANCH   2  21
HETATM   21  O   UNL     1      -8.289 -13.775 -37.703  1.00  0.00    -0.352 OA
HETATM   22  C   UNL     1      -8.243 -15.197 -37.781  1.00  0.00     0.210 C 
ENDBRANCH   2  21
BRANCH   1  23
HETATM   23  O   UNL     1      -9.244 -13.038 -40.251  1.00  0.00    -0.353 OA
HETATM   24  C   UNL     1     -10.086 -11.886 -40.249  1.00  0.00     0.210 C 
ENDBRANCH   1  23
TORSDOF 4
ENDMDL
MODEL 7
REMARK VINA RESULT:      -6.8      3.864      6.934
REMARK  4 active torsions:
REMARK  status: ('A' for Active; 'I' for Inactive)
REMARK    1  A    between atoms: O_2  and  C_3 
REMARK    2  A    between atoms: C_4  and  O_5 
REMARK    3  A    between atoms: C_9  and  N_10 
REMARK    4  A    between atoms: N_10  and  C_11 
ROOT
HETATM    1  C   UNL     1      -5.248   4.244 -30.546  1.00  0.00     0.102 A 
HETATM    2  C   UNL     1      -5.853   3.018 -30.217  1.00  0.00     0.118 A 
HETATM    3  C   UNL     1      -5.156   1.864 -30.560  1.00  0.00     0.086 A 
HETATM    4  C   UNL     1      -3.926   1.908 -31.209  1.00  0.00     0.010 A 
HETATM    5  C   UNL     1      -3.450   0.533 -31.478  1.00  0.00     0.267 C 
HETATM    6  O   UNL     1      -4.446  -0.287 -30.857  1.00  0.00    -0.287 OA
HETATM    7  C   UNL     1      -5.508   0.452 -30.410  1.00  0.00     0.299 C 
HETATM    8  O   UNL     1      -6.523  -0.065 -29.999  1.00  0.00    -0.259 OA
HETATM    9  C   UNL     1      -3.332   3.116 -31.538  1.00  0.00     0.015 A 
HETATM   10  C   UNL     1      -4.009   4.287 -31.208  1.00  0.00     0.040 A 
ENDROOT
BRANCH   5  11
HETATM   11  N   UNL     1      -3.408   0.260 -32.904  1.00  0.00    -0.346 N 
HETATM   12  H   UNL     1      -2.454   0.322 -33.260  1.00  0.00     0.164 HD
BRANCH  11  13
HETATM   13  C   UNL     1      -4.121  -0.783 -33.481  1.00  0.00     0.102 A 
HETATM   14  N   UNL     1      -3.698  -2.059 -33.411  1.00  0.00    -0.351 N 
HETATM   15  H   UNL     1      -2.812  -2.237 -32.933  1.00  0.00     0.166 HD
HETATM   16  C   UNL     1      -4.391  -3.107 -33.879  1.00  0.00     0.109 A 
HETATM   17  C   UNL     1      -5.635  -2.907 -34.457  1.00  0.00     0.026 A 
HETATM   18 BR   UNL     1      -6.619  -4.371 -35.117  1.00  0.00    -0.050 Br
HETATM   19  C   UNL     1      -6.150  -1.622 -34.523  1.00  0.00     0.024 A 
HETATM   20  C   UNL     1      -5.397  -0.558 -34.019  1.00  0.00     0.050 A 
ENDBRANCH  11  13
ENDBRANCH   5  11
BRANCH   2  21
HETATM   21  O   UNL     1      -7.126   3.047 -29.729  1.00  0.00    -0.352 OA
HETATM   22  C   UNL     1      -8.174   2.977 -30.693  1.00  0.00     0.210 C 
ENDBRANCH   2  21
BRANCH   1  23
HETATM   23  O   UNL     1      -5.819   5.472 -30.328  1.00  0.00    -0.353 OA
HETATM   24  C   UNL     1      -4.965   6.385 -29.641  1.00  0.00     0.210 C 
ENDBRANCH   1  23
TORSDOF 4
ENDMDL
MODEL 8
REMARK VINA RESULT:      -6.5      3.546      4.523
REMARK  4 active torsions:
REMARK  status: ('A' for Active; 'I' for Inactive)
REMARK    1  A    between atoms: O_2  and  C_3 
REMARK    2  A    between atoms: C_4  and  O_5 
REMARK    3  A    between atoms: C_9  and  N_10 
REMARK    4  A    between atoms: N_10  and  C_11 
ROOT
HETATM    1  C   UNL     1      -4.272  -2.923 -33.922  1.00  0.00     0.102 A 
HETATM    2  C   UNL     1      -5.375  -2.340 -34.570  1.00  0.00     0.118 A 
HETATM    3  C   UNL     1      -5.755  -1.072 -34.140  1.00  0.00     0.086 A 
HETATM    4  C   UNL     1      -5.092  -0.410 -33.112  1.00  0.00     0.010 A 
HETATM    5  C   UNL     1      -5.743   0.892 -32.850  1.00  0.00     0.267 C 
HETATM    6  O   UNL     1      -6.757   0.961 -33.858  1.00  0.00    -0.287 OA
HETATM    7  C   UNL     1      -6.863  -0.213 -34.555  1.00  0.00     0.299 C 
HETATM    8  O   UNL     1      -7.763  -0.415 -35.340  1.00  0.00    -0.259 OA
HETATM    9  C   UNL     1      -4.008  -0.986 -32.469  1.00  0.00     0.015 A 
HETATM   10  C   UNL     1      -3.607  -2.256 -32.878  1.00  0.00     0.040 A 
ENDROOT
BRANCH   5  11
HETATM   11  N   UNL     1      -6.357   0.919 -31.534  1.00  0.00    -0.346 N 
HETATM   12  H   UNL     1      -5.941   0.216 -30.922  1.00  0.00     0.164 HD
BRANCH  11  13
HETATM   13  C   UNL     1      -6.629   2.107 -30.865  1.00  0.00     0.102 A 
HETATM   14  N   UNL     1      -7.874   2.431 -30.468  1.00  0.00    -0.351 N 
HETATM   15  H   UNL     1      -8.628   1.779 -30.697  1.00  0.00     0.166 HD
HETATM   16  C   UNL     1      -8.172   3.523 -29.749  1.00  0.00     0.109 A 
HETATM   17  C   UNL     1      -7.160   4.382 -29.352  1.00  0.00     0.026 A 
HETATM   18 BR   UNL     1      -7.566   5.919 -28.340  1.00  0.00    -0.050 Br
HETATM   19  C   UNL     1      -5.849   4.085 -29.689  1.00  0.00     0.024 A 
HETATM   20  C   UNL     1      -5.581   2.934 -30.435  1.00  0.00     0.050 A 
ENDBRANCH  11  13
ENDBRANCH   5  11
BRANCH   2  21
HETATM   21  O   UNL     1      -6.072  -3.108 -35.454  1.00  0.00    -0.352 OA
HETATM   22  C   UNL     1      -6.869  -4.149 -34.896  1.00  0.00     0.210 C 
ENDBRANCH   2  21
BRANCH   1  23
HETATM   23  O   UNL     1      -3.797  -4.183 -34.184  1.00  0.00    -0.353 OA
HETATM   24  C   UNL     1      -3.429  -4.910 -33.013  1.00  0.00     0.210 C 
ENDBRANCH   1  23
TORSDOF 4
ENDMDL
MODEL 9
REMARK VINA RESULT:      -6.5      3.930      5.967
REMARK  4 active torsions:
REMARK  status: ('A' for Active; 'I' for Inactive)
REMARK    1  A    between atoms: O_2  and  C_3 
REMARK    2  A    between atoms: C_4  and  O_5 
REMARK    3  A    between atoms: C_9  and  N_10 
REMARK    4  A    between atoms: N_10  and  C_11 
ROOT
HETATM    1  C   UNL     1      -7.610   2.901 -33.323  1.00  0.00     0.102 A 
HETATM    2  C   UNL     1      -7.668   1.846 -32.395  1.00  0.00     0.118 A 
HETATM    3  C   UNL     1      -6.477   1.504 -31.762  1.00  0.00     0.086 A 
HETATM    4  C   UNL     1      -5.279   2.157 -32.035  1.00  0.00     0.010 A 
HETATM    5  C   UNL     1      -4.185   1.552 -31.245  1.00  0.00     0.267 C 
HETATM    6  O   UNL     1      -4.858   0.577 -30.443  1.00  0.00    -0.287 OA
HETATM    7  C   UNL     1      -6.175   0.447 -30.797  1.00  0.00     0.299 C 
HETATM    8  O   UNL     1      -6.876  -0.432 -30.349  1.00  0.00    -0.259 OA
HETATM    9  C   UNL     1      -5.221   3.194 -32.953  1.00  0.00     0.015 A 
HETATM   10  C   UNL     1      -6.398   3.556 -33.603  1.00  0.00     0.040 A 
ENDROOT
BRANCH   5  11
HETATM   11  N   UNL     1      -3.216   0.895 -32.106  1.00  0.00    -0.346 N 
HETATM   12  H   UNL     1      -2.263   1.155 -31.849  1.00  0.00     0.164 HD
BRANCH  11  13
HETATM   13  C   UNL     1      -3.321  -0.446 -32.453  1.00  0.00     0.102 A 
HETATM   14  N   UNL     1      -2.870  -1.427 -31.649  1.00  0.00    -0.351 N 
HETATM   15  H   UNL     1      -2.420  -1.151 -30.773  1.00  0.00     0.166 HD
HETATM   16  C   UNL     1      -3.024  -2.735 -31.902  1.00  0.00     0.109 A 
HETATM   17  C   UNL     1      -3.703  -3.141 -33.040  1.00  0.00     0.026 A 
HETATM   18 BR   UNL     1      -3.926  -4.976 -33.406  1.00  0.00    -0.050 Br
HETATM   19  C   UNL     1      -4.232  -2.182 -33.889  1.00  0.00     0.024 A 
HETATM   20  C   UNL     1      -4.054  -0.830 -33.586  1.00  0.00     0.050 A 
ENDBRANCH  11  13
ENDBRANCH   5  11
BRANCH   2  21
HETATM   21  O   UNL     1      -8.834   1.148 -32.296  1.00  0.00    -0.352 OA
HETATM   22  C   UNL     1      -8.980   0.033 -33.172  1.00  0.00     0.210 C 
ENDBRANCH   2  21
BRANCH   1  23
HETATM   23  O   UNL     1      -8.675   3.331 -34.072  1.00  0.00    -0.353 OA
HETATM   24  C   UNL     1      -9.311   4.495 -33.546  1.00  0.00     0.210 C 
ENDBRANCH   1  23
TORSDOF 4
ENDMDL
MODEL 10
REMARK VINA RESULT:      -6.5      3.854      7.378
REMARK  4 active torsions:
REMARK  status: ('A' for Active; 'I' for Inactive)
REMARK    1  A    between atoms: O_2  and  C_3 
REMARK    2  A    between atoms: C_4  and  O_5 
REMARK    3  A    between atoms: C_9  and  N_10 
REMARK    4  A    between atoms: N_10  and  C_11 
ROOT
HETATM    1  C   UNL     1      -3.198   5.177 -31.419  1.00  0.00     0.102 A 
HETATM    2  C   UNL     1      -4.401   4.869 -30.759  1.00  0.00     0.118 A 
HETATM    3  C   UNL     1      -4.916   3.593 -30.961  1.00  0.00     0.086 A 
HETATM    4  C   UNL     1      -4.289   2.663 -31.783  1.00  0.00     0.010 A 
HETATM    5  C   UNL     1      -5.087   1.418 -31.835  1.00  0.00     0.267 C 
HETATM    6  O   UNL     1      -6.155   1.674 -30.918  1.00  0.00    -0.287 OA
HETATM    7  C   UNL     1      -6.147   2.970 -30.475  1.00  0.00     0.299 C 
HETATM    8  O   UNL     1      -7.055   3.430 -29.819  1.00  0.00    -0.259 OA
HETATM    9  C   UNL     1      -3.106   2.967 -32.437  1.00  0.00     0.015 A 
HETATM   10  C   UNL     1      -2.568   4.238 -32.255  1.00  0.00     0.040 A 
ENDROOT
BRANCH   5  11
HETATM   11  N   UNL     1      -5.626   1.193 -33.165  1.00  0.00    -0.346 N 
HETATM   12  H   UNL     1      -5.240   1.861 -33.833  1.00  0.00     0.164 HD
BRANCH  11  13
HETATM   13  C   UNL     1      -5.758  -0.080 -33.707  1.00  0.00     0.102 A 
HETATM   14  N   UNL     1      -4.739  -0.961 -33.711  1.00  0.00    -0.351 N 
HETATM   15  H   UNL     1      -3.847  -0.653 -33.319  1.00  0.00     0.166 HD
HETATM   16  C   UNL     1      -4.842  -2.225 -34.146  1.00  0.00     0.109 A 
HETATM   17  C   UNL     1      -6.061  -2.698 -34.605  1.00  0.00     0.026 A 
HETATM   18 BR   UNL     1      -6.219  -4.472 -35.218  1.00  0.00    -0.050 Br
HETATM   19  C   UNL     1      -7.162  -1.856 -34.588  1.00  0.00     0.024 A 
HETATM   20  C   UNL     1      -7.013  -0.547 -34.122  1.00  0.00     0.050 A 
ENDBRANCH  11  13
ENDBRANCH   5  11
BRANCH   2  21
HETATM   21  O   UNL     1      -5.042   5.877 -30.102  1.00  0.00    -0.352 OA
HETATM   22  C   UNL     1      -5.976   6.636 -30.865  1.00  0.00     0.210 C 
ENDBRANCH   2  21
BRANCH   1  23
HETATM   23  O   UNL     1      -2.581   6.401 -31.373  1.00  0.00    -0.353 OA
HETATM   24  C   UNL     1      -2.668   7.132 -32.595  1.00  0.00     0.210 C 
ENDBRANCH   1  23
TORSDOF 4
ENDMDL
