MODEL 1
REMARK VINA RESULT:      -8.9      0.000      0.000
REMARK  3 active torsions:
REMARK  status: ('A' for Active; 'I' for Inactive)
REMARK    1  A    between atoms: C_9  and  C_10 
REMARK       I    between atoms: C_10  and  N_11 
REMARK    2  A    between atoms: N_11  and  C_12 
REMARK    3  A    between atoms: C_13  and  O_14 
ROOT
HETATM    1  C   UNL     1      -3.548   1.315 -31.706  1.00  0.00     0.268 C 
HETATM    2  N   UNL     1      -4.089   2.560 -31.888  1.00  0.00    -0.344 N 
HETATM    3  O   UNL     1      -2.622   1.125 -30.918  1.00  0.00    -0.266 OA
HETATM    4  H   UNL     1      -4.887   2.677 -32.494  1.00  0.00     0.163 HD
ENDROOT
BRANCH   1   5
HETATM    5  C   UNL     1      -4.119   0.263 -32.511  1.00  0.00     0.102 A 
HETATM    6  N   UNL     1      -5.311   0.434 -33.177  1.00  0.00    -0.351 N 
HETATM    7  C   UNL     1      -5.701  -0.726 -33.805  1.00  0.00     0.043 A 
HETATM    8  H   UNL     1      -5.842   1.295 -33.163  1.00  0.00     0.166 HD
HETATM    9  C   UNL     1      -4.702  -1.671 -33.589  1.00  0.00    -0.001 A 
HETATM   10  C   UNL     1      -6.855  -0.997 -34.538  1.00  0.00     0.031 A 
HETATM   11  C   UNL     1      -4.837  -2.975 -34.135  1.00  0.00    -0.043 A 
HETATM   12  C   UNL     1      -3.708  -1.029 -32.786  1.00  0.00     0.049 A 
HETATM   13  C   UNL     1      -6.024  -3.272 -34.858  1.00  0.00    -0.055 A 
HETATM   14  C   UNL     1      -3.783  -4.035 -33.941  1.00  0.00     0.049 C 
HETATM   15  C   UNL     1      -6.252  -4.640 -35.447  1.00  0.00     0.049 C 
HETATM   16  C   UNL     1      -7.000  -2.284 -35.055  1.00  0.00     0.009 A 
ENDBRANCH   1   5
BRANCH   2  17
HETATM   17  C   UNL     1      -3.517   3.740 -31.274  1.00  0.00     0.147 C 
HETATM   18  C   UNL     1      -4.554   4.711 -30.624  1.00  0.00     0.149 C 
HETATM   19  C   UNL     1      -4.930   5.736 -31.712  1.00  0.00     0.073 C 
HETATM   20  C   UNL     1      -3.705   5.743 -32.572  1.00  0.00    -0.047 A 
HETATM   21  C   UNL     1      -2.904   4.623 -32.323  1.00  0.00    -0.027 A 
HETATM   22  C   UNL     1      -3.357   6.665 -33.545  1.00  0.00     0.008 A 
HETATM   23  C   UNL     1      -1.739   4.403 -33.042  1.00  0.00     0.010 A 
HETATM   24  C   UNL     1      -1.375   5.332 -34.017  1.00  0.00     0.001 A 
HETATM   25  C   UNL     1      -2.179   6.456 -34.267  1.00  0.00     0.001 A 
BRANCH  18  26
HETATM   26  O   UNL     1      -5.720   4.078 -30.108  1.00  0.00    -0.393 OA
HETATM   27  H   UNL     1      -6.256   4.778 -29.680  1.00  0.00     0.210 HD
ENDBRANCH  18  26
ENDBRANCH   2  17
TORSDOF 3
ENDMDL
MODEL 2
REMARK VINA RESULT:      -8.9      2.786      4.200
REMARK  3 active torsions:
REMARK  status: ('A' for Active; 'I' for Inactive)
REMARK    1  A    between atoms: C_9  and  C_10 
REMARK       I    between atoms: C_10  and  N_11 
REMARK    2  A    between atoms: N_11  and  C_12 
REMARK    3  A    between atoms: C_13  and  O_14 
ROOT
HETATM    1  C   UNL     1      -4.672   5.116 -33.169  1.00  0.00     0.268 C 
HETATM    2  N   UNL     1      -3.417   5.349 -32.675  1.00  0.00    -0.344 N 
HETATM    3  O   UNL     1      -5.393   6.035 -33.553  1.00  0.00    -0.266 OA
HETATM    4  H   UNL     1      -2.823   4.573 -32.424  1.00  0.00     0.163 HD
ENDROOT
BRANCH   1   5
HETATM    5  C   UNL     1      -5.090   3.735 -33.184  1.00  0.00     0.102 A 
HETATM    6  N   UNL     1      -4.616   2.829 -32.262  1.00  0.00    -0.351 N 
HETATM    7  C   UNL     1      -5.081   1.563 -32.524  1.00  0.00     0.043 A 
HETATM    8  H   UNL     1      -3.974   3.071 -31.518  1.00  0.00     0.166 HD
HETATM    9  C   UNL     1      -5.934   1.652 -33.621  1.00  0.00    -0.001 A 
HETATM   10  C   UNL     1      -4.808   0.361 -31.872  1.00  0.00     0.031 A 
HETATM   11  C   UNL     1      -6.571   0.482 -34.113  1.00  0.00    -0.043 A 
HETATM   12  C   UNL     1      -5.939   3.026 -34.015  1.00  0.00     0.049 A 
HETATM   13  C   UNL     1      -6.275  -0.753 -33.477  1.00  0.00    -0.055 A 
HETATM   14  C   UNL     1      -7.510   0.520 -35.292  1.00  0.00     0.049 C 
HETATM   15  C   UNL     1      -6.893  -2.042 -33.956  1.00  0.00     0.049 C 
HETATM   16  C   UNL     1      -5.414  -0.792 -32.370  1.00  0.00     0.009 A 
ENDBRANCH   1   5
BRANCH   2  17
HETATM   17  C   UNL     1      -2.921   6.690 -32.446  1.00  0.00     0.147 C 
HETATM   18  C   UNL     1      -2.118   7.307 -33.636  1.00  0.00     0.149 C 
HETATM   19  C   UNL     1      -0.637   6.960 -33.385  1.00  0.00     0.073 C 
HETATM   20  C   UNL     1      -0.595   6.825 -31.895  1.00  0.00    -0.047 A 
HETATM   21  C   UNL     1      -1.881   6.679 -31.363  1.00  0.00    -0.027 A 
HETATM   22  C   UNL     1       0.522   6.788 -31.078  1.00  0.00     0.008 A 
HETATM   23  C   UNL     1      -2.074   6.493 -30.002  1.00  0.00     0.010 A 
HETATM   24  C   UNL     1      -0.955   6.464 -29.170  1.00  0.00     0.001 A 
HETATM   25  C   UNL     1       0.335   6.610 -29.705  1.00  0.00     0.001 A 
BRANCH  18  26
HETATM   26  O   UNL     1      -2.526   6.859 -34.925  1.00  0.00    -0.393 OA
HETATM   27  H   UNL     1      -1.730   6.487 -35.360  1.00  0.00     0.210 HD
ENDBRANCH  18  26
ENDBRANCH   2  17
TORSDOF 3
ENDMDL
MODEL 3
REMARK VINA RESULT:      -8.9      1.677      2.703
REMARK  3 active torsions:
REMARK  status: ('A' for Active; 'I' for Inactive)
REMARK    1  A    between atoms: C_9  and  C_10 
REMARK       I    between atoms: C_10  and  N_11 
REMARK    2  A    between atoms: N_11  and  C_12 
REMARK    3  A    between atoms: C_13  and  O_14 
ROOT
HETATM    1  C   UNL     1      -5.243   2.072 -32.618  1.00  0.00     0.268 C 
HETATM    2  N   UNL     1      -4.187   2.910 -32.859  1.00  0.00    -0.344 N 
HETATM    3  O   UNL     1      -6.344   2.505 -32.283  1.00  0.00    -0.266 OA
HETATM    4  H   UNL     1      -3.312   2.533 -33.192  1.00  0.00     0.163 HD
ENDROOT
BRANCH   1   5
HETATM    5  C   UNL     1      -4.967   0.663 -32.762  1.00  0.00     0.102 A 
HETATM    6  N   UNL     1      -4.099   0.010 -31.916  1.00  0.00    -0.351 N 
HETATM    7  C   UNL     1      -3.926  -1.299 -32.296  1.00  0.00     0.043 A 
HETATM    8  H   UNL     1      -3.624   0.460 -31.144  1.00  0.00     0.166 HD
HETATM    9  C   UNL     1      -4.752  -1.527 -33.393  1.00  0.00    -0.001 A 
HETATM   10  C   UNL     1      -3.104  -2.284 -31.748  1.00  0.00     0.031 A 
HETATM   11  C   UNL     1      -4.783  -2.812 -33.996  1.00  0.00    -0.043 A 
HETATM   12  C   UNL     1      -5.410  -0.287 -33.664  1.00  0.00     0.049 A 
HETATM   13  C   UNL     1      -3.926  -3.814 -33.467  1.00  0.00    -0.055 A 
HETATM   14  C   UNL     1      -5.664  -3.118 -35.180  1.00  0.00     0.049 C 
HETATM   15  C   UNL     1      -3.883  -5.196 -34.068  1.00  0.00     0.049 C 
HETATM   16  C   UNL     1      -3.115  -3.540 -32.356  1.00  0.00     0.009 A 
ENDBRANCH   1   5
BRANCH   2  17
HETATM   17  C   UNL     1      -4.264   4.333 -32.600  1.00  0.00     0.147 C 
HETATM   18  C   UNL     1      -4.747   5.196 -33.808  1.00  0.00     0.149 C 
HETATM   19  C   UNL     1      -3.477   5.633 -34.566  1.00  0.00     0.073 C 
HETATM   20  C   UNL     1      -2.445   5.617 -33.481  1.00  0.00    -0.047 A 
HETATM   21  C   UNL     1      -2.889   4.891 -32.370  1.00  0.00    -0.027 A 
HETATM   22  C   UNL     1      -1.179   6.176 -33.507  1.00  0.00     0.008 A 
HETATM   23  C   UNL     1      -2.073   4.709 -31.263  1.00  0.00     0.010 A 
HETATM   24  C   UNL     1      -0.799   5.277 -31.277  1.00  0.00     0.001 A 
HETATM   25  C   UNL     1      -0.355   6.006 -32.392  1.00  0.00     0.001 A 
BRANCH  18  26
HETATM   26  O   UNL     1      -5.652   4.536 -34.688  1.00  0.00    -0.393 OA
HETATM   27  H   UNL     1      -6.263   4.015 -34.126  1.00  0.00     0.210 HD
ENDBRANCH  18  26
ENDBRANCH   2  17
TORSDOF 3
ENDMDL
MODEL 4
REMARK VINA RESULT:      -8.6      3.520      5.003
REMARK  3 active torsions:
REMARK  status: ('A' for Active; 'I' for Inactive)
REMARK    1  A    between atoms: C_9  and  C_10 
REMARK       I    between atoms: C_10  and  N_11 
REMARK    2  A    between atoms: N_11  and  C_12 
REMARK    3  A    between atoms: C_13  and  O_14 
ROOT
HETATM    1  C   UNL     1      -1.940   4.435 -32.045  1.00  0.00     0.268 C 
HETATM    2  N   UNL     1      -1.388   4.724 -30.826  1.00  0.00    -0.344 N 
HETATM    3  O   UNL     1      -1.472   4.891 -33.087  1.00  0.00    -0.266 OA
HETATM    4  H   UNL     1      -1.753   4.287 -29.993  1.00  0.00     0.163 HD
ENDROOT
BRANCH   1   5
HETATM    5  C   UNL     1      -3.106   3.585 -32.017  1.00  0.00     0.102 A 
HETATM    6  N   UNL     1      -3.230   2.565 -31.101  1.00  0.00    -0.351 N 
HETATM    7  C   UNL     1      -4.376   1.839 -31.319  1.00  0.00     0.043 A 
HETATM    8  H   UNL     1      -2.538   2.361 -30.392  1.00  0.00     0.166 HD
HETATM    9  C   UNL     1      -5.054   2.438 -32.377  1.00  0.00    -0.001 A 
HETATM   10  C   UNL     1      -4.852   0.706 -30.659  1.00  0.00     0.031 A 
HETATM   11  C   UNL     1      -6.290   1.896 -32.819  1.00  0.00    -0.043 A 
HETATM   12  C   UNL     1      -4.248   3.543 -32.795  1.00  0.00     0.049 A 
HETATM   13  C   UNL     1      -6.769   0.723 -32.175  1.00  0.00    -0.055 A 
HETATM   14  C   UNL     1      -7.071   2.509 -33.953  1.00  0.00     0.049 C 
HETATM   15  C   UNL     1      -8.060   0.074 -32.602  1.00  0.00     0.049 C 
HETATM   16  C   UNL     1      -6.054   0.159 -31.108  1.00  0.00     0.009 A 
ENDBRANCH   1   5
BRANCH   2  17
HETATM   17  C   UNL     1      -0.318   5.689 -30.679  1.00  0.00     0.147 C 
HETATM   18  C   UNL     1       0.750   5.327 -29.598  1.00  0.00     0.149 C 
HETATM   19  C   UNL     1       0.281   5.987 -28.286  1.00  0.00     0.073 C 
HETATM   20  C   UNL     1      -0.525   7.144 -28.789  1.00  0.00    -0.047 A 
HETATM   21  C   UNL     1      -0.858   6.981 -30.139  1.00  0.00    -0.027 A 
HETATM   22  C   UNL     1      -0.968   8.244 -28.074  1.00  0.00     0.008 A 
HETATM   23  C   UNL     1      -1.642   7.916 -30.799  1.00  0.00     0.010 A 
HETATM   24  C   UNL     1      -2.085   9.032 -30.088  1.00  0.00     0.001 A 
HETATM   25  C   UNL     1      -1.750   9.194 -28.734  1.00  0.00     0.001 A 
BRANCH  18  26
HETATM   26  O   UNL     1       0.957   3.930 -29.409  1.00  0.00    -0.393 OA
HETATM   27  H   UNL     1       0.140   3.576 -29.000  1.00  0.00     0.210 HD
ENDBRANCH  18  26
ENDBRANCH   2  17
TORSDOF 3
ENDMDL
MODEL 5
REMARK VINA RESULT:      -8.3      1.766      7.975
REMARK  3 active torsions:
REMARK  status: ('A' for Active; 'I' for Inactive)
REMARK    1  A    between atoms: C_9  and  C_10 
REMARK       I    between atoms: C_10  and  N_11 
REMARK    2  A    between atoms: N_11  and  C_12 
REMARK    3  A    between atoms: C_13  and  O_14 
ROOT
HETATM    1  C   UNL     1      -4.723   1.887 -30.767  1.00  0.00     0.268 C 
HETATM    2  N   UNL     1      -4.270   0.868 -31.561  1.00  0.00    -0.344 N 
HETATM    3  O   UNL     1      -5.589   1.701 -29.913  1.00  0.00    -0.266 OA
HETATM    4  H   UNL     1      -3.515   1.034 -32.210  1.00  0.00     0.163 HD
ENDROOT
BRANCH   1   5
HETATM    5  C   UNL     1      -4.133   3.181 -31.014  1.00  0.00     0.102 A 
HETATM    6  N   UNL     1      -2.806   3.313 -31.356  1.00  0.00    -0.351 N 
HETATM    7  C   UNL     1      -2.449   4.636 -31.456  1.00  0.00     0.043 A 
HETATM    8  H   UNL     1      -2.177   2.529 -31.472  1.00  0.00     0.166 HD
HETATM    9  C   UNL     1      -3.593   5.395 -31.229  1.00  0.00    -0.001 A 
HETATM   10  C   UNL     1      -1.204   5.204 -31.730  1.00  0.00     0.031 A 
HETATM   11  C   UNL     1      -3.520   6.812 -31.278  1.00  0.00    -0.043 A 
HETATM   12  C   UNL     1      -4.646   4.464 -30.966  1.00  0.00     0.049 A 
HETATM   13  C   UNL     1      -2.251   7.403 -31.524  1.00  0.00    -0.055 A 
HETATM   14  C   UNL     1      -4.728   7.683 -31.048  1.00  0.00     0.049 C 
HETATM   15  C   UNL     1      -2.086   8.900 -31.568  1.00  0.00     0.049 C 
HETATM   16  C   UNL     1      -1.126   6.596 -31.754  1.00  0.00     0.009 A 
ENDBRANCH   1   5
BRANCH   2  17
HETATM   17  C   UNL     1      -4.878  -0.446 -31.542  1.00  0.00     0.147 C 
HETATM   18  C   UNL     1      -3.920  -1.620 -31.922  1.00  0.00     0.149 C 
HETATM   19  C   UNL     1      -4.065  -1.824 -33.444  1.00  0.00     0.073 C 
HETATM   20  C   UNL     1      -5.454  -1.322 -33.695  1.00  0.00    -0.047 A 
HETATM   21  C   UNL     1      -5.916  -0.551 -32.623  1.00  0.00    -0.027 A 
HETATM   22  C   UNL     1      -6.229  -1.505 -34.827  1.00  0.00     0.008 A 
HETATM   23  C   UNL     1      -7.164   0.052 -32.662  1.00  0.00     0.010 A 
HETATM   24  C   UNL     1      -7.956  -0.135 -33.795  1.00  0.00     0.001 A 
HETATM   25  C   UNL     1      -7.492  -0.909 -34.870  1.00  0.00     0.001 A 
BRANCH  18  26
HETATM   26  O   UNL     1      -2.555  -1.411 -31.574  1.00  0.00    -0.393 OA
HETATM   27  H   UNL     1      -2.232  -2.249 -31.182  1.00  0.00     0.210 HD
ENDBRANCH  18  26
ENDBRANCH   2  17
TORSDOF 3
ENDMDL
MODEL 6
REMARK VINA RESULT:      -8.1      2.374      3.834
REMARK  3 active torsions:
REMARK  status: ('A' for Active; 'I' for Inactive)
REMARK    1  A    between atoms: C_9  and  C_10 
REMARK       I    between atoms: C_10  and  N_11 
REMARK    2  A    between atoms: N_11  and  C_12 
REMARK    3  A    between atoms: C_13  and  O_14 
ROOT
HETATM    1  C   UNL     1      -6.689   1.836 -33.632  1.00  0.00     0.268 C 
HETATM    2  N   UNL     1      -5.932   2.897 -33.213  1.00  0.00    -0.344 N 
HETATM    3  O   UNL     1      -7.835   1.990 -34.053  1.00  0.00    -0.266 OA
HETATM    4  H   UNL     1      -4.974   2.751 -32.931  1.00  0.00     0.163 HD
ENDROOT
BRANCH   1   5
HETATM    5  C   UNL     1      -6.063   0.541 -33.524  1.00  0.00     0.102 A 
HETATM    6  N   UNL     1      -5.116   0.278 -32.560  1.00  0.00    -0.351 N 
HETATM    7  C   UNL     1      -4.599  -0.987 -32.704  1.00  0.00     0.043 A 
HETATM    8  H   UNL     1      -4.820   0.953 -31.867  1.00  0.00     0.166 HD
HETATM    9  C   UNL     1      -5.270  -1.593 -33.763  1.00  0.00    -0.001 A 
HETATM   10  C   UNL     1      -3.595  -1.627 -31.977  1.00  0.00     0.031 A 
HETATM   11  C   UNL     1      -4.940  -2.923 -34.135  1.00  0.00    -0.043 A 
HETATM   12  C   UNL     1      -6.196  -0.624 -34.258  1.00  0.00     0.049 A 
HETATM   13  C   UNL     1      -3.897  -3.573 -33.423  1.00  0.00    -0.055 A 
HETATM   14  C   UNL     1      -5.639  -3.632 -35.267  1.00  0.00     0.049 C 
HETATM   15  C   UNL     1      -3.473  -4.976 -33.774  1.00  0.00     0.049 C 
HETATM   16  C   UNL     1      -3.254  -2.925 -32.358  1.00  0.00     0.009 A 
ENDBRANCH   1   5
BRANCH   2  17
HETATM   17  C   UNL     1      -6.478   4.235 -33.109  1.00  0.00     0.147 C 
HETATM   18  C   UNL     1      -5.606   5.354 -33.763  1.00  0.00     0.149 C 
HETATM   19  C   UNL     1      -4.682   5.889 -32.651  1.00  0.00     0.073 C 
HETATM   20  C   UNL     1      -5.479   5.602 -31.417  1.00  0.00    -0.047 A 
HETATM   21  C   UNL     1      -6.495   4.675 -31.674  1.00  0.00    -0.027 A 
HETATM   22  C   UNL     1      -5.277   6.103 -30.142  1.00  0.00     0.008 A 
HETATM   23  C   UNL     1      -7.329   4.230 -30.659  1.00  0.00     0.010 A 
HETATM   24  C   UNL     1      -7.139   4.736 -29.373  1.00  0.00     0.001 A 
HETATM   25  C   UNL     1      -6.119   5.667 -29.116  1.00  0.00     0.001 A 
BRANCH  18  26
HETATM   26  O   UNL     1      -4.843   4.932 -34.889  1.00  0.00    -0.393 OA
HETATM   27  H   UNL     1      -3.924   4.801 -34.574  1.00  0.00     0.210 HD
ENDBRANCH  18  26
ENDBRANCH   2  17
TORSDOF 3
ENDMDL
MODEL 7
REMARK VINA RESULT:      -8.1      5.488      7.736
REMARK  3 active torsions:
REMARK  status: ('A' for Active; 'I' for Inactive)
REMARK    1  A    between atoms: C_9  and  C_10 
REMARK       I    between atoms: C_10  and  N_11 
REMARK    2  A    between atoms: N_11  and  C_12 
REMARK    3  A    between atoms: C_13  and  O_14 
ROOT
HETATM    1  C   UNL     1      -9.375   3.054 -34.136  1.00  0.00     0.268 C 
HETATM    2  N   UNL     1     -10.615   2.679 -33.693  1.00  0.00    -0.344 N 
HETATM    3  O   UNL     1      -9.171   4.171 -34.610  1.00  0.00    -0.266 OA
HETATM    4  H   UNL     1     -10.741   1.780 -33.253  1.00  0.00     0.163 HD
ENDROOT
BRANCH   1   5
HETATM    5  C   UNL     1      -8.344   2.050 -34.030  1.00  0.00     0.102 A 
HETATM    6  N   UNL     1      -8.377   0.902 -34.790  1.00  0.00    -0.351 N 
HETATM    7  C   UNL     1      -7.345   0.057 -34.458  1.00  0.00     0.043 A 
HETATM    8  H   UNL     1      -9.097   0.702 -35.471  1.00  0.00     0.166 HD
HETATM    9  C   UNL     1      -6.579   0.697 -33.488  1.00  0.00    -0.001 A 
HETATM   10  C   UNL     1      -7.044  -1.215 -34.945  1.00  0.00     0.031 A 
HETATM   11  C   UNL     1      -5.430   0.051 -32.959  1.00  0.00    -0.043 A 
HETATM   12  C   UNL     1      -7.213   1.954 -33.240  1.00  0.00     0.049 A 
HETATM   13  C   UNL     1      -5.132  -1.258 -33.425  1.00  0.00    -0.055 A 
HETATM   14  C   UNL     1      -4.559   0.699 -31.914  1.00  0.00     0.049 C 
HETATM   15  C   UNL     1      -3.944  -2.020 -32.894  1.00  0.00     0.049 C 
HETATM   16  C   UNL     1      -5.930  -1.860 -34.409  1.00  0.00     0.009 A 
ENDBRANCH   1   5
BRANCH   2  17
HETATM   17  C   UNL     1     -11.781   3.517 -33.882  1.00  0.00     0.147 C 
HETATM   18  C   UNL     1     -11.997   4.603 -32.780  1.00  0.00     0.149 C 
HETATM   19  C   UNL     1     -12.909   3.964 -31.714  1.00  0.00     0.073 C 
HETATM   20  C   UNL     1     -13.663   2.948 -32.516  1.00  0.00    -0.047 A 
HETATM   21  C   UNL     1     -13.033   2.700 -33.740  1.00  0.00    -0.027 A 
HETATM   22  C   UNL     1     -14.808   2.261 -32.151  1.00  0.00     0.008 A 
HETATM   23  C   UNL     1     -13.536   1.757 -34.624  1.00  0.00     0.010 A 
HETATM   24  C   UNL     1     -14.696   1.067 -34.269  1.00  0.00     0.001 A 
HETATM   25  C   UNL     1     -15.327   1.317 -33.040  1.00  0.00     0.001 A 
BRANCH  18  26
HETATM   26  O   UNL     1     -10.800   5.094 -32.186  1.00  0.00    -0.393 OA
HETATM   27  H   UNL     1     -10.713   6.031 -32.456  1.00  0.00     0.210 HD
ENDBRANCH  18  26
ENDBRANCH   2  17
TORSDOF 3
ENDMDL
MODEL 8
REMARK VINA RESULT:      -8.0      3.638      4.724
REMARK  3 active torsions:
REMARK  status: ('A' for Active; 'I' for Inactive)
REMARK    1  A    between atoms: C_9  and  C_10 
REMARK       I    between atoms: C_10  and  N_11 
REMARK    2  A    between atoms: N_11  and  C_12 
REMARK    3  A    between atoms: C_13  and  O_14 
ROOT
HETATM    1  C   UNL     1      -6.013   2.059 -31.907  1.00  0.00     0.268 C 
HETATM    2  N   UNL     1      -7.336   2.352 -32.101  1.00  0.00    -0.344 N 
HETATM    3  O   UNL     1      -5.252   2.850 -31.350  1.00  0.00    -0.266 OA
HETATM    4  H   UNL     1      -7.950   1.661 -32.504  1.00  0.00     0.163 HD
ENDROOT
BRANCH   1   5
HETATM    5  C   UNL     1      -5.576   0.781 -32.417  1.00  0.00     0.102 A 
HETATM    6  N   UNL     1      -6.144   0.223 -33.540  1.00  0.00    -0.351 N 
HETATM    7  C   UNL     1      -5.632  -1.029 -33.785  1.00  0.00     0.043 A 
HETATM    8  H   UNL     1      -6.873   0.670 -34.080  1.00  0.00     0.166 HD
HETATM    9  C   UNL     1      -4.656  -1.275 -32.823  1.00  0.00    -0.001 A 
HETATM   10  C   UNL     1      -5.964  -1.948 -34.780  1.00  0.00     0.031 A 
HETATM   11  C   UNL     1      -3.947  -2.505 -32.839  1.00  0.00    -0.043 A 
HETATM   12  C   UNL     1      -4.623  -0.122 -31.980  1.00  0.00     0.049 A 
HETATM   13  C   UNL     1      -4.299  -3.462 -33.829  1.00  0.00    -0.055 A 
HETATM   14  C   UNL     1      -2.874  -2.822 -31.829  1.00  0.00     0.049 C 
HETATM   15  C   UNL     1      -3.610  -4.801 -33.896  1.00  0.00     0.049 C 
HETATM   16  C   UNL     1      -5.286  -3.166 -34.782  1.00  0.00     0.009 A 
ENDBRANCH   1   5
BRANCH   2  17
HETATM   17  C   UNL     1      -7.884   3.657 -31.791  1.00  0.00     0.147 C 
HETATM   18  C   UNL     1      -8.415   3.817 -30.330  1.00  0.00     0.149 C 
HETATM   19  C   UNL     1      -9.911   3.449 -30.369  1.00  0.00     0.073 C 
HETATM   20  C   UNL     1     -10.275   3.770 -31.786  1.00  0.00    -0.047 A 
HETATM   21  C   UNL     1      -9.135   3.894 -32.587  1.00  0.00    -0.027 A 
HETATM   22  C   UNL     1     -11.543   3.896 -32.327  1.00  0.00     0.008 A 
HETATM   23  C   UNL     1      -9.241   4.146 -33.946  1.00  0.00     0.010 A 
HETATM   24  C   UNL     1     -10.514   4.283 -34.499  1.00  0.00     0.001 A 
HETATM   25  C   UNL     1     -11.658   4.159 -33.694  1.00  0.00     0.001 A 
BRANCH  18  26
HETATM   26  O   UNL     1      -7.731   3.032 -29.359  1.00  0.00    -0.393 OA
HETATM   27  H   UNL     1      -7.903   2.094 -29.581  1.00  0.00     0.210 HD
ENDBRANCH  18  26
ENDBRANCH   2  17
TORSDOF 3
ENDMDL
MODEL 9
REMARK VINA RESULT:      -8.0      2.341      3.628
REMARK  3 active torsions:
REMARK  status: ('A' for Active; 'I' for Inactive)
REMARK    1  A    between atoms: C_9  and  C_10 
REMARK       I    between atoms: C_10  and  N_11 
REMARK    2  A    between atoms: N_11  and  C_12 
REMARK    3  A    between atoms: C_13  and  O_14 
ROOT
HETATM    1  C   UNL     1      -4.248   1.940 -31.831  1.00  0.00     0.268 C 
HETATM    2  N   UNL     1      -5.469   2.557 -31.772  1.00  0.00    -0.344 N 
HETATM    3  O   UNL     1      -3.206   2.550 -31.597  1.00  0.00    -0.266 OA
HETATM    4  H   UNL     1      -6.312   2.019 -31.908  1.00  0.00     0.163 HD
ENDROOT
BRANCH   1   5
HETATM    5  C   UNL     1      -4.271   0.546 -32.204  1.00  0.00     0.102 A 
HETATM    6  N   UNL     1      -3.492  -0.385 -31.554  1.00  0.00    -0.351 N 
HETATM    7  C   UNL     1      -3.613  -1.625 -32.135  1.00  0.00     0.043 A 
HETATM    8  H   UNL     1      -2.883  -0.162 -30.778  1.00  0.00     0.166 HD
HETATM    9  C   UNL     1      -4.544  -1.515 -33.164  1.00  0.00    -0.001 A 
HETATM   10  C   UNL     1      -2.967  -2.821 -31.822  1.00  0.00     0.031 A 
HETATM   11  C   UNL     1      -4.875  -2.657 -33.940  1.00  0.00    -0.043 A 
HETATM   12  C   UNL     1      -4.958  -0.147 -33.185  1.00  0.00     0.049 A 
HETATM   13  C   UNL     1      -4.199  -3.874 -33.651  1.00  0.00    -0.055 A 
HETATM   14  C   UNL     1      -5.882  -2.598 -35.060  1.00  0.00     0.049 C 
HETATM   15  C   UNL     1      -4.477  -5.124 -34.446  1.00  0.00     0.049 C 
HETATM   16  C   UNL     1      -3.273  -3.938 -32.600  1.00  0.00     0.009 A 
ENDBRANCH   1   5
BRANCH   2  17
HETATM   17  C   UNL     1      -5.596   3.985 -31.570  1.00  0.00     0.147 C 
HETATM   18  C   UNL     1      -5.803   4.424 -30.085  1.00  0.00     0.149 C 
HETATM   19  C   UNL     1      -7.327   4.486 -29.859  1.00  0.00     0.073 C 
HETATM   20  C   UNL     1      -7.836   4.762 -31.240  1.00  0.00    -0.047 A 
HETATM   21  C   UNL     1      -6.861   4.486 -32.205  1.00  0.00    -0.027 A 
HETATM   22  C   UNL     1      -9.102   5.185 -31.607  1.00  0.00     0.008 A 
HETATM   23  C   UNL     1      -7.134   4.629 -33.557  1.00  0.00     0.010 A 
HETATM   24  C   UNL     1      -8.404   5.064 -33.936  1.00  0.00     0.001 A 
HETATM   25  C   UNL     1      -9.382   5.341 -32.967  1.00  0.00     0.001 A 
BRANCH  18  26
HETATM   26  O   UNL     1      -5.188   3.574 -29.122  1.00  0.00    -0.393 OA
HETATM   27  H   UNL     1      -5.102   4.096 -28.298  1.00  0.00     0.210 HD
ENDBRANCH  18  26
ENDBRANCH   2  17
TORSDOF 3
ENDMDL
MODEL 10
REMARK VINA RESULT:      -7.9      5.644      7.468
REMARK  3 active torsions:
REMARK  status: ('A' for Active; 'I' for Inactive)
REMARK    1  A    between atoms: C_9  and  C_10 
REMARK       I    between atoms: C_10  and  N_11 
REMARK    2  A    between atoms: N_11  and  C_12 
REMARK    3  A    between atoms: C_13  and  O_14 
ROOT
HETATM    1  C   UNL     1     -10.673   0.614 -33.124  1.00  0.00     0.268 C 
HETATM    2  N   UNL     1     -10.954   1.930 -33.376  1.00  0.00    -0.344 N 
HETATM    3  O   UNL     1     -11.543  -0.253 -33.191  1.00  0.00    -0.266 OA
HETATM    4  H   UNL     1     -10.210   2.612 -33.375  1.00  0.00     0.163 HD
ENDROOT
BRANCH   1   5
HETATM    5  C   UNL     1      -9.308   0.326 -32.758  1.00  0.00     0.102 A 
HETATM    6  N   UNL     1      -8.787   0.731 -31.549  1.00  0.00    -0.351 N 
HETATM    7  C   UNL     1      -7.450   0.424 -31.456  1.00  0.00     0.043 A 
HETATM    8  H   UNL     1      -9.320   1.227 -30.847  1.00  0.00     0.166 HD
HETATM    9  C   UNL     1      -7.098  -0.255 -32.619  1.00  0.00    -0.001 A 
HETATM   10  C   UNL     1      -6.543   0.698 -30.433  1.00  0.00     0.031 A 
HETATM   11  C   UNL     1      -5.762  -0.705 -32.794  1.00  0.00    -0.043 A 
HETATM   12  C   UNL     1      -8.280  -0.320 -33.420  1.00  0.00     0.049 A 
HETATM   13  C   UNL     1      -4.821  -0.403 -31.773  1.00  0.00    -0.055 A 
HETATM   14  C   UNL     1      -5.326  -1.452 -34.028  1.00  0.00     0.049 C 
HETATM   15  C   UNL     1      -3.379  -0.824 -31.896  1.00  0.00     0.049 C 
HETATM   16  C   UNL     1      -5.225   0.278 -30.615  1.00  0.00     0.009 A 
ENDBRANCH   1   5
BRANCH   2  17
HETATM   17  C   UNL     1     -12.307   2.396 -33.597  1.00  0.00     0.147 C 
HETATM   18  C   UNL     1     -12.744   2.462 -35.096  1.00  0.00     0.149 C 
HETATM   19  C   UNL     1     -12.415   3.888 -35.581  1.00  0.00     0.073 C 
HETATM   20  C   UNL     1     -12.485   4.675 -34.309  1.00  0.00    -0.047 A 
HETATM   21  C   UNL     1     -12.431   3.836 -33.191  1.00  0.00    -0.027 A 
HETATM   22  C   UNL     1     -12.546   6.051 -34.166  1.00  0.00     0.008 A 
HETATM   23  C   UNL     1     -12.435   4.358 -31.906  1.00  0.00     0.010 A 
HETATM   24  C   UNL     1     -12.506   5.743 -31.752  1.00  0.00     0.001 A 
HETATM   25  C   UNL     1     -12.561   6.584 -32.875  1.00  0.00     0.001 A 
BRANCH  18  26
HETATM   26  O   UNL     1     -12.129   1.493 -35.938  1.00  0.00    -0.393 OA
HETATM   27  H   UNL     1     -11.657   1.987 -36.641  1.00  0.00     0.210 HD
ENDBRANCH  18  26
ENDBRANCH   2  17
TORSDOF 3
ENDMDL
