MODEL 1
REMARK VINA RESULT:     -10.7      0.000      0.000
REMARK  7 active torsions:
REMARK  status: ('A' for Active; 'I' for Inactive)
REMARK    1  A    between atoms: C_5  and  N_6 
REMARK       I    between atoms: N_6  and  C_7 
REMARK    2  A    between atoms: C_7  and  C_8 
REMARK    3  A    between atoms: C_8  and  N_9 
REMARK    4  A    between atoms: N_12  and  C_13 
REMARK    5  A    between atoms: C_13  and  C_14 
REMARK    6  A    between atoms: C_29  and  C_30 
REMARK       I    between atoms: C_30  and  N_31 
REMARK    7  A    between atoms: N_31  and  C_32 
ROOT
HETATM    1  N   UNL     1      -6.001   2.713 -31.859  1.00  0.00    -0.290 N 
HETATM    2  C   UNL     1      -7.012   1.892 -32.330  1.00  0.00     0.332 C 
HETATM    3  O   UNL     1      -6.808   1.138 -33.286  1.00  0.00    -0.246 OA
HETATM    4  N   UNL     1      -8.231   1.962 -31.677  1.00  0.00    -0.261 N 
HETATM    5  C   UNL     1      -8.575   2.940 -30.759  1.00  0.00     0.264 C 
HETATM    6  O   UNL     1      -9.669   3.014 -30.205  1.00  0.00    -0.267 OA
HETATM    7  C   UNL     1      -7.538   3.933 -30.430  1.00  0.00     0.059 A 
HETATM    8  C   UNL     1      -6.258   3.785 -30.966  1.00  0.00     0.056 A 
HETATM    9  C   UNL     1      -7.839   4.978 -29.542  1.00  0.00     0.020 A 
HETATM   10  C   UNL     1      -6.851   5.891 -29.176  1.00  0.00     0.018 A 
HETATM   11  C   UNL     1      -5.563   5.754 -29.697  1.00  0.00     0.034 A 
HETATM   12  C   UNL     1      -5.276   4.716 -30.603  1.00  0.00     0.048 A 
ENDROOT
BRANCH   1  13
HETATM   13  C   UNL     1      -4.625   2.357 -32.221  1.00  0.00     0.237 C 
BRANCH  13  14
HETATM   14  C   UNL     1      -4.216   0.910 -31.947  1.00  0.00     0.240 C 
HETATM   15  N   UNL     1      -4.149   0.123 -33.082  1.00  0.00    -0.326 N 
HETATM   16  H   UNL     1      -4.317   0.594 -33.969  1.00  0.00     0.169 HD
HETATM   17  O   UNL     1      -4.093   0.528 -30.786  1.00  0.00    -0.271 OA
BRANCH  15  18
HETATM   18  C   UNL     1      -3.966  -1.275 -33.141  1.00  0.00     0.034 A 
HETATM   19  C   UNL     1      -3.301  -2.016 -32.164  1.00  0.00     0.030 A 
HETATM   20  C   UNL     1      -3.199  -3.409 -32.270  1.00  0.00     0.009 A 
HETATM   21  C   UNL     1      -3.762  -4.083 -33.356  1.00  0.00    -0.062 A 
HETATM   22  C   UNL     1      -3.628  -5.572 -33.474  1.00  0.00     0.048 C 
HETATM   23  C   UNL     1      -4.402  -3.340 -34.352  1.00  0.00     0.009 A 
HETATM   24  C   UNL     1      -4.512  -1.949 -34.240  1.00  0.00     0.030 A 
ENDBRANCH  15  18
ENDBRANCH  13  14
ENDBRANCH   1  13
BRANCH   4  25
HETATM   25  C   UNL     1      -9.175   0.873 -31.903  1.00  0.00     0.175 C 
BRANCH  25  26
HETATM   26  C   UNL     1     -10.154   1.252 -33.002  1.00  0.00    -0.037 A 
HETATM   27  C   UNL     1     -10.005   2.466 -33.696  1.00  0.00     0.048 A 
HETATM   28  C   UNL     1     -10.988   2.825 -34.595  1.00  0.00     0.105 A 
HETATM   29  C   UNL     1     -12.085   2.030 -34.828  1.00  0.00     0.105 A 
HETATM   30  O   UNL     1     -11.020   3.977 -35.318  1.00  0.00    -0.323 OA
HETATM   31  O   UNL     1     -12.943   2.580 -35.728  1.00  0.00    -0.323 OA
HETATM   32  C   UNL     1     -12.258   0.827 -34.183  1.00  0.00     0.040 A 
HETATM   33  C   UNL     1     -12.272   3.824 -36.018  1.00  0.00     0.352 A 
HETATM   34  C   UNL     1     -11.284   0.438 -33.259  1.00  0.00     0.012 A 
ENDBRANCH  25  26
ENDBRANCH   4  25
BRANCH  11  35
HETATM   35  C   UNL     1      -4.465   6.692 -29.344  1.00  0.00     0.252 C 
HETATM   36  N   UNL     1      -3.211   6.343 -29.790  1.00  0.00    -0.352 N 
HETATM   37  H   UNL     1      -3.150   5.564 -30.430  1.00  0.00     0.163 HD
HETATM   38  O   UNL     1      -4.741   7.710 -28.731  1.00  0.00    -0.268 OA
BRANCH  36  39
HETATM   39  C   UNL     1      -2.004   7.166 -29.698  1.00  0.00     0.084 C 
HETATM   40  C   UNL     1      -0.827   6.434 -29.042  1.00  0.00     0.025 C 
HETATM   41  C   UNL     1       0.093   5.709 -30.017  1.00  0.00     0.002 C 
HETATM   42  C   UNL     1       0.544   6.626 -31.146  1.00  0.00     0.000 C 
HETATM   43  C   UNL     1      -0.636   7.220 -31.903  1.00  0.00     0.002 C 
HETATM   44  C   UNL     1      -1.634   7.921 -30.984  1.00  0.00     0.025 C 
ENDBRANCH  36  39
ENDBRANCH  11  35
TORSDOF 7
ENDMDL
MODEL 2
REMARK VINA RESULT:     -10.7      2.148      3.066
REMARK  7 active torsions:
REMARK  status: ('A' for Active; 'I' for Inactive)
REMARK    1  A    between atoms: C_5  and  N_6 
REMARK       I    between atoms: N_6  and  C_7 
REMARK    2  A    between atoms: C_7  and  C_8 
REMARK    3  A    between atoms: C_8  and  N_9 
REMARK    4  A    between atoms: N_12  and  C_13 
REMARK    5  A    between atoms: C_13  and  C_14 
REMARK    6  A    between atoms: C_29  and  C_30 
REMARK       I    between atoms: C_30  and  N_31 
REMARK    7  A    between atoms: N_31  and  C_32 
ROOT
HETATM    1  N   UNL     1      -6.646   3.375 -30.877  1.00  0.00    -0.290 N 
HETATM    2  C   UNL     1      -8.014   3.392 -31.089  1.00  0.00     0.332 C 
HETATM    3  O   UNL     1      -8.695   2.390 -30.851  1.00  0.00    -0.246 OA
HETATM    4  N   UNL     1      -8.560   4.571 -31.567  1.00  0.00    -0.261 N 
HETATM    5  C   UNL     1      -7.821   5.635 -32.059  1.00  0.00     0.264 C 
HETATM    6  O   UNL     1      -8.312   6.667 -32.509  1.00  0.00    -0.267 OA
HETATM    7  C   UNL     1      -6.355   5.501 -32.012  1.00  0.00     0.059 A 
HETATM    8  C   UNL     1      -5.793   4.383 -31.395  1.00  0.00     0.056 A 
HETATM    9  C   UNL     1      -5.551   6.525 -32.538  1.00  0.00     0.020 A 
HETATM   10  C   UNL     1      -4.162   6.438 -32.447  1.00  0.00     0.018 A 
HETATM   11  C   UNL     1      -3.582   5.330 -31.827  1.00  0.00     0.034 A 
HETATM   12  C   UNL     1      -4.396   4.299 -31.320  1.00  0.00     0.048 A 
ENDROOT
BRANCH   1  13
HETATM   13  C   UNL     1      -6.119   2.336 -29.985  1.00  0.00     0.237 C 
BRANCH  13  14
HETATM   14  C   UNL     1      -6.098   0.917 -30.551  1.00  0.00     0.240 C 
HETATM   15  N   UNL     1      -5.825   0.859 -31.906  1.00  0.00    -0.326 N 
HETATM   16  H   UNL     1      -5.612   1.744 -32.362  1.00  0.00     0.169 HD
HETATM   17  O   UNL     1      -6.423  -0.024 -29.832  1.00  0.00    -0.271 OA
BRANCH  15  18
HETATM   18  C   UNL     1      -5.899  -0.273 -32.744  1.00  0.00     0.034 A 
HETATM   19  C   UNL     1      -7.060  -0.681 -33.402  1.00  0.00     0.030 A 
HETATM   20  C   UNL     1      -7.045  -1.792 -34.254  1.00  0.00     0.009 A 
HETATM   21  C   UNL     1      -5.867  -2.514 -34.463  1.00  0.00    -0.062 A 
HETATM   22  C   UNL     1      -5.865  -3.716 -35.360  1.00  0.00     0.048 C 
HETATM   23  C   UNL     1      -4.710  -2.126 -33.781  1.00  0.00     0.009 A 
HETATM   24  C   UNL     1      -4.724  -1.009 -32.937  1.00  0.00     0.030 A 
ENDBRANCH  15  18
ENDBRANCH  13  14
ENDBRANCH   1  13
BRANCH   4  25
HETATM   25  C   UNL     1     -10.005   4.737 -31.450  1.00  0.00     0.175 C 
BRANCH  25  26
HETATM   26  C   UNL     1     -10.704   4.030 -32.599  1.00  0.00    -0.037 A 
HETATM   27  C   UNL     1     -11.850   3.251 -32.361  1.00  0.00     0.048 A 
HETATM   28  C   UNL     1     -12.375   2.528 -33.411  1.00  0.00     0.105 A 
HETATM   29  C   UNL     1     -11.815   2.559 -34.666  1.00  0.00     0.105 A 
HETATM   30  O   UNL     1     -13.451   1.699 -33.345  1.00  0.00    -0.323 OA
HETATM   31  O   UNL     1     -12.469   1.756 -35.547  1.00  0.00    -0.323 OA
HETATM   32  C   UNL     1     -10.704   3.322 -34.945  1.00  0.00     0.040 A 
HETATM   33  C   UNL     1     -13.492   1.197 -34.697  1.00  0.00     0.352 A 
HETATM   34  C   UNL     1     -10.143   4.061 -33.899  1.00  0.00     0.012 A 
ENDBRANCH  25  26
ENDBRANCH   4  25
BRANCH  11  35
HETATM   35  C   UNL     1      -2.109   5.181 -31.695  1.00  0.00     0.252 C 
HETATM   36  N   UNL     1      -1.473   6.146 -30.949  1.00  0.00    -0.352 N 
HETATM   37  H   UNL     1      -2.057   6.795 -30.440  1.00  0.00     0.163 HD
HETATM   38  O   UNL     1      -1.571   4.213 -32.208  1.00  0.00    -0.268 OA
BRANCH  36  39
HETATM   39  C   UNL     1      -0.063   6.141 -30.555  1.00  0.00     0.084 C 
HETATM   40  C   UNL     1       0.507   7.549 -30.344  1.00  0.00     0.025 C 
HETATM   41  C   UNL     1       0.410   8.065 -28.913  1.00  0.00     0.002 C 
HETATM   42  C   UNL     1       0.975   7.061 -27.917  1.00  0.00     0.000 C 
HETATM   43  C   UNL     1       0.286   5.707 -28.020  1.00  0.00     0.002 C 
HETATM   44  C   UNL     1       0.294   5.146 -29.439  1.00  0.00     0.025 C 
ENDBRANCH  36  39
ENDBRANCH  11  35
TORSDOF 7
ENDMDL
MODEL 3
REMARK VINA RESULT:     -10.6      2.372      8.722
REMARK  7 active torsions:
REMARK  status: ('A' for Active; 'I' for Inactive)
REMARK    1  A    between atoms: C_5  and  N_6 
REMARK       I    between atoms: N_6  and  C_7 
REMARK    2  A    between atoms: C_7  and  C_8 
REMARK    3  A    between atoms: C_8  and  N_9 
REMARK    4  A    between atoms: N_12  and  C_13 
REMARK    5  A    between atoms: C_13  and  C_14 
REMARK    6  A    between atoms: C_29  and  C_30 
REMARK       I    between atoms: C_30  and  N_31 
REMARK    7  A    between atoms: N_31  and  C_32 
ROOT
HETATM    1  N   UNL     1      -4.432   2.975 -31.595  1.00  0.00    -0.290 N 
HETATM    2  C   UNL     1      -3.145   3.486 -31.627  1.00  0.00     0.332 C 
HETATM    3  O   UNL     1      -2.257   2.984 -30.931  1.00  0.00    -0.246 OA
HETATM    4  N   UNL     1      -2.919   4.564 -32.467  1.00  0.00    -0.261 N 
HETATM    5  C   UNL     1      -3.917   5.298 -33.087  1.00  0.00     0.264 C 
HETATM    6  O   UNL     1      -3.711   6.271 -33.809  1.00  0.00    -0.267 OA
HETATM    7  C   UNL     1      -5.303   4.852 -32.866  1.00  0.00     0.059 A 
HETATM    8  C   UNL     1      -5.534   3.679 -32.144  1.00  0.00     0.056 A 
HETATM    9  C   UNL     1      -6.362   5.582 -33.428  1.00  0.00     0.020 A 
HETATM   10  C   UNL     1      -7.675   5.138 -33.276  1.00  0.00     0.018 A 
HETATM   11  C   UNL     1      -7.924   3.963 -32.564  1.00  0.00     0.034 A 
HETATM   12  C   UNL     1      -6.858   3.249 -31.986  1.00  0.00     0.048 A 
ENDROOT
BRANCH   1  13
HETATM   13  C   UNL     1      -4.599   1.612 -31.080  1.00  0.00     0.237 C 
BRANCH  13  14
HETATM   14  C   UNL     1      -4.365   0.485 -32.085  1.00  0.00     0.240 C 
HETATM   15  N   UNL     1      -5.529  -0.096 -32.555  1.00  0.00    -0.326 N 
HETATM   16  H   UNL     1      -6.402   0.318 -32.234  1.00  0.00     0.169 HD
HETATM   17  O   UNL     1      -3.219   0.107 -32.313  1.00  0.00    -0.271 OA
BRANCH  15  18
HETATM   18  C   UNL     1      -5.643  -1.254 -33.352  1.00  0.00     0.034 A 
HETATM   19  C   UNL     1      -4.574  -2.096 -33.662  1.00  0.00     0.030 A 
HETATM   20  C   UNL     1      -4.774  -3.254 -34.423  1.00  0.00     0.009 A 
HETATM   21  C   UNL     1      -6.048  -3.590 -34.887  1.00  0.00    -0.062 A 
HETATM   22  C   UNL     1      -6.249  -4.820 -35.721  1.00  0.00     0.048 C 
HETATM   23  C   UNL     1      -7.115  -2.733 -34.605  1.00  0.00     0.009 A 
HETATM   24  C   UNL     1      -6.916  -1.581 -33.835  1.00  0.00     0.030 A 
ENDBRANCH  15  18
ENDBRANCH  13  14
ENDBRANCH   1  13
BRANCH   4  25
HETATM   25  C   UNL     1      -1.533   4.878 -32.794  1.00  0.00     0.175 C 
BRANCH  25  26
HETATM   26  C   UNL     1      -0.933   5.768 -31.718  1.00  0.00    -0.037 A 
HETATM   27  C   UNL     1      -0.210   5.203 -30.653  1.00  0.00     0.048 A 
HETATM   28  C   UNL     1       0.206   6.037 -29.636  1.00  0.00     0.105 A 
HETATM   29  C   UNL     1      -0.060   7.385 -29.647  1.00  0.00     0.105 A 
HETATM   30  O   UNL     1       0.879   5.652 -28.519  1.00  0.00    -0.323 OA
HETATM   31  O   UNL     1       0.414   8.018 -28.541  1.00  0.00    -0.323 OA
HETATM   32  C   UNL     1      -0.749   7.980 -30.680  1.00  0.00     0.040 A 
HETATM   33  C   UNL     1       0.989   6.909 -27.819  1.00  0.00     0.352 A 
HETATM   34  C   UNL     1      -1.192   7.160 -31.722  1.00  0.00     0.012 A 
ENDBRANCH  25  26
ENDBRANCH   4  25
BRANCH  11  35
HETATM   35  C   UNL     1      -9.300   3.436 -32.369  1.00  0.00     0.252 C 
HETATM   36  N   UNL     1     -10.240   3.861 -33.280  1.00  0.00    -0.352 N 
HETATM   37  H   UNL     1      -9.905   4.379 -34.080  1.00  0.00     0.163 HD
HETATM   38  O   UNL     1      -9.500   2.645 -31.461  1.00  0.00    -0.268 OA
BRANCH  36  39
HETATM   39  C   UNL     1     -11.617   3.376 -33.388  1.00  0.00     0.084 C 
HETATM   40  C   UNL     1     -12.412   4.068 -34.502  1.00  0.00     0.025 C 
HETATM   41  C   UNL     1     -12.364   3.359 -35.850  1.00  0.00     0.002 C 
HETATM   42  C   UNL     1     -12.722   1.884 -35.720  1.00  0.00     0.000 C 
HETATM   43  C   UNL     1     -11.816   1.164 -34.731  1.00  0.00     0.002 C 
HETATM   44  C   UNL     1     -11.768   1.846 -33.367  1.00  0.00     0.025 C 
ENDBRANCH  36  39
ENDBRANCH  11  35
TORSDOF 7
ENDMDL
MODEL 4
REMARK VINA RESULT:     -10.5      2.914      8.151
REMARK  7 active torsions:
REMARK  status: ('A' for Active; 'I' for Inactive)
REMARK    1  A    between atoms: C_5  and  N_6 
REMARK       I    between atoms: N_6  and  C_7 
REMARK    2  A    between atoms: C_7  and  C_8 
REMARK    3  A    between atoms: C_8  and  N_9 
REMARK    4  A    between atoms: N_12  and  C_13 
REMARK    5  A    between atoms: C_13  and  C_14 
REMARK    6  A    between atoms: C_29  and  C_30 
REMARK       I    between atoms: C_30  and  N_31 
REMARK    7  A    between atoms: N_31  and  C_32 
ROOT
HETATM    1  N   UNL     1      -6.249   2.795 -31.414  1.00  0.00    -0.290 N 
HETATM    2  C   UNL     1      -4.933   3.207 -31.542  1.00  0.00     0.332 C 
HETATM    3  O   UNL     1      -4.111   2.951 -30.658  1.00  0.00    -0.246 OA
HETATM    4  N   UNL     1      -4.603   3.902 -32.693  1.00  0.00    -0.261 N 
HETATM    5  C   UNL     1      -5.523   4.407 -33.597  1.00  0.00     0.264 C 
HETATM    6  O   UNL     1      -5.225   5.048 -34.601  1.00  0.00    -0.267 OA
HETATM    7  C   UNL     1      -6.943   4.128 -33.322  1.00  0.00     0.059 A 
HETATM    8  C   UNL     1      -7.279   3.302 -32.248  1.00  0.00     0.056 A 
HETATM    9  C   UNL     1      -7.928   4.651 -34.174  1.00  0.00     0.020 A 
HETATM   10  C   UNL     1      -9.272   4.347 -33.959  1.00  0.00     0.018 A 
HETATM   11  C   UNL     1      -9.626   3.516 -32.894  1.00  0.00     0.034 A 
HETATM   12  C   UNL     1      -8.633   3.012 -32.033  1.00  0.00     0.048 A 
ENDROOT
BRANCH   1  13
HETATM   13  C   UNL     1      -6.523   1.714 -30.461  1.00  0.00     0.237 C 
BRANCH  13  14
HETATM   14  C   UNL     1      -6.333   0.293 -30.990  1.00  0.00     0.240 C 
HETATM   15  N   UNL     1      -6.023   0.234 -32.337  1.00  0.00    -0.326 N 
HETATM   16  H   UNL     1      -5.898   1.126 -32.811  1.00  0.00     0.169 HD
HETATM   17  O   UNL     1      -6.570  -0.661 -30.254  1.00  0.00    -0.271 OA
BRANCH  15  18
HETATM   18  C   UNL     1      -5.953  -0.919 -33.146  1.00  0.00     0.034 A 
HETATM   19  C   UNL     1      -4.778  -1.632 -33.388  1.00  0.00     0.030 A 
HETATM   20  C   UNL     1      -4.795  -2.795 -34.166  1.00  0.00     0.009 A 
HETATM   21  C   UNL     1      -5.990  -3.266 -34.717  1.00  0.00    -0.062 A 
HETATM   22  C   UNL     1      -5.996  -4.500 -35.569  1.00  0.00     0.048 C 
HETATM   23  C   UNL     1      -7.163  -2.537 -34.503  1.00  0.00     0.009 A 
HETATM   24  C   UNL     1      -7.146  -1.380 -33.715  1.00  0.00     0.030 A 
ENDBRANCH  15  18
ENDBRANCH  13  14
ENDBRANCH   1  13
BRANCH   4  25
HETATM   25  C   UNL     1      -3.186   4.021 -33.020  1.00  0.00     0.175 C 
BRANCH  25  26
HETATM   26  C   UNL     1      -2.703   5.433 -32.736  1.00  0.00    -0.037 A 
HETATM   27  C   UNL     1      -3.102   6.097 -31.563  1.00  0.00     0.048 A 
HETATM   28  C   UNL     1      -2.743   7.420 -31.410  1.00  0.00     0.105 A 
HETATM   29  C   UNL     1      -2.008   8.087 -32.360  1.00  0.00     0.105 A 
HETATM   30  O   UNL     1      -3.077   8.217 -30.359  1.00  0.00    -0.323 OA
HETATM   31  O   UNL     1      -1.785   9.386 -32.026  1.00  0.00    -0.323 OA
HETATM   32  C   UNL     1      -1.582   7.469 -33.514  1.00  0.00     0.040 A 
HETATM   33  C   UNL     1      -2.484   9.468 -30.767  1.00  0.00     0.352 A 
HETATM   34  C   UNL     1      -1.938   6.130 -33.703  1.00  0.00     0.012 A 
ENDBRANCH  25  26
ENDBRANCH   4  25
BRANCH  11  35
HETATM   35  C   UNL     1     -11.039   3.151 -32.615  1.00  0.00     0.252 C 
HETATM   36  N   UNL     1     -11.723   4.000 -31.776  1.00  0.00    -0.352 N 
HETATM   37  H   UNL     1     -11.268   4.867 -31.526  1.00  0.00     0.163 HD
HETATM   38  O   UNL     1     -11.509   2.169 -33.166  1.00  0.00    -0.268 OA
BRANCH  36  39
HETATM   39  C   UNL     1     -13.153   3.940 -31.467  1.00  0.00     0.084 C 
HETATM   40  C   UNL     1     -13.494   4.521 -30.089  1.00  0.00     0.025 C 
HETATM   41  C   UNL     1     -13.856   6.001 -30.096  1.00  0.00     0.002 C 
HETATM   42  C   UNL     1     -14.929   6.310 -31.132  1.00  0.00     0.000 C 
HETATM   43  C   UNL     1     -14.510   5.879 -32.531  1.00  0.00     0.002 C 
HETATM   44  C   UNL     1     -14.081   4.415 -32.596  1.00  0.00     0.025 C 
ENDBRANCH  36  39
ENDBRANCH  11  35
TORSDOF 7
ENDMDL
MODEL 5
REMARK VINA RESULT:     -10.4      3.523     10.611
REMARK  7 active torsions:
REMARK  status: ('A' for Active; 'I' for Inactive)
REMARK    1  A    between atoms: C_5  and  N_6 
REMARK       I    between atoms: N_6  and  C_7 
REMARK    2  A    between atoms: C_7  and  C_8 
REMARK    3  A    between atoms: C_8  and  N_9 
REMARK    4  A    between atoms: N_12  and  C_13 
REMARK    5  A    between atoms: C_13  and  C_14 
REMARK    6  A    between atoms: C_29  and  C_30 
REMARK       I    between atoms: C_30  and  N_31 
REMARK    7  A    between atoms: N_31  and  C_32 
ROOT
HETATM    1  N   UNL     1      -4.984   6.199 -31.005  1.00  0.00    -0.290 N 
HETATM    2  C   UNL     1      -4.401   7.431 -31.253  1.00  0.00     0.332 C 
HETATM    3  O   UNL     1      -5.024   8.472 -31.027  1.00  0.00    -0.246 OA
HETATM    4  N   UNL     1      -3.110   7.424 -31.753  1.00  0.00    -0.261 N 
HETATM    5  C   UNL     1      -2.460   6.298 -32.232  1.00  0.00     0.264 C 
HETATM    6  O   UNL     1      -1.325   6.304 -32.701  1.00  0.00    -0.267 OA
HETATM    7  C   UNL     1      -3.192   5.023 -32.145  1.00  0.00     0.059 A 
HETATM    8  C   UNL     1      -4.432   4.992 -31.507  1.00  0.00     0.056 A 
HETATM    9  C   UNL     1      -2.606   3.854 -32.657  1.00  0.00     0.020 A 
HETATM   10  C   UNL     1      -3.263   2.630 -32.529  1.00  0.00     0.018 A 
HETATM   11  C   UNL     1      -4.501   2.579 -31.886  1.00  0.00     0.034 A 
HETATM   12  C   UNL     1      -5.090   3.760 -31.395  1.00  0.00     0.048 A 
ENDROOT
BRANCH   1  13
HETATM   13  C   UNL     1      -6.133   6.173 -30.093  1.00  0.00     0.237 C 
BRANCH  13  14
HETATM   14  C   UNL     1      -5.813   6.358 -28.611  1.00  0.00     0.240 C 
HETATM   15  N   UNL     1      -4.850   7.319 -28.361  1.00  0.00    -0.326 N 
HETATM   16  H   UNL     1      -4.506   7.834 -29.170  1.00  0.00     0.169 HD
HETATM   17  O   UNL     1      -6.317   5.600 -27.785  1.00  0.00    -0.271 OA
BRANCH  15  18
HETATM   18  C   UNL     1      -4.225   7.602 -27.129  1.00  0.00     0.034 A 
HETATM   19  C   UNL     1      -3.162   6.864 -26.606  1.00  0.00     0.030 A 
HETATM   20  C   UNL     1      -2.563   7.233 -25.396  1.00  0.00     0.009 A 
HETATM   21  C   UNL     1      -3.017   8.349 -24.688  1.00  0.00    -0.062 A 
HETATM   22  C   UNL     1      -2.385   8.724 -23.381  1.00  0.00     0.048 C 
HETATM   23  C   UNL     1      -4.101   9.072 -25.193  1.00  0.00     0.009 A 
HETATM   24  C   UNL     1      -4.693   8.707 -26.409  1.00  0.00     0.030 A 
ENDBRANCH  15  18
ENDBRANCH  13  14
ENDBRANCH   1  13
BRANCH   4  25
HETATM   25  C   UNL     1      -2.355   8.670 -31.675  1.00  0.00     0.175 C 
BRANCH  25  26
HETATM   26  C   UNL     1      -1.869   8.895 -30.253  1.00  0.00    -0.037 A 
HETATM   27  C   UNL     1      -2.316  10.008 -29.519  1.00  0.00     0.048 A 
HETATM   28  C   UNL     1      -1.751  10.240 -28.282  1.00  0.00     0.105 A 
HETATM   29  C   UNL     1      -0.785   9.414 -27.759  1.00  0.00     0.105 A 
HETATM   30  O   UNL     1      -2.038  11.286 -27.461  1.00  0.00    -0.323 OA
HETATM   31  O   UNL     1      -0.345   9.835 -26.543  1.00  0.00    -0.323 OA
HETATM   32  C   UNL     1      -0.334   8.305 -28.437  1.00  0.00     0.040 A 
HETATM   33  C   UNL     1      -1.128  11.034 -26.370  1.00  0.00     0.352 A 
HETATM   34  C   UNL     1      -0.880   8.047 -29.698  1.00  0.00     0.012 A 
ENDBRANCH  25  26
ENDBRANCH   4  25
BRANCH  11  35
HETATM   35  C   UNL     1      -5.249   1.306 -31.715  1.00  0.00     0.252 C 
HETATM   36  N   UNL     1      -5.005   0.336 -32.660  1.00  0.00    -0.352 N 
HETATM   37  H   UNL     1      -4.248   0.504 -33.309  1.00  0.00     0.163 HD
HETATM   38  O   UNL     1      -5.983   1.185 -30.748  1.00  0.00    -0.268 OA
BRANCH  36  39
HETATM   39  C   UNL     1      -5.501  -1.041 -32.630  1.00  0.00     0.084 C 
HETATM   40  C   UNL     1      -6.830  -1.217 -33.375  1.00  0.00     0.025 C 
HETATM   41  C   UNL     1      -6.688  -1.609 -34.840  1.00  0.00     0.002 C 
HETATM   42  C   UNL     1      -5.770  -2.811 -35.012  1.00  0.00     0.000 C 
HETATM   43  C   UNL     1      -4.391  -2.564 -34.414  1.00  0.00     0.002 C 
HETATM   44  C   UNL     1      -4.452  -2.115 -32.956  1.00  0.00     0.025 C 
ENDBRANCH  36  39
ENDBRANCH  11  35
TORSDOF 7
ENDMDL
MODEL 6
REMARK VINA RESULT:     -10.2      2.797      8.141
REMARK  7 active torsions:
REMARK  status: ('A' for Active; 'I' for Inactive)
REMARK    1  A    between atoms: C_5  and  N_6 
REMARK       I    between atoms: N_6  and  C_7 
REMARK    2  A    between atoms: C_7  and  C_8 
REMARK    3  A    between atoms: C_8  and  N_9 
REMARK    4  A    between atoms: N_12  and  C_13 
REMARK    5  A    between atoms: C_13  and  C_14 
REMARK    6  A    between atoms: C_29  and  C_30 
REMARK       I    between atoms: C_30  and  N_31 
REMARK    7  A    between atoms: N_31  and  C_32 
ROOT
HETATM    1  N   UNL     1      -7.433   4.634 -30.660  1.00  0.00    -0.290 N 
HETATM    2  C   UNL     1      -6.256   5.012 -30.035  1.00  0.00     0.332 C 
HETATM    3  O   UNL     1      -5.698   4.250 -29.242  1.00  0.00    -0.246 OA
HETATM    4  N   UNL     1      -5.755   6.265 -30.349  1.00  0.00    -0.261 N 
HETATM    5  C   UNL     1      -6.452   7.236 -31.049  1.00  0.00     0.264 C 
HETATM    6  O   UNL     1      -6.012   8.356 -31.299  1.00  0.00    -0.267 OA
HETATM    7  C   UNL     1      -7.797   6.872 -31.526  1.00  0.00     0.059 A 
HETATM    8  C   UNL     1      -8.253   5.566 -31.347  1.00  0.00     0.056 A 
HETATM    9  C   UNL     1      -8.573   7.829 -32.200  1.00  0.00     0.020 A 
HETATM   10  C   UNL     1      -9.824   7.481 -32.709  1.00  0.00     0.018 A 
HETATM   11  C   UNL     1     -10.293   6.176 -32.545  1.00  0.00     0.034 A 
HETATM   12  C   UNL     1      -9.517   5.230 -31.850  1.00  0.00     0.048 A 
ENDROOT
BRANCH   1  13
HETATM   13  C   UNL     1      -7.742   3.200 -30.694  1.00  0.00     0.237 C 
BRANCH  13  14
HETATM   14  C   UNL     1      -7.137   2.414 -31.856  1.00  0.00     0.240 C 
HETATM   15  N   UNL     1      -7.363   1.051 -31.787  1.00  0.00    -0.326 N 
HETATM   16  H   UNL     1      -7.946   0.728 -31.018  1.00  0.00     0.169 HD
HETATM   17  O   UNL     1      -6.427   2.995 -32.673  1.00  0.00    -0.271 OA
BRANCH  15  18
HETATM   18  C   UNL     1      -6.800   0.051 -32.607  1.00  0.00     0.034 A 
HETATM   19  C   UNL     1      -5.531  -0.496 -32.412  1.00  0.00     0.030 A 
HETATM   20  C   UNL     1      -5.058  -1.519 -33.242  1.00  0.00     0.009 A 
HETATM   21  C   UNL     1      -5.848  -2.015 -34.282  1.00  0.00    -0.062 A 
HETATM   22  C   UNL     1      -5.325  -3.095 -35.181  1.00  0.00     0.048 C 
HETATM   23  C   UNL     1      -7.107  -1.448 -34.500  1.00  0.00     0.009 A 
HETATM   24  C   UNL     1      -7.582  -0.431 -33.663  1.00  0.00     0.030 A 
ENDBRANCH  15  18
ENDBRANCH  13  14
ENDBRANCH   1  13
BRANCH   4  25
HETATM   25  C   UNL     1      -4.364   6.535 -30.004  1.00  0.00     0.175 C 
BRANCH  25  26
HETATM   26  C   UNL     1      -3.524   6.630 -31.267  1.00  0.00    -0.037 A 
HETATM   27  C   UNL     1      -3.433   5.534 -32.143  1.00  0.00     0.048 A 
HETATM   28  C   UNL     1      -2.560   5.624 -33.207  1.00  0.00     0.105 A 
HETATM   29  C   UNL     1      -1.799   6.746 -33.430  1.00  0.00     0.105 A 
HETATM   30  O   UNL     1      -2.322   4.647 -34.124  1.00  0.00    -0.323 OA
HETATM   31  O   UNL     1      -0.988   6.618 -34.514  1.00  0.00    -0.323 OA
HETATM   32  C   UNL     1      -1.872   7.847 -32.607  1.00  0.00     0.040 A 
HETATM   33  C   UNL     1      -1.310   5.277 -34.936  1.00  0.00     0.352 A 
HETATM   34  C   UNL     1      -2.741   7.784 -31.514  1.00  0.00     0.012 A 
ENDBRANCH  25  26
ENDBRANCH   4  25
BRANCH  11  35
HETATM   35  C   UNL     1     -11.615   5.742 -33.067  1.00  0.00     0.252 C 
HETATM   36  N   UNL     1     -11.592   4.704 -33.970  1.00  0.00    -0.352 N 
HETATM   37  H   UNL     1     -10.710   4.230 -34.105  1.00  0.00     0.163 HD
HETATM   38  O   UNL     1     -12.619   6.290 -32.642  1.00  0.00    -0.268 OA
BRANCH  36  39
HETATM   39  C   UNL     1     -12.760   4.007 -34.512  1.00  0.00     0.084 C 
HETATM   40  C   UNL     1     -12.434   3.159 -35.748  1.00  0.00     0.025 C 
HETATM   41  C   UNL     1     -12.073   1.710 -35.445  1.00  0.00     0.002 C 
HETATM   42  C   UNL     1     -13.115   1.048 -34.553  1.00  0.00     0.000 C 
HETATM   43  C   UNL     1     -13.312   1.808 -33.248  1.00  0.00     0.002 C 
HETATM   44  C   UNL     1     -13.626   3.286 -33.467  1.00  0.00     0.025 C 
ENDBRANCH  36  39
ENDBRANCH  11  35
TORSDOF 7
ENDMDL
MODEL 7
REMARK VINA RESULT:     -10.2      2.658      6.335
REMARK  7 active torsions:
REMARK  status: ('A' for Active; 'I' for Inactive)
REMARK    1  A    between atoms: C_5  and  N_6 
REMARK       I    between atoms: N_6  and  C_7 
REMARK    2  A    between atoms: C_7  and  C_8 
REMARK    3  A    between atoms: C_8  and  N_9 
REMARK    4  A    between atoms: N_12  and  C_13 
REMARK    5  A    between atoms: C_13  and  C_14 
REMARK    6  A    between atoms: C_29  and  C_30 
REMARK       I    between atoms: C_30  and  N_31 
REMARK    7  A    between atoms: N_31  and  C_32 
ROOT
HETATM    1  N   UNL     1      -6.709   4.506 -30.657  1.00  0.00    -0.290 N 
HETATM    2  C   UNL     1      -7.893   3.827 -30.422  1.00  0.00     0.332 C 
HETATM    3  O   UNL     1      -8.781   4.343 -29.738  1.00  0.00    -0.246 OA
HETATM    4  N   UNL     1      -8.018   2.570 -30.989  1.00  0.00    -0.261 N 
HETATM    5  C   UNL     1      -6.976   1.862 -31.566  1.00  0.00     0.264 C 
HETATM    6  O   UNL     1      -7.088   0.735 -32.042  1.00  0.00    -0.267 OA
HETATM    7  C   UNL     1      -5.667   2.534 -31.616  1.00  0.00     0.059 A 
HETATM    8  C   UNL     1      -5.563   3.857 -31.185  1.00  0.00     0.056 A 
HETATM    9  C   UNL     1      -4.560   1.852 -32.146  1.00  0.00     0.020 A 
HETATM   10  C   UNL     1      -3.328   2.496 -32.254  1.00  0.00     0.018 A 
HETATM   11  C   UNL     1      -3.208   3.822 -31.834  1.00  0.00     0.034 A 
HETATM   12  C   UNL     1      -4.317   4.491 -31.285  1.00  0.00     0.048 A 
ENDROOT
BRANCH   1  13
HETATM   13  C   UNL     1      -6.718   5.959 -30.457  1.00  0.00     0.237 C 
BRANCH  13  14
HETATM   14  C   UNL     1      -6.088   6.459 -29.158  1.00  0.00     0.240 C 
HETATM   15  N   UNL     1      -4.943   7.213 -29.345  1.00  0.00    -0.326 N 
HETATM   16  H   UNL     1      -4.680   7.402 -30.310  1.00  0.00     0.169 HD
HETATM   17  O   UNL     1      -6.545   6.082 -28.082  1.00  0.00    -0.271 OA
BRANCH  15  18
HETATM   18  C   UNL     1      -4.050   7.669 -28.353  1.00  0.00     0.034 A 
HETATM   19  C   UNL     1      -3.455   6.842 -27.400  1.00  0.00     0.030 A 
HETATM   20  C   UNL     1      -2.542   7.361 -26.473  1.00  0.00     0.009 A 
HETATM   21  C   UNL     1      -2.208   8.717 -26.486  1.00  0.00    -0.062 A 
HETATM   22  C   UNL     1      -1.247   9.269 -25.476  1.00  0.00     0.048 C 
HETATM   23  C   UNL     1      -2.827   9.554 -27.420  1.00  0.00     0.009 A 
HETATM   24  C   UNL     1      -3.731   9.032 -28.352  1.00  0.00     0.030 A 
ENDBRANCH  15  18
ENDBRANCH  13  14
ENDBRANCH   1  13
BRANCH   4  25
HETATM   25  C   UNL     1      -9.359   2.002 -31.068  1.00  0.00     0.175 C 
BRANCH  25  26
HETATM   26  C   UNL     1      -9.992   2.347 -32.406  1.00  0.00    -0.037 A 
HETATM   27  C   UNL     1     -10.438   3.656 -32.663  1.00  0.00     0.048 A 
HETATM   28  C   UNL     1     -11.119   3.891 -33.839  1.00  0.00     0.105 A 
HETATM   29  C   UNL     1     -11.357   2.892 -34.753  1.00  0.00     0.105 A 
HETATM   30  O   UNL     1     -11.649   5.083 -34.225  1.00  0.00    -0.323 OA
HETATM   31  O   UNL     1     -12.064   3.329 -35.828  1.00  0.00    -0.323 OA
HETATM   32  C   UNL     1     -10.921   1.603 -34.547  1.00  0.00     0.040 A 
HETATM   33  C   UNL     1     -12.264   4.714 -35.477  1.00  0.00     0.352 A 
HETATM   34  C   UNL     1     -10.235   1.330 -33.360  1.00  0.00     0.012 A 
ENDBRANCH  25  26
ENDBRANCH   4  25
BRANCH  11  35
HETATM   35  C   UNL     1      -1.923   4.564 -31.926  1.00  0.00     0.252 C 
HETATM   36  N   UNL     1      -1.337   4.898 -30.727  1.00  0.00    -0.352 N 
HETATM   37  H   UNL     1      -1.741   4.503 -29.889  1.00  0.00     0.163 HD
HETATM   38  O   UNL     1      -1.456   4.790 -33.030  1.00  0.00    -0.268 OA
BRANCH  36  39
HETATM   39  C   UNL     1      -0.012   5.496 -30.552  1.00  0.00     0.084 C 
HETATM   40  C   UNL     1       0.001   7.011 -30.792  1.00  0.00     0.025 C 
HETATM   41  C   UNL     1      -0.223   7.853 -29.542  1.00  0.00     0.002 C 
HETATM   42  C   UNL     1       0.714   7.442 -28.415  1.00  0.00     0.000 C 
HETATM   43  C   UNL     1       0.575   5.966 -28.068  1.00  0.00     0.002 C 
HETATM   44  C   UNL     1       0.735   5.056 -29.283  1.00  0.00     0.025 C 
ENDBRANCH  36  39
ENDBRANCH  11  35
TORSDOF 7
ENDMDL
MODEL 8
REMARK VINA RESULT:     -10.1      3.264      7.988
REMARK  7 active torsions:
REMARK  status: ('A' for Active; 'I' for Inactive)
REMARK    1  A    between atoms: C_5  and  N_6 
REMARK       I    between atoms: N_6  and  C_7 
REMARK    2  A    between atoms: C_7  and  C_8 
REMARK    3  A    between atoms: C_8  and  N_9 
REMARK    4  A    between atoms: N_12  and  C_13 
REMARK    5  A    between atoms: C_13  and  C_14 
REMARK    6  A    between atoms: C_29  and  C_30 
REMARK       I    between atoms: C_30  and  N_31 
REMARK    7  A    between atoms: N_31  and  C_32 
ROOT
HETATM    1  N   UNL     1      -7.410   3.801 -33.633  1.00  0.00    -0.290 N 
HETATM    2  C   UNL     1      -6.653   2.739 -33.169  1.00  0.00     0.332 C 
HETATM    3  O   UNL     1      -5.445   2.679 -33.416  1.00  0.00    -0.246 OA
HETATM    4  N   UNL     1      -7.314   1.774 -32.427  1.00  0.00    -0.261 N 
HETATM    5  C   UNL     1      -8.692   1.677 -32.316  1.00  0.00     0.264 C 
HETATM    6  O   UNL     1      -9.273   0.802 -31.680  1.00  0.00    -0.267 OA
HETATM    7  C   UNL     1      -9.486   2.713 -32.999  1.00  0.00     0.059 A 
HETATM    8  C   UNL     1      -8.829   3.774 -33.623  1.00  0.00     0.056 A 
HETATM    9  C   UNL     1     -10.888   2.644 -32.963  1.00  0.00     0.020 A 
HETATM   10  C   UNL     1     -11.652   3.649 -33.555  1.00  0.00     0.018 A 
HETATM   11  C   UNL     1     -11.011   4.722 -34.177  1.00  0.00     0.034 A 
HETATM   12  C   UNL     1      -9.606   4.772 -34.226  1.00  0.00     0.048 A 
ENDROOT
BRANCH   1  13
HETATM   13  C   UNL     1      -6.689   5.018 -34.022  1.00  0.00     0.237 C 
BRANCH  13  14
HETATM   14  C   UNL     1      -5.604   5.489 -33.056  1.00  0.00     0.240 C 
HETATM   15  N   UNL     1      -4.346   5.574 -33.625  1.00  0.00    -0.326 N 
HETATM   16  H   UNL     1      -4.287   5.375 -34.622  1.00  0.00     0.169 HD
HETATM   17  O   UNL     1      -5.878   5.642 -31.869  1.00  0.00    -0.271 OA
BRANCH  15  18
HETATM   18  C   UNL     1      -3.124   5.813 -32.963  1.00  0.00     0.034 A 
HETATM   19  C   UNL     1      -2.463   4.865 -32.180  1.00  0.00     0.030 A 
HETATM   20  C   UNL     1      -1.228   5.162 -31.590  1.00  0.00     0.009 A 
HETATM   21  C   UNL     1      -0.633   6.412 -31.774  1.00  0.00    -0.062 A 
HETATM   22  C   UNL     1       0.678   6.730 -31.119  1.00  0.00     0.048 C 
HETATM   23  C   UNL     1      -1.307   7.374 -32.532  1.00  0.00     0.009 A 
HETATM   24  C   UNL     1      -2.537   7.072 -33.130  1.00  0.00     0.030 A 
ENDBRANCH  15  18
ENDBRANCH  13  14
ENDBRANCH   1  13
BRANCH   4  25
HETATM   25  C   UNL     1      -6.497   0.863 -31.633  1.00  0.00     0.175 C 
BRANCH  25  26
HETATM   26  C   UNL     1      -5.914  -0.222 -32.523  1.00  0.00    -0.037 A 
HETATM   27  C   UNL     1      -6.757  -1.005 -33.332  1.00  0.00     0.048 A 
HETATM   28  C   UNL     1      -6.198  -2.059 -34.024  1.00  0.00     0.105 A 
HETATM   29  C   UNL     1      -4.857  -2.349 -33.947  1.00  0.00     0.105 A 
HETATM   30  O   UNL     1      -6.872  -2.933 -34.819  1.00  0.00    -0.323 OA
HETATM   31  O   UNL     1      -4.518  -3.440 -34.684  1.00  0.00    -0.323 OA
HETATM   32  C   UNL     1      -3.995  -1.597 -33.181  1.00  0.00     0.040 A 
HETATM   33  C   UNL     1      -5.804  -3.818 -35.216  1.00  0.00     0.352 A 
HETATM   34  C   UNL     1      -4.533  -0.526 -32.460  1.00  0.00     0.012 A 
ENDBRANCH  25  26
ENDBRANCH   4  25
BRANCH  11  35
HETATM   35  C   UNL     1     -11.769   5.826 -34.823  1.00  0.00     0.252 C 
HETATM   36  N   UNL     1     -11.151   7.054 -34.829  1.00  0.00    -0.352 N 
HETATM   37  H   UNL     1     -10.188   7.088 -34.524  1.00  0.00     0.163 HD
HETATM   38  O   UNL     1     -12.848   5.573 -35.333  1.00  0.00    -0.268 OA
BRANCH  36  39
HETATM   39  C   UNL     1     -11.622   8.253 -35.523  1.00  0.00     0.084 C 
HETATM   40  C   UNL     1     -11.317   9.549 -34.762  1.00  0.00     0.025 C 
HETATM   41  C   UNL     1      -9.994  10.207 -35.135  1.00  0.00     0.002 C 
HETATM   42  C   UNL     1      -9.861  10.382 -36.641  1.00  0.00     0.000 C 
HETATM   43  C   UNL     1     -10.000   9.059 -37.382  1.00  0.00     0.002 C 
HETATM   44  C   UNL     1     -11.281   8.311 -37.021  1.00  0.00     0.025 C 
ENDBRANCH  36  39
ENDBRANCH  11  35
TORSDOF 7
ENDMDL
MODEL 9
REMARK VINA RESULT:     -10.1      2.631      6.083
REMARK  7 active torsions:
REMARK  status: ('A' for Active; 'I' for Inactive)
REMARK    1  A    between atoms: C_5  and  N_6 
REMARK       I    between atoms: N_6  and  C_7 
REMARK    2  A    between atoms: C_7  and  C_8 
REMARK    3  A    between atoms: C_8  and  N_9 
REMARK    4  A    between atoms: N_12  and  C_13 
REMARK    5  A    between atoms: C_13  and  C_14 
REMARK    6  A    between atoms: C_29  and  C_30 
REMARK       I    between atoms: C_30  and  N_31 
REMARK    7  A    between atoms: N_31  and  C_32 
ROOT
HETATM    1  N   UNL     1      -6.714   4.052 -30.807  1.00  0.00    -0.290 N 
HETATM    2  C   UNL     1      -7.842   3.283 -30.578  1.00  0.00     0.332 C 
HETATM    3  O   UNL     1      -8.758   3.715 -29.872  1.00  0.00    -0.246 OA
HETATM    4  N   UNL     1      -7.882   2.034 -31.174  1.00  0.00    -0.261 N 
HETATM    5  C   UNL     1      -6.799   1.418 -31.779  1.00  0.00     0.264 C 
HETATM    6  O   UNL     1      -6.833   0.297 -32.281  1.00  0.00    -0.267 OA
HETATM    7  C   UNL     1      -5.542   2.185 -31.826  1.00  0.00     0.059 A 
HETATM    8  C   UNL     1      -5.530   3.501 -31.363  1.00  0.00     0.056 A 
HETATM    9  C   UNL     1      -4.395   1.598 -32.383  1.00  0.00     0.020 A 
HETATM   10  C   UNL     1      -3.214   2.333 -32.487  1.00  0.00     0.018 A 
HETATM   11  C   UNL     1      -3.186   3.654 -32.036  1.00  0.00     0.034 A 
HETATM   12  C   UNL     1      -4.335   4.227 -31.459  1.00  0.00     0.048 A 
ENDROOT
BRANCH   1  13
HETATM   13  C   UNL     1      -6.827   5.495 -30.571  1.00  0.00     0.237 C 
BRANCH  13  14
HETATM   14  C   UNL     1      -7.395   6.318 -31.726  1.00  0.00     0.240 C 
HETATM   15  N   UNL     1      -8.690   5.977 -32.073  1.00  0.00    -0.326 N 
HETATM   16  H   UNL     1      -9.141   5.270 -31.496  1.00  0.00     0.169 HD
HETATM   17  O   UNL     1      -6.665   7.108 -32.320  1.00  0.00    -0.271 OA
BRANCH  15  18
HETATM   18  C   UNL     1      -9.422   6.430 -33.190  1.00  0.00     0.034 A 
HETATM   19  C   UNL     1      -9.398   5.812 -34.441  1.00  0.00     0.030 A 
HETATM   20  C   UNL     1     -10.188   6.295 -35.492  1.00  0.00     0.009 A 
HETATM   21  C   UNL     1     -11.016   7.404 -35.308  1.00  0.00    -0.062 A 
HETATM   22  C   UNL     1     -11.842   7.929 -36.445  1.00  0.00     0.048 C 
HETATM   23  C   UNL     1     -11.019   8.045 -34.066  1.00  0.00     0.009 A 
HETATM   24  C   UNL     1     -10.236   7.555 -33.013  1.00  0.00     0.030 A 
ENDBRANCH  15  18
ENDBRANCH  13  14
ENDBRANCH   1  13
BRANCH   4  25
HETATM   25  C   UNL     1      -9.179   1.371 -31.254  1.00  0.00     0.175 C 
BRANCH  25  26
HETATM   26  C   UNL     1      -9.967   1.912 -32.435  1.00  0.00    -0.037 A 
HETATM   27  C   UNL     1     -10.813   3.023 -32.275  1.00  0.00     0.048 A 
HETATM   28  C   UNL     1     -11.603   3.399 -33.341  1.00  0.00     0.105 A 
HETATM   29  C   UNL     1     -11.573   2.727 -34.539  1.00  0.00     0.105 A 
HETATM   30  O   UNL     1     -12.500   4.421 -33.343  1.00  0.00    -0.323 OA
HETATM   31  O   UNL     1     -12.445   3.242 -35.446  1.00  0.00    -0.323 OA
HETATM   32  C   UNL     1     -10.746   1.645 -34.743  1.00  0.00     0.040 A 
HETATM   33  C   UNL     1     -13.045   4.303 -34.674  1.00  0.00     0.352 A 
HETATM   34  C   UNL     1      -9.939   1.234 -33.679  1.00  0.00     0.012 A 
ENDBRANCH  25  26
ENDBRANCH   4  25
BRANCH  11  35
HETATM   35  C   UNL     1      -1.960   4.490 -32.121  1.00  0.00     0.252 C 
HETATM   36  N   UNL     1      -1.350   4.785 -30.924  1.00  0.00    -0.352 N 
HETATM   37  H   UNL     1      -1.693   4.307 -30.102  1.00  0.00     0.163 HD
HETATM   38  O   UNL     1      -1.555   4.821 -33.224  1.00  0.00    -0.268 OA
BRANCH  36  39
HETATM   39  C   UNL     1      -0.063   5.462 -30.756  1.00  0.00     0.084 C 
HETATM   40  C   UNL     1      -0.159   6.984 -30.919  1.00  0.00     0.025 C 
HETATM   41  C   UNL     1      -0.400   7.747 -29.622  1.00  0.00     0.002 C 
HETATM   42  C   UNL     1       0.597   7.347 -28.543  1.00  0.00     0.000 C 
HETATM   43  C   UNL     1       0.567   5.850 -28.268  1.00  0.00     0.002 C 
HETATM   44  C   UNL     1       0.750   5.012 -29.531  1.00  0.00     0.025 C 
ENDBRANCH  36  39
ENDBRANCH  11  35
TORSDOF 7
ENDMDL
MODEL 10
REMARK VINA RESULT:     -10.0      2.601      3.977
REMARK  7 active torsions:
REMARK  status: ('A' for Active; 'I' for Inactive)
REMARK    1  A    between atoms: C_5  and  N_6 
REMARK       I    between atoms: N_6  and  C_7 
REMARK    2  A    between atoms: C_7  and  C_8 
REMARK    3  A    between atoms: C_8  and  N_9 
REMARK    4  A    between atoms: N_12  and  C_13 
REMARK    5  A    between atoms: C_13  and  C_14 
REMARK    6  A    between atoms: C_29  and  C_30 
REMARK       I    between atoms: C_30  and  N_31 
REMARK    7  A    between atoms: N_31  and  C_32 
ROOT
HETATM    1  N   UNL     1      -9.270   2.099 -34.086  1.00  0.00    -0.290 N 
HETATM    2  C   UNL     1     -10.634   2.334 -34.038  1.00  0.00     0.332 C 
HETATM    3  O   UNL     1     -11.376   1.878 -34.912  1.00  0.00    -0.246 OA
HETATM    4  N   UNL     1     -11.103   3.088 -32.975  1.00  0.00    -0.261 N 
HETATM    5  C   UNL     1     -10.297   3.805 -32.105  1.00  0.00     0.264 C 
HETATM    6  O   UNL     1     -10.721   4.495 -31.182  1.00  0.00    -0.267 OA
HETATM    7  C   UNL     1      -8.843   3.700 -32.311  1.00  0.00     0.059 A 
HETATM    8  C   UNL     1      -8.353   2.825 -33.283  1.00  0.00     0.056 A 
HETATM    9  C   UNL     1      -7.974   4.439 -31.492  1.00  0.00     0.020 A 
HETATM   10  C   UNL     1      -6.593   4.304 -31.638  1.00  0.00     0.018 A 
HETATM   11  C   UNL     1      -6.086   3.428 -32.600  1.00  0.00     0.034 A 
HETATM   12  C   UNL     1      -6.965   2.707 -33.430  1.00  0.00     0.048 A 
ENDROOT
BRANCH   1  13
HETATM   13  C   UNL     1      -8.812   0.977 -34.913  1.00  0.00     0.237 C 
BRANCH  13  14
HETATM   14  C   UNL     1      -8.027  -0.112 -34.184  1.00  0.00     0.240 C 
HETATM   15  N   UNL     1      -6.924  -0.570 -34.883  1.00  0.00    -0.326 N 
HETATM   16  H   UNL     1      -6.721  -0.100 -35.763  1.00  0.00     0.169 HD
HETATM   17  O   UNL     1      -8.466  -0.572 -33.133  1.00  0.00    -0.271 OA
BRANCH  15  18
HETATM   18  C   UNL     1      -6.105  -1.671 -34.558  1.00  0.00     0.034 A 
HETATM   19  C   UNL     1      -6.358  -2.980 -34.972  1.00  0.00     0.030 A 
HETATM   20  C   UNL     1      -5.474  -4.015 -34.648  1.00  0.00     0.009 A 
HETATM   21  C   UNL     1      -4.319  -3.759 -33.904  1.00  0.00    -0.062 A 
HETATM   22  C   UNL     1      -3.389  -4.878 -33.542  1.00  0.00     0.048 C 
HETATM   23  C   UNL     1      -4.079  -2.455 -33.461  1.00  0.00     0.009 A 
HETATM   24  C   UNL     1      -4.959  -1.419 -33.795  1.00  0.00     0.030 A 
ENDBRANCH  15  18
ENDBRANCH  13  14
ENDBRANCH   1  13
BRANCH   4  25
HETATM   25  C   UNL     1     -12.535   3.041 -32.701  1.00  0.00     0.175 C 
BRANCH  25  26
HETATM   26  C   UNL     1     -13.205   4.305 -33.212  1.00  0.00    -0.037 A 
HETATM   27  C   UNL     1     -12.873   4.823 -34.476  1.00  0.00     0.048 A 
HETATM   28  C   UNL     1     -13.411   6.038 -34.843  1.00  0.00     0.105 A 
HETATM   29  C   UNL     1     -14.258   6.736 -34.016  1.00  0.00     0.105 A 
HETATM   30  O   UNL     1     -13.166   6.697 -36.007  1.00  0.00    -0.323 OA
HETATM   31  O   UNL     1     -14.654   7.920 -34.556  1.00  0.00    -0.323 OA
HETATM   32  C   UNL     1     -14.623   6.256 -32.779  1.00  0.00     0.040 A 
HETATM   33  C   UNL     1     -13.940   7.898 -35.810  1.00  0.00     0.352 A 
HETATM   34  C   UNL     1     -14.087   5.030 -32.374  1.00  0.00     0.012 A 
ENDBRANCH  25  26
ENDBRANCH   4  25
BRANCH  11  35
HETATM   35  C   UNL     1      -4.626   3.238 -32.801  1.00  0.00     0.252 C 
HETATM   36  N   UNL     1      -3.930   4.346 -33.228  1.00  0.00    -0.352 N 
HETATM   37  H   UNL     1      -4.427   5.226 -33.240  1.00  0.00     0.163 HD
HETATM   38  O   UNL     1      -4.137   2.151 -32.541  1.00  0.00    -0.268 OA
BRANCH  36  39
HETATM   39  C   UNL     1      -2.476   4.453 -33.358  1.00  0.00     0.084 C 
HETATM   40  C   UNL     1      -2.041   5.357 -34.518  1.00  0.00     0.025 C 
HETATM   41  C   UNL     1      -1.823   6.816 -34.138  1.00  0.00     0.002 C 
HETATM   42  C   UNL     1      -0.904   6.949 -32.931  1.00  0.00     0.000 C 
HETATM   43  C   UNL     1      -1.432   6.181 -31.727  1.00  0.00     0.002 C 
HETATM   44  C   UNL     1      -1.726   4.716 -32.042  1.00  0.00     0.025 C 
ENDBRANCH  36  39
ENDBRANCH  11  35
TORSDOF 7
ENDMDL
