MODEL 1
REMARK VINA RESULT:     -10.9      0.000      0.000
REMARK  5 active torsions:
REMARK  status: ('A' for Active; 'I' for Inactive)
REMARK    1  A    between atoms: C_4  and  C_5 
REMARK    2  A    between atoms: C_5  and  N_6 
REMARK       I    between atoms: N_6  and  C_7 
REMARK    3  A    between atoms: C_7  and  C_8 
REMARK    4  A    between atoms: C_20  and  N_21 
REMARK       I    between atoms: N_21  and  C_22 
REMARK    5  A    between atoms: C_22  and  C_23 
ROOT
HETATM    1  C   UNL     1      -4.860   0.797 -32.800  1.00  0.00     0.079 A 
HETATM    2  C   UNL     1      -4.765  -0.482 -33.196  1.00  0.00     0.131 A 
HETATM    3  N   UNL     1      -5.808  -1.056 -33.934  1.00  0.00    -0.259 N 
HETATM    4  C   UNL     1      -5.481  -2.414 -34.140  1.00  0.00     0.071 A 
HETATM    5  C   UNL     1      -4.238  -2.630 -33.499  1.00  0.00     0.061 A 
HETATM    6  C   UNL     1      -3.622  -3.860 -33.540  1.00  0.00     0.032 A 
HETATM    7  C   UNL     1      -4.294  -4.898 -34.195  1.00  0.00     0.002 A 
HETATM    8  C   UNL     1      -5.547  -4.684 -34.809  1.00  0.00     0.002 A 
HETATM    9  C   UNL     1      -6.157  -3.426 -34.788  1.00  0.00     0.032 A 
HETATM   10  N   UNL     1      -3.754  -1.411 -32.998  1.00  0.00    -0.339 N 
HETATM   11  C   UNL     1      -6.946  -0.396 -34.340  1.00  0.00     0.281 A 
HETATM   12  O   UNL     1      -7.874  -0.863 -35.001  1.00  0.00    -0.265 OA
HETATM   13  C   UNL     1      -7.033   1.057 -33.900  1.00  0.00     0.105 A 
HETATM   14  C   UNL     1      -6.044   1.564 -33.146  1.00  0.00     0.056 A 
HETATM   15  H   UNL     1      -3.194  -1.346 -32.155  1.00  0.00     0.167 HD
ENDROOT
BRANCH   1  16
HETATM   16  C   UNL     1      -3.735   1.398 -32.027  1.00  0.00     0.255 C 
HETATM   17  N   UNL     1      -3.589   2.746 -32.230  1.00  0.00    -0.353 N 
HETATM   18  H   UNL     1      -4.192   3.232 -32.883  1.00  0.00     0.163 HD
HETATM   19  O   UNL     1      -3.008   0.725 -31.305  1.00  0.00    -0.268 OA
BRANCH  17  20
HETATM   20  C   UNL     1      -2.614   3.530 -31.513  1.00  0.00     0.161 C 
BRANCH  20  21
HETATM   21  C   UNL     1      -2.056   4.611 -32.401  1.00  0.00    -0.041 A 
HETATM   22  C   UNL     1      -1.389   5.715 -31.845  1.00  0.00     0.009 A 
HETATM   23  C   UNL     1      -0.918   6.744 -32.663  1.00  0.00     0.001 A 
HETATM   24  C   UNL     1      -1.102   6.677 -34.043  1.00  0.00     0.000 A 
HETATM   25  C   UNL     1      -1.760   5.585 -34.606  1.00  0.00     0.001 A 
HETATM   26  C   UNL     1      -2.239   4.558 -33.789  1.00  0.00     0.009 A 
ENDBRANCH  20  21
ENDBRANCH  17  20
ENDBRANCH   1  16
BRANCH  13  27
HETATM   27  N   UNL     1      -8.159   1.737 -34.331  1.00  0.00    -0.318 N 
HETATM   28  C   UNL     1      -9.402   1.783 -33.733  1.00  0.00     0.256 C 
HETATM   29  O   UNL     1      -9.712   1.197 -32.699  1.00  0.00    -0.267 OA
HETATM   30  H   UNL     1      -7.972   2.338 -35.132  1.00  0.00     0.169 HD
BRANCH  28  31
HETATM   31  C   UNL     1     -10.416   2.665 -34.383  1.00  0.00     0.032 A 
HETATM   32  C   UNL     1     -11.684   2.207 -34.768  1.00  0.00     0.020 A 
HETATM   33  C   UNL     1     -12.583   3.084 -35.384  1.00  0.00     0.043 A 
HETATM   34  C   UNL     1     -12.219   4.410 -35.600  1.00  0.00     0.116 A 
HETATM   35  F   UNL     1     -13.085   5.243 -36.190  1.00  0.00    -0.206 F 
HETATM   36  C   UNL     1     -10.974   4.883 -35.207  1.00  0.00     0.043 A 
HETATM   37  C   UNL     1     -10.071   4.011 -34.594  1.00  0.00     0.020 A 
ENDBRANCH  28  31
ENDBRANCH  13  27
TORSDOF 5
ENDMDL
MODEL 2
REMARK VINA RESULT:     -10.3      3.046      8.479
REMARK  5 active torsions:
REMARK  status: ('A' for Active; 'I' for Inactive)
REMARK    1  A    between atoms: C_4  and  C_5 
REMARK    2  A    between atoms: C_5  and  N_6 
REMARK       I    between atoms: N_6  and  C_7 
REMARK    3  A    between atoms: C_7  and  C_8 
REMARK    4  A    between atoms: C_20  and  N_21 
REMARK       I    between atoms: N_21  and  C_22 
REMARK    5  A    between atoms: C_22  and  C_23 
ROOT
HETATM    1  C   UNL     1      -7.202   1.317 -33.901  1.00  0.00     0.079 A 
HETATM    2  C   UNL     1      -8.290   2.064 -34.144  1.00  0.00     0.131 A 
HETATM    3  N   UNL     1      -8.216   3.456 -34.013  1.00  0.00    -0.259 N 
HETATM    4  C   UNL     1      -9.510   3.972 -34.244  1.00  0.00     0.071 A 
HETATM    5  C   UNL     1     -10.347   2.859 -34.498  1.00  0.00     0.061 A 
HETATM    6  C   UNL     1     -11.680   3.025 -34.793  1.00  0.00     0.032 A 
HETATM    7  C   UNL     1     -12.186   4.330 -34.784  1.00  0.00     0.002 A 
HETATM    8  C   UNL     1     -11.354   5.434 -34.502  1.00  0.00     0.002 A 
HETATM    9  C   UNL     1      -9.993   5.263 -34.229  1.00  0.00     0.032 A 
HETATM   10  N   UNL     1      -9.570   1.690 -34.528  1.00  0.00    -0.339 N 
HETATM   11  C   UNL     1      -7.079   4.160 -33.685  1.00  0.00     0.281 A 
HETATM   12  O   UNL     1      -6.972   5.382 -33.576  1.00  0.00    -0.265 OA
HETATM   13  C   UNL     1      -5.849   3.303 -33.430  1.00  0.00     0.105 A 
HETATM   14  C   UNL     1      -5.964   1.967 -33.508  1.00  0.00     0.056 A 
HETATM   15  H   UNL     1      -9.922   0.787 -34.227  1.00  0.00     0.167 HD
ENDROOT
BRANCH   1  16
HETATM   16  C   UNL     1      -7.294  -0.163 -34.058  1.00  0.00     0.255 C 
HETATM   17  N   UNL     1      -6.263  -0.702 -34.784  1.00  0.00    -0.353 N 
HETATM   18  H   UNL     1      -5.553  -0.102 -35.184  1.00  0.00     0.163 HD
HETATM   19  O   UNL     1      -8.226  -0.811 -33.595  1.00  0.00    -0.268 OA
BRANCH  17  20
HETATM   20  C   UNL     1      -6.122  -2.125 -34.980  1.00  0.00     0.161 C 
BRANCH  20  21
HETATM   21  C   UNL     1      -5.030  -2.669 -34.098  1.00  0.00    -0.041 A 
HETATM   22  C   UNL     1      -4.601  -3.999 -34.234  1.00  0.00     0.009 A 
HETATM   23  C   UNL     1      -3.625  -4.520 -33.383  1.00  0.00     0.001 A 
HETATM   24  C   UNL     1      -3.065  -3.717 -32.392  1.00  0.00     0.000 A 
HETATM   25  C   UNL     1      -3.481  -2.395 -32.248  1.00  0.00     0.001 A 
HETATM   26  C   UNL     1      -4.462  -1.873 -33.094  1.00  0.00     0.009 A 
ENDBRANCH  20  21
ENDBRANCH  17  20
ENDBRANCH   1  16
BRANCH  13  27
HETATM   27  N   UNL     1      -4.693   4.004 -33.131  1.00  0.00    -0.318 N 
HETATM   28  C   UNL     1      -3.914   4.758 -33.987  1.00  0.00     0.256 C 
HETATM   29  O   UNL     1      -4.128   4.915 -35.185  1.00  0.00    -0.267 OA
HETATM   30  H   UNL     1      -4.488   4.017 -32.134  1.00  0.00     0.169 HD
BRANCH  28  31
HETATM   31  C   UNL     1      -2.758   5.472 -33.370  1.00  0.00     0.032 A 
HETATM   32  C   UNL     1      -2.563   6.855 -33.501  1.00  0.00     0.020 A 
HETATM   33  C   UNL     1      -1.451   7.460 -32.907  1.00  0.00     0.043 A 
HETATM   34  C   UNL     1      -0.549   6.690 -32.180  1.00  0.00     0.116 A 
HETATM   35  F   UNL     1       0.514   7.276 -31.615  1.00  0.00    -0.206 F 
HETATM   36  C   UNL     1      -0.737   5.322 -32.026  1.00  0.00     0.043 A 
HETATM   37  C   UNL     1      -1.845   4.712 -32.618  1.00  0.00     0.020 A 
ENDBRANCH  28  31
ENDBRANCH  13  27
TORSDOF 5
ENDMDL
MODEL 3
REMARK VINA RESULT:     -10.3      4.025      7.479
REMARK  5 active torsions:
REMARK  status: ('A' for Active; 'I' for Inactive)
REMARK    1  A    between atoms: C_4  and  C_5 
REMARK    2  A    between atoms: C_5  and  N_6 
REMARK       I    between atoms: N_6  and  C_7 
REMARK    3  A    between atoms: C_7  and  C_8 
REMARK    4  A    between atoms: C_20  and  N_21 
REMARK       I    between atoms: N_21  and  C_22 
REMARK    5  A    between atoms: C_22  and  C_23 
ROOT
HETATM    1  C   UNL     1      -2.980   4.171 -31.620  1.00  0.00     0.079 A 
HETATM    2  C   UNL     1      -3.926   4.693 -30.823  1.00  0.00     0.131 A 
HETATM    3  N   UNL     1      -5.172   4.063 -30.726  1.00  0.00    -0.259 N 
HETATM    4  C   UNL     1      -5.987   4.864 -29.895  1.00  0.00     0.071 A 
HETATM    5  C   UNL     1      -5.202   5.981 -29.520  1.00  0.00     0.061 A 
HETATM    6  C   UNL     1      -5.701   6.949 -28.679  1.00  0.00     0.032 A 
HETATM    7  C   UNL     1      -7.026   6.811 -28.249  1.00  0.00     0.002 A 
HETATM    8  C   UNL     1      -7.813   5.710 -28.648  1.00  0.00     0.002 A 
HETATM    9  C   UNL     1      -7.293   4.715 -29.483  1.00  0.00     0.032 A 
HETATM   10  N   UNL     1      -3.899   5.824 -30.020  1.00  0.00    -0.339 N 
HETATM   11  C   UNL     1      -5.518   2.892 -31.362  1.00  0.00     0.281 A 
HETATM   12  O   UNL     1      -6.597   2.302 -31.288  1.00  0.00    -0.265 OA
HETATM   13  C   UNL     1      -4.432   2.302 -32.247  1.00  0.00     0.105 A 
HETATM   14  C   UNL     1      -3.266   2.958 -32.365  1.00  0.00     0.056 A 
HETATM   15  H   UNL     1      -3.320   6.607 -30.303  1.00  0.00     0.167 HD
ENDROOT
BRANCH   1  16
HETATM   16  C   UNL     1      -1.653   4.847 -31.702  1.00  0.00     0.255 C 
HETATM   17  N   UNL     1      -0.997   4.916 -30.500  1.00  0.00    -0.353 N 
HETATM   18  H   UNL     1      -1.435   4.560 -29.659  1.00  0.00     0.163 HD
HETATM   19  O   UNL     1      -1.222   5.311 -32.752  1.00  0.00    -0.268 OA
BRANCH  17  20
HETATM   20  C   UNL     1       0.335   5.456 -30.381  1.00  0.00     0.161 C 
BRANCH  20  21
HETATM   21  C   UNL     1       0.437   6.332 -29.160  1.00  0.00    -0.041 A 
HETATM   22  C   UNL     1       0.839   7.673 -29.278  1.00  0.00     0.009 A 
HETATM   23  C   UNL     1       0.985   8.472 -28.143  1.00  0.00     0.001 A 
HETATM   24  C   UNL     1       0.725   7.942 -26.880  1.00  0.00     0.000 A 
HETATM   25  C   UNL     1       0.322   6.614 -26.751  1.00  0.00     0.001 A 
HETATM   26  C   UNL     1       0.183   5.811 -27.885  1.00  0.00     0.009 A 
ENDBRANCH  20  21
ENDBRANCH  17  20
ENDBRANCH   1  16
BRANCH  13  27
HETATM   27  N   UNL     1      -4.760   1.107 -32.866  1.00  0.00    -0.318 N 
HETATM   28  C   UNL     1      -4.360  -0.167 -32.515  1.00  0.00     0.256 C 
HETATM   29  O   UNL     1      -3.618  -0.442 -31.577  1.00  0.00    -0.267 OA
HETATM   30  H   UNL     1      -5.457   1.223 -33.598  1.00  0.00     0.169 HD
BRANCH  28  31
HETATM   31  C   UNL     1      -4.934  -1.284 -33.322  1.00  0.00     0.032 A 
HETATM   32  C   UNL     1      -4.222  -2.460 -33.603  1.00  0.00     0.020 A 
HETATM   33  C   UNL     1      -4.814  -3.464 -34.375  1.00  0.00     0.043 A 
HETATM   34  C   UNL     1      -6.111  -3.298 -34.851  1.00  0.00     0.116 A 
HETATM   35  F   UNL     1      -6.672  -4.263 -35.590  1.00  0.00    -0.206 F 
HETATM   36  C   UNL     1      -6.836  -2.147 -34.565  1.00  0.00     0.043 A 
HETATM   37  C   UNL     1      -6.248  -1.140 -33.797  1.00  0.00     0.020 A 
ENDBRANCH  28  31
ENDBRANCH  13  27
TORSDOF 5
ENDMDL
MODEL 4
REMARK VINA RESULT:     -10.3      2.006      2.218
REMARK  5 active torsions:
REMARK  status: ('A' for Active; 'I' for Inactive)
REMARK    1  A    between atoms: C_4  and  C_5 
REMARK    2  A    between atoms: C_5  and  N_6 
REMARK       I    between atoms: N_6  and  C_7 
REMARK    3  A    between atoms: C_7  and  C_8 
REMARK    4  A    between atoms: C_20  and  N_21 
REMARK       I    between atoms: N_21  and  C_22 
REMARK    5  A    between atoms: C_22  and  C_23 
ROOT
HETATM    1  C   UNL     1      -5.204   1.090 -32.048  1.00  0.00     0.079 A 
HETATM    2  C   UNL     1      -5.240  -0.049 -32.759  1.00  0.00     0.131 A 
HETATM    3  N   UNL     1      -6.474  -0.572 -33.162  1.00  0.00    -0.259 N 
HETATM    4  C   UNL     1      -6.220  -1.801 -33.812  1.00  0.00     0.071 A 
HETATM    5  C   UNL     1      -4.818  -1.995 -33.769  1.00  0.00     0.061 A 
HETATM    6  C   UNL     1      -4.236  -3.098 -34.349  1.00  0.00     0.032 A 
HETATM    7  C   UNL     1      -5.085  -4.043 -34.938  1.00  0.00     0.002 A 
HETATM    8  C   UNL     1      -6.484  -3.858 -34.953  1.00  0.00     0.002 A 
HETATM    9  C   UNL     1      -7.070  -2.721 -34.385  1.00  0.00     0.032 A 
HETATM   10  N   UNL     1      -4.209  -0.864 -33.201  1.00  0.00    -0.339 N 
HETATM   11  C   UNL     1      -7.698   0.013 -32.925  1.00  0.00     0.281 A 
HETATM   12  O   UNL     1      -8.800  -0.410 -33.277  1.00  0.00    -0.265 OA
HETATM   13  C   UNL     1      -7.642   1.310 -32.135  1.00  0.00     0.105 A 
HETATM   14  C   UNL     1      -6.449   1.759 -31.713  1.00  0.00     0.056 A 
HETATM   15  H   UNL     1      -3.361  -0.916 -32.647  1.00  0.00     0.167 HD
ENDROOT
BRANCH   1  16
HETATM   16  C   UNL     1      -3.882   1.642 -31.638  1.00  0.00     0.255 C 
HETATM   17  N   UNL     1      -3.803   3.008 -31.736  1.00  0.00    -0.353 N 
HETATM   18  H   UNL     1      -4.587   3.539 -32.095  1.00  0.00     0.163 HD
HETATM   19  O   UNL     1      -2.959   0.921 -31.275  1.00  0.00    -0.268 OA
BRANCH  17  20
HETATM   20  C   UNL     1      -2.639   3.744 -31.309  1.00  0.00     0.161 C 
BRANCH  20  21
HETATM   21  C   UNL     1      -2.152   4.641 -32.415  1.00  0.00    -0.041 A 
HETATM   22  C   UNL     1      -2.380   4.303 -33.759  1.00  0.00     0.009 A 
HETATM   23  C   UNL     1      -1.885   5.108 -34.787  1.00  0.00     0.001 A 
HETATM   24  C   UNL     1      -1.162   6.259 -34.482  1.00  0.00     0.000 A 
HETATM   25  C   UNL     1      -0.931   6.606 -33.153  1.00  0.00     0.001 A 
HETATM   26  C   UNL     1      -1.419   5.799 -32.123  1.00  0.00     0.009 A 
ENDBRANCH  20  21
ENDBRANCH  17  20
ENDBRANCH   1  16
BRANCH  13  27
HETATM   27  N   UNL     1      -8.865   1.923 -31.919  1.00  0.00    -0.318 N 
HETATM   28  C   UNL     1      -9.493   2.863 -32.710  1.00  0.00     0.256 C 
HETATM   29  O   UNL     1      -9.043   3.324 -33.755  1.00  0.00    -0.267 OA
HETATM   30  H   UNL     1      -9.366   1.530 -31.124  1.00  0.00     0.169 HD
BRANCH  28  31
HETATM   31  C   UNL     1     -10.852   3.296 -32.269  1.00  0.00     0.032 A 
HETATM   32  C   UNL     1     -12.013   3.017 -33.004  1.00  0.00     0.020 A 
HETATM   33  C   UNL     1     -13.255   3.462 -32.540  1.00  0.00     0.043 A 
HETATM   34  C   UNL     1     -13.334   4.170 -31.345  1.00  0.00     0.116 A 
HETATM   35  F   UNL     1     -14.526   4.594 -30.906  1.00  0.00    -0.206 F 
HETATM   36  C   UNL     1     -12.195   4.439 -30.596  1.00  0.00     0.043 A 
HETATM   37  C   UNL     1     -10.952   3.999 -31.056  1.00  0.00     0.020 A 
ENDBRANCH  28  31
ENDBRANCH  13  27
TORSDOF 5
ENDMDL
MODEL 5
REMARK VINA RESULT:     -10.0      2.360      2.808
REMARK  5 active torsions:
REMARK  status: ('A' for Active; 'I' for Inactive)
REMARK    1  A    between atoms: C_4  and  C_5 
REMARK    2  A    between atoms: C_5  and  N_6 
REMARK       I    between atoms: N_6  and  C_7 
REMARK    3  A    between atoms: C_7  and  C_8 
REMARK    4  A    between atoms: C_20  and  N_21 
REMARK       I    between atoms: N_21  and  C_22 
REMARK    5  A    between atoms: C_22  and  C_23 
ROOT
HETATM    1  C   UNL     1      -6.664   2.050 -31.648  1.00  0.00     0.079 A 
HETATM    2  C   UNL     1      -6.237   0.977 -32.332  1.00  0.00     0.131 A 
HETATM    3  N   UNL     1      -7.171   0.117 -32.922  1.00  0.00    -0.259 N 
HETATM    4  C   UNL     1      -6.454  -0.956 -33.497  1.00  0.00     0.071 A 
HETATM    5  C   UNL     1      -5.086  -0.718 -33.221  1.00  0.00     0.061 A 
HETATM    6  C   UNL     1      -4.111  -1.575 -33.675  1.00  0.00     0.032 A 
HETATM    7  C   UNL     1      -4.525  -2.713 -34.376  1.00  0.00     0.002 A 
HETATM    8  C   UNL     1      -5.893  -2.960 -34.625  1.00  0.00     0.002 A 
HETATM    9  C   UNL     1      -6.879  -2.072 -34.184  1.00  0.00     0.032 A 
HETATM   10  N   UNL     1      -4.950   0.525 -32.583  1.00  0.00    -0.339 N 
HETATM   11  C   UNL     1      -8.536   0.297 -32.900  1.00  0.00     0.281 A 
HETATM   12  O   UNL     1      -9.385  -0.428 -33.421  1.00  0.00    -0.265 OA
HETATM   13  C   UNL     1      -9.006   1.525 -32.138  1.00  0.00     0.105 A 
HETATM   14  C   UNL     1      -8.091   2.301 -31.535  1.00  0.00     0.056 A 
HETATM   15  H   UNL     1      -4.227   0.715 -31.896  1.00  0.00     0.167 HD
ENDROOT
BRANCH   1  16
HETATM   16  C   UNL     1      -5.657   2.963 -31.037  1.00  0.00     0.255 C 
HETATM   17  N   UNL     1      -5.203   3.931 -31.896  1.00  0.00    -0.353 N 
HETATM   18  H   UNL     1      -5.526   3.955 -32.854  1.00  0.00     0.163 HD
HETATM   19  O   UNL     1      -5.268   2.826 -29.882  1.00  0.00    -0.268 OA
BRANCH  17  20
HETATM   20  C   UNL     1      -4.287   4.964 -31.475  1.00  0.00     0.161 C 
BRANCH  20  21
HETATM   21  C   UNL     1      -3.238   5.194 -32.529  1.00  0.00    -0.041 A 
HETATM   22  C   UNL     1      -2.000   5.765 -32.189  1.00  0.00     0.009 A 
HETATM   23  C   UNL     1      -1.046   6.027 -33.174  1.00  0.00     0.001 A 
HETATM   24  C   UNL     1      -1.316   5.717 -34.505  1.00  0.00     0.000 A 
HETATM   25  C   UNL     1      -2.539   5.149 -34.854  1.00  0.00     0.001 A 
HETATM   26  C   UNL     1      -3.498   4.892 -33.872  1.00  0.00     0.009 A 
ENDBRANCH  20  21
ENDBRANCH  17  20
ENDBRANCH   1  16
BRANCH  13  27
HETATM   27  N   UNL     1     -10.375   1.732 -32.138  1.00  0.00    -0.318 N 
HETATM   28  C   UNL     1     -11.122   2.462 -33.041  1.00  0.00     0.256 C 
HETATM   29  O   UNL     1     -10.669   3.070 -34.006  1.00  0.00    -0.267 OA
HETATM   30  H   UNL     1     -10.855   1.182 -31.429  1.00  0.00     0.169 HD
BRANCH  28  31
HETATM   31  C   UNL     1     -12.601   2.450 -32.837  1.00  0.00     0.032 A 
HETATM   32  C   UNL     1     -13.274   3.441 -32.108  1.00  0.00     0.020 A 
HETATM   33  C   UNL     1     -14.661   3.364 -31.945  1.00  0.00     0.043 A 
HETATM   34  C   UNL     1     -15.367   2.310 -32.516  1.00  0.00     0.116 A 
HETATM   35  F   UNL     1     -16.695   2.242 -32.355  1.00  0.00    -0.206 F 
HETATM   36  C   UNL     1     -14.718   1.331 -33.256  1.00  0.00     0.043 A 
HETATM   37  C   UNL     1     -13.333   1.402 -33.420  1.00  0.00     0.020 A 
ENDBRANCH  28  31
ENDBRANCH  13  27
TORSDOF 5
ENDMDL
MODEL 6
REMARK VINA RESULT:     -10.0      3.508      8.521
REMARK  5 active torsions:
REMARK  status: ('A' for Active; 'I' for Inactive)
REMARK    1  A    between atoms: C_4  and  C_5 
REMARK    2  A    between atoms: C_5  and  N_6 
REMARK       I    between atoms: N_6  and  C_7 
REMARK    3  A    between atoms: C_7  and  C_8 
REMARK    4  A    between atoms: C_20  and  N_21 
REMARK       I    between atoms: N_21  and  C_22 
REMARK    5  A    between atoms: C_22  and  C_23 
ROOT
HETATM    1  C   UNL     1      -6.463   3.353 -32.981  1.00  0.00     0.079 A 
HETATM    2  C   UNL     1      -6.309   2.046 -33.241  1.00  0.00     0.131 A 
HETATM    3  N   UNL     1      -5.120   1.404 -32.874  1.00  0.00    -0.259 N 
HETATM    4  C   UNL     1      -5.199   0.071 -33.338  1.00  0.00     0.071 A 
HETATM    5  C   UNL     1      -6.447  -0.052 -33.995  1.00  0.00     0.061 A 
HETATM    6  C   UNL     1      -6.847  -1.250 -34.541  1.00  0.00     0.032 A 
HETATM    7  C   UNL     1      -5.954  -2.325 -34.464  1.00  0.00     0.002 A 
HETATM    8  C   UNL     1      -4.699  -2.189 -33.832  1.00  0.00     0.002 A 
HETATM    9  C   UNL     1      -4.308  -0.976 -33.256  1.00  0.00     0.032 A 
HETATM   10  N   UNL     1      -7.169   1.144 -33.850  1.00  0.00    -0.339 N 
HETATM   11  C   UNL     1      -4.071   2.000 -32.211  1.00  0.00     0.281 A 
HETATM   12  O   UNL     1      -3.019   1.464 -31.860  1.00  0.00    -0.265 OA
HETATM   13  C   UNL     1      -4.266   3.476 -31.907  1.00  0.00     0.105 A 
HETATM   14  C   UNL     1      -5.392   4.079 -32.320  1.00  0.00     0.056 A 
HETATM   15  H   UNL     1      -7.812   1.487 -34.556  1.00  0.00     0.167 HD
ENDROOT
BRANCH   1  16
HETATM   16  C   UNL     1      -7.740   4.019 -33.365  1.00  0.00     0.255 C 
HETATM   17  N   UNL     1      -8.813   3.630 -32.603  1.00  0.00    -0.353 N 
HETATM   18  H   UNL     1      -8.699   2.926 -31.885  1.00  0.00     0.163 HD
HETATM   19  O   UNL     1      -7.806   4.817 -34.295  1.00  0.00    -0.268 OA
BRANCH  17  20
HETATM   20  C   UNL     1     -10.121   4.218 -32.760  1.00  0.00     0.161 C 
BRANCH  20  21
HETATM   21  C   UNL     1     -10.997   3.329 -33.602  1.00  0.00    -0.041 A 
HETATM   22  C   UNL     1     -11.116   1.961 -33.305  1.00  0.00     0.009 A 
HETATM   23  C   UNL     1     -11.886   1.125 -34.115  1.00  0.00     0.001 A 
HETATM   24  C   UNL     1     -12.549   1.647 -35.225  1.00  0.00     0.000 A 
HETATM   25  C   UNL     1     -12.439   3.003 -35.527  1.00  0.00     0.001 A 
HETATM   26  C   UNL     1     -11.663   3.840 -34.723  1.00  0.00     0.009 A 
ENDBRANCH  20  21
ENDBRANCH  17  20
ENDBRANCH   1  16
BRANCH  13  27
HETATM   27  N   UNL     1      -3.229   4.077 -31.212  1.00  0.00    -0.318 N 
HETATM   28  C   UNL     1      -2.134   4.739 -31.729  1.00  0.00     0.256 C 
HETATM   29  O   UNL     1      -1.898   4.890 -32.924  1.00  0.00    -0.267 OA
HETATM   30  H   UNL     1      -3.387   4.092 -30.206  1.00  0.00     0.169 HD
BRANCH  28  31
HETATM   31  C   UNL     1      -1.208   5.359 -30.737  1.00  0.00     0.032 A 
HETATM   32  C   UNL     1      -0.025   4.736 -30.310  1.00  0.00     0.020 A 
HETATM   33  C   UNL     1       0.793   5.366 -29.368  1.00  0.00     0.043 A 
HETATM   34  C   UNL     1       0.437   6.614 -28.866  1.00  0.00     0.116 A 
HETATM   35  F   UNL     1       1.225   7.212 -27.964  1.00  0.00    -0.206 F 
HETATM   36  C   UNL     1      -0.721   7.253 -29.292  1.00  0.00     0.043 A 
HETATM   37  C   UNL     1      -1.543   6.627 -30.231  1.00  0.00     0.020 A 
ENDBRANCH  28  31
ENDBRANCH  13  27
TORSDOF 5
ENDMDL
MODEL 7
REMARK VINA RESULT:     -10.0      1.804      6.690
REMARK  5 active torsions:
REMARK  status: ('A' for Active; 'I' for Inactive)
REMARK    1  A    between atoms: C_4  and  C_5 
REMARK    2  A    between atoms: C_5  and  N_6 
REMARK       I    between atoms: N_6  and  C_7 
REMARK    3  A    between atoms: C_7  and  C_8 
REMARK    4  A    between atoms: C_20  and  N_21 
REMARK       I    between atoms: N_21  and  C_22 
REMARK    5  A    between atoms: C_22  and  C_23 
ROOT
HETATM    1  C   UNL     1      -4.493   1.788 -31.893  1.00  0.00     0.079 A 
HETATM    2  C   UNL     1      -4.039   3.040 -31.719  1.00  0.00     0.131 A 
HETATM    3  N   UNL     1      -4.888   4.124 -31.974  1.00  0.00    -0.259 N 
HETATM    4  C   UNL     1      -4.132   5.303 -31.792  1.00  0.00     0.071 A 
HETATM    5  C   UNL     1      -2.824   4.893 -31.441  1.00  0.00     0.061 A 
HETATM    6  C   UNL     1      -1.840   5.814 -31.165  1.00  0.00     0.032 A 
HETATM    7  C   UNL     1      -2.170   7.168 -31.291  1.00  0.00     0.002 A 
HETATM    8  C   UNL     1      -3.468   7.572 -31.668  1.00  0.00     0.002 A 
HETATM    9  C   UNL     1      -4.472   6.632 -31.923  1.00  0.00     0.032 A 
HETATM   10  N   UNL     1      -2.796   3.495 -31.306  1.00  0.00    -0.339 N 
HETATM   11  C   UNL     1      -6.205   4.023 -32.361  1.00  0.00     0.281 A 
HETATM   12  O   UNL     1      -6.984   4.952 -32.578  1.00  0.00    -0.265 OA
HETATM   13  C   UNL     1      -6.712   2.601 -32.536  1.00  0.00     0.105 A 
HETATM   14  C   UNL     1      -5.859   1.582 -32.339  1.00  0.00     0.056 A 
HETATM   15  H   UNL     1      -1.978   2.937 -31.525  1.00  0.00     0.167 HD
ENDROOT
BRANCH   1  16
HETATM   16  C   UNL     1      -3.581   0.645 -31.604  1.00  0.00     0.255 C 
HETATM   17  N   UNL     1      -3.942  -0.517 -32.238  1.00  0.00    -0.353 N 
HETATM   18  H   UNL     1      -4.778  -0.549 -32.806  1.00  0.00     0.163 HD
HETATM   19  O   UNL     1      -2.621   0.751 -30.849  1.00  0.00    -0.268 OA
BRANCH  17  20
HETATM   20  C   UNL     1      -3.144  -1.717 -32.156  1.00  0.00     0.161 C 
BRANCH  20  21
HETATM   21  C   UNL     1      -3.779  -2.823 -32.956  1.00  0.00    -0.041 A 
HETATM   22  C   UNL     1      -3.368  -4.154 -32.783  1.00  0.00     0.009 A 
HETATM   23  C   UNL     1      -3.918  -5.174 -33.561  1.00  0.00     0.001 A 
HETATM   24  C   UNL     1      -4.888  -4.875 -34.515  1.00  0.00     0.000 A 
HETATM   25  C   UNL     1      -5.307  -3.558 -34.695  1.00  0.00     0.001 A 
HETATM   26  C   UNL     1      -4.752  -2.535 -33.923  1.00  0.00     0.009 A 
ENDBRANCH  20  21
ENDBRANCH  17  20
ENDBRANCH   1  16
BRANCH  13  27
HETATM   27  N   UNL     1      -8.045   2.489 -32.894  1.00  0.00    -0.318 N 
HETATM   28  C   UNL     1      -8.576   1.839 -33.990  1.00  0.00     0.256 C 
HETATM   29  O   UNL     1      -7.925   1.252 -34.849  1.00  0.00    -0.267 OA
HETATM   30  H   UNL     1      -8.674   2.860 -32.186  1.00  0.00     0.169 HD
BRANCH  28  31
HETATM   31  C   UNL     1     -10.066   1.815 -34.085  1.00  0.00     0.032 A 
HETATM   32  C   UNL     1     -10.844   0.786 -33.535  1.00  0.00     0.020 A 
HETATM   33  C   UNL     1     -12.236   0.818 -33.670  1.00  0.00     0.043 A 
HETATM   34  C   UNL     1     -12.842   1.876 -34.340  1.00  0.00     0.116 A 
HETATM   35  F   UNL     1     -14.175   1.900 -34.467  1.00  0.00    -0.206 F 
HETATM   36  C   UNL     1     -12.086   2.912 -34.875  1.00  0.00     0.043 A 
HETATM   37  C   UNL     1     -10.696   2.884 -34.744  1.00  0.00     0.020 A 
ENDBRANCH  28  31
ENDBRANCH  13  27
TORSDOF 5
ENDMDL
MODEL 8
REMARK VINA RESULT:     -10.0      2.551      6.823
REMARK  5 active torsions:
REMARK  status: ('A' for Active; 'I' for Inactive)
REMARK    1  A    between atoms: C_4  and  C_5 
REMARK    2  A    between atoms: C_5  and  N_6 
REMARK       I    between atoms: N_6  and  C_7 
REMARK    3  A    between atoms: C_7  and  C_8 
REMARK    4  A    between atoms: C_20  and  N_21 
REMARK       I    between atoms: N_21  and  C_22 
REMARK    5  A    between atoms: C_22  and  C_23 
ROOT
HETATM    1  C   UNL     1      -6.301   1.417 -31.977  1.00  0.00     0.079 A 
HETATM    2  C   UNL     1      -5.838   2.639 -31.669  1.00  0.00     0.131 A 
HETATM    3  N   UNL     1      -6.727   3.719 -31.609  1.00  0.00    -0.259 N 
HETATM    4  C   UNL     1      -5.964   4.880 -31.350  1.00  0.00     0.071 A 
HETATM    5  C   UNL     1      -4.613   4.464 -31.275  1.00  0.00     0.061 A 
HETATM    6  C   UNL     1      -3.608   5.362 -31.002  1.00  0.00     0.032 A 
HETATM    7  C   UNL     1      -3.966   6.707 -30.850  1.00  0.00     0.002 A 
HETATM    8  C   UNL     1      -5.311   7.120 -30.954  1.00  0.00     0.002 A 
HETATM    9  C   UNL     1      -6.334   6.199 -31.206  1.00  0.00     0.032 A 
HETATM   10  N   UNL     1      -4.550   3.065 -31.379  1.00  0.00    -0.339 N 
HETATM   11  C   UNL     1      -8.087   3.635 -31.803  1.00  0.00     0.281 A 
HETATM   12  O   UNL     1      -8.900   4.559 -31.743  1.00  0.00    -0.265 OA
HETATM   13  C   UNL     1      -8.601   2.244 -32.133  1.00  0.00     0.105 A 
HETATM   14  C   UNL     1      -7.718   1.237 -32.240  1.00  0.00     0.056 A 
HETATM   15  H   UNL     1      -3.771   2.580 -31.809  1.00  0.00     0.167 HD
ENDROOT
BRANCH   1  16
HETATM   16  C   UNL     1      -5.344   0.275 -32.024  1.00  0.00     0.255 C 
HETATM   17  N   UNL     1      -5.101  -0.186 -33.293  1.00  0.00    -0.353 N 
HETATM   18  H   UNL     1      -5.582   0.223 -34.084  1.00  0.00     0.163 HD
HETATM   19  O   UNL     1      -4.853  -0.207 -31.008  1.00  0.00    -0.268 OA
BRANCH  17  20
HETATM   20  C   UNL     1      -4.143  -1.230 -33.562  1.00  0.00     0.161 C 
BRANCH  20  21
HETATM   21  C   UNL     1      -4.842  -2.465 -34.064  1.00  0.00    -0.041 A 
HETATM   22  C   UNL     1      -6.185  -2.407 -34.472  1.00  0.00     0.009 A 
HETATM   23  C   UNL     1      -6.850  -3.562 -34.888  1.00  0.00     0.001 A 
HETATM   24  C   UNL     1      -6.179  -4.783 -34.907  1.00  0.00     0.000 A 
HETATM   25  C   UNL     1      -4.846  -4.853 -34.507  1.00  0.00     0.001 A 
HETATM   26  C   UNL     1      -4.181  -3.700 -34.083  1.00  0.00     0.009 A 
ENDBRANCH  20  21
ENDBRANCH  17  20
ENDBRANCH   1  16
BRANCH  13  27
HETATM   27  N   UNL     1      -9.972   2.144 -32.299  1.00  0.00    -0.318 N 
HETATM   28  C   UNL     1     -10.678   2.058 -33.482  1.00  0.00     0.256 C 
HETATM   29  O   UNL     1     -10.183   2.069 -34.605  1.00  0.00    -0.267 OA
HETATM   30  H   UNL     1     -10.467   2.026 -31.417  1.00  0.00     0.169 HD
BRANCH  28  31
HETATM   31  C   UNL     1     -12.156   1.882 -33.357  1.00  0.00     0.032 A 
HETATM   32  C   UNL     1     -12.821   0.727 -33.793  1.00  0.00     0.020 A 
HETATM   33  C   UNL     1     -14.210   0.631 -33.658  1.00  0.00     0.043 A 
HETATM   34  C   UNL     1     -14.923   1.677 -33.081  1.00  0.00     0.116 A 
HETATM   35  F   UNL     1     -16.253   1.579 -32.955  1.00  0.00    -0.206 F 
HETATM   36  C   UNL     1     -14.276   2.820 -32.628  1.00  0.00     0.043 A 
HETATM   37  C   UNL     1     -12.890   2.922 -32.762  1.00  0.00     0.020 A 
ENDBRANCH  28  31
ENDBRANCH  13  27
TORSDOF 5
ENDMDL
MODEL 9
REMARK VINA RESULT:      -9.9      3.484      8.883
REMARK  5 active torsions:
REMARK  status: ('A' for Active; 'I' for Inactive)
REMARK    1  A    between atoms: C_4  and  C_5 
REMARK    2  A    between atoms: C_5  and  N_6 
REMARK       I    between atoms: N_6  and  C_7 
REMARK    3  A    between atoms: C_7  and  C_8 
REMARK    4  A    between atoms: C_20  and  N_21 
REMARK       I    between atoms: N_21  and  C_22 
REMARK    5  A    between atoms: C_22  and  C_23 
ROOT
HETATM    1  C   UNL     1      -5.051   1.169 -31.938  1.00  0.00     0.079 A 
HETATM    2  C   UNL     1      -6.097   1.735 -32.561  1.00  0.00     0.131 A 
HETATM    3  N   UNL     1      -6.206   3.130 -32.598  1.00  0.00    -0.259 N 
HETATM    4  C   UNL     1      -7.428   3.442 -33.235  1.00  0.00     0.071 A 
HETATM    5  C   UNL     1      -8.039   2.207 -33.558  1.00  0.00     0.061 A 
HETATM    6  C   UNL     1      -9.244   2.161 -34.220  1.00  0.00     0.032 A 
HETATM    7  C   UNL     1      -9.863   3.381 -34.519  1.00  0.00     0.002 A 
HETATM    8  C   UNL     1      -9.263   4.609 -34.170  1.00  0.00     0.002 A 
HETATM    9  C   UNL     1      -8.025   4.651 -33.519  1.00  0.00     0.032 A 
HETATM   10  N   UNL     1      -7.169   1.156 -33.224  1.00  0.00    -0.339 N 
HETATM   11  C   UNL     1      -5.287   4.010 -32.071  1.00  0.00     0.281 A 
HETATM   12  O   UNL     1      -5.342   5.240 -32.098  1.00  0.00    -0.265 OA
HETATM   13  C   UNL     1      -4.099   3.356 -31.384  1.00  0.00     0.105 A 
HETATM   14  C   UNL     1      -4.049   2.016 -31.315  1.00  0.00     0.056 A 
HETATM   15  H   UNL     1      -7.497   0.247 -32.914  1.00  0.00     0.167 HD
ENDROOT
BRANCH   1  16
HETATM   16  C   UNL     1      -4.942  -0.318 -31.920  1.00  0.00     0.255 C 
HETATM   17  N   UNL     1      -4.022  -0.811 -32.810  1.00  0.00    -0.353 N 
HETATM   18  H   UNL     1      -3.519  -0.183 -33.424  1.00  0.00     0.163 HD
HETATM   19  O   UNL     1      -5.637  -1.013 -31.188  1.00  0.00    -0.268 OA
BRANCH  17  20
HETATM   20  C   UNL     1      -3.706  -2.216 -32.889  1.00  0.00     0.161 C 
BRANCH  20  21
HETATM   21  C   UNL     1      -4.691  -2.925 -33.780  1.00  0.00    -0.041 A 
HETATM   22  C   UNL     1      -5.819  -2.249 -34.274  1.00  0.00     0.009 A 
HETATM   23  C   UNL     1      -6.760  -2.919 -35.057  1.00  0.00     0.001 A 
HETATM   24  C   UNL     1      -6.581  -4.267 -35.361  1.00  0.00     0.000 A 
HETATM   25  C   UNL     1      -5.465  -4.948 -34.879  1.00  0.00     0.001 A 
HETATM   26  C   UNL     1      -4.526  -4.281 -34.088  1.00  0.00     0.009 A 
ENDBRANCH  20  21
ENDBRANCH  17  20
ENDBRANCH   1  16
BRANCH  13  27
HETATM   27  N   UNL     1      -3.154   4.233 -30.879  1.00  0.00    -0.318 N 
HETATM   28  C   UNL     1      -1.994   4.670 -31.486  1.00  0.00     0.256 C 
HETATM   29  O   UNL     1      -1.604   4.327 -32.599  1.00  0.00    -0.267 OA
HETATM   30  H   UNL     1      -3.440   4.653 -29.997  1.00  0.00     0.169 HD
BRANCH  28  31
HETATM   31  C   UNL     1      -1.196   5.682 -30.734  1.00  0.00     0.032 A 
HETATM   32  C   UNL     1      -1.543   7.041 -30.687  1.00  0.00     0.020 A 
HETATM   33  C   UNL     1      -0.745   7.939 -29.972  1.00  0.00     0.043 A 
HETATM   34  C   UNL     1       0.384   7.480 -29.302  1.00  0.00     0.116 A 
HETATM   35  F   UNL     1       1.144   8.346 -28.620  1.00  0.00    -0.206 F 
HETATM   36  C   UNL     1       0.732   6.135 -29.323  1.00  0.00     0.043 A 
HETATM   37  C   UNL     1      -0.061   5.234 -30.037  1.00  0.00     0.020 A 
ENDBRANCH  28  31
ENDBRANCH  13  27
TORSDOF 5
ENDMDL
MODEL 10
REMARK VINA RESULT:      -9.9      3.198      6.969
REMARK  5 active torsions:
REMARK  status: ('A' for Active; 'I' for Inactive)
REMARK    1  A    between atoms: C_4  and  C_5 
REMARK    2  A    between atoms: C_5  and  N_6 
REMARK       I    between atoms: N_6  and  C_7 
REMARK    3  A    between atoms: C_7  and  C_8 
REMARK    4  A    between atoms: C_20  and  N_21 
REMARK       I    between atoms: N_21  and  C_22 
REMARK    5  A    between atoms: C_22  and  C_23 
ROOT
HETATM    1  C   UNL     1      -7.357   3.346 -31.932  1.00  0.00     0.079 A 
HETATM    2  C   UNL     1      -8.675   3.537 -32.097  1.00  0.00     0.131 A 
HETATM    3  N   UNL     1      -9.460   2.512 -32.639  1.00  0.00    -0.259 N 
HETATM    4  C   UNL     1     -10.774   3.012 -32.774  1.00  0.00     0.071 A 
HETATM    5  C   UNL     1     -10.744   4.350 -32.315  1.00  0.00     0.061 A 
HETATM    6  C   UNL     1     -11.885   5.118 -32.287  1.00  0.00     0.032 A 
HETATM    7  C   UNL     1     -13.064   4.541 -32.774  1.00  0.00     0.002 A 
HETATM    8  C   UNL     1     -13.082   3.215 -33.257  1.00  0.00     0.002 A 
HETATM    9  C   UNL     1     -11.925   2.430 -33.259  1.00  0.00     0.032 A 
HETATM   10  N   UNL     1      -9.466   4.641 -31.810  1.00  0.00    -0.339 N 
HETATM   11  C   UNL     1      -8.996   1.266 -32.996  1.00  0.00     0.281 A 
HETATM   12  O   UNL     1      -9.657   0.336 -33.461  1.00  0.00    -0.265 OA
HETATM   13  C   UNL     1      -7.505   1.056 -32.788  1.00  0.00     0.105 A 
HETATM   14  C   UNL     1      -6.768   2.076 -32.319  1.00  0.00     0.056 A 
HETATM   15  H   UNL     1      -9.049   5.563 -31.866  1.00  0.00     0.167 HD
ENDROOT
BRANCH   1  16
HETATM   16  C   UNL     1      -6.538   4.442 -31.341  1.00  0.00     0.255 C 
HETATM   17  N   UNL     1      -5.450   4.786 -32.102  1.00  0.00    -0.353 N 
HETATM   18  H   UNL     1      -5.247   4.284 -32.957  1.00  0.00     0.163 HD
HETATM   19  O   UNL     1      -6.817   4.955 -30.262  1.00  0.00    -0.268 OA
BRANCH  17  20
HETATM   20  C   UNL     1      -4.578   5.879 -31.747  1.00  0.00     0.161 C 
BRANCH  20  21
HETATM   21  C   UNL     1      -3.388   5.919 -32.669  1.00  0.00    -0.041 A 
HETATM   22  C   UNL     1      -2.545   7.042 -32.694  1.00  0.00     0.009 A 
HETATM   23  C   UNL     1      -1.472   7.103 -33.585  1.00  0.00     0.001 A 
HETATM   24  C   UNL     1      -1.227   6.042 -34.454  1.00  0.00     0.000 A 
HETATM   25  C   UNL     1      -2.055   4.921 -34.436  1.00  0.00     0.001 A 
HETATM   26  C   UNL     1      -3.134   4.861 -33.551  1.00  0.00     0.009 A 
ENDBRANCH  20  21
ENDBRANCH  17  20
ENDBRANCH   1  16
BRANCH  13  27
HETATM   27  N   UNL     1      -7.035  -0.205 -33.114  1.00  0.00    -0.318 N 
HETATM   28  C   UNL     1      -6.688  -0.683 -34.362  1.00  0.00     0.256 C 
HETATM   29  O   UNL     1      -6.757  -0.046 -35.408  1.00  0.00    -0.267 OA
HETATM   30  H   UNL     1      -6.847  -0.778 -32.294  1.00  0.00     0.169 HD
BRANCH  28  31
HETATM   31  C   UNL     1      -6.135  -2.069 -34.407  1.00  0.00     0.032 A 
HETATM   32  C   UNL     1      -6.908  -3.182 -34.772  1.00  0.00     0.020 A 
HETATM   33  C   UNL     1      -6.331  -4.456 -34.783  1.00  0.00     0.043 A 
HETATM   34  C   UNL     1      -4.991  -4.612 -34.442  1.00  0.00     0.116 A 
HETATM   35  F   UNL     1      -4.445  -5.835 -34.455  1.00  0.00    -0.206 F 
HETATM   36  C   UNL     1      -4.208  -3.518 -34.097  1.00  0.00     0.043 A 
HETATM   37  C   UNL     1      -4.779  -2.244 -34.083  1.00  0.00     0.020 A 
ENDBRANCH  28  31
ENDBRANCH  13  27
TORSDOF 5
ENDMDL
