MODEL 1
REMARK VINA RESULT:      -8.5      0.000      0.000
REMARK  5 active torsions:
REMARK  status: ('A' for Active; 'I' for Inactive)
REMARK    1  A    between atoms: C_9  and  C_10 
REMARK       I    between atoms: C_10  and  N_11 
REMARK    2  A    between atoms: N_11  and  C_12 
REMARK    3  A    between atoms: C_12  and  C_13 
REMARK    4  A    between atoms: C_12  and  C_16 
REMARK    5  A    between atoms: C_19  and  O_20 
ROOT
HETATM    1  C   UNL     1      -5.058   0.334 -32.872  1.00  0.00     0.273 C 
HETATM    2  N   UNL     1      -4.850   1.263 -31.883  1.00  0.00    -0.346 N 
HETATM    3  O   UNL     1      -5.780   0.523 -33.848  1.00  0.00    -0.266 OA
HETATM    4  H   UNL     1      -4.209   0.982 -31.148  1.00  0.00     0.163 HD
ENDROOT
BRANCH   2   5
HETATM    5  C   UNL     1      -5.394   2.596 -31.901  1.00  0.00     0.122 C 
BRANCH   5   6
HETATM    6  C   UNL     1      -5.670   3.126 -30.511  1.00  0.00     0.013 A 
HETATM    7  C   UNL     1      -6.402   4.435 -30.307  1.00  0.00     0.007 A 
HETATM    8  C   UNL     1      -7.041   3.146 -29.867  1.00  0.00     0.007 A 
ENDBRANCH   5   6
BRANCH   5   9
HETATM    9  C   UNL     1      -4.442   3.519 -32.646  1.00  0.00    -0.035 A 
HETATM   10  C   UNL     1      -3.086   3.559 -32.291  1.00  0.00     0.012 A 
HETATM   11  C   UNL     1      -2.205   4.423 -32.946  1.00  0.00     0.037 A 
HETATM   12  C   UNL     1      -2.658   5.270 -33.959  1.00  0.00     0.068 A 
HETATM   13  C   UNL     1      -4.005   5.244 -34.317  1.00  0.00     0.037 A 
HETATM   14  C   UNL     1      -4.889   4.377 -33.664  1.00  0.00     0.012 A 
BRANCH  12  15
HETATM   15  O   UNL     1      -1.693   6.067 -34.513  1.00  0.00    -0.356 OA
HETATM   16  C   UNL     1      -1.169   7.103 -33.693  1.00  0.00     0.210 C 
ENDBRANCH  12  15
ENDBRANCH   5   9
ENDBRANCH   2   5
BRANCH   1  17
HETATM   17  C   UNL     1      -4.314  -0.916 -32.642  1.00  0.00     0.157 A 
HETATM   18  C   UNL     1      -4.527  -2.180 -33.268  1.00  0.00     0.029 A 
HETATM   19  C   UNL     1      -5.417  -2.703 -34.228  1.00  0.00     0.023 A 
HETATM   20  C   UNL     1      -3.561  -3.019 -32.726  1.00  0.00     0.063 A 
HETATM   21  C   UNL     1      -5.310  -4.050 -34.611  1.00  0.00    -0.061 A 
HETATM   22  C   UNL     1      -6.243  -4.626 -35.637  1.00  0.00     0.048 C 
HETATM   23  C   UNL     1      -4.318  -4.860 -34.043  1.00  0.00     0.009 A 
HETATM   24  C   UNL     1      -3.423  -4.362 -33.088  1.00  0.00     0.032 A 
HETATM   25  N   UNL     1      -2.862  -2.242 -31.844  1.00  0.00    -0.277 N 
HETATM   26  H   UNL     1      -2.078  -2.525 -31.268  1.00  0.00     0.189 HD
HETATM   27  N   UNL     1      -3.287  -0.970 -31.763  1.00  0.00    -0.168 NA
ENDBRANCH   1  17
TORSDOF 5
ENDMDL
MODEL 2
REMARK VINA RESULT:      -8.4      2.423      7.513
REMARK  5 active torsions:
REMARK  status: ('A' for Active; 'I' for Inactive)
REMARK    1  A    between atoms: C_9  and  C_10 
REMARK       I    between atoms: C_10  and  N_11 
REMARK    2  A    between atoms: N_11  and  C_12 
REMARK    3  A    between atoms: C_12  and  C_13 
REMARK    4  A    between atoms: C_12  and  C_16 
REMARK    5  A    between atoms: C_19  and  O_20 
ROOT
HETATM    1  C   UNL     1      -5.351   3.097 -32.557  1.00  0.00     0.273 C 
HETATM    2  N   UNL     1      -5.831   2.021 -33.261  1.00  0.00    -0.346 N 
HETATM    3  O   UNL     1      -5.526   3.261 -31.353  1.00  0.00    -0.266 OA
HETATM    4  H   UNL     1      -5.591   2.001 -34.246  1.00  0.00     0.163 HD
ENDROOT
BRANCH   2   5
HETATM    5  C   UNL     1      -6.538   0.918 -32.664  1.00  0.00     0.122 C 
BRANCH   5   6
HETATM    6  C   UNL     1      -8.027   0.974 -32.928  1.00  0.00     0.013 A 
HETATM    7  C   UNL     1      -9.012   0.331 -31.977  1.00  0.00     0.007 A 
HETATM    8  C   UNL     1      -8.997   1.826 -32.136  1.00  0.00     0.007 A 
ENDBRANCH   5   6
BRANCH   5   9
HETATM    9  C   UNL     1      -5.954  -0.390 -33.174  1.00  0.00    -0.035 A 
HETATM   10  C   UNL     1      -4.731  -0.854 -32.670  1.00  0.00     0.012 A 
HETATM   11  C   UNL     1      -4.168  -2.039 -33.150  1.00  0.00     0.037 A 
HETATM   12  C   UNL     1      -4.805  -2.780 -34.147  1.00  0.00     0.068 A 
HETATM   13  C   UNL     1      -6.019  -2.327 -34.659  1.00  0.00     0.037 A 
HETATM   14  C   UNL     1      -6.587  -1.141 -34.178  1.00  0.00     0.012 A 
BRANCH  12  15
HETATM   15  O   UNL     1      -4.144  -3.915 -34.528  1.00  0.00    -0.356 OA
HETATM   16  C   UNL     1      -3.366  -4.569 -33.534  1.00  0.00     0.210 C 
ENDBRANCH  12  15
ENDBRANCH   5   9
ENDBRANCH   2   5
BRANCH   1  17
HETATM   17  C   UNL     1      -4.593   4.035 -33.403  1.00  0.00     0.157 A 
HETATM   18  C   UNL     1      -3.314   4.607 -33.134  1.00  0.00     0.029 A 
HETATM   19  C   UNL     1      -2.369   4.538 -32.091  1.00  0.00     0.023 A 
HETATM   20  C   UNL     1      -3.033   5.401 -34.239  1.00  0.00     0.063 A 
HETATM   21  C   UNL     1      -1.173   5.269 -32.190  1.00  0.00    -0.061 A 
HETATM   22  C   UNL     1      -0.148   5.205 -31.094  1.00  0.00     0.048 C 
HETATM   23  C   UNL     1      -0.928   6.053 -33.325  1.00  0.00     0.009 A 
HETATM   24  C   UNL     1      -1.853   6.137 -34.372  1.00  0.00     0.032 A 
HETATM   25  N   UNL     1      -4.115   5.266 -35.064  1.00  0.00    -0.277 N 
HETATM   26  H   UNL     1      -4.253   5.704 -35.967  1.00  0.00     0.189 HD
HETATM   27  N   UNL     1      -5.078   4.455 -34.595  1.00  0.00    -0.168 NA
ENDBRANCH   1  17
TORSDOF 5
ENDMDL
MODEL 3
REMARK VINA RESULT:      -8.2      4.720      7.742
REMARK  5 active torsions:
REMARK  status: ('A' for Active; 'I' for Inactive)
REMARK    1  A    between atoms: C_9  and  C_10 
REMARK       I    between atoms: C_10  and  N_11 
REMARK    2  A    between atoms: N_11  and  C_12 
REMARK    3  A    between atoms: C_12  and  C_13 
REMARK    4  A    between atoms: C_12  and  C_16 
REMARK    5  A    between atoms: C_19  and  O_20 
ROOT
HETATM    1  C   UNL     1      -8.199   3.101 -33.185  1.00  0.00     0.273 C 
HETATM    2  N   UNL     1      -7.861   1.772 -33.244  1.00  0.00    -0.346 N 
HETATM    3  O   UNL     1      -7.616   3.925 -32.487  1.00  0.00    -0.266 OA
HETATM    4  H   UNL     1      -8.413   1.208 -33.882  1.00  0.00     0.163 HD
ENDROOT
BRANCH   2   5
HETATM    5  C   UNL     1      -6.740   1.193 -32.550  1.00  0.00     0.122 C 
BRANCH   5   6
HETATM    6  C   UNL     1      -7.033   0.943 -31.086  1.00  0.00     0.013 A 
HETATM    7  C   UNL     1      -6.288  -0.123 -30.313  1.00  0.00     0.007 A 
HETATM    8  C   UNL     1      -6.099   1.326 -29.957  1.00  0.00     0.007 A 
ENDBRANCH   5   6
BRANCH   5   9
HETATM    9  C   UNL     1      -6.330  -0.098 -33.240  1.00  0.00    -0.035 A 
HETATM   10  C   UNL     1      -7.312  -0.990 -33.694  1.00  0.00     0.012 A 
HETATM   11  C   UNL     1      -6.951  -2.194 -34.304  1.00  0.00     0.037 A 
HETATM   12  C   UNL     1      -5.608  -2.537 -34.466  1.00  0.00     0.068 A 
HETATM   13  C   UNL     1      -4.623  -1.661 -34.014  1.00  0.00     0.037 A 
HETATM   14  C   UNL     1      -4.982  -0.453 -33.405  1.00  0.00     0.012 A 
BRANCH  12  15
HETATM   15  O   UNL     1      -5.395  -3.745 -35.074  1.00  0.00    -0.356 OA
HETATM   16  C   UNL     1      -6.545  -4.527 -35.366  1.00  0.00     0.210 C 
ENDBRANCH  12  15
ENDBRANCH   5   9
ENDBRANCH   2   5
BRANCH   1  17
HETATM   17  C   UNL     1      -9.336   3.436 -34.060  1.00  0.00     0.157 A 
HETATM   18  C   UNL     1     -10.547   2.700 -34.229  1.00  0.00     0.029 A 
HETATM   19  C   UNL     1     -11.092   1.507 -33.714  1.00  0.00     0.023 A 
HETATM   20  C   UNL     1     -11.294   3.438 -35.139  1.00  0.00     0.063 A 
HETATM   21  C   UNL     1     -12.368   1.092 -34.130  1.00  0.00    -0.061 A 
HETATM   22  C   UNL     1     -12.971  -0.173 -33.588  1.00  0.00     0.048 C 
HETATM   23  C   UNL     1     -13.089   1.868 -35.046  1.00  0.00     0.009 A 
HETATM   24  C   UNL     1     -12.567   3.057 -35.570  1.00  0.00     0.032 A 
HETATM   25  N   UNL     1     -10.518   4.520 -35.449  1.00  0.00    -0.277 N 
HETATM   26  H   UNL     1     -10.748   5.275 -36.085  1.00  0.00     0.189 HD
HETATM   27  N   UNL     1      -9.330   4.553 -34.823  1.00  0.00    -0.168 NA
ENDBRANCH   1  17
TORSDOF 5
ENDMDL
MODEL 4
REMARK VINA RESULT:      -8.0      3.356      5.169
REMARK  5 active torsions:
REMARK  status: ('A' for Active; 'I' for Inactive)
REMARK    1  A    between atoms: C_9  and  C_10 
REMARK       I    between atoms: C_10  and  N_11 
REMARK    2  A    between atoms: N_11  and  C_12 
REMARK    3  A    between atoms: C_12  and  C_13 
REMARK    4  A    between atoms: C_12  and  C_16 
REMARK    5  A    between atoms: C_19  and  O_20 
ROOT
HETATM    1  C   UNL     1      -3.640   2.557 -31.450  1.00  0.00     0.273 C 
HETATM    2  N   UNL     1      -3.544   3.769 -32.087  1.00  0.00    -0.346 N 
HETATM    3  O   UNL     1      -2.675   1.852 -31.169  1.00  0.00    -0.266 OA
HETATM    4  H   UNL     1      -4.421   4.256 -32.235  1.00  0.00     0.163 HD
ENDROOT
BRANCH   2   5
HETATM    5  C   UNL     1      -2.297   4.396 -32.441  1.00  0.00     0.122 C 
BRANCH   5   6
HETATM    6  C   UNL     1      -2.425   5.292 -33.655  1.00  0.00     0.013 A 
HETATM    7  C   UNL     1      -1.279   6.174 -34.097  1.00  0.00     0.007 A 
HETATM    8  C   UNL     1      -1.725   5.037 -34.974  1.00  0.00     0.007 A 
ENDBRANCH   5   6
BRANCH   5   9
HETATM    9  C   UNL     1      -1.772   5.183 -31.251  1.00  0.00    -0.035 A 
HETATM   10  C   UNL     1      -2.567   6.179 -30.665  1.00  0.00     0.012 A 
HETATM   11  C   UNL     1      -2.087   6.930 -29.590  1.00  0.00     0.037 A 
HETATM   12  C   UNL     1      -0.805   6.712 -29.082  1.00  0.00     0.068 A 
HETATM   13  C   UNL     1      -0.003   5.729 -29.659  1.00  0.00     0.037 A 
HETATM   14  C   UNL     1      -0.483   4.973 -30.736  1.00  0.00     0.012 A 
BRANCH  12  15
HETATM   15  O   UNL     1      -0.460   7.520 -28.033  1.00  0.00    -0.356 OA
HETATM   16  C   UNL     1       0.747   7.205 -27.352  1.00  0.00     0.210 C 
ENDBRANCH  12  15
ENDBRANCH   5   9
ENDBRANCH   2   5
BRANCH   1  17
HETATM   17  C   UNL     1      -5.032   2.194 -31.130  1.00  0.00     0.157 A 
HETATM   18  C   UNL     1      -5.945   1.457 -31.942  1.00  0.00     0.029 A 
HETATM   19  C   UNL     1      -5.914   0.856 -33.217  1.00  0.00     0.023 A 
HETATM   20  C   UNL     1      -7.108   1.368 -31.189  1.00  0.00     0.063 A 
HETATM   21  C   UNL     1      -7.054   0.187 -33.694  1.00  0.00    -0.061 A 
HETATM   22  C   UNL     1      -7.041  -0.467 -35.046  1.00  0.00     0.048 C 
HETATM   23  C   UNL     1      -8.205   0.116 -32.899  1.00  0.00     0.009 A 
HETATM   24  C   UNL     1      -8.257   0.706 -31.631  1.00  0.00     0.032 A 
HETATM   25  N   UNL     1      -6.836   2.031 -30.025  1.00  0.00    -0.277 N 
HETATM   26  H   UNL     1      -7.459   2.164 -29.237  1.00  0.00     0.189 HD
HETATM   27  N   UNL     1      -5.597   2.546 -29.952  1.00  0.00    -0.168 NA
ENDBRANCH   1  17
TORSDOF 5
ENDMDL
MODEL 5
REMARK VINA RESULT:      -7.8      2.949      4.827
REMARK  5 active torsions:
REMARK  status: ('A' for Active; 'I' for Inactive)
REMARK    1  A    between atoms: C_9  and  C_10 
REMARK       I    between atoms: C_10  and  N_11 
REMARK    2  A    between atoms: N_11  and  C_12 
REMARK    3  A    between atoms: C_12  and  C_13 
REMARK    4  A    between atoms: C_12  and  C_16 
REMARK    5  A    between atoms: C_19  and  O_20 
ROOT
HETATM    1  C   UNL     1      -5.438   0.287 -32.487  1.00  0.00     0.273 C 
HETATM    2  N   UNL     1      -6.220   0.438 -31.369  1.00  0.00    -0.346 N 
HETATM    3  O   UNL     1      -5.458   1.054 -33.445  1.00  0.00    -0.266 OA
HETATM    4  H   UNL     1      -6.083  -0.257 -30.643  1.00  0.00     0.163 HD
ENDROOT
BRANCH   2   5
HETATM    5  C   UNL     1      -7.107   1.551 -31.150  1.00  0.00     0.122 C 
BRANCH   5   6
HETATM    6  C   UNL     1      -6.398   2.884 -31.252  1.00  0.00     0.013 A 
HETATM    7  C   UNL     1      -6.696   4.002 -30.277  1.00  0.00     0.007 A 
HETATM    8  C   UNL     1      -5.338   3.357 -30.280  1.00  0.00     0.007 A 
ENDBRANCH   5   6
BRANCH   5   9
HETATM    9  C   UNL     1      -8.258   1.481 -32.141  1.00  0.00    -0.035 A 
HETATM   10  C   UNL     1      -8.491   2.549 -33.019  1.00  0.00     0.012 A 
HETATM   11  C   UNL     1      -9.562   2.513 -33.915  1.00  0.00     0.037 A 
HETATM   12  C   UNL     1     -10.427   1.417 -33.950  1.00  0.00     0.068 A 
HETATM   13  C   UNL     1     -10.209   0.351 -33.078  1.00  0.00     0.037 A 
HETATM   14  C   UNL     1      -9.135   0.384 -32.181  1.00  0.00     0.012 A 
BRANCH  12  15
HETATM   15  O   UNL     1     -11.435   1.513 -34.870  1.00  0.00    -0.356 OA
HETATM   16  C   UNL     1     -12.741   1.166 -34.428  1.00  0.00     0.210 C 
ENDBRANCH  12  15
ENDBRANCH   5   9
ENDBRANCH   2   5
BRANCH   1  17
HETATM   17  C   UNL     1      -4.563  -0.896 -32.411  1.00  0.00     0.157 A 
HETATM   18  C   UNL     1      -4.698  -2.122 -33.126  1.00  0.00     0.029 A 
HETATM   19  C   UNL     1      -5.600  -2.656 -34.069  1.00  0.00     0.023 A 
HETATM   20  C   UNL     1      -3.620  -2.899 -32.720  1.00  0.00     0.063 A 
HETATM   21  C   UNL     1      -5.392  -3.952 -34.571  1.00  0.00    -0.061 A 
HETATM   22  C   UNL     1      -6.337  -4.537 -35.581  1.00  0.00     0.048 C 
HETATM   23  C   UNL     1      -4.289  -4.698 -34.137  1.00  0.00     0.009 A 
HETATM   24  C   UNL     1      -3.381  -4.188 -33.202  1.00  0.00     0.032 A 
HETATM   25  N   UNL     1      -2.938  -2.126 -31.822  1.00  0.00    -0.277 N 
HETATM   26  H   UNL     1      -2.091  -2.372 -31.322  1.00  0.00     0.189 HD
HETATM   27  N   UNL     1      -3.476  -0.914 -31.606  1.00  0.00    -0.168 NA
ENDBRANCH   1  17
TORSDOF 5
ENDMDL
MODEL 6
REMARK VINA RESULT:      -7.8      2.171      4.198
REMARK  5 active torsions:
REMARK  status: ('A' for Active; 'I' for Inactive)
REMARK    1  A    between atoms: C_9  and  C_10 
REMARK       I    between atoms: C_10  and  N_11 
REMARK    2  A    between atoms: N_11  and  C_12 
REMARK    3  A    between atoms: C_12  and  C_13 
REMARK    4  A    between atoms: C_12  and  C_16 
REMARK    5  A    between atoms: C_19  and  O_20 
ROOT
HETATM    1  C   UNL     1      -3.243   0.320 -31.669  1.00  0.00     0.273 C 
HETATM    2  N   UNL     1      -3.913   1.410 -32.163  1.00  0.00    -0.346 N 
HETATM    3  O   UNL     1      -2.413   0.377 -30.766  1.00  0.00    -0.266 OA
HETATM    4  H   UNL     1      -4.590   1.214 -32.893  1.00  0.00     0.163 HD
ENDROOT
BRANCH   2   5
HETATM    5  C   UNL     1      -3.779   2.745 -31.639  1.00  0.00     0.122 C 
BRANCH   5   6
HETATM    6  C   UNL     1      -3.086   3.679 -32.607  1.00  0.00     0.013 A 
HETATM    7  C   UNL     1      -3.203   5.181 -32.460  1.00  0.00     0.007 A 
HETATM    8  C   UNL     1      -1.871   4.513 -32.257  1.00  0.00     0.007 A 
ENDBRANCH   5   6
BRANCH   5   9
HETATM    9  C   UNL     1      -5.153   3.282 -31.270  1.00  0.00    -0.035 A 
HETATM   10  C   UNL     1      -5.388   3.775 -29.978  1.00  0.00     0.012 A 
HETATM   11  C   UNL     1      -6.652   4.245 -29.615  1.00  0.00     0.037 A 
HETATM   12  C   UNL     1      -7.710   4.225 -30.527  1.00  0.00     0.068 A 
HETATM   13  C   UNL     1      -7.491   3.733 -31.812  1.00  0.00     0.037 A 
HETATM   14  C   UNL     1      -6.223   3.263 -32.179  1.00  0.00     0.012 A 
BRANCH  12  15
HETATM   15  O   UNL     1      -8.893   4.709 -30.040  1.00  0.00    -0.356 OA
HETATM   16  C   UNL     1     -10.076   4.026 -30.434  1.00  0.00     0.210 C 
ENDBRANCH  12  15
ENDBRANCH   5   9
ENDBRANCH   2   5
BRANCH   1  17
HETATM   17  C   UNL     1      -3.633  -0.935 -32.335  1.00  0.00     0.157 A 
HETATM   18  C   UNL     1      -4.710  -1.134 -33.249  1.00  0.00     0.029 A 
HETATM   19  C   UNL     1      -5.721  -0.333 -33.817  1.00  0.00     0.023 A 
HETATM   20  C   UNL     1      -4.643  -2.476 -33.601  1.00  0.00     0.063 A 
HETATM   21  C   UNL     1      -6.634  -0.907 -34.719  1.00  0.00    -0.061 A 
HETATM   22  C   UNL     1      -7.715  -0.072 -35.343  1.00  0.00     0.048 C 
HETATM   23  C   UNL     1      -6.526  -2.264 -35.050  1.00  0.00     0.009 A 
HETATM   24  C   UNL     1      -5.530  -3.077 -34.497  1.00  0.00     0.032 A 
HETATM   25  N   UNL     1      -3.580  -2.979 -32.903  1.00  0.00    -0.277 N 
HETATM   26  H   UNL     1      -3.234  -3.931 -32.918  1.00  0.00     0.189 HD
HETATM   27  N   UNL     1      -2.947  -2.083 -32.126  1.00  0.00    -0.168 NA
ENDBRANCH   1  17
TORSDOF 5
ENDMDL
MODEL 7
REMARK VINA RESULT:      -7.7      2.325      4.090
REMARK  5 active torsions:
REMARK  status: ('A' for Active; 'I' for Inactive)
REMARK    1  A    between atoms: C_9  and  C_10 
REMARK       I    between atoms: C_10  and  N_11 
REMARK    2  A    between atoms: N_11  and  C_12 
REMARK    3  A    between atoms: C_12  and  C_13 
REMARK    4  A    between atoms: C_12  and  C_16 
REMARK    5  A    between atoms: C_19  and  O_20 
ROOT
HETATM    1  C   UNL     1      -3.641   2.269 -31.622  1.00  0.00     0.273 C 
HETATM    2  N   UNL     1      -3.200   2.980 -32.711  1.00  0.00    -0.346 N 
HETATM    3  O   UNL     1      -4.127   2.783 -30.620  1.00  0.00    -0.266 OA
HETATM    4  H   UNL     1      -2.842   2.424 -33.480  1.00  0.00     0.163 HD
ENDROOT
BRANCH   2   5
HETATM    5  C   UNL     1      -3.317   4.409 -32.841  1.00  0.00     0.122 C 
BRANCH   5   6
HETATM    6  C   UNL     1      -2.556   4.945 -34.035  1.00  0.00     0.013 A 
HETATM    7  C   UNL     1      -2.415   6.434 -34.264  1.00  0.00     0.007 A 
HETATM    8  C   UNL     1      -1.198   5.610 -33.946  1.00  0.00     0.007 A 
ENDBRANCH   5   6
BRANCH   5   9
HETATM    9  C   UNL     1      -4.787   4.789 -32.931  1.00  0.00    -0.035 A 
HETATM   10  C   UNL     1      -5.640   4.082 -33.790  1.00  0.00     0.012 A 
HETATM   11  C   UNL     1      -6.986   4.437 -33.905  1.00  0.00     0.037 A 
HETATM   12  C   UNL     1      -7.507   5.507 -33.176  1.00  0.00     0.068 A 
HETATM   13  C   UNL     1      -6.668   6.221 -32.323  1.00  0.00     0.037 A 
HETATM   14  C   UNL     1      -5.319   5.866 -32.203  1.00  0.00     0.012 A 
BRANCH  12  15
HETATM   15  O   UNL     1      -8.837   5.750 -33.387  1.00  0.00    -0.356 OA
HETATM   16  C   UNL     1      -9.417   5.179 -34.552  1.00  0.00     0.210 C 
ENDBRANCH  12  15
ENDBRANCH   5   9
ENDBRANCH   2   5
BRANCH   1  17
HETATM   17  C   UNL     1      -3.474   0.815 -31.790  1.00  0.00     0.157 A 
HETATM   18  C   UNL     1      -4.246  -0.057 -32.614  1.00  0.00     0.029 A 
HETATM   19  C   UNL     1      -5.345   0.076 -33.486  1.00  0.00     0.023 A 
HETATM   20  C   UNL     1      -3.682  -1.315 -32.437  1.00  0.00     0.063 A 
HETATM   21  C   UNL     1      -5.843  -1.057 -34.151  1.00  0.00    -0.061 A 
HETATM   22  C   UNL     1      -7.008  -0.936 -35.091  1.00  0.00     0.048 C 
HETATM   23  C   UNL     1      -5.241  -2.305 -33.948  1.00  0.00     0.009 A 
HETATM   24  C   UNL     1      -4.149  -2.461 -33.085  1.00  0.00     0.032 A 
HETATM   25  N   UNL     1      -2.655  -1.128 -31.553  1.00  0.00    -0.277 N 
HETATM   26  H   UNL     1      -2.021  -1.833 -31.197  1.00  0.00     0.189 HD
HETATM   27  N   UNL     1      -2.500   0.140 -31.138  1.00  0.00    -0.168 NA
ENDBRANCH   1  17
TORSDOF 5
ENDMDL
MODEL 8
REMARK VINA RESULT:      -7.4      4.544      6.325
REMARK  5 active torsions:
REMARK  status: ('A' for Active; 'I' for Inactive)
REMARK    1  A    between atoms: C_9  and  C_10 
REMARK       I    between atoms: C_10  and  N_11 
REMARK    2  A    between atoms: N_11  and  C_12 
REMARK    3  A    between atoms: C_12  and  C_13 
REMARK    4  A    between atoms: C_12  and  C_16 
REMARK    5  A    between atoms: C_19  and  O_20 
ROOT
HETATM    1  C   UNL     1      -8.421   1.478 -32.850  1.00  0.00     0.273 C 
HETATM    2  N   UNL     1      -7.153   1.695 -33.331  1.00  0.00    -0.346 N 
HETATM    3  O   UNL     1      -8.672   0.780 -31.872  1.00  0.00    -0.266 OA
HETATM    4  H   UNL     1      -7.090   2.314 -34.132  1.00  0.00     0.163 HD
ENDROOT
BRANCH   2   5
HETATM    5  C   UNL     1      -5.957   1.189 -32.709  1.00  0.00     0.122 C 
BRANCH   5   6
HETATM    6  C   UNL     1      -5.348   0.038 -33.479  1.00  0.00     0.013 A 
HETATM    7  C   UNL     1      -4.727  -1.139 -32.759  1.00  0.00     0.007 A 
HETATM    8  C   UNL     1      -5.971  -1.339 -33.580  1.00  0.00     0.007 A 
ENDBRANCH   5   6
BRANCH   5   9
HETATM    9  C   UNL     1      -4.952   2.320 -32.554  1.00  0.00    -0.035 A 
HETATM   10  C   UNL     1      -5.114   3.504 -33.287  1.00  0.00     0.012 A 
HETATM   11  C   UNL     1      -4.183   4.540 -33.178  1.00  0.00     0.037 A 
HETATM   12  C   UNL     1      -3.069   4.414 -32.346  1.00  0.00     0.068 A 
HETATM   13  C   UNL     1      -2.894   3.239 -31.616  1.00  0.00     0.037 A 
HETATM   14  C   UNL     1      -3.827   2.200 -31.722  1.00  0.00     0.012 A 
BRANCH  12  15
HETATM   15  O   UNL     1      -2.236   5.499 -32.337  1.00  0.00    -0.356 OA
HETATM   16  C   UNL     1      -0.853   5.244 -32.130  1.00  0.00     0.210 C 
ENDBRANCH  12  15
ENDBRANCH   5   9
ENDBRANCH   2   5
BRANCH   1  17
HETATM   17  C   UNL     1      -9.452   2.183 -33.631  1.00  0.00     0.157 A 
HETATM   18  C   UNL     1     -10.792   1.762 -33.879  1.00  0.00     0.029 A 
HETATM   19  C   UNL     1     -11.586   0.648 -33.539  1.00  0.00     0.023 A 
HETATM   20  C   UNL     1     -11.355   2.776 -34.643  1.00  0.00     0.063 A 
HETATM   21  C   UNL     1     -12.919   0.588 -33.980  1.00  0.00    -0.061 A 
HETATM   22  C   UNL     1     -13.786  -0.586 -33.624  1.00  0.00     0.048 C 
HETATM   23  C   UNL     1     -13.448   1.635 -34.745  1.00  0.00     0.009 A 
HETATM   24  C   UNL     1     -12.677   2.750 -35.094  1.00  0.00     0.032 A 
HETATM   25  N   UNL     1     -10.360   3.700 -34.804  1.00  0.00    -0.277 N 
HETATM   26  H   UNL     1     -10.417   4.577 -35.309  1.00  0.00     0.189 HD
HETATM   27  N   UNL     1      -9.197   3.378 -34.212  1.00  0.00    -0.168 NA
ENDBRANCH   1  17
TORSDOF 5
ENDMDL
MODEL 9
REMARK VINA RESULT:      -7.4      2.379      7.339
REMARK  5 active torsions:
REMARK  status: ('A' for Active; 'I' for Inactive)
REMARK    1  A    between atoms: C_9  and  C_10 
REMARK       I    between atoms: C_10  and  N_11 
REMARK    2  A    between atoms: N_11  and  C_12 
REMARK    3  A    between atoms: C_12  and  C_13 
REMARK    4  A    between atoms: C_12  and  C_16 
REMARK    5  A    between atoms: C_19  and  O_20 
ROOT
HETATM    1  C   UNL     1      -5.921   2.808 -32.453  1.00  0.00     0.273 C 
HETATM    2  N   UNL     1      -6.459   1.834 -31.650  1.00  0.00    -0.346 N 
HETATM    3  O   UNL     1      -6.179   2.931 -33.647  1.00  0.00    -0.266 OA
HETATM    4  H   UNL     1      -6.176   1.865 -30.676  1.00  0.00     0.163 HD
ENDROOT
BRANCH   2   5
HETATM    5  C   UNL     1      -7.444   0.880 -32.089  1.00  0.00     0.122 C 
BRANCH   5   6
HETATM    6  C   UNL     1      -8.538   1.519 -32.917  1.00  0.00     0.013 A 
HETATM    7  C   UNL     1      -9.958   0.998 -32.866  1.00  0.00     0.007 A 
HETATM    8  C   UNL     1      -9.648   2.373 -32.340  1.00  0.00     0.007 A 
ENDBRANCH   5   6
BRANCH   5   9
HETATM    9  C   UNL     1      -6.759  -0.228 -32.874  1.00  0.00    -0.035 A 
HETATM   10  C   UNL     1      -7.418  -0.828 -33.956  1.00  0.00     0.012 A 
HETATM   11  C   UNL     1      -6.814  -1.867 -34.669  1.00  0.00     0.037 A 
HETATM   12  C   UNL     1      -5.547  -2.334 -34.313  1.00  0.00     0.068 A 
HETATM   13  C   UNL     1      -4.884  -1.749 -33.236  1.00  0.00     0.037 A 
HETATM   14  C   UNL     1      -5.486  -0.706 -32.522  1.00  0.00     0.012 A 
BRANCH  12  15
HETATM   15  O   UNL     1      -5.075  -3.357 -35.090  1.00  0.00    -0.356 OA
HETATM   16  C   UNL     1      -5.839  -4.555 -35.106  1.00  0.00     0.210 C 
ENDBRANCH  12  15
ENDBRANCH   5   9
ENDBRANCH   2   5
BRANCH   1  17
HETATM   17  C   UNL     1      -5.003   3.700 -31.725  1.00  0.00     0.157 A 
HETATM   18  C   UNL     1      -3.841   4.353 -32.234  1.00  0.00     0.029 A 
HETATM   19  C   UNL     1      -3.166   4.408 -33.470  1.00  0.00     0.023 A 
HETATM   20  C   UNL     1      -3.341   5.087 -31.166  1.00  0.00     0.063 A 
HETATM   21  C   UNL     1      -2.010   5.198 -33.593  1.00  0.00    -0.061 A 
HETATM   22  C   UNL     1      -1.279   5.277 -34.903  1.00  0.00     0.048 C 
HETATM   23  C   UNL     1      -1.543   5.926 -32.492  1.00  0.00     0.009 A 
HETATM   24  C   UNL     1      -2.197   5.885 -31.255  1.00  0.00     0.032 A 
HETATM   25  N   UNL     1      -4.193   4.837 -30.127  1.00  0.00    -0.277 N 
HETATM   26  H   UNL     1      -4.136   5.210 -29.186  1.00  0.00     0.189 HD
HETATM   27  N   UNL     1      -5.205   4.003 -30.422  1.00  0.00    -0.168 NA
ENDBRANCH   1  17
TORSDOF 5
ENDMDL
MODEL 10
REMARK VINA RESULT:      -7.4      5.579      6.685
REMARK  5 active torsions:
REMARK  status: ('A' for Active; 'I' for Inactive)
REMARK    1  A    between atoms: C_9  and  C_10 
REMARK       I    between atoms: C_10  and  N_11 
REMARK    2  A    between atoms: N_11  and  C_12 
REMARK    3  A    between atoms: C_12  and  C_13 
REMARK    4  A    between atoms: C_12  and  C_16 
REMARK    5  A    between atoms: C_19  and  O_20 
ROOT
HETATM    1  C   UNL     1      -9.412   0.321 -33.424  1.00  0.00     0.273 C 
HETATM    2  N   UNL     1      -9.866   1.236 -34.341  1.00  0.00    -0.346 N 
HETATM    3  O   UNL     1     -10.146  -0.348 -32.702  1.00  0.00    -0.266 OA
HETATM    4  H   UNL     1      -9.149   1.700 -34.887  1.00  0.00     0.163 HD
ENDROOT
BRANCH   2   5
HETATM    5  C   UNL     1     -11.258   1.474 -34.620  1.00  0.00     0.122 C 
BRANCH   5   6
HETATM    6  C   UNL     1     -12.170   0.845 -33.589  1.00  0.00     0.013 A 
HETATM    7  C   UNL     1     -13.582   1.351 -33.384  1.00  0.00     0.007 A 
HETATM    8  C   UNL     1     -13.357  -0.033 -33.929  1.00  0.00     0.007 A 
ENDBRANCH   5   6
BRANCH   5   9
HETATM    9  C   UNL     1     -11.506   2.972 -34.708  1.00  0.00    -0.035 A 
HETATM   10  C   UNL     1     -12.396   3.479 -35.665  1.00  0.00     0.012 A 
HETATM   11  C   UNL     1     -12.612   4.854 -35.778  1.00  0.00     0.037 A 
HETATM   12  C   UNL     1     -11.940   5.753 -34.947  1.00  0.00     0.068 A 
HETATM   13  C   UNL     1     -11.048   5.261 -33.994  1.00  0.00     0.037 A 
HETATM   14  C   UNL     1     -10.832   3.883 -33.878  1.00  0.00     0.012 A 
BRANCH  12  15
HETATM   15  O   UNL     1     -12.239   7.069 -35.166  1.00  0.00    -0.356 OA
HETATM   16  C   UNL     1     -13.254   7.345 -36.122  1.00  0.00     0.210 C 
ENDBRANCH  12  15
ENDBRANCH   5   9
ENDBRANCH   2   5
BRANCH   1  17
HETATM   17  C   UNL     1      -7.942   0.220 -33.403  1.00  0.00     0.157 A 
HETATM   18  C   UNL     1      -7.143  -0.889 -33.809  1.00  0.00     0.029 A 
HETATM   19  C   UNL     1      -7.381  -2.182 -34.319  1.00  0.00     0.023 A 
HETATM   20  C   UNL     1      -5.830  -0.479 -33.615  1.00  0.00     0.063 A 
HETATM   21  C   UNL     1      -6.294  -3.020 -34.617  1.00  0.00    -0.061 A 
HETATM   22  C   UNL     1      -6.524  -4.398 -35.168  1.00  0.00     0.048 C 
HETATM   23  C   UNL     1      -4.985  -2.565 -34.410  1.00  0.00     0.009 A 
HETATM   24  C   UNL     1      -4.726  -1.285 -33.904  1.00  0.00     0.032 A 
HETATM   25  N   UNL     1      -5.919   0.793 -33.122  1.00  0.00    -0.277 N 
HETATM   26  H   UNL     1      -5.152   1.404 -32.867  1.00  0.00     0.189 HD
HETATM   27  N   UNL     1      -7.174   1.249 -32.977  1.00  0.00    -0.168 NA
ENDBRANCH   1  17
TORSDOF 5
ENDMDL
