MODEL 1
REMARK VINA RESULT:      -9.5      0.000      0.000
REMARK  4 active torsions:
REMARK  status: ('A' for Active; 'I' for Inactive)
REMARK    1  A    between atoms: C_9  and  C_10 
REMARK       I    between atoms: C_10  and  N_11 
REMARK    2  A    between atoms: N_11  and  N_12 
REMARK       I    between atoms: N_12  and  C_13 
REMARK    3  A    between atoms: C_13  and  C_14 
REMARK    4  A    between atoms: C_14  and  C_15 
ROOT
HETATM    1  C   UNL     1      -3.173   0.099 -31.651  1.00  0.00     0.291 C 
HETATM    2  N   UNL     1      -3.926   1.209 -31.986  1.00  0.00    -0.262 N 
HETATM    3  O   UNL     1      -2.238   0.153 -30.853  1.00  0.00    -0.264 OA
HETATM    4  H   UNL     1      -4.786   1.085 -32.527  1.00  0.00     0.190 HD
ENDROOT
BRANCH   2   5
HETATM    5  N   UNL     1      -3.745   2.404 -31.285  1.00  0.00    -0.267 N 
HETATM    6  C   UNL     1      -4.023   3.590 -31.942  1.00  0.00     0.236 C 
HETATM    7  O   UNL     1      -4.291   3.633 -33.138  1.00  0.00    -0.272 OA
HETATM    8  H   UNL     1      -3.750   2.333 -30.269  1.00  0.00     0.190 HD
BRANCH   6   9
HETATM    9  C   UNL     1      -3.935   4.794 -31.017  1.00  0.00     0.114 C 
BRANCH   9  10
HETATM   10  C   UNL     1      -2.821   5.828 -31.296  1.00  0.00    -0.031 C 
HETATM   11  C   UNL     1      -3.176   6.758 -32.484  1.00  0.00     0.014 C 
HETATM   12  C   UNL     1      -2.077   7.815 -32.695  1.00  0.00    -0.013 C 
HETATM   13  C   UNL     1      -0.740   7.107 -32.972  1.00  0.00     0.009 C 
HETATM   14  C   UNL     1      -1.944   8.672 -31.426  1.00  0.00     0.009 C 
HETATM   15  C   UNL     1      -0.356   6.215 -31.780  1.00  0.00    -0.013 C 
HETATM   16  C   UNL     1      -1.451   5.155 -31.566  1.00  0.00     0.014 C 
HETATM   17  C   UNL     1      -0.233   7.080 -30.517  1.00  0.00     0.009 C 
HETATM   18  C   UNL     1      -1.570   7.782 -30.231  1.00  0.00    -0.013 C 
HETATM   19  C   UNL     1      -2.664   6.721 -30.029  1.00  0.00     0.014 C 
ENDBRANCH   9  10
ENDBRANCH   6   9
ENDBRANCH   2   5
BRANCH   1  20
HETATM   20  C   UNL     1      -3.609  -1.128 -32.331  1.00  0.00     0.158 A 
HETATM   21  C   UNL     1      -4.688  -1.272 -33.253  1.00  0.00     0.029 A 
HETATM   22  C   UNL     1      -5.657  -0.422 -33.824  1.00  0.00     0.023 A 
HETATM   23  C   UNL     1      -4.689  -2.616 -33.602  1.00  0.00     0.063 A 
HETATM   24  C   UNL     1      -6.590  -0.949 -34.734  1.00  0.00    -0.061 A 
HETATM   25  C   UNL     1      -7.645  -0.065 -35.337  1.00  0.00     0.048 C 
HETATM   26  C   UNL     1      -6.562  -2.313 -35.049  1.00  0.00     0.009 A 
HETATM   27  C   UNL     1      -5.609  -3.175 -34.493  1.00  0.00     0.032 A 
HETATM   28  N   UNL     1      -3.655  -3.172 -32.903  1.00  0.00    -0.277 N 
HETATM   29  H   UNL     1      -3.357  -4.141 -32.912  1.00  0.00     0.189 HD
HETATM   30  N   UNL     1      -2.981  -2.306 -32.127  1.00  0.00    -0.168 NA
ENDBRANCH   1  20
TORSDOF 4
ENDMDL
MODEL 2
REMARK VINA RESULT:      -9.4      1.750      2.734
REMARK  4 active torsions:
REMARK  status: ('A' for Active; 'I' for Inactive)
REMARK    1  A    between atoms: C_9  and  C_10 
REMARK       I    between atoms: C_10  and  N_11 
REMARK    2  A    between atoms: N_11  and  N_12 
REMARK       I    between atoms: N_12  and  C_13 
REMARK    3  A    between atoms: C_13  and  C_14 
REMARK    4  A    between atoms: C_14  and  C_15 
ROOT
HETATM    1  C   UNL     1      -4.848   0.583 -32.964  1.00  0.00     0.291 C 
HETATM    2  N   UNL     1      -5.514   1.727 -32.563  1.00  0.00    -0.262 N 
HETATM    3  O   UNL     1      -3.644   0.418 -32.771  1.00  0.00    -0.264 OA
HETATM    4  H   UNL     1      -6.535   1.751 -32.602  1.00  0.00     0.190 HD
ENDROOT
BRANCH   2   5
HETATM    5  N   UNL     1      -4.854   2.666 -31.766  1.00  0.00    -0.267 N 
HETATM    6  C   UNL     1      -4.890   3.992 -32.162  1.00  0.00     0.236 C 
HETATM    7  O   UNL     1      -5.359   4.346 -33.238  1.00  0.00    -0.272 OA
HETATM    8  H   UNL     1      -4.682   2.393 -30.800  1.00  0.00     0.190 HD
BRANCH   6   9
HETATM    9  C   UNL     1      -4.271   4.918 -31.126  1.00  0.00     0.114 C 
BRANCH   9  10
HETATM   10  C   UNL     1      -2.983   5.673 -31.523  1.00  0.00    -0.031 C 
HETATM   11  C   UNL     1      -1.927   4.728 -32.155  1.00  0.00     0.014 C 
HETATM   12  C   UNL     1      -0.684   5.521 -32.597  1.00  0.00    -0.013 C 
HETATM   13  C   UNL     1      -0.077   6.235 -31.378  1.00  0.00     0.009 C 
HETATM   14  C   UNL     1      -1.093   6.568 -33.646  1.00  0.00     0.009 C 
HETATM   15  C   UNL     1      -1.101   7.206 -30.769  1.00  0.00    -0.013 C 
HETATM   16  C   UNL     1      -2.346   6.419 -30.323  1.00  0.00     0.014 C 
HETATM   17  C   UNL     1      -1.508   8.243 -31.827  1.00  0.00     0.009 C 
HETATM   18  C   UNL     1      -2.124   7.535 -33.044  1.00  0.00    -0.013 C 
HETATM   19  C   UNL     1      -3.360   6.740 -32.593  1.00  0.00     0.014 C 
ENDBRANCH   9  10
ENDBRANCH   6   9
ENDBRANCH   2   5
BRANCH   1  20
HETATM   20  C   UNL     1      -5.721  -0.398 -33.622  1.00  0.00     0.158 A 
HETATM   21  C   UNL     1      -5.436  -1.769 -33.893  1.00  0.00     0.029 A 
HETATM   22  C   UNL     1      -4.352  -2.644 -33.676  1.00  0.00     0.023 A 
HETATM   23  C   UNL     1      -6.571  -2.257 -34.527  1.00  0.00     0.063 A 
HETATM   24  C   UNL     1      -4.447  -3.982 -34.096  1.00  0.00    -0.061 A 
HETATM   25  C   UNL     1      -3.295  -4.924 -33.894  1.00  0.00     0.048 C 
HETATM   26  C   UNL     1      -5.606  -4.429 -34.742  1.00  0.00     0.009 A 
HETATM   27  C   UNL     1      -6.694  -3.577 -34.969  1.00  0.00     0.032 A 
HETATM   28  N   UNL     1      -7.432  -1.197 -34.593  1.00  0.00    -0.277 N 
HETATM   29  H   UNL     1      -8.363  -1.186 -34.993  1.00  0.00     0.189 HD
HETATM   30  N   UNL     1      -6.955  -0.060 -34.057  1.00  0.00    -0.168 NA
ENDBRANCH   1  20
TORSDOF 4
ENDMDL
MODEL 3
REMARK VINA RESULT:      -9.3      5.028      7.721
REMARK  4 active torsions:
REMARK  status: ('A' for Active; 'I' for Inactive)
REMARK    1  A    between atoms: C_9  and  C_10 
REMARK       I    between atoms: C_10  and  N_11 
REMARK    2  A    between atoms: N_11  and  N_12 
REMARK       I    between atoms: N_12  and  C_13 
REMARK    3  A    between atoms: C_13  and  C_14 
REMARK    4  A    between atoms: C_14  and  C_15 
ROOT
HETATM    1  C   UNL     1      -5.356   0.552 -32.911  1.00  0.00     0.291 C 
HETATM    2  N   UNL     1      -6.707   0.270 -32.994  1.00  0.00    -0.262 N 
HETATM    3  O   UNL     1      -4.911   1.692 -33.043  1.00  0.00    -0.264 OA
HETATM    4  H   UNL     1      -7.042  -0.657 -32.722  1.00  0.00     0.190 HD
ENDROOT
BRANCH   2   5
HETATM    5  N   UNL     1      -7.629   1.319 -33.063  1.00  0.00    -0.267 N 
HETATM    6  C   UNL     1      -8.728   1.271 -32.224  1.00  0.00     0.236 C 
HETATM    7  O   UNL     1      -8.985   0.294 -31.528  1.00  0.00    -0.272 OA
HETATM    8  H   UNL     1      -7.287   2.192 -33.460  1.00  0.00     0.190 HD
BRANCH   6   9
HETATM    9  C   UNL     1      -9.559   2.545 -32.292  1.00  0.00     0.114 C 
BRANCH   9  10
HETATM   10  C   UNL     1     -10.788   2.544 -33.227  1.00  0.00    -0.031 C 
HETATM   11  C   UNL     1     -11.333   1.113 -33.469  1.00  0.00     0.014 C 
HETATM   12  C   UNL     1     -12.595   1.153 -34.351  1.00  0.00    -0.013 C 
HETATM   13  C   UNL     1     -12.250   1.811 -35.698  1.00  0.00     0.009 C 
HETATM   14  C   UNL     1     -13.683   1.978 -33.647  1.00  0.00     0.009 C 
HETATM   15  C   UNL     1     -11.750   3.247 -35.473  1.00  0.00    -0.013 C 
HETATM   16  C   UNL     1     -10.488   3.213 -34.593  1.00  0.00     0.014 C 
HETATM   17  C   UNL     1     -12.842   4.060 -34.762  1.00  0.00     0.009 C 
HETATM   18  C   UNL     1     -13.182   3.412 -33.411  1.00  0.00    -0.013 C 
HETATM   19  C   UNL     1     -11.917   3.368 -32.539  1.00  0.00     0.014 C 
ENDBRANCH   9  10
ENDBRANCH   6   9
ENDBRANCH   2   5
BRANCH   1  20
HETATM   20  C   UNL     1      -4.530  -0.632 -32.644  1.00  0.00     0.158 A 
HETATM   21  C   UNL     1      -4.641  -1.921 -33.245  1.00  0.00     0.029 A 
HETATM   22  C   UNL     1      -5.470  -2.523 -34.213  1.00  0.00     0.023 A 
HETATM   23  C   UNL     1      -3.641  -2.683 -32.655  1.00  0.00     0.063 A 
HETATM   24  C   UNL     1      -5.262  -3.869 -34.563  1.00  0.00    -0.061 A 
HETATM   25  C   UNL     1      -6.148  -4.535 -35.575  1.00  0.00     0.048 C 
HETATM   26  C   UNL     1      -4.249  -4.604 -33.933  1.00  0.00     0.009 A 
HETATM   27  C   UNL     1      -3.415  -4.026 -32.969  1.00  0.00     0.032 A 
HETATM   28  N   UNL     1      -3.016  -1.842 -31.777  1.00  0.00    -0.277 N 
HETATM   29  H   UNL     1      -2.234  -2.059 -31.169  1.00  0.00     0.189 HD
HETATM   30  N   UNL     1      -3.524  -0.598 -31.743  1.00  0.00    -0.168 NA
ENDBRANCH   1  20
TORSDOF 4
ENDMDL
MODEL 4
REMARK VINA RESULT:      -9.3      2.363      3.478
REMARK  4 active torsions:
REMARK  status: ('A' for Active; 'I' for Inactive)
REMARK    1  A    between atoms: C_9  and  C_10 
REMARK       I    between atoms: C_10  and  N_11 
REMARK    2  A    between atoms: N_11  and  N_12 
REMARK       I    between atoms: N_12  and  C_13 
REMARK    3  A    between atoms: C_13  and  C_14 
REMARK    4  A    between atoms: C_14  and  C_15 
ROOT
HETATM    1  C   UNL     1      -3.780   2.755 -31.143  1.00  0.00     0.291 C 
HETATM    2  N   UNL     1      -2.542   3.370 -31.102  1.00  0.00    -0.262 N 
HETATM    3  O   UNL     1      -4.815   3.333 -30.811  1.00  0.00    -0.264 OA
HETATM    4  H   UNL     1      -1.739   2.907 -31.535  1.00  0.00     0.190 HD
ENDROOT
BRANCH   2   5
HETATM    5  N   UNL     1      -2.459   4.740 -30.838  1.00  0.00    -0.267 N 
HETATM    6  C   UNL     1      -1.200   5.297 -30.694  1.00  0.00     0.236 C 
HETATM    7  O   UNL     1      -0.179   4.618 -30.660  1.00  0.00    -0.272 OA
HETATM    8  H   UNL     1      -3.273   5.296 -31.094  1.00  0.00     0.190 HD
BRANCH   6   9
HETATM    9  C   UNL     1      -1.254   6.813 -30.568  1.00  0.00     0.114 C 
BRANCH   9  10
HETATM   10  C   UNL     1      -0.755   7.435 -29.245  1.00  0.00    -0.031 C 
HETATM   11  C   UNL     1      -1.378   8.832 -28.989  1.00  0.00     0.014 C 
HETATM   12  C   UNL     1      -0.910   9.396 -27.635  1.00  0.00    -0.013 C 
HETATM   13  C   UNL     1       0.624   9.504 -27.633  1.00  0.00     0.009 C 
HETATM   14  C   UNL     1      -1.353   8.449 -26.508  1.00  0.00     0.009 C 
HETATM   15  C   UNL     1       1.253   8.117 -27.843  1.00  0.00    -0.013 C 
HETATM   16  C   UNL     1       0.790   7.549 -29.196  1.00  0.00     0.014 C 
HETATM   17  C   UNL     1       0.798   7.178 -26.716  1.00  0.00     0.009 C 
HETATM   18  C   UNL     1      -0.734   7.059 -26.720  1.00  0.00    -0.013 C 
HETATM   19  C   UNL     1      -1.194   6.503 -28.077  1.00  0.00     0.014 C 
ENDBRANCH   9  10
ENDBRANCH   6   9
ENDBRANCH   2   5
BRANCH   1  20
HETATM   20  C   UNL     1      -3.726   1.370 -31.626  1.00  0.00     0.158 A 
HETATM   21  C   UNL     1      -4.596   0.745 -32.569  1.00  0.00     0.029 A 
HETATM   22  C   UNL     1      -5.716   1.134 -33.331  1.00  0.00     0.023 A 
HETATM   23  C   UNL     1      -4.131  -0.559 -32.682  1.00  0.00     0.063 A 
HETATM   24  C   UNL     1      -6.327   0.202 -34.189  1.00  0.00    -0.061 A 
HETATM   25  C   UNL     1      -7.535   0.590 -34.993  1.00  0.00     0.048 C 
HETATM   26  C   UNL     1      -5.833  -1.106 -34.263  1.00  0.00     0.009 A 
HETATM   27  C   UNL     1      -4.722  -1.514 -33.514  1.00  0.00     0.032 A 
HETATM   28  N   UNL     1      -3.057  -0.634 -31.840  1.00  0.00    -0.277 N 
HETATM   29  H   UNL     1      -2.467  -1.441 -31.666  1.00  0.00     0.189 HD
HETATM   30  N   UNL     1      -2.782   0.508 -31.187  1.00  0.00    -0.168 NA
ENDBRANCH   1  20
TORSDOF 4
ENDMDL
MODEL 5
REMARK VINA RESULT:      -9.3      2.476      3.842
REMARK  4 active torsions:
REMARK  status: ('A' for Active; 'I' for Inactive)
REMARK    1  A    between atoms: C_9  and  C_10 
REMARK       I    between atoms: C_10  and  N_11 
REMARK    2  A    between atoms: N_11  and  N_12 
REMARK       I    between atoms: N_12  and  C_13 
REMARK    3  A    between atoms: C_13  and  C_14 
REMARK    4  A    between atoms: C_14  and  C_15 
ROOT
HETATM    1  C   UNL     1      -3.760   2.906 -31.100  1.00  0.00     0.291 C 
HETATM    2  N   UNL     1      -2.513   3.502 -31.079  1.00  0.00    -0.262 N 
HETATM    3  O   UNL     1      -4.778   3.492 -30.733  1.00  0.00    -0.264 OA
HETATM    4  H   UNL     1      -1.727   3.036 -31.539  1.00  0.00     0.190 HD
ENDROOT
BRANCH   2   5
HETATM    5  N   UNL     1      -2.404   4.866 -30.793  1.00  0.00    -0.267 N 
HETATM    6  C   UNL     1      -1.138   5.384 -30.578  1.00  0.00     0.236 C 
HETATM    7  O   UNL     1      -0.140   4.675 -30.502  1.00  0.00    -0.272 OA
HETATM    8  H   UNL     1      -3.186   5.450 -31.083  1.00  0.00     0.190 HD
BRANCH   6   9
HETATM    9  C   UNL     1      -1.154   6.899 -30.436  1.00  0.00     0.114 C 
BRANCH   9  10
HETATM   10  C   UNL     1      -0.723   7.491 -29.075  1.00  0.00    -0.031 C 
HETATM   11  C   UNL     1      -1.134   6.581 -27.889  1.00  0.00     0.014 C 
HETATM   12  C   UNL     1      -0.635   7.167 -26.556  1.00  0.00    -0.013 C 
HETATM   13  C   UNL     1      -1.232   8.571 -26.364  1.00  0.00     0.009 C 
HETATM   14  C   UNL     1       0.899   7.267 -26.586  1.00  0.00     0.009 C 
HETATM   15  C   UNL     1      -0.794   9.494 -27.512  1.00  0.00    -0.013 C 
HETATM   16  C   UNL     1      -1.292   8.914 -28.848  1.00  0.00     0.014 C 
HETATM   17  C   UNL     1       0.739   9.582 -27.537  1.00  0.00     0.009 C 
HETATM   18  C   UNL     1       1.340   8.182 -27.739  1.00  0.00    -0.013 C 
HETATM   19  C   UNL     1       0.831   7.600 -29.068  1.00  0.00     0.014 C 
ENDBRANCH   9  10
ENDBRANCH   6   9
ENDBRANCH   2   5
BRANCH   1  20
HETATM   20  C   UNL     1      -3.738   1.528 -31.608  1.00  0.00     0.158 A 
HETATM   21  C   UNL     1      -4.637   0.934 -32.543  1.00  0.00     0.029 A 
HETATM   22  C   UNL     1      -5.767   1.353 -33.274  1.00  0.00     0.023 A 
HETATM   23  C   UNL     1      -4.195  -0.375 -32.688  1.00  0.00     0.063 A 
HETATM   24  C   UNL     1      -6.411   0.446 -34.134  1.00  0.00    -0.061 A 
HETATM   25  C   UNL     1      -7.629   0.866 -34.905  1.00  0.00     0.048 C 
HETATM   26  C   UNL     1      -5.938  -0.868 -34.241  1.00  0.00     0.009 A 
HETATM   27  C   UNL     1      -4.818  -1.306 -33.524  1.00  0.00     0.032 A 
HETATM   28  N   UNL     1      -3.104  -0.481 -31.871  1.00  0.00    -0.277 N 
HETATM   29  H   UNL     1      -2.524  -1.299 -31.724  1.00  0.00     0.189 HD
HETATM   30  N   UNL     1      -2.799   0.645 -31.205  1.00  0.00    -0.168 NA
ENDBRANCH   1  20
TORSDOF 4
ENDMDL
MODEL 6
REMARK VINA RESULT:      -9.1      2.161      3.039
REMARK  4 active torsions:
REMARK  status: ('A' for Active; 'I' for Inactive)
REMARK    1  A    between atoms: C_9  and  C_10 
REMARK       I    between atoms: C_10  and  N_11 
REMARK    2  A    between atoms: N_11  and  N_12 
REMARK       I    between atoms: N_12  and  C_13 
REMARK    3  A    between atoms: C_13  and  C_14 
REMARK    4  A    between atoms: C_14  and  C_15 
ROOT
HETATM    1  C   UNL     1      -6.333   2.728 -33.815  1.00  0.00     0.291 C 
HETATM    2  N   UNL     1      -6.463   2.871 -32.446  1.00  0.00    -0.262 N 
HETATM    3  O   UNL     1      -5.894   3.626 -34.534  1.00  0.00    -0.264 OA
HETATM    4  H   UNL     1      -6.680   2.050 -31.876  1.00  0.00     0.190 HD
ENDROOT
BRANCH   2   5
HETATM    5  N   UNL     1      -5.932   3.999 -31.816  1.00  0.00    -0.267 N 
HETATM    6  C   UNL     1      -4.842   3.822 -30.981  1.00  0.00     0.236 C 
HETATM    7  O   UNL     1      -4.416   2.713 -30.679  1.00  0.00    -0.272 OA
HETATM    8  H   UNL     1      -6.145   4.897 -32.248  1.00  0.00     0.190 HD
BRANCH   6   9
HETATM    9  C   UNL     1      -4.273   5.146 -30.491  1.00  0.00     0.114 C 
BRANCH   9  10
HETATM   10  C   UNL     1      -3.072   5.735 -31.263  1.00  0.00    -0.031 C 
HETATM   11  C   UNL     1      -3.516   6.470 -32.554  1.00  0.00     0.014 C 
HETATM   12  C   UNL     1      -2.304   7.099 -33.266  1.00  0.00    -0.013 C 
HETATM   13  C   UNL     1      -1.293   5.995 -33.618  1.00  0.00     0.009 C 
HETATM   14  C   UNL     1      -1.636   8.118 -32.328  1.00  0.00     0.009 C 
HETATM   15  C   UNL     1      -0.814   5.288 -32.340  1.00  0.00    -0.013 C 
HETATM   16  C   UNL     1      -2.021   4.655 -31.626  1.00  0.00     0.014 C 
HETATM   17  C   UNL     1      -0.154   6.316 -31.409  1.00  0.00     0.009 C 
HETATM   18  C   UNL     1      -1.164   7.417 -31.045  1.00  0.00    -0.013 C 
HETATM   19  C   UNL     1      -2.374   6.780 -30.343  1.00  0.00     0.014 C 
ENDBRANCH   9  10
ENDBRANCH   6   9
ENDBRANCH   2   5
BRANCH   1  20
HETATM   20  C   UNL     1      -6.757   1.410 -34.306  1.00  0.00     0.158 A 
HETATM   21  C   UNL     1      -6.129   0.152 -34.067  1.00  0.00     0.029 A 
HETATM   22  C   UNL     1      -4.996  -0.301 -33.360  1.00  0.00     0.023 A 
HETATM   23  C   UNL     1      -6.907  -0.776 -34.746  1.00  0.00     0.063 A 
HETATM   24  C   UNL     1      -4.688  -1.672 -33.351  1.00  0.00    -0.061 A 
HETATM   25  C   UNL     1      -3.474  -2.172 -32.622  1.00  0.00     0.048 C 
HETATM   26  C   UNL     1      -5.494  -2.572 -34.060  1.00  0.00     0.009 A 
HETATM   27  C   UNL     1      -6.623  -2.144 -34.769  1.00  0.00     0.032 A 
HETATM   28  N   UNL     1      -7.913  -0.052 -35.323  1.00  0.00    -0.277 N 
HETATM   29  H   UNL     1      -8.671  -0.402 -35.898  1.00  0.00     0.189 HD
HETATM   30  N   UNL     1      -7.855   1.269 -35.080  1.00  0.00    -0.168 NA
ENDBRANCH   1  20
TORSDOF 4
ENDMDL
MODEL 7
REMARK VINA RESULT:      -9.1      2.659      8.895
REMARK  4 active torsions:
REMARK  status: ('A' for Active; 'I' for Inactive)
REMARK    1  A    between atoms: C_9  and  C_10 
REMARK       I    between atoms: C_10  and  N_11 
REMARK    2  A    between atoms: N_11  and  N_12 
REMARK       I    between atoms: N_12  and  C_13 
REMARK    3  A    between atoms: C_13  and  C_14 
REMARK    4  A    between atoms: C_14  and  C_15 
ROOT
HETATM    1  C   UNL     1      -1.339   4.793 -31.643  1.00  0.00     0.291 C 
HETATM    2  N   UNL     1      -2.300   3.839 -31.364  1.00  0.00    -0.262 N 
HETATM    3  O   UNL     1      -1.242   5.328 -32.747  1.00  0.00    -0.264 OA
HETATM    4  H   UNL     1      -2.443   3.541 -30.395  1.00  0.00     0.190 HD
ENDROOT
BRANCH   2   5
HETATM    5  N   UNL     1      -3.307   3.579 -32.297  1.00  0.00    -0.267 N 
HETATM    6  C   UNL     1      -4.603   3.444 -31.830  1.00  0.00     0.236 C 
HETATM    7  O   UNL     1      -4.874   3.414 -30.634  1.00  0.00    -0.272 OA
HETATM    8  H   UNL     1      -3.102   3.832 -33.262  1.00  0.00     0.190 HD
BRANCH   6   9
HETATM    9  C   UNL     1      -5.612   3.322 -32.963  1.00  0.00     0.114 C 
BRANCH   9  10
HETATM   10  C   UNL     1      -6.239   1.933 -33.213  1.00  0.00    -0.031 C 
HETATM   11  C   UNL     1      -7.433   1.655 -32.263  1.00  0.00     0.014 C 
HETATM   12  C   UNL     1      -8.075   0.292 -32.579  1.00  0.00    -0.013 C 
HETATM   13  C   UNL     1      -7.018  -0.815 -32.422  1.00  0.00     0.009 C 
HETATM   14  C   UNL     1      -8.592   0.297 -34.027  1.00  0.00     0.009 C 
HETATM   15  C   UNL     1      -5.849  -0.572 -33.391  1.00  0.00    -0.013 C 
HETATM   16  C   UNL     1      -5.203   0.788 -33.077  1.00  0.00     0.014 C 
HETATM   17  C   UNL     1      -6.378  -0.563 -34.832  1.00  0.00     0.009 C 
HETATM   18  C   UNL     1      -7.427   0.548 -34.998  1.00  0.00    -0.013 C 
HETATM   19  C   UNL     1      -6.782   1.904 -34.672  1.00  0.00     0.014 C 
ENDBRANCH   9  10
ENDBRANCH   6   9
ENDBRANCH   2   5
BRANCH   1  20
HETATM   20  C   UNL     1      -0.472   5.098 -30.498  1.00  0.00     0.158 A 
HETATM   21  C   UNL     1      -0.466   6.285 -29.705  1.00  0.00     0.029 A 
HETATM   22  C   UNL     1      -1.187   7.496 -29.685  1.00  0.00     0.023 A 
HETATM   23  C   UNL     1       0.531   6.084 -28.760  1.00  0.00     0.063 A 
HETATM   24  C   UNL     1      -0.887   8.463 -28.709  1.00  0.00    -0.061 A 
HETATM   25  C   UNL     1      -1.628   9.769 -28.683  1.00  0.00     0.048 C 
HETATM   26  C   UNL     1       0.135   8.225 -27.782  1.00  0.00     0.009 A 
HETATM   27  C   UNL     1       0.864   7.029 -27.785  1.00  0.00     0.032 A 
HETATM   28  N   UNL     1       1.040   4.844 -29.028  1.00  0.00    -0.277 N 
HETATM   29  H   UNL     1       1.787   4.367 -28.536  1.00  0.00     0.189 HD
HETATM   30  N   UNL     1       0.460   4.220 -30.068  1.00  0.00    -0.168 NA
ENDBRANCH   1  20
TORSDOF 4
ENDMDL
MODEL 8
REMARK VINA RESULT:      -8.9      2.880      4.352
REMARK  4 active torsions:
REMARK  status: ('A' for Active; 'I' for Inactive)
REMARK    1  A    between atoms: C_9  and  C_10 
REMARK       I    between atoms: C_10  and  N_11 
REMARK    2  A    between atoms: N_11  and  N_12 
REMARK       I    between atoms: N_12  and  C_13 
REMARK    3  A    between atoms: C_13  and  C_14 
REMARK    4  A    between atoms: C_14  and  C_15 
ROOT
HETATM    1  C   UNL     1      -3.754   3.188 -31.179  1.00  0.00     0.291 C 
HETATM    2  N   UNL     1      -3.702   4.503 -30.756  1.00  0.00    -0.262 N 
HETATM    3  O   UNL     1      -2.807   2.636 -31.739  1.00  0.00    -0.264 OA
HETATM    4  H   UNL     1      -4.448   4.867 -30.159  1.00  0.00     0.190 HD
ENDROOT
BRANCH   2   5
HETATM    5  N   UNL     1      -2.489   5.197 -30.806  1.00  0.00    -0.267 N 
HETATM    6  C   UNL     1      -2.467   6.497 -30.330  1.00  0.00     0.236 C 
HETATM    7  O   UNL     1      -3.484   7.093 -29.994  1.00  0.00    -0.272 OA
HETATM    8  H   UNL     1      -1.648   4.627 -30.867  1.00  0.00     0.190 HD
BRANCH   6   9
HETATM    9  C   UNL     1      -1.058   7.072 -30.299  1.00  0.00     0.114 C 
BRANCH   9  10
HETATM   10  C   UNL     1      -0.549   7.636 -28.954  1.00  0.00    -0.031 C 
HETATM   11  C   UNL     1      -1.258   8.961 -28.573  1.00  0.00     0.014 C 
HETATM   12  C   UNL     1      -0.775   9.462 -27.200  1.00  0.00    -0.013 C 
HETATM   13  C   UNL     1       0.747   9.683 -27.247  1.00  0.00     0.009 C 
HETATM   14  C   UNL     1      -1.101   8.407 -26.129  1.00  0.00     0.009 C 
HETATM   15  C   UNL     1       1.463   8.365 -27.581  1.00  0.00    -0.013 C 
HETATM   16  C   UNL     1       0.985   7.860 -28.955  1.00  0.00     0.014 C 
HETATM   17  C   UNL     1       1.125   7.317 -26.510  1.00  0.00     0.009 C 
HETATM   18  C   UNL     1      -0.394   7.086 -26.466  1.00  0.00    -0.013 C 
HETATM   19  C   UNL     1      -0.870   6.593 -27.842  1.00  0.00     0.014 C 
ENDBRANCH   9  10
ENDBRANCH   6   9
ENDBRANCH   2   5
BRANCH   1  20
HETATM   20  C   UNL     1      -5.034   2.532 -30.883  1.00  0.00     0.158 A 
HETATM   21  C   UNL     1      -5.878   1.826 -31.792  1.00  0.00     0.029 A 
HETATM   22  C   UNL     1      -5.847   1.501 -33.163  1.00  0.00     0.023 A 
HETATM   23  C   UNL     1      -6.959   1.404 -31.029  1.00  0.00     0.063 A 
HETATM   24  C   UNL     1      -6.901   0.756 -33.722  1.00  0.00    -0.061 A 
HETATM   25  C   UNL     1      -6.898   0.419 -35.185  1.00  0.00     0.048 C 
HETATM   26  C   UNL     1      -7.978   0.361 -32.918  1.00  0.00     0.009 A 
HETATM   27  C   UNL     1      -8.028   0.673 -31.554  1.00  0.00     0.032 A 
HETATM   28  N   UNL     1      -6.709   1.859 -29.765  1.00  0.00    -0.277 N 
HETATM   29  H   UNL     1      -7.288   1.736 -28.941  1.00  0.00     0.189 HD
HETATM   30  N   UNL     1      -5.559   2.543 -29.638  1.00  0.00    -0.168 NA
ENDBRANCH   1  20
TORSDOF 4
ENDMDL
MODEL 9
REMARK VINA RESULT:      -8.8      2.662      4.481
REMARK  4 active torsions:
REMARK  status: ('A' for Active; 'I' for Inactive)
REMARK    1  A    between atoms: C_9  and  C_10 
REMARK       I    between atoms: C_10  and  N_11 
REMARK    2  A    between atoms: N_11  and  N_12 
REMARK       I    between atoms: N_12  and  C_13 
REMARK    3  A    between atoms: C_13  and  C_14 
REMARK    4  A    between atoms: C_14  and  C_15 
ROOT
HETATM    1  C   UNL     1      -3.384   3.654 -31.926  1.00  0.00     0.291 C 
HETATM    2  N   UNL     1      -3.134   4.474 -30.842  1.00  0.00    -0.262 N 
HETATM    3  O   UNL     1      -2.567   3.491 -32.833  1.00  0.00    -0.264 OA
HETATM    4  H   UNL     1      -3.772   4.454 -30.042  1.00  0.00     0.190 HD
ENDROOT
BRANCH   2   5
HETATM    5  N   UNL     1      -1.858   5.014 -30.664  1.00  0.00    -0.267 N 
HETATM    6  C   UNL     1      -1.706   6.382 -30.816  1.00  0.00     0.236 C 
HETATM    7  O   UNL     1      -2.610   7.104 -31.223  1.00  0.00    -0.272 OA
HETATM    8  H   UNL     1      -1.204   4.453 -30.121  1.00  0.00     0.190 HD
BRANCH   6   9
HETATM    9  C   UNL     1      -0.307   6.850 -30.441  1.00  0.00     0.114 C 
BRANCH   9  10
HETATM   10  C   UNL     1      -0.085   7.342 -28.994  1.00  0.00    -0.031 C 
HETATM   11  C   UNL     1       1.231   8.151 -28.851  1.00  0.00     0.014 C 
HETATM   12  C   UNL     1       1.390   8.681 -27.414  1.00  0.00    -0.013 C 
HETATM   13  C   UNL     1       1.401   7.495 -26.435  1.00  0.00     0.009 C 
HETATM   14  C   UNL     1       0.208   9.605 -27.078  1.00  0.00     0.009 C 
HETATM   15  C   UNL     1       0.083   6.711 -26.538  1.00  0.00    -0.013 C 
HETATM   16  C   UNL     1      -0.081   6.177 -27.972  1.00  0.00     0.014 C 
HETATM   17  C   UNL     1      -1.090   7.645 -26.206  1.00  0.00     0.009 C 
HETATM   18  C   UNL     1      -1.112   8.827 -27.189  1.00  0.00    -0.013 C 
HETATM   19  C   UNL     1      -1.263   8.290 -28.621  1.00  0.00     0.014 C 
ENDBRANCH   9  10
ENDBRANCH   6   9
ENDBRANCH   2   5
BRANCH   1  20
HETATM   20  C   UNL     1      -4.700   3.004 -31.874  1.00  0.00     0.158 A 
HETATM   21  C   UNL     1      -5.018   1.659 -32.227  1.00  0.00     0.029 A 
HETATM   22  C   UNL     1      -4.309   0.539 -32.707  1.00  0.00     0.023 A 
HETATM   23  C   UNL     1      -6.384   1.540 -32.006  1.00  0.00     0.063 A 
HETATM   24  C   UNL     1      -4.994  -0.666 -32.940  1.00  0.00    -0.061 A 
HETATM   25  C   UNL     1      -4.261  -1.864 -33.472  1.00  0.00     0.048 C 
HETATM   26  C   UNL     1      -6.375  -0.738 -32.715  1.00  0.00     0.009 A 
HETATM   27  C   UNL     1      -7.098   0.362 -32.240  1.00  0.00     0.032 A 
HETATM   28  N   UNL     1      -6.785   2.765 -31.551  1.00  0.00    -0.277 N 
HETATM   29  H   UNL     1      -7.723   3.046 -31.287  1.00  0.00     0.189 HD
HETATM   30  N   UNL     1      -5.798   3.673 -31.458  1.00  0.00    -0.168 NA
ENDBRANCH   1  20
TORSDOF 4
ENDMDL
MODEL 10
REMARK VINA RESULT:      -8.7      5.781      7.419
REMARK  4 active torsions:
REMARK  status: ('A' for Active; 'I' for Inactive)
REMARK    1  A    between atoms: C_9  and  C_10 
REMARK       I    between atoms: C_10  and  N_11 
REMARK    2  A    between atoms: N_11  and  N_12 
REMARK       I    between atoms: N_12  and  C_13 
REMARK    3  A    between atoms: C_13  and  C_14 
REMARK    4  A    between atoms: C_14  and  C_15 
ROOT
HETATM    1  C   UNL     1      -7.883   0.283 -32.643  1.00  0.00     0.291 C 
HETATM    2  N   UNL     1      -8.208   0.767 -31.389  1.00  0.00    -0.262 N 
HETATM    3  O   UNL     1      -8.648   0.373 -33.604  1.00  0.00    -0.264 OA
HETATM    4  H   UNL     1      -7.484   0.812 -30.668  1.00  0.00     0.190 HD
ENDROOT
BRANCH   2   5
HETATM    5  N   UNL     1      -9.364   1.533 -31.223  1.00  0.00    -0.267 N 
HETATM    6  C   UNL     1      -9.221   2.906 -31.111  1.00  0.00     0.236 C 
HETATM    7  O   UNL     1      -8.126   3.449 -31.023  1.00  0.00    -0.272 OA
HETATM    8  H   UNL     1     -10.236   1.101 -31.522  1.00  0.00     0.190 HD
BRANCH   6   9
HETATM    9  C   UNL     1     -10.563   3.623 -31.093  1.00  0.00     0.114 C 
BRANCH   9  10
HETATM   10  C   UNL     1     -11.184   4.007 -32.455  1.00  0.00    -0.031 C 
HETATM   11  C   UNL     1     -11.343   5.541 -32.609  1.00  0.00     0.014 C 
HETATM   12  C   UNL     1     -11.903   5.893 -33.999  1.00  0.00    -0.013 C 
HETATM   13  C   UNL     1     -13.269   5.209 -34.183  1.00  0.00     0.009 C 
HETATM   14  C   UNL     1     -10.934   5.390 -35.082  1.00  0.00     0.009 C 
HETATM   15  C   UNL     1     -13.116   3.684 -34.075  1.00  0.00    -0.013 C 
HETATM   16  C   UNL     1     -12.557   3.326 -32.686  1.00  0.00     0.014 C 
HETATM   17  C   UNL     1     -12.141   3.193 -35.156  1.00  0.00     0.009 C 
HETATM   18  C   UNL     1     -10.772   3.866 -34.970  1.00  0.00    -0.013 C 
HETATM   19  C   UNL     1     -10.222   3.517 -33.577  1.00  0.00     0.014 C 
ENDBRANCH   9  10
ENDBRANCH   6   9
ENDBRANCH   2   5
BRANCH   1  20
HETATM   20  C   UNL     1      -6.550  -0.328 -32.704  1.00  0.00     0.158 A 
HETATM   21  C   UNL     1      -6.166  -1.505 -33.414  1.00  0.00     0.029 A 
HETATM   22  C   UNL     1      -6.810  -2.448 -34.241  1.00  0.00     0.023 A 
HETATM   23  C   UNL     1      -4.812  -1.662 -33.150  1.00  0.00     0.063 A 
HETATM   24  C   UNL     1      -6.069  -3.513 -34.784  1.00  0.00    -0.061 A 
HETATM   25  C   UNL     1      -6.741  -4.541 -35.649  1.00  0.00     0.048 C 
HETATM   26  C   UNL     1      -4.708  -3.640 -34.482  1.00  0.00     0.009 A 
HETATM   27  C   UNL     1      -4.049  -2.715 -33.662  1.00  0.00     0.032 A 
HETATM   28  N   UNL     1      -4.478  -0.615 -32.338  1.00  0.00    -0.277 N 
HETATM   29  H   UNL     1      -3.566  -0.408 -31.945  1.00  0.00     0.189 HD
HETATM   30  N   UNL     1      -5.499   0.209 -32.048  1.00  0.00    -0.168 NA
ENDBRANCH   1  20
TORSDOF 4
ENDMDL
