MODEL 1
REMARK VINA RESULT:      -8.3      0.000      0.000
REMARK  4 active torsions:
REMARK  status: ('A' for Active; 'I' for Inactive)
REMARK    1  A    between atoms: N_6  and  N_7 
REMARK       I    between atoms: N_7  and  C_8 
REMARK    2  A    between atoms: C_8  and  C_9 
REMARK    3  A    between atoms: C_10  and  O_11 
REMARK    4  A    between atoms: C_14  and  N_15 
ROOT
HETATM    1  N   UNL     1      -5.818   3.910 -32.237  1.00  0.00    -0.242 N 
HETATM    2  C   UNL     1      -5.375   4.604 -33.349  1.00  0.00     0.274 C 
HETATM    3  O   UNL     1      -6.083   5.164 -34.183  1.00  0.00    -0.266 OA
HETATM    4  H   UNL     1      -5.162   3.504 -31.587  1.00  0.00     0.192 HD
ENDROOT
BRANCH   1   5
HETATM    5  N   UNL     1      -7.141   3.661 -32.058  1.00  0.00    -0.166 NA
HETATM    6  C   UNL     1      -7.618   2.515 -32.429  1.00  0.00     0.157 A 
HETATM    7  C   UNL     1      -9.136   2.251 -32.453  1.00  0.00     0.279 A 
HETATM    8  C   UNL     1      -6.985   1.270 -32.890  1.00  0.00     0.029 A 
HETATM    9  N   UNL     1      -9.275   0.979 -32.980  1.00  0.00    -0.316 N 
HETATM   10  O   UNL     1      -9.994   3.030 -32.099  1.00  0.00    -0.265 OA
HETATM   11  C   UNL     1     -10.537   0.316 -33.174  1.00  0.00     0.159 C 
HETATM   12  C   UNL     1      -8.025   0.397 -33.227  1.00  0.00     0.050 A 
HETATM   13  C   UNL     1      -7.767  -0.878 -33.705  1.00  0.00     0.032 A 
HETATM   14  C   UNL     1      -6.432  -1.276 -33.825  1.00  0.00     0.026 A 
HETATM   15  C   UNL     1      -5.394  -0.410 -33.448  1.00  0.00     0.035 A 
HETATM   16  C   UNL     1      -5.659   0.873 -32.963  1.00  0.00     0.040 A 
HETATM   17 CL   UNL     1      -3.762  -0.940 -33.579  1.00  0.00    -0.084 Cl
ENDBRANCH   1   5
BRANCH   2  18
HETATM   18  C   UNL     1      -3.901   4.765 -33.455  1.00  0.00     0.068 A 
HETATM   19  C   UNL     1      -3.346   5.190 -34.668  1.00  0.00     0.081 A 
HETATM   20  C   UNL     1      -1.988   5.468 -34.756  1.00  0.00     0.039 A 
HETATM   21  C   UNL     1      -1.167   5.287 -33.640  1.00  0.00     0.026 A 
HETATM   22  C   UNL     1      -1.683   4.763 -32.451  1.00  0.00     0.006 A 
HETATM   23  C   UNL     1      -3.060   4.543 -32.352  1.00  0.00     0.043 A 
BRANCH  19  24
HETATM   24  O   UNL     1      -4.087   5.384 -35.802  1.00  0.00    -0.360 OA
HETATM   25  H   UNL     1      -4.211   4.509 -36.237  1.00  0.00     0.217 HD
ENDBRANCH  19  24
BRANCH  22  26
HETATM   26  N   UNL     1      -0.879   4.688 -31.307  1.00  0.00    -0.303 NA
HETATM   27  H   UNL     1      -0.886   3.774 -30.863  1.00  0.00     0.124 HD
HETATM   28  H   UNL     1      -1.040   5.431 -30.633  1.00  0.00     0.124 HD
ENDBRANCH  22  26
ENDBRANCH   2  18
TORSDOF 4
ENDMDL
MODEL 2
REMARK VINA RESULT:      -8.3      1.620      1.953
REMARK  4 active torsions:
REMARK  status: ('A' for Active; 'I' for Inactive)
REMARK    1  A    between atoms: N_6  and  N_7 
REMARK       I    between atoms: N_7  and  C_8 
REMARK    2  A    between atoms: C_8  and  C_9 
REMARK    3  A    between atoms: C_10  and  O_11 
REMARK    4  A    between atoms: C_14  and  N_15 
ROOT
HETATM    1  N   UNL     1      -4.941   4.893 -32.583  1.00  0.00    -0.242 N 
HETATM    2  C   UNL     1      -3.984   5.261 -33.511  1.00  0.00     0.274 C 
HETATM    3  O   UNL     1      -4.176   5.467 -34.707  1.00  0.00    -0.266 OA
HETATM    4  H   UNL     1      -4.698   4.771 -31.611  1.00  0.00     0.192 HD
ENDROOT
BRANCH   1   5
HETATM    5  N   UNL     1      -6.202   4.577 -32.976  1.00  0.00    -0.166 NA
HETATM    6  C   UNL     1      -6.518   3.328 -33.119  1.00  0.00     0.157 A 
HETATM    7  C   UNL     1      -7.853   2.911 -33.765  1.00  0.00     0.279 A 
HETATM    8  C   UNL     1      -5.825   2.076 -32.780  1.00  0.00     0.029 A 
HETATM    9  N   UNL     1      -7.807   1.530 -33.833  1.00  0.00    -0.316 N 
HETATM   10  O   UNL     1      -8.722   3.667 -34.141  1.00  0.00    -0.265 OA
HETATM   11  C   UNL     1      -8.863   0.709 -34.364  1.00  0.00     0.159 C 
HETATM   12  C   UNL     1      -6.633   1.035 -33.252  1.00  0.00     0.050 A 
HETATM   13  C   UNL     1      -6.263  -0.291 -33.093  1.00  0.00     0.032 A 
HETATM   14  C   UNL     1      -5.063  -0.562 -32.428  1.00  0.00     0.026 A 
HETATM   15  C   UNL     1      -4.277   0.485 -31.922  1.00  0.00     0.035 A 
HETATM   16  C   UNL     1      -4.656   1.820 -32.081  1.00  0.00     0.040 A 
HETATM   17 CL   UNL     1      -2.820   0.118 -31.082  1.00  0.00    -0.084 Cl
ENDBRANCH   1   5
BRANCH   2  18
HETATM   18  C   UNL     1      -2.631   5.531 -32.959  1.00  0.00     0.068 A 
HETATM   19  C   UNL     1      -1.880   6.591 -33.480  1.00  0.00     0.081 A 
HETATM   20  C   UNL     1      -0.668   6.944 -32.899  1.00  0.00     0.039 A 
HETATM   21  C   UNL     1      -0.180   6.212 -31.813  1.00  0.00     0.026 A 
HETATM   22  C   UNL     1      -0.863   5.085 -31.346  1.00  0.00     0.006 A 
HETATM   23  C   UNL     1      -2.109   4.775 -31.897  1.00  0.00     0.043 A 
BRANCH  19  24
HETATM   24  O   UNL     1      -2.293   7.349 -34.543  1.00  0.00    -0.360 OA
HETATM   25  H   UNL     1      -1.930   8.257 -34.427  1.00  0.00     0.217 HD
ENDBRANCH  19  24
BRANCH  22  26
HETATM   26  N   UNL     1      -0.425   4.425 -30.191  1.00  0.00    -0.303 NA
HETATM   27  H   UNL     1       0.060   5.031 -29.534  1.00  0.00     0.124 HD
HETATM   28  H   UNL     1       0.098   3.572 -30.369  1.00  0.00     0.124 HD
ENDBRANCH  22  26
ENDBRANCH   2  18
TORSDOF 4
ENDMDL
MODEL 3
REMARK VINA RESULT:      -8.2      4.431      5.928
REMARK  4 active torsions:
REMARK  status: ('A' for Active; 'I' for Inactive)
REMARK    1  A    between atoms: N_6  and  N_7 
REMARK       I    between atoms: N_7  and  C_8 
REMARK    2  A    between atoms: C_8  and  C_9 
REMARK    3  A    between atoms: C_10  and  O_11 
REMARK    4  A    between atoms: C_14  and  N_15 
ROOT
HETATM    1  N   UNL     1      -8.440  -0.320 -33.867  1.00  0.00    -0.242 N 
HETATM    2  C   UNL     1      -7.367  -0.294 -34.740  1.00  0.00     0.274 C 
HETATM    3  O   UNL     1      -7.142   0.569 -35.586  1.00  0.00    -0.266 OA
HETATM    4  H   UNL     1      -8.531  -1.056 -33.183  1.00  0.00     0.192 HD
ENDROOT
BRANCH   1   5
HETATM    5  N   UNL     1      -9.452   0.578 -33.987  1.00  0.00    -0.166 NA
HETATM    6  C   UNL     1      -9.567   1.515 -33.099  1.00  0.00     0.157 A 
HETATM    7  C   UNL     1     -10.808   2.427 -33.056  1.00  0.00     0.279 A 
HETATM    8  C   UNL     1      -8.700   1.960 -31.997  1.00  0.00     0.029 A 
HETATM    9  N   UNL     1     -10.629   3.231 -31.944  1.00  0.00    -0.316 N 
HETATM   10  O   UNL     1     -11.734   2.397 -33.837  1.00  0.00    -0.265 OA
HETATM   11  C   UNL     1     -11.553   4.250 -31.525  1.00  0.00     0.159 C 
HETATM   12  C   UNL     1      -9.398   2.972 -31.328  1.00  0.00     0.050 A 
HETATM   13  C   UNL     1      -8.855   3.610 -30.225  1.00  0.00     0.032 A 
HETATM   14  C   UNL     1      -7.577   3.227 -29.807  1.00  0.00     0.026 A 
HETATM   15  C   UNL     1      -6.866   2.239 -30.507  1.00  0.00     0.035 A 
HETATM   16  C   UNL     1      -7.416   1.601 -31.621  1.00  0.00     0.040 A 
HETATM   17 CL   UNL     1      -5.283   1.810 -29.987  1.00  0.00    -0.084 Cl
ENDBRANCH   1   5
BRANCH   2  18
HETATM   18  C   UNL     1      -6.352  -1.360 -34.536  1.00  0.00     0.068 A 
HETATM   19  C   UNL     1      -5.177  -1.059 -33.838  1.00  0.00     0.081 A 
HETATM   20  C   UNL     1      -4.271  -2.066 -33.524  1.00  0.00     0.039 A 
HETATM   21  C   UNL     1      -4.518  -3.376 -33.940  1.00  0.00     0.026 A 
HETATM   22  C   UNL     1      -5.632  -3.678 -34.728  1.00  0.00     0.006 A 
HETATM   23  C   UNL     1      -6.568  -2.672 -34.987  1.00  0.00     0.043 A 
BRANCH  19  24
HETATM   24  O   UNL     1      -4.867   0.202 -33.403  1.00  0.00    -0.360 OA
HETATM   25  H   UNL     1      -5.188   0.843 -34.079  1.00  0.00     0.217 HD
ENDBRANCH  19  24
BRANCH  22  26
HETATM   26  N   UNL     1      -5.930  -5.009 -35.047  1.00  0.00    -0.303 NA
HETATM   27  H   UNL     1      -5.217  -5.461 -35.613  1.00  0.00     0.124 HD
HETATM   28  H   UNL     1      -6.859  -5.149 -35.434  1.00  0.00     0.124 HD
ENDBRANCH  22  26
ENDBRANCH   2  18
TORSDOF 4
ENDMDL
MODEL 4
REMARK VINA RESULT:      -8.2      3.908      5.520
REMARK  4 active torsions:
REMARK  status: ('A' for Active; 'I' for Inactive)
REMARK    1  A    between atoms: N_6  and  N_7 
REMARK       I    between atoms: N_7  and  C_8 
REMARK    2  A    between atoms: C_8  and  C_9 
REMARK    3  A    between atoms: C_10  and  O_11 
REMARK    4  A    between atoms: C_14  and  N_15 
ROOT
HETATM    1  N   UNL     1      -4.549   0.562 -31.093  1.00  0.00    -0.242 N 
HETATM    2  C   UNL     1      -4.042   1.848 -31.018  1.00  0.00     0.274 C 
HETATM    3  O   UNL     1      -2.870   2.175 -31.185  1.00  0.00    -0.266 OA
HETATM    4  H   UNL     1      -5.535   0.387 -30.968  1.00  0.00     0.192 HD
ENDROOT
BRANCH   1   5
HETATM    5  N   UNL     1      -3.716  -0.504 -31.218  1.00  0.00    -0.166 NA
HETATM    6  C   UNL     1      -3.981  -1.404 -32.111  1.00  0.00     0.157 A 
HETATM    7  C   UNL     1      -3.206  -2.735 -32.160  1.00  0.00     0.279 A 
HETATM    8  C   UNL     1      -4.961  -1.467 -33.207  1.00  0.00     0.029 A 
HETATM    9  N   UNL     1      -3.811  -3.471 -33.163  1.00  0.00    -0.316 N 
HETATM   10  O   UNL     1      -2.282  -3.040 -31.438  1.00  0.00    -0.265 OA
HETATM   11  C   UNL     1      -3.397  -4.790 -33.562  1.00  0.00     0.159 C 
HETATM   12  C   UNL     1      -4.828  -2.735 -33.785  1.00  0.00     0.050 A 
HETATM   13  C   UNL     1      -5.617  -3.123 -34.856  1.00  0.00     0.032 A 
HETATM   14  C   UNL     1      -6.541  -2.202 -35.358  1.00  0.00     0.026 A 
HETATM   15  C   UNL     1      -6.642  -0.918 -34.800  1.00  0.00     0.035 A 
HETATM   16  C   UNL     1      -5.842  -0.530 -33.722  1.00  0.00     0.040 A 
HETATM   17 CL   UNL     1      -7.768   0.204 -35.459  1.00  0.00    -0.084 Cl
ENDBRANCH   1   5
BRANCH   2  18
HETATM   18  C   UNL     1      -5.053   2.920 -30.830  1.00  0.00     0.068 A 
HETATM   19  C   UNL     1      -6.093   2.725 -29.912  1.00  0.00     0.081 A 
HETATM   20  C   UNL     1      -6.977   3.758 -29.625  1.00  0.00     0.039 A 
HETATM   21  C   UNL     1      -6.849   4.985 -30.283  1.00  0.00     0.026 A 
HETATM   22  C   UNL     1      -5.884   5.164 -31.278  1.00  0.00     0.006 A 
HETATM   23  C   UNL     1      -4.962   4.141 -31.517  1.00  0.00     0.043 A 
BRANCH  19  24
HETATM   24  O   UNL     1      -6.281   1.551 -29.235  1.00  0.00    -0.360 OA
HETATM   25  H   UNL     1      -7.048   1.085 -29.643  1.00  0.00     0.217 HD
ENDBRANCH  19  24
BRANCH  22  26
HETATM   26  N   UNL     1      -5.692   6.427 -31.853  1.00  0.00    -0.303 NA
HETATM   27  H   UNL     1      -6.532   6.816 -32.273  1.00  0.00     0.124 HD
HETATM   28  H   UNL     1      -4.898   6.484 -32.483  1.00  0.00     0.124 HD
ENDBRANCH  22  26
ENDBRANCH   2  18
TORSDOF 4
ENDMDL
MODEL 5
REMARK VINA RESULT:      -8.0     16.661     18.676
REMARK  4 active torsions:
REMARK  status: ('A' for Active; 'I' for Inactive)
REMARK    1  A    between atoms: N_6  and  N_7 
REMARK       I    between atoms: N_7  and  C_8 
REMARK    2  A    between atoms: C_8  and  C_9 
REMARK    3  A    between atoms: C_10  and  O_11 
REMARK    4  A    between atoms: C_14  and  N_15 
ROOT
HETATM    1  N   UNL     1      -6.292 -12.356 -39.205  1.00  0.00    -0.242 N 
HETATM    2  C   UNL     1      -7.360 -12.851 -38.478  1.00  0.00     0.274 C 
HETATM    3  O   UNL     1      -7.377 -13.061 -37.268  1.00  0.00    -0.266 OA
HETATM    4  H   UNL     1      -6.376 -12.188 -40.197  1.00  0.00     0.192 HD
ENDROOT
BRANCH   1   5
HETATM    5  N   UNL     1      -5.074 -12.197 -38.625  1.00  0.00    -0.166 NA
HETATM    6  C   UNL     1      -4.054 -12.819 -39.128  1.00  0.00     0.157 A 
HETATM    7  C   UNL     1      -2.699 -12.854 -38.397  1.00  0.00     0.279 A 
HETATM    8  C   UNL     1      -3.866 -13.593 -40.365  1.00  0.00     0.029 A 
HETATM    9  N   UNL     1      -1.891 -13.669 -39.169  1.00  0.00    -0.316 N 
HETATM   10  O   UNL     1      -2.444 -12.290 -37.355  1.00  0.00    -0.265 OA
HETATM   11  C   UNL     1      -0.519 -13.975 -38.861  1.00  0.00     0.159 C 
HETATM   12  C   UNL     1      -2.561 -14.095 -40.323  1.00  0.00     0.050 A 
HETATM   13  C   UNL     1      -2.059 -14.879 -41.350  1.00  0.00     0.032 A 
HETATM   14  C   UNL     1      -2.890 -15.139 -42.443  1.00  0.00     0.026 A 
HETATM   15  C   UNL     1      -4.185 -14.599 -42.498  1.00  0.00     0.035 A 
HETATM   16  C   UNL     1      -4.685 -13.807 -41.462  1.00  0.00     0.040 A 
HETATM   17 CL   UNL     1      -5.174 -14.913 -43.871  1.00  0.00    -0.084 Cl
ENDBRANCH   1   5
BRANCH   2  18
HETATM   18  C   UNL     1      -8.623 -13.027 -39.241  1.00  0.00     0.068 A 
HETATM   19  C   UNL     1      -9.148 -14.315 -39.404  1.00  0.00     0.081 A 
HETATM   20  C   UNL     1     -10.389 -14.494 -40.003  1.00  0.00     0.039 A 
HETATM   21  C   UNL     1     -11.098 -13.388 -40.479  1.00  0.00     0.026 A 
HETATM   22  C   UNL     1     -10.543 -12.106 -40.421  1.00  0.00     0.006 A 
HETATM   23  C   UNL     1      -9.323 -11.927 -39.763  1.00  0.00     0.043 A 
BRANCH  19  24
HETATM   24  O   UNL     1      -8.509 -15.444 -38.967  1.00  0.00    -0.360 OA
HETATM   25  H   UNL     1      -8.434 -15.389 -37.986  1.00  0.00     0.217 HD
ENDBRANCH  19  24
BRANCH  22  26
HETATM   26  N   UNL     1     -11.304 -10.992 -40.799  1.00  0.00    -0.303 NA
HETATM   27  H   UNL     1     -11.917 -10.650 -40.064  1.00  0.00     0.124 HD
HETATM   28  H   UNL     1     -11.799 -11.102 -41.679  1.00  0.00     0.124 HD
ENDBRANCH  22  26
ENDBRANCH   2  18
TORSDOF 4
ENDMDL
MODEL 6
REMARK VINA RESULT:      -7.9      4.083      6.186
REMARK  4 active torsions:
REMARK  status: ('A' for Active; 'I' for Inactive)
REMARK    1  A    between atoms: N_6  and  N_7 
REMARK       I    between atoms: N_7  and  C_8 
REMARK    2  A    between atoms: C_8  and  C_9 
REMARK    3  A    between atoms: C_10  and  O_11 
REMARK    4  A    between atoms: C_14  and  N_15 
ROOT
HETATM    1  N   UNL     1      -7.824   0.163 -34.664  1.00  0.00    -0.242 N 
HETATM    2  C   UNL     1      -8.816   0.506 -33.762  1.00  0.00     0.274 C 
HETATM    3  O   UNL     1      -9.344  -0.246 -32.945  1.00  0.00    -0.266 OA
HETATM    4  H   UNL     1      -7.427   0.855 -35.282  1.00  0.00     0.192 HD
ENDROOT
BRANCH   1   5
HETATM    5  N   UNL     1      -7.446  -1.132 -34.818  1.00  0.00    -0.166 NA
HETATM    6  C   UNL     1      -6.345  -1.533 -34.262  1.00  0.00     0.157 A 
HETATM    7  C   UNL     1      -5.753  -2.921 -34.573  1.00  0.00     0.279 A 
HETATM    8  C   UNL     1      -5.422  -0.906 -33.304  1.00  0.00     0.029 A 
HETATM    9  N   UNL     1      -4.553  -2.966 -33.886  1.00  0.00    -0.316 N 
HETATM   10  O   UNL     1      -6.254  -3.757 -35.294  1.00  0.00    -0.265 OA
HETATM   11  C   UNL     1      -3.662  -4.095 -33.885  1.00  0.00     0.159 C 
HETATM   12  C   UNL     1      -4.359  -1.799 -33.136  1.00  0.00     0.050 A 
HETATM   13  C   UNL     1      -3.302  -1.507 -32.288  1.00  0.00     0.032 A 
HETATM   14  C   UNL     1      -3.337  -0.297 -31.588  1.00  0.00     0.026 A 
HETATM   15  C   UNL     1      -4.426   0.577 -31.732  1.00  0.00     0.035 A 
HETATM   16  C   UNL     1      -5.491   0.276 -32.584  1.00  0.00     0.040 A 
HETATM   17 CL   UNL     1      -4.455   2.045 -30.834  1.00  0.00    -0.084 Cl
ENDBRANCH   1   5
BRANCH   2  18
HETATM   18  C   UNL     1      -9.175   1.947 -33.726  1.00  0.00     0.068 A 
HETATM   19  C   UNL     1     -10.472   2.319 -33.352  1.00  0.00     0.081 A 
HETATM   20  C   UNL     1     -10.796   3.660 -33.189  1.00  0.00     0.039 A 
HETATM   21  C   UNL     1      -9.834   4.643 -33.436  1.00  0.00     0.026 A 
HETATM   22  C   UNL     1      -8.566   4.297 -33.912  1.00  0.00     0.006 A 
HETATM   23  C   UNL     1      -8.229   2.944 -34.015  1.00  0.00     0.043 A 
BRANCH  19  24
HETATM   24  O   UNL     1     -11.466   1.412 -33.098  1.00  0.00    -0.360 OA
HETATM   25  H   UNL     1     -11.997   1.308 -33.921  1.00  0.00     0.217 HD
ENDBRANCH  19  24
BRANCH  22  26
HETATM   26  N   UNL     1      -7.575   5.277 -34.051  1.00  0.00    -0.303 NA
HETATM   27  H   UNL     1      -7.888   6.212 -33.804  1.00  0.00     0.124 HD
HETATM   28  H   UNL     1      -7.100   5.267 -34.949  1.00  0.00     0.124 HD
ENDBRANCH  22  26
ENDBRANCH   2  18
TORSDOF 4
ENDMDL
MODEL 7
REMARK VINA RESULT:      -7.8      4.082      5.895
REMARK  4 active torsions:
REMARK  status: ('A' for Active; 'I' for Inactive)
REMARK    1  A    between atoms: N_6  and  N_7 
REMARK       I    between atoms: N_7  and  C_8 
REMARK    2  A    between atoms: C_8  and  C_9 
REMARK    3  A    between atoms: C_10  and  O_11 
REMARK    4  A    between atoms: C_14  and  N_15 
ROOT
HETATM    1  N   UNL     1      -4.713   1.143 -31.254  1.00  0.00    -0.242 N 
HETATM    2  C   UNL     1      -5.670   1.159 -30.254  1.00  0.00     0.274 C 
HETATM    3  O   UNL     1      -5.744   0.375 -29.310  1.00  0.00    -0.266 OA
HETATM    4  H   UNL     1      -4.712   1.846 -31.978  1.00  0.00     0.192 HD
ENDROOT
BRANCH   1   5
HETATM    5  N   UNL     1      -3.828   0.117 -31.349  1.00  0.00    -0.166 NA
HETATM    6  C   UNL     1      -4.093  -0.867 -32.149  1.00  0.00     0.157 A 
HETATM    7  C   UNL     1      -3.245  -2.153 -32.143  1.00  0.00     0.279 A 
HETATM    8  C   UNL     1      -5.132  -1.073 -33.170  1.00  0.00     0.029 A 
HETATM    9  N   UNL     1      -3.865  -3.001 -33.043  1.00  0.00    -0.316 N 
HETATM   10  O   UNL     1      -2.263  -2.347 -31.461  1.00  0.00    -0.265 OA
HETATM   11  C   UNL     1      -3.399  -4.324 -33.363  1.00  0.00     0.159 C 
HETATM   12  C   UNL     1      -4.960  -2.375 -33.653  1.00  0.00     0.050 A 
HETATM   13  C   UNL     1      -5.788  -2.892 -34.637  1.00  0.00     0.032 A 
HETATM   14  C   UNL     1      -6.794  -2.067 -35.148  1.00  0.00     0.026 A 
HETATM   15  C   UNL     1      -6.937  -0.749 -34.688  1.00  0.00     0.035 A 
HETATM   16  C   UNL     1      -6.097  -0.231 -33.699  1.00  0.00     0.040 A 
HETATM   17 CL   UNL     1      -8.165   0.252 -35.358  1.00  0.00    -0.084 Cl
ENDBRANCH   1   5
BRANCH   2  18
HETATM   18  C   UNL     1      -6.611   2.308 -30.291  1.00  0.00     0.068 A 
HETATM   19  C   UNL     1      -6.121   3.599 -30.064  1.00  0.00     0.081 A 
HETATM   20  C   UNL     1      -6.954   4.702 -30.217  1.00  0.00     0.039 A 
HETATM   21  C   UNL     1      -8.295   4.516 -30.561  1.00  0.00     0.026 A 
HETATM   22  C   UNL     1      -8.829   3.231 -30.688  1.00  0.00     0.006 A 
HETATM   23  C   UNL     1      -7.971   2.131 -30.592  1.00  0.00     0.043 A 
BRANCH  19  24
HETATM   24  O   UNL     1      -4.821   3.856 -29.721  1.00  0.00    -0.360 OA
HETATM   25  H   UNL     1      -4.380   2.995 -29.536  1.00  0.00     0.217 HD
ENDBRANCH  19  24
BRANCH  22  26
HETATM   26  N   UNL     1     -10.143   3.055 -31.139  1.00  0.00    -0.303 NA
HETATM   27  H   UNL     1     -10.205   2.774 -32.115  1.00  0.00     0.124 HD
HETATM   28  H   UNL     1     -10.764   3.832 -30.934  1.00  0.00     0.124 HD
ENDBRANCH  22  26
ENDBRANCH   2  18
TORSDOF 4
ENDMDL
MODEL 8
REMARK VINA RESULT:      -7.8      3.775      6.643
REMARK  4 active torsions:
REMARK  status: ('A' for Active; 'I' for Inactive)
REMARK    1  A    between atoms: N_6  and  N_7 
REMARK       I    between atoms: N_7  and  C_8 
REMARK    2  A    between atoms: C_8  and  C_9 
REMARK    3  A    between atoms: C_10  and  O_11 
REMARK    4  A    between atoms: C_14  and  N_15 
ROOT
HETATM    1  N   UNL     1      -3.644   0.468 -32.873  1.00  0.00    -0.242 N 
HETATM    2  C   UNL     1      -3.737  -0.652 -32.065  1.00  0.00     0.274 C 
HETATM    3  O   UNL     1      -3.806  -0.656 -30.838  1.00  0.00    -0.266 OA
HETATM    4  H   UNL     1      -3.620   0.379 -33.878  1.00  0.00     0.192 HD
ENDROOT
BRANCH   1   5
HETATM    5  N   UNL     1      -3.467   1.700 -32.330  1.00  0.00    -0.166 NA
HETATM    6  C   UNL     1      -4.386   2.598 -32.500  1.00  0.00     0.157 A 
HETATM    7  C   UNL     1      -4.153   4.067 -32.098  1.00  0.00     0.279 A 
HETATM    8  C   UNL     1      -5.748   2.542 -33.053  1.00  0.00     0.029 A 
HETATM    9  N   UNL     1      -5.293   4.739 -32.503  1.00  0.00    -0.316 N 
HETATM   10  O   UNL     1      -3.157   4.503 -31.564  1.00  0.00    -0.265 OA
HETATM   11  C   UNL     1      -5.511   6.149 -32.315  1.00  0.00     0.159 C 
HETATM   12  C   UNL     1      -6.231   3.855 -33.051  1.00  0.00     0.050 A 
HETATM   13  C   UNL     1      -7.501   4.155 -33.516  1.00  0.00     0.032 A 
HETATM   14  C   UNL     1      -8.298   3.101 -33.973  1.00  0.00     0.026 A 
HETATM   15  C   UNL     1      -7.823   1.780 -33.936  1.00  0.00     0.035 A 
HETATM   16  C   UNL     1      -6.543   1.483 -33.462  1.00  0.00     0.040 A 
HETATM   17 CL   UNL     1      -8.839   0.501 -34.478  1.00  0.00    -0.084 Cl
ENDBRANCH   1   5
BRANCH   2  18
HETATM   18  C   UNL     1      -3.877  -1.945 -32.783  1.00  0.00     0.068 A 
HETATM   19  C   UNL     1      -3.185  -3.066 -32.310  1.00  0.00     0.081 A 
HETATM   20  C   UNL     1      -3.396  -4.314 -32.886  1.00  0.00     0.039 A 
HETATM   21  C   UNL     1      -4.274  -4.441 -33.965  1.00  0.00     0.026 A 
HETATM   22  C   UNL     1      -4.893  -3.317 -34.519  1.00  0.00     0.006 A 
HETATM   23  C   UNL     1      -4.723  -2.077 -33.896  1.00  0.00     0.043 A 
BRANCH  19  24
HETATM   24  O   UNL     1      -2.307  -3.016 -31.261  1.00  0.00    -0.360 OA
HETATM   25  H   UNL     1      -2.394  -3.855 -30.752  1.00  0.00     0.217 HD
ENDBRANCH  19  24
BRANCH  22  26
HETATM   26  N   UNL     1      -5.854  -3.467 -35.527  1.00  0.00    -0.303 NA
HETATM   27  H   UNL     1      -5.495  -3.292 -36.462  1.00  0.00     0.124 HD
HETATM   28  H   UNL     1      -6.720  -2.962 -35.358  1.00  0.00     0.124 HD
ENDBRANCH  22  26
ENDBRANCH   2  18
TORSDOF 4
ENDMDL
MODEL 9
REMARK VINA RESULT:      -7.8      3.704      6.905
REMARK  4 active torsions:
REMARK  status: ('A' for Active; 'I' for Inactive)
REMARK    1  A    between atoms: N_6  and  N_7 
REMARK       I    between atoms: N_7  and  C_8 
REMARK    2  A    between atoms: C_8  and  C_9 
REMARK    3  A    between atoms: C_10  and  O_11 
REMARK    4  A    between atoms: C_14  and  N_15 
ROOT
HETATM    1  N   UNL     1      -4.091   0.200 -33.119  1.00  0.00    -0.242 N 
HETATM    2  C   UNL     1      -3.941  -1.105 -32.684  1.00  0.00     0.274 C 
HETATM    3  O   UNL     1      -3.319  -1.469 -31.688  1.00  0.00    -0.266 OA
HETATM    4  H   UNL     1      -4.645   0.411 -33.936  1.00  0.00     0.192 HD
ENDROOT
BRANCH   1   5
HETATM    5  N   UNL     1      -3.402   1.211 -32.528  1.00  0.00    -0.166 NA
HETATM    6  C   UNL     1      -4.063   2.179 -31.975  1.00  0.00     0.157 A 
HETATM    7  C   UNL     1      -3.351   3.452 -31.481  1.00  0.00     0.279 A 
HETATM    8  C   UNL     1      -5.491   2.375 -31.680  1.00  0.00     0.029 A 
HETATM    9  N   UNL     1      -4.363   4.287 -31.041  1.00  0.00    -0.316 N 
HETATM   10  O   UNL     1      -2.155   3.650 -31.512  1.00  0.00    -0.265 OA
HETATM   11  C   UNL     1      -4.148   5.595 -30.482  1.00  0.00     0.159 C 
HETATM   12  C   UNL     1      -5.612   3.661 -31.145  1.00  0.00     0.050 A 
HETATM   13  C   UNL     1      -6.843   4.166 -30.757  1.00  0.00     0.032 A 
HETATM   14  C   UNL     1      -7.964   3.343 -30.900  1.00  0.00     0.026 A 
HETATM   15  C   UNL     1      -7.830   2.038 -31.401  1.00  0.00     0.035 A 
HETATM   16  C   UNL     1      -6.586   1.533 -31.786  1.00  0.00     0.040 A 
HETATM   17 CL   UNL     1      -9.224   1.038 -31.537  1.00  0.00    -0.084 Cl
ENDBRANCH   1   5
BRANCH   2  18
HETATM   18  C   UNL     1      -4.708  -2.123 -33.446  1.00  0.00     0.068 A 
HETATM   19  C   UNL     1      -5.884  -1.741 -34.104  1.00  0.00     0.081 A 
HETATM   20  C   UNL     1      -6.551  -2.642 -34.926  1.00  0.00     0.039 A 
HETATM   21  C   UNL     1      -6.066  -3.945 -35.066  1.00  0.00     0.026 A 
HETATM   22  C   UNL     1      -4.956  -4.376 -34.335  1.00  0.00     0.006 A 
HETATM   23  C   UNL     1      -4.256  -3.448 -33.558  1.00  0.00     0.043 A 
BRANCH  19  24
HETATM   24  O   UNL     1      -6.418  -0.484 -34.010  1.00  0.00    -0.360 OA
HETATM   25  H   UNL     1      -5.778   0.081 -33.519  1.00  0.00     0.217 HD
ENDBRANCH  19  24
BRANCH  22  26
HETATM   26  N   UNL     1      -4.413  -5.647 -34.563  1.00  0.00    -0.303 NA
HETATM   27  H   UNL     1      -4.957  -6.213 -35.209  1.00  0.00     0.124 HD
HETATM   28  H   UNL     1      -4.181  -6.161 -33.719  1.00  0.00     0.124 HD
ENDBRANCH  22  26
ENDBRANCH   2  18
TORSDOF 4
ENDMDL
MODEL 10
REMARK VINA RESULT:      -7.6      3.811      6.491
REMARK  4 active torsions:
REMARK  status: ('A' for Active; 'I' for Inactive)
REMARK    1  A    between atoms: N_6  and  N_7 
REMARK       I    between atoms: N_7  and  C_8 
REMARK    2  A    between atoms: C_8  and  C_9 
REMARK    3  A    between atoms: C_10  and  O_11 
REMARK    4  A    between atoms: C_14  and  N_15 
ROOT
HETATM    1  N   UNL     1      -8.751   1.036 -34.867  1.00  0.00    -0.242 N 
HETATM    2  C   UNL     1      -9.919   1.438 -34.241  1.00  0.00     0.274 C 
HETATM    3  O   UNL     1     -10.494   0.844 -33.332  1.00  0.00    -0.266 OA
HETATM    4  H   UNL     1      -8.332   1.602 -35.589  1.00  0.00     0.192 HD
ENDROOT
BRANCH   1   5
HETATM    5  N   UNL     1      -8.209  -0.181 -34.605  1.00  0.00    -0.166 NA
HETATM    6  C   UNL     1      -7.035  -0.240 -34.059  1.00  0.00     0.157 A 
HETATM    7  C   UNL     1      -6.277  -1.575 -33.934  1.00  0.00     0.279 A 
HETATM    8  C   UNL     1      -6.153   0.781 -33.471  1.00  0.00     0.029 A 
HETATM    9  N   UNL     1      -5.046  -1.245 -33.397  1.00  0.00    -0.316 N 
HETATM   10  O   UNL     1      -6.699  -2.660 -34.270  1.00  0.00    -0.265 OA
HETATM   11  C   UNL     1      -4.010  -2.198 -33.098  1.00  0.00     0.159 C 
HETATM   12  C   UNL     1      -4.970   0.125 -33.115  1.00  0.00     0.050 A 
HETATM   13  C   UNL     1      -3.917   0.810 -32.529  1.00  0.00     0.032 A 
HETATM   14  C   UNL     1      -4.078   2.177 -32.286  1.00  0.00     0.026 A 
HETATM   15  C   UNL     1      -5.282   2.822 -32.610  1.00  0.00     0.035 A 
HETATM   16  C   UNL     1      -6.342   2.127 -33.197  1.00  0.00     0.040 A 
HETATM   17 CL   UNL     1      -5.460   4.500 -32.272  1.00  0.00    -0.084 Cl
ENDBRANCH   1   5
BRANCH   2  18
HETATM   18  C   UNL     1     -10.437   2.768 -34.653  1.00  0.00     0.068 A 
HETATM   19  C   UNL     1     -11.777   2.889 -35.038  1.00  0.00     0.081 A 
HETATM   20  C   UNL     1     -12.319   4.140 -35.306  1.00  0.00     0.039 A 
HETATM   21  C   UNL     1     -11.511   5.278 -35.227  1.00  0.00     0.026 A 
HETATM   22  C   UNL     1     -10.146   5.167 -34.948  1.00  0.00     0.006 A 
HETATM   23  C   UNL     1      -9.624   3.912 -34.621  1.00  0.00     0.043 A 
BRANCH  19  24
HETATM   24  O   UNL     1     -12.626   1.819 -35.141  1.00  0.00    -0.360 OA
HETATM   25  H   UNL     1     -12.253   1.085 -34.600  1.00  0.00     0.217 HD
ENDBRANCH  19  24
BRANCH  22  26
HETATM   26  N   UNL     1      -9.369   6.318 -34.763  1.00  0.00    -0.303 NA
HETATM   27  H   UNL     1      -9.745   7.142 -35.225  1.00  0.00     0.124 HD
HETATM   28  H   UNL     1      -8.382   6.193 -34.966  1.00  0.00     0.124 HD
ENDBRANCH  22  26
ENDBRANCH   2  18
TORSDOF 4
ENDMDL
