MODEL 1
REMARK VINA RESULT:      -9.6      0.000      0.000
REMARK  8 active torsions:
REMARK  status: ('A' for Active; 'I' for Inactive)
REMARK    1  A    between atoms: C_4  and  S_5 
REMARK    2  A    between atoms: S_5  and  C_6 
REMARK    3  A    between atoms: C_6  and  C_7 
REMARK       I    between atoms: C_7  and  N_8 
REMARK    4  A    between atoms: N_8  and  C_9 
REMARK    5  A    between atoms: C_10  and  O_11 
REMARK    6  A    between atoms: C_22  and  C_23 
REMARK    7  A    between atoms: C_29  and  C_30 
REMARK       I    between atoms: C_30  and  N_31 
REMARK    8  A    between atoms: N_31  and  C_32 
ROOT
HETATM    1  C   UNL     1      -5.650   1.149 -29.661  1.00  0.00     0.069 C 
HETATM    2  C   UNL     1      -5.620   2.518 -30.294  1.00  0.00     0.019 C 
HETATM    3  N   UNL     1      -5.512   3.588 -29.416  1.00  0.00    -0.353 N 
HETATM    4  C   UNL     1      -5.825   4.895 -29.757  1.00  0.00     0.088 C 
HETATM    5  C   UNL     1      -5.859   5.247 -31.064  1.00  0.00     0.069 C 
HETATM    6  C   UNL     1      -6.207   6.555 -31.518  1.00  0.00     0.099 C 
HETATM    7  N   UNL     1      -6.509   7.588 -31.950  1.00  0.00    -0.192 NA
HETATM    8  C   UNL     1      -5.602   4.194 -32.142  1.00  0.00     0.106 C 
HETATM    9  C   UNL     1      -5.712   2.759 -31.626  1.00  0.00     0.046 C 
HETATM   10  H   UNL     1      -5.593   3.379 -28.423  1.00  0.00     0.166 HD
ENDROOT
BRANCH   4  11
HETATM   11  S   UNL     1      -6.297   6.029 -28.498  1.00  0.00    -0.102 SA
BRANCH  11  12
HETATM   12  C   UNL     1      -4.841   5.790 -27.434  1.00  0.00     0.184 C 
BRANCH  12  13
HETATM   13  C   UNL     1      -4.349   7.079 -26.804  1.00  0.00     0.231 C 
HETATM   14  N   UNL     1      -3.109   7.552 -27.148  1.00  0.00    -0.324 N 
HETATM   15  H   UNL     1      -2.662   8.097 -26.416  1.00  0.00     0.169 HD
HETATM   16  O   UNL     1      -4.955   7.614 -25.874  1.00  0.00    -0.272 OA
BRANCH  14  17
HETATM   17  C   UNL     1      -2.344   7.344 -28.309  1.00  0.00     0.070 A 
HETATM   18  C   UNL     1      -1.049   6.814 -28.165  1.00  0.00     0.095 A 
HETATM   19  C   UNL     1      -0.235   6.653 -29.290  1.00  0.00     0.041 A 
HETATM   20  C   UNL     1      -0.709   7.013 -30.554  1.00  0.00     0.026 A 
HETATM   21  C   UNL     1      -1.989   7.545 -30.688  1.00  0.00     0.036 A 
HETATM   22 CL   UNL     1      -2.560   8.019 -32.241  1.00  0.00    -0.084 Cl
HETATM   23  C   UNL     1      -2.806   7.719 -29.574  1.00  0.00     0.056 A 
BRANCH  18  24
HETATM   24  O   UNL     1      -0.666   6.482 -26.888  1.00  0.00    -0.354 OA
HETATM   25  C   UNL     1       0.507   7.136 -26.411  1.00  0.00     0.210 C 
ENDBRANCH  18  24
ENDBRANCH  14  17
ENDBRANCH  12  13
ENDBRANCH  11  12
ENDBRANCH   4  11
BRANCH   8  26
HETATM   26  C   UNL     1      -4.272   4.469 -32.852  1.00  0.00    -0.044 A 
HETATM   27  C   UNL     1      -3.037   4.244 -32.221  1.00  0.00     0.008 A 
HETATM   28  C   UNL     1      -1.839   4.504 -32.887  1.00  0.00     0.001 A 
HETATM   29  C   UNL     1      -1.857   5.009 -34.185  1.00  0.00     0.000 A 
HETATM   30  C   UNL     1      -3.072   5.258 -34.817  1.00  0.00     0.001 A 
HETATM   31  C   UNL     1      -4.273   4.992 -34.157  1.00  0.00     0.008 A 
ENDBRANCH   8  26
BRANCH   9  32
HETATM   32  C   UNL     1      -6.170   1.680 -32.567  1.00  0.00     0.255 C 
HETATM   33  N   UNL     1      -5.661   0.428 -32.302  1.00  0.00    -0.323 N 
HETATM   34  H   UNL     1      -5.161   0.290 -31.434  1.00  0.00     0.169 HD
HETATM   35  O   UNL     1      -6.869   1.980 -33.530  1.00  0.00    -0.268 OA
BRANCH  33  36
HETATM   36  C   UNL     1      -5.710  -0.710 -33.140  1.00  0.00     0.035 A 
HETATM   37  C   UNL     1      -6.876  -1.206 -33.725  1.00  0.00     0.029 A 
HETATM   38  C   UNL     1      -6.828  -2.315 -34.577  1.00  0.00     0.002 A 
HETATM   39  C   UNL     1      -5.612  -2.932 -34.857  1.00  0.00     0.000 A 
HETATM   40  C   UNL     1      -4.443  -2.449 -34.277  1.00  0.00     0.002 A 
HETATM   41  C   UNL     1      -4.493  -1.347 -33.417  1.00  0.00     0.029 A 
ENDBRANCH  33  36
ENDBRANCH   9  32
TORSDOF 8
ENDMDL
MODEL 2
REMARK VINA RESULT:      -9.3      3.763      7.166
REMARK  8 active torsions:
REMARK  status: ('A' for Active; 'I' for Inactive)
REMARK    1  A    between atoms: C_4  and  S_5 
REMARK    2  A    between atoms: S_5  and  C_6 
REMARK    3  A    between atoms: C_6  and  C_7 
REMARK       I    between atoms: C_7  and  N_8 
REMARK    4  A    between atoms: N_8  and  C_9 
REMARK    5  A    between atoms: C_10  and  O_11 
REMARK    6  A    between atoms: C_22  and  C_23 
REMARK    7  A    between atoms: C_29  and  C_30 
REMARK       I    between atoms: C_30  and  N_31 
REMARK    8  A    between atoms: N_31  and  C_32 
ROOT
HETATM    1  C   UNL     1      -5.626   0.490 -29.316  1.00  0.00     0.069 C 
HETATM    2  C   UNL     1      -5.651   1.591 -30.346  1.00  0.00     0.019 C 
HETATM    3  N   UNL     1      -6.638   2.554 -30.177  1.00  0.00    -0.353 N 
HETATM    4  C   UNL     1      -7.048   3.417 -31.183  1.00  0.00     0.088 C 
HETATM    5  C   UNL     1      -6.232   3.633 -32.242  1.00  0.00     0.069 C 
HETATM    6  C   UNL     1      -6.579   4.470 -33.344  1.00  0.00     0.099 C 
HETATM    7  N   UNL     1      -6.814   5.115 -34.280  1.00  0.00    -0.192 NA
HETATM    8  C   UNL     1      -4.899   2.890 -32.339  1.00  0.00     0.106 C 
HETATM    9  C   UNL     1      -4.809   1.683 -31.404  1.00  0.00     0.046 C 
HETATM   10  H   UNL     1      -7.338   2.375 -29.461  1.00  0.00     0.166 HD
ENDROOT
BRANCH   4  11
HETATM   11  S   UNL     1      -8.665   4.106 -31.125  1.00  0.00    -0.102 SA
BRANCH  11  12
HETATM   12  C   UNL     1      -9.572   2.529 -31.105  1.00  0.00     0.184 C 
BRANCH  12  13
HETATM   13  C   UNL     1      -9.221   1.628 -32.273  1.00  0.00     0.231 C 
HETATM   14  N   UNL     1      -9.970   1.708 -33.418  1.00  0.00    -0.324 N 
HETATM   15  H   UNL     1     -10.008   0.838 -33.943  1.00  0.00     0.169 HD
HETATM   16  O   UNL     1      -8.399   0.717 -32.159  1.00  0.00    -0.272 OA
BRANCH  14  17
HETATM   17  C   UNL     1     -10.739   2.766 -33.933  1.00  0.00     0.070 A 
HETATM   18  C   UNL     1     -12.138   2.619 -33.963  1.00  0.00     0.095 A 
HETATM   19  C   UNL     1     -12.930   3.624 -34.525  1.00  0.00     0.041 A 
HETATM   20  C   UNL     1     -12.334   4.772 -35.052  1.00  0.00     0.026 A 
HETATM   21  C   UNL     1     -10.949   4.908 -35.027  1.00  0.00     0.036 A 
HETATM   22 CL   UNL     1     -10.214   6.309 -35.706  1.00  0.00    -0.084 Cl
HETATM   23  C   UNL     1     -10.148   3.910 -34.477  1.00  0.00     0.056 A 
BRANCH  18  24
HETATM   24  O   UNL     1     -12.639   1.462 -33.418  1.00  0.00    -0.354 OA
HETATM   25  C   UNL     1     -13.404   0.650 -34.305  1.00  0.00     0.210 C 
ENDBRANCH  18  24
ENDBRANCH  14  17
ENDBRANCH  12  13
ENDBRANCH  11  12
ENDBRANCH   4  11
BRANCH   8  26
HETATM   26  C   UNL     1      -3.730   3.865 -32.164  1.00  0.00    -0.044 A 
HETATM   27  C   UNL     1      -3.679   4.773 -31.093  1.00  0.00     0.008 A 
HETATM   28  C   UNL     1      -2.604   5.653 -30.956  1.00  0.00     0.001 A 
HETATM   29  C   UNL     1      -1.575   5.651 -31.896  1.00  0.00     0.000 A 
HETATM   30  C   UNL     1      -1.622   4.772 -32.975  1.00  0.00     0.001 A 
HETATM   31  C   UNL     1      -2.691   3.886 -33.111  1.00  0.00     0.008 A 
ENDBRANCH   8  26
BRANCH   9  32
HETATM   32  C   UNL     1      -3.969   0.506 -31.816  1.00  0.00     0.255 C 
HETATM   33  N   UNL     1      -4.654  -0.486 -32.483  1.00  0.00    -0.323 N 
HETATM   34  H   UNL     1      -5.601  -0.295 -32.780  1.00  0.00     0.169 HD
HETATM   35  O   UNL     1      -2.793   0.457 -31.472  1.00  0.00    -0.268 OA
BRANCH  33  36
HETATM   36  C   UNL     1      -4.199  -1.794 -32.769  1.00  0.00     0.035 A 
HETATM   37  C   UNL     1      -3.389  -2.548 -31.920  1.00  0.00     0.029 A 
HETATM   38  C   UNL     1      -3.019  -3.853 -32.262  1.00  0.00     0.002 A 
HETATM   39  C   UNL     1      -3.462  -4.417 -33.455  1.00  0.00     0.000 A 
HETATM   40  C   UNL     1      -4.267  -3.674 -34.313  1.00  0.00     0.002 A 
HETATM   41  C   UNL     1      -4.628  -2.366 -33.975  1.00  0.00     0.029 A 
ENDBRANCH  33  36
ENDBRANCH   9  32
TORSDOF 8
ENDMDL
MODEL 3
REMARK VINA RESULT:      -9.2      1.203      1.893
REMARK  8 active torsions:
REMARK  status: ('A' for Active; 'I' for Inactive)
REMARK    1  A    between atoms: C_4  and  S_5 
REMARK    2  A    between atoms: S_5  and  C_6 
REMARK    3  A    between atoms: C_6  and  C_7 
REMARK       I    between atoms: C_7  and  N_8 
REMARK    4  A    between atoms: N_8  and  C_9 
REMARK    5  A    between atoms: C_10  and  O_11 
REMARK    6  A    between atoms: C_22  and  C_23 
REMARK    7  A    between atoms: C_29  and  C_30 
REMARK       I    between atoms: C_30  and  N_31 
REMARK    8  A    between atoms: N_31  and  C_32 
ROOT
HETATM    1  C   UNL     1      -5.674   1.045 -29.726  1.00  0.00     0.069 C 
HETATM    2  C   UNL     1      -5.685   2.419 -30.346  1.00  0.00     0.019 C 
HETATM    3  N   UNL     1      -5.604   3.484 -29.459  1.00  0.00    -0.353 N 
HETATM    4  C   UNL     1      -5.954   4.785 -29.787  1.00  0.00     0.088 C 
HETATM    5  C   UNL     1      -6.001   5.148 -31.091  1.00  0.00     0.069 C 
HETATM    6  C   UNL     1      -6.387   6.449 -31.532  1.00  0.00     0.099 C 
HETATM    7  N   UNL     1      -6.718   7.478 -31.954  1.00  0.00    -0.192 NA
HETATM    8  C   UNL     1      -5.718   4.112 -32.179  1.00  0.00     0.106 C 
HETATM    9  C   UNL     1      -5.787   2.670 -31.675  1.00  0.00     0.046 C 
HETATM   10  H   UNL     1      -5.676   3.264 -28.468  1.00  0.00     0.166 HD
ENDROOT
BRANCH   4  11
HETATM   11  S   UNL     1      -6.453   5.894 -28.517  1.00  0.00    -0.102 SA
BRANCH  11  12
HETATM   12  C   UNL     1      -4.867   5.935 -27.628  1.00  0.00     0.184 C 
BRANCH  12  13
HETATM   13  C   UNL     1      -4.551   7.297 -27.040  1.00  0.00     0.231 C 
HETATM   14  N   UNL     1      -3.540   8.038 -27.595  1.00  0.00    -0.324 N 
HETATM   15  H   UNL     1      -3.084   8.663 -26.937  1.00  0.00     0.169 HD
HETATM   16  O   UNL     1      -5.058   7.675 -25.982  1.00  0.00    -0.272 OA
BRANCH  14  17
HETATM   17  C   UNL     1      -2.999   8.015 -28.892  1.00  0.00     0.070 A 
HETATM   18  C   UNL     1      -3.761   8.563 -29.940  1.00  0.00     0.095 A 
HETATM   19  C   UNL     1      -3.283   8.502 -31.253  1.00  0.00     0.041 A 
HETATM   20  C   UNL     1      -2.050   7.900 -31.521  1.00  0.00     0.026 A 
HETATM   21  C   UNL     1      -1.306   7.352 -30.480  1.00  0.00     0.036 A 
HETATM   22 CL   UNL     1       0.197   6.583 -30.816  1.00  0.00    -0.084 Cl
HETATM   23  C   UNL     1      -1.775   7.400 -29.170  1.00  0.00     0.056 A 
BRANCH  18  24
HETATM   24  O   UNL     1      -4.957   9.140 -29.586  1.00  0.00    -0.354 OA
HETATM   25  C   UNL     1      -5.031  10.552 -29.761  1.00  0.00     0.210 C 
ENDBRANCH  18  24
ENDBRANCH  14  17
ENDBRANCH  12  13
ENDBRANCH  11  12
ENDBRANCH   4  11
BRANCH   8  26
HETATM   26  C   UNL     1      -4.398   4.430 -32.890  1.00  0.00    -0.044 A 
HETATM   27  C   UNL     1      -3.155   4.240 -32.261  1.00  0.00     0.008 A 
HETATM   28  C   UNL     1      -1.967   4.539 -32.928  1.00  0.00     0.001 A 
HETATM   29  C   UNL     1      -2.002   5.048 -34.225  1.00  0.00     0.000 A 
HETATM   30  C   UNL     1      -3.226   5.263 -34.854  1.00  0.00     0.001 A 
HETATM   31  C   UNL     1      -4.417   4.958 -34.193  1.00  0.00     0.008 A 
ENDBRANCH   8  26
BRANCH   9  32
HETATM   32  C   UNL     1      -6.217   1.588 -32.626  1.00  0.00     0.255 C 
HETATM   33  N   UNL     1      -5.723   0.334 -32.336  1.00  0.00    -0.323 N 
HETATM   34  H   UNL     1      -5.254   0.200 -31.451  1.00  0.00     0.169 HD
HETATM   35  O   UNL     1      -6.882   1.885 -33.614  1.00  0.00    -0.268 OA
BRANCH  33  36
HETATM   36  C   UNL     1      -5.749  -0.808 -33.169  1.00  0.00     0.035 A 
HETATM   37  C   UNL     1      -6.907  -1.342 -33.736  1.00  0.00     0.029 A 
HETATM   38  C   UNL     1      -6.837  -2.452 -34.583  1.00  0.00     0.002 A 
HETATM   39  C   UNL     1      -5.607  -3.034 -34.877  1.00  0.00     0.000 A 
HETATM   40  C   UNL     1      -4.445  -2.513 -34.315  1.00  0.00     0.002 A 
HETATM   41  C   UNL     1      -4.517  -1.410 -33.459  1.00  0.00     0.029 A 
ENDBRANCH  33  36
ENDBRANCH   9  32
TORSDOF 8
ENDMDL
MODEL 4
REMARK VINA RESULT:      -9.2      3.910      6.869
REMARK  8 active torsions:
REMARK  status: ('A' for Active; 'I' for Inactive)
REMARK    1  A    between atoms: C_4  and  S_5 
REMARK    2  A    between atoms: S_5  and  C_6 
REMARK    3  A    between atoms: C_6  and  C_7 
REMARK       I    between atoms: C_7  and  N_8 
REMARK    4  A    between atoms: N_8  and  C_9 
REMARK    5  A    between atoms: C_10  and  O_11 
REMARK    6  A    between atoms: C_22  and  C_23 
REMARK    7  A    between atoms: C_29  and  C_30 
REMARK       I    between atoms: C_30  and  N_31 
REMARK    8  A    between atoms: N_31  and  C_32 
ROOT
HETATM    1  C   UNL     1      -5.535   0.295 -29.748  1.00  0.00     0.069 C 
HETATM    2  C   UNL     1      -5.606   1.585 -30.527  1.00  0.00     0.019 C 
HETATM    3  N   UNL     1      -6.267   2.633 -29.900  1.00  0.00    -0.353 N 
HETATM    4  C   UNL     1      -6.743   3.750 -30.570  1.00  0.00     0.088 C 
HETATM    5  C   UNL     1      -6.233   4.059 -31.786  1.00  0.00     0.069 C 
HETATM    6  C   UNL     1      -6.683   5.163 -32.571  1.00  0.00     0.099 C 
HETATM    7  N   UNL     1      -7.024   6.026 -33.266  1.00  0.00    -0.192 NA
HETATM    8  C   UNL     1      -5.180   3.151 -32.422  1.00  0.00     0.106 C 
HETATM    9  C   UNL     1      -5.098   1.770 -31.771  1.00  0.00     0.046 C 
HETATM   10  H   UNL     1      -6.758   2.417 -29.036  1.00  0.00     0.166 HD
ENDROOT
BRANCH   4  11
HETATM   11  S   UNL     1      -8.084   4.661 -29.889  1.00  0.00    -0.102 SA
BRANCH  11  12
HETATM   12  C   UNL     1      -9.378   3.987 -30.975  1.00  0.00     0.184 C 
BRANCH  12  13
HETATM   13  C   UNL     1     -10.128   5.061 -31.740  1.00  0.00     0.231 C 
HETATM   14  N   UNL     1     -10.859   4.698 -32.842  1.00  0.00    -0.324 N 
HETATM   15  H   UNL     1     -10.940   5.434 -33.539  1.00  0.00     0.169 HD
HETATM   16  O   UNL     1      -9.960   6.258 -31.502  1.00  0.00    -0.272 OA
BRANCH  14  17
HETATM   17  C   UNL     1     -11.443   3.466 -33.184  1.00  0.00     0.070 A 
HETATM   18  C   UNL     1     -10.702   2.579 -33.985  1.00  0.00     0.095 A 
HETATM   19  C   UNL     1     -11.274   1.372 -34.398  1.00  0.00     0.041 A 
HETATM   20  C   UNL     1     -12.577   1.047 -34.012  1.00  0.00     0.026 A 
HETATM   21  C   UNL     1     -13.307   1.934 -33.226  1.00  0.00     0.036 A 
HETATM   22 CL   UNL     1     -14.924   1.547 -32.778  1.00  0.00    -0.084 Cl
HETATM   23  C   UNL     1     -12.752   3.143 -32.815  1.00  0.00     0.056 A 
BRANCH  18  24
HETATM   24  O   UNL     1      -9.428   2.975 -34.314  1.00  0.00    -0.354 OA
HETATM   25  C   UNL     1      -8.400   2.029 -34.030  1.00  0.00     0.210 C 
ENDBRANCH  18  24
ENDBRANCH  14  17
ENDBRANCH  12  13
ENDBRANCH  11  12
ENDBRANCH   4  11
BRANCH   8  26
HETATM   26  C   UNL     1      -3.824   3.863 -32.477  1.00  0.00    -0.044 A 
HETATM   27  C   UNL     1      -3.323   4.408 -33.672  1.00  0.00     0.008 A 
HETATM   28  C   UNL     1      -2.084   5.049 -33.697  1.00  0.00     0.001 A 
HETATM   29  C   UNL     1      -1.320   5.140 -32.535  1.00  0.00     0.000 A 
HETATM   30  C   UNL     1      -1.793   4.586 -31.348  1.00  0.00     0.001 A 
HETATM   31  C   UNL     1      -3.034   3.950 -31.317  1.00  0.00     0.008 A 
ENDBRANCH   8  26
BRANCH   9  32
HETATM   32  C   UNL     1      -4.690   0.593 -32.612  1.00  0.00     0.255 C 
HETATM   33  N   UNL     1      -5.737  -0.159 -33.099  1.00  0.00    -0.323 N 
HETATM   34  H   UNL     1      -6.674   0.206 -32.996  1.00  0.00     0.169 HD
HETATM   35  O   UNL     1      -3.499   0.328 -32.737  1.00  0.00    -0.268 OA
BRANCH  33  36
HETATM   36  C   UNL     1      -5.665  -1.437 -33.698  1.00  0.00     0.035 A 
HETATM   37  C   UNL     1      -4.495  -2.192 -33.804  1.00  0.00     0.029 A 
HETATM   38  C   UNL     1      -4.522  -3.468 -34.376  1.00  0.00     0.002 A 
HETATM   39  C   UNL     1      -5.719  -4.004 -34.840  1.00  0.00     0.000 A 
HETATM   40  C   UNL     1      -6.892  -3.260 -34.744  1.00  0.00     0.002 A 
HETATM   41  C   UNL     1      -6.863  -1.980 -34.182  1.00  0.00     0.029 A 
ENDBRANCH  33  36
ENDBRANCH   9  32
TORSDOF 8
ENDMDL
MODEL 5
REMARK VINA RESULT:      -9.1      4.116      5.873
REMARK  8 active torsions:
REMARK  status: ('A' for Active; 'I' for Inactive)
REMARK    1  A    between atoms: C_4  and  S_5 
REMARK    2  A    between atoms: S_5  and  C_6 
REMARK    3  A    between atoms: C_6  and  C_7 
REMARK       I    between atoms: C_7  and  N_8 
REMARK    4  A    between atoms: N_8  and  C_9 
REMARK    5  A    between atoms: C_10  and  O_11 
REMARK    6  A    between atoms: C_22  and  C_23 
REMARK    7  A    between atoms: C_29  and  C_30 
REMARK       I    between atoms: C_30  and  N_31 
REMARK    8  A    between atoms: N_31  and  C_32 
ROOT
HETATM    1  C   UNL     1     -10.119   4.230 -30.405  1.00  0.00     0.069 C 
HETATM    2  C   UNL     1      -9.035   4.005 -31.430  1.00  0.00     0.019 C 
HETATM    3  N   UNL     1      -7.759   4.408 -31.058  1.00  0.00    -0.353 N 
HETATM    4  C   UNL     1      -6.727   4.616 -31.960  1.00  0.00     0.088 C 
HETATM    5  C   UNL     1      -6.798   4.050 -33.188  1.00  0.00     0.069 C 
HETATM    6  C   UNL     1      -5.808   4.236 -34.199  1.00  0.00     0.099 C 
HETATM    7  N   UNL     1      -5.053   4.372 -35.069  1.00  0.00    -0.192 NA
HETATM    8  C   UNL     1      -8.030   3.233 -33.579  1.00  0.00     0.106 C 
HETATM    9  C   UNL     1      -9.229   3.469 -32.660  1.00  0.00     0.046 C 
HETATM   10  H   UNL     1      -7.677   4.935 -30.191  1.00  0.00     0.166 HD
ENDROOT
BRANCH   4  11
HETATM   11  S   UNL     1      -5.418   5.713 -31.539  1.00  0.00    -0.102 SA
BRANCH  11  12
HETATM   12  C   UNL     1      -4.499   4.558 -30.478  1.00  0.00     0.184 C 
BRANCH  12  13
HETATM   13  C   UNL     1      -3.722   3.519 -31.265  1.00  0.00     0.231 C 
HETATM   14  N   UNL     1      -2.564   3.897 -31.893  1.00  0.00    -0.324 N 
HETATM   15  H   UNL     1      -2.355   3.351 -32.725  1.00  0.00     0.169 HD
HETATM   16  O   UNL     1      -4.190   2.402 -31.493  1.00  0.00    -0.272 OA
BRANCH  14  17
HETATM   17  C   UNL     1      -1.675   4.948 -31.613  1.00  0.00     0.070 A 
HETATM   18  C   UNL     1      -1.452   5.915 -32.610  1.00  0.00     0.095 A 
HETATM   19  C   UNL     1      -0.527   6.940 -32.390  1.00  0.00     0.041 A 
HETATM   20  C   UNL     1       0.170   7.005 -31.182  1.00  0.00     0.026 A 
HETATM   21  C   UNL     1      -0.048   6.040 -30.202  1.00  0.00     0.036 A 
HETATM   22 CL   UNL     1       0.835   6.103 -28.727  1.00  0.00    -0.084 Cl
HETATM   23  C   UNL     1      -0.961   5.010 -30.413  1.00  0.00     0.056 A 
BRANCH  18  24
HETATM   24  O   UNL     1      -2.185   5.778 -33.765  1.00  0.00    -0.354 OA
HETATM   25  C   UNL     1      -1.454   5.330 -34.903  1.00  0.00     0.210 C 
ENDBRANCH  18  24
ENDBRANCH  14  17
ENDBRANCH  12  13
ENDBRANCH  11  12
ENDBRANCH   4  11
BRANCH   8  26
HETATM   26  C   UNL     1      -7.667   1.750 -33.713  1.00  0.00    -0.044 A 
HETATM   27  C   UNL     1      -7.756   1.075 -34.943  1.00  0.00     0.008 A 
HETATM   28  C   UNL     1      -7.423  -0.276 -35.039  1.00  0.00     0.001 A 
HETATM   29  C   UNL     1      -7.012  -0.977 -33.907  1.00  0.00     0.000 A 
HETATM   30  C   UNL     1      -6.939  -0.328 -32.677  1.00  0.00     0.001 A 
HETATM   31  C   UNL     1      -7.265   1.025 -32.578  1.00  0.00     0.008 A 
ENDBRANCH   8  26
BRANCH   9  32
HETATM   32  C   UNL     1     -10.615   3.342 -33.228  1.00  0.00     0.255 C 
HETATM   33  N   UNL     1     -11.413   2.411 -32.599  1.00  0.00    -0.323 N 
HETATM   34  H   UNL     1     -11.082   2.005 -31.734  1.00  0.00     0.169 HD
HETATM   35  O   UNL     1     -10.915   3.981 -34.231  1.00  0.00    -0.268 OA
BRANCH  33  36
HETATM   36  C   UNL     1     -12.651   1.900 -33.053  1.00  0.00     0.035 A 
HETATM   37  C   UNL     1     -13.896   2.414 -32.685  1.00  0.00     0.029 A 
HETATM   38  C   UNL     1     -15.073   1.874 -33.215  1.00  0.00     0.002 A 
HETATM   39  C   UNL     1     -15.015   0.820 -34.123  1.00  0.00     0.000 A 
HETATM   40  C   UNL     1     -13.780   0.297 -34.495  1.00  0.00     0.002 A 
HETATM   41  C   UNL     1     -12.604   0.830 -33.956  1.00  0.00     0.029 A 
ENDBRANCH  33  36
ENDBRANCH   9  32
TORSDOF 8
ENDMDL
MODEL 6
REMARK VINA RESULT:      -9.1      3.475      5.281
REMARK  8 active torsions:
REMARK  status: ('A' for Active; 'I' for Inactive)
REMARK    1  A    between atoms: C_4  and  S_5 
REMARK    2  A    between atoms: S_5  and  C_6 
REMARK    3  A    between atoms: C_6  and  C_7 
REMARK       I    between atoms: C_7  and  N_8 
REMARK    4  A    between atoms: N_8  and  C_9 
REMARK    5  A    between atoms: C_10  and  O_11 
REMARK    6  A    between atoms: C_22  and  C_23 
REMARK    7  A    between atoms: C_29  and  C_30 
REMARK       I    between atoms: C_30  and  N_31 
REMARK    8  A    between atoms: N_31  and  C_32 
ROOT
HETATM    1  C   UNL     1      -5.471   3.508 -34.685  1.00  0.00     0.069 C 
HETATM    2  C   UNL     1      -6.764   3.435 -33.914  1.00  0.00     0.019 C 
HETATM    3  N   UNL     1      -7.047   4.528 -33.105  1.00  0.00    -0.353 N 
HETATM    4  C   UNL     1      -7.973   4.499 -32.072  1.00  0.00     0.088 C 
HETATM    5  C   UNL     1      -8.927   3.538 -32.067  1.00  0.00     0.069 C 
HETATM    6  C   UNL     1      -9.899   3.400 -31.031  1.00  0.00     0.099 C 
HETATM    7  N   UNL     1     -10.695   3.219 -30.207  1.00  0.00    -0.192 NA
HETATM    8  C   UNL     1      -8.942   2.475 -33.165  1.00  0.00     0.106 C 
HETATM    9  C   UNL     1      -7.630   2.392 -33.946  1.00  0.00     0.046 C 
HETATM   10  H   UNL     1      -6.311   5.222 -32.994  1.00  0.00     0.166 HD
ENDROOT
BRANCH   4  11
HETATM   11  S   UNL     1      -7.808   5.624 -30.731  1.00  0.00    -0.102 SA
BRANCH  11  12
HETATM   12  C   UNL     1      -6.288   6.435 -31.313  1.00  0.00     0.184 C 
BRANCH  12  13
HETATM   13  C   UNL     1      -5.225   6.546 -30.236  1.00  0.00     0.231 C 
HETATM   14  N   UNL     1      -4.644   5.399 -29.760  1.00  0.00    -0.324 N 
HETATM   15  H   UNL     1      -4.325   5.473 -28.797  1.00  0.00     0.169 HD
HETATM   16  O   UNL     1      -4.998   7.613 -29.664  1.00  0.00    -0.272 OA
BRANCH  14  17
HETATM   17  C   UNL     1      -4.489   4.138 -30.360  1.00  0.00     0.070 A 
HETATM   18  C   UNL     1      -3.491   3.986 -31.340  1.00  0.00     0.095 A 
HETATM   19  C   UNL     1      -3.349   2.764 -32.004  1.00  0.00     0.041 A 
HETATM   20  C   UNL     1      -4.195   1.697 -31.692  1.00  0.00     0.026 A 
HETATM   21  C   UNL     1      -5.186   1.856 -30.728  1.00  0.00     0.036 A 
HETATM   22 CL   UNL     1      -6.247   0.550 -30.367  1.00  0.00    -0.084 Cl
HETATM   23  C   UNL     1      -5.342   3.071 -30.065  1.00  0.00     0.056 A 
BRANCH  18  24
HETATM   24  O   UNL     1      -2.702   5.085 -31.580  1.00  0.00    -0.354 OA
HETATM   25  C   UNL     1      -1.663   4.896 -32.537  1.00  0.00     0.210 C 
ENDBRANCH  18  24
ENDBRANCH  14  17
ENDBRANCH  12  13
ENDBRANCH  11  12
ENDBRANCH   4  11
BRANCH   8  26
HETATM   26  C   UNL     1     -10.162   2.662 -34.074  1.00  0.00    -0.044 A 
HETATM   27  C   UNL     1     -11.081   1.623 -34.303  1.00  0.00     0.008 A 
HETATM   28  C   UNL     1     -12.182   1.818 -35.136  1.00  0.00     0.001 A 
HETATM   29  C   UNL     1     -12.374   3.046 -35.766  1.00  0.00     0.000 A 
HETATM   30  C   UNL     1     -11.462   4.079 -35.566  1.00  0.00     0.001 A 
HETATM   31  C   UNL     1     -10.362   3.890 -34.728  1.00  0.00     0.008 A 
ENDBRANCH   8  26
BRANCH   9  32
HETATM   32  C   UNL     1      -7.209   1.068 -34.522  1.00  0.00     0.255 C 
HETATM   33  N   UNL     1      -6.883   0.110 -33.588  1.00  0.00    -0.323 N 
HETATM   34  H   UNL     1      -7.092   0.300 -32.617  1.00  0.00     0.169 HD
HETATM   35  O   UNL     1      -7.099   0.950 -35.738  1.00  0.00    -0.268 OA
BRANCH  33  36
HETATM   36  C   UNL     1      -6.229  -1.122 -33.819  1.00  0.00     0.035 A 
HETATM   37  C   UNL     1      -6.801  -2.202 -34.493  1.00  0.00     0.029 A 
HETATM   38  C   UNL     1      -6.066  -3.371 -34.716  1.00  0.00     0.002 A 
HETATM   39  C   UNL     1      -4.750  -3.468 -34.273  1.00  0.00     0.000 A 
HETATM   40  C   UNL     1      -4.169  -2.399 -33.596  1.00  0.00     0.002 A 
HETATM   41  C   UNL     1      -4.908  -1.235 -33.364  1.00  0.00     0.029 A 
ENDBRANCH  33  36
ENDBRANCH   9  32
TORSDOF 8
ENDMDL
MODEL 7
REMARK VINA RESULT:      -9.1      3.245      5.138
REMARK  8 active torsions:
REMARK  status: ('A' for Active; 'I' for Inactive)
REMARK    1  A    between atoms: C_4  and  S_5 
REMARK    2  A    between atoms: S_5  and  C_6 
REMARK    3  A    between atoms: C_6  and  C_7 
REMARK       I    between atoms: C_7  and  N_8 
REMARK    4  A    between atoms: N_8  and  C_9 
REMARK    5  A    between atoms: C_10  and  O_11 
REMARK    6  A    between atoms: C_22  and  C_23 
REMARK    7  A    between atoms: C_29  and  C_30 
REMARK       I    between atoms: C_30  and  N_31 
REMARK    8  A    between atoms: N_31  and  C_32 
ROOT
HETATM    1  C   UNL     1      -5.619   3.892 -34.492  1.00  0.00     0.069 C 
HETATM    2  C   UNL     1      -6.939   3.767 -33.773  1.00  0.00     0.019 C 
HETATM    3  N   UNL     1      -7.318   4.864 -33.010  1.00  0.00    -0.353 N 
HETATM    4  C   UNL     1      -8.284   4.811 -32.016  1.00  0.00     0.088 C 
HETATM    5  C   UNL     1      -9.182   3.797 -32.021  1.00  0.00     0.069 C 
HETATM    6  C   UNL     1     -10.188   3.632 -31.022  1.00  0.00     0.099 C 
HETATM    7  N   UNL     1     -11.008   3.429 -30.227  1.00  0.00    -0.192 NA
HETATM    8  C   UNL     1      -9.090   2.704 -33.086  1.00  0.00     0.106 C 
HETATM    9  C   UNL     1      -7.742   2.675 -33.809  1.00  0.00     0.046 C 
HETATM   10  H   UNL     1      -6.628   5.602 -32.890  1.00  0.00     0.166 HD
ENDROOT
BRANCH   4  11
HETATM   11  S   UNL     1      -8.241   5.981 -30.704  1.00  0.00    -0.102 SA
BRANCH  11  12
HETATM   12  C   UNL     1      -6.609   6.682 -31.092  1.00  0.00     0.184 C 
BRANCH  12  13
HETATM   13  C   UNL     1      -5.677   6.714 -29.896  1.00  0.00     0.231 C 
HETATM   14  N   UNL     1      -4.775   5.694 -29.735  1.00  0.00    -0.324 N 
HETATM   15  H   UNL     1      -4.530   5.516 -28.764  1.00  0.00     0.169 HD
HETATM   16  O   UNL     1      -5.825   7.531 -28.986  1.00  0.00    -0.272 OA
BRANCH  14  17
HETATM   17  C   UNL     1      -4.201   4.826 -30.679  1.00  0.00     0.070 A 
HETATM   18  C   UNL     1      -4.585   3.472 -30.657  1.00  0.00     0.095 A 
HETATM   19  C   UNL     1      -3.989   2.567 -31.540  1.00  0.00     0.041 A 
HETATM   20  C   UNL     1      -3.018   3.006 -32.443  1.00  0.00     0.026 A 
HETATM   21  C   UNL     1      -2.637   4.345 -32.454  1.00  0.00     0.036 A 
HETATM   22 CL   UNL     1      -1.418   4.879 -33.545  1.00  0.00    -0.084 Cl
HETATM   23  C   UNL     1      -3.217   5.255 -31.574  1.00  0.00     0.056 A 
BRANCH  18  24
HETATM   24  O   UNL     1      -5.550   3.128 -29.741  1.00  0.00    -0.354 OA
HETATM   25  C   UNL     1      -6.480   2.140 -30.174  1.00  0.00     0.210 C 
ENDBRANCH  18  24
ENDBRANCH  14  17
ENDBRANCH  12  13
ENDBRANCH  11  12
ENDBRANCH   4  11
BRANCH   8  26
HETATM   26  C   UNL     1     -10.278   2.795 -34.050  1.00  0.00    -0.044 A 
HETATM   27  C   UNL     1     -11.146   1.710 -34.258  1.00  0.00     0.008 A 
HETATM   28  C   UNL     1     -12.220   1.817 -35.142  1.00  0.00     0.001 A 
HETATM   29  C   UNL     1     -12.432   3.002 -35.844  1.00  0.00     0.000 A 
HETATM   30  C   UNL     1     -11.568   4.079 -35.665  1.00  0.00     0.001 A 
HETATM   31  C   UNL     1     -10.497   3.979 -34.776  1.00  0.00     0.008 A 
ENDBRANCH   8  26
BRANCH   9  32
HETATM   32  C   UNL     1      -7.223   1.362 -34.326  1.00  0.00     0.255 C 
HETATM   33  N   UNL     1      -6.775   0.495 -33.354  1.00  0.00    -0.323 N 
HETATM   34  H   UNL     1      -6.964   0.724 -32.387  1.00  0.00     0.169 HD
HETATM   35  O   UNL     1      -7.148   1.181 -35.537  1.00  0.00    -0.268 OA
BRANCH  33  36
HETATM   36  C   UNL     1      -6.019  -0.684 -33.543  1.00  0.00     0.035 A 
HETATM   37  C   UNL     1      -6.417  -1.753 -34.347  1.00  0.00     0.029 A 
HETATM   38  C   UNL     1      -5.587  -2.867 -34.512  1.00  0.00     0.002 A 
HETATM   39  C   UNL     1      -4.347  -2.918 -33.880  1.00  0.00     0.000 A 
HETATM   40  C   UNL     1      -3.941  -1.860 -33.072  1.00  0.00     0.002 A 
HETATM   41  C   UNL     1      -4.776  -0.752 -32.899  1.00  0.00     0.029 A 
ENDBRANCH  33  36
ENDBRANCH   9  32
TORSDOF 8
ENDMDL
MODEL 8
REMARK VINA RESULT:      -8.9      3.210      4.696
REMARK  8 active torsions:
REMARK  status: ('A' for Active; 'I' for Inactive)
REMARK    1  A    between atoms: C_4  and  S_5 
REMARK    2  A    between atoms: S_5  and  C_6 
REMARK    3  A    between atoms: C_6  and  C_7 
REMARK       I    between atoms: C_7  and  N_8 
REMARK    4  A    between atoms: N_8  and  C_9 
REMARK    5  A    between atoms: C_10  and  O_11 
REMARK    6  A    between atoms: C_22  and  C_23 
REMARK    7  A    between atoms: C_29  and  C_30 
REMARK       I    between atoms: C_30  and  N_31 
REMARK    8  A    between atoms: N_31  and  C_32 
ROOT
HETATM    1  C   UNL     1      -5.341   3.576 -34.548  1.00  0.00     0.069 C 
HETATM    2  C   UNL     1      -6.653   3.515 -33.807  1.00  0.00     0.019 C 
HETATM    3  N   UNL     1      -6.932   4.598 -32.983  1.00  0.00    -0.353 N 
HETATM    4  C   UNL     1      -7.881   4.568 -31.972  1.00  0.00     0.088 C 
HETATM    5  C   UNL     1      -8.854   3.626 -32.005  1.00  0.00     0.069 C 
HETATM    6  C   UNL     1      -9.850   3.488 -30.994  1.00  0.00     0.099 C 
HETATM    7  N   UNL     1     -10.668   3.307 -30.191  1.00  0.00    -0.192 NA
HETATM    8  C   UNL     1      -8.865   2.584 -33.124  1.00  0.00     0.106 C 
HETATM    9  C   UNL     1      -7.538   2.490 -33.878  1.00  0.00     0.046 C 
HETATM   10  H   UNL     1      -6.185   5.274 -32.843  1.00  0.00     0.166 HD
ENDROOT
BRANCH   4  11
HETATM   11  S   UNL     1      -7.723   5.664 -30.605  1.00  0.00    -0.102 SA
BRANCH  11  12
HETATM   12  C   UNL     1      -6.032   6.223 -30.970  1.00  0.00     0.184 C 
BRANCH  12  13
HETATM   13  C   UNL     1      -5.036   5.846 -29.889  1.00  0.00     0.231 C 
HETATM   14  N   UNL     1      -3.726   5.645 -30.239  1.00  0.00    -0.324 N 
HETATM   15  H   UNL     1      -3.239   4.986 -29.637  1.00  0.00     0.169 HD
HETATM   16  O   UNL     1      -5.403   5.549 -28.751  1.00  0.00    -0.272 OA
BRANCH  14  17
HETATM   17  C   UNL     1      -2.985   6.146 -31.323  1.00  0.00     0.070 A 
HETATM   18  C   UNL     1      -2.493   7.461 -31.242  1.00  0.00     0.095 A 
HETATM   19  C   UNL     1      -1.806   8.014 -32.327  1.00  0.00     0.041 A 
HETATM   20  C   UNL     1      -1.606   7.260 -33.486  1.00  0.00     0.026 A 
HETATM   21  C   UNL     1      -2.103   5.962 -33.562  1.00  0.00     0.036 A 
HETATM   22 CL   UNL     1      -1.884   5.046 -35.003  1.00  0.00    -0.084 Cl
HETATM   23  C   UNL     1      -2.796   5.403 -32.492  1.00  0.00     0.056 A 
BRANCH  18  24
HETATM   24  O   UNL     1      -2.730   8.128 -30.064  1.00  0.00    -0.354 OA
HETATM   25  C   UNL     1      -1.572   8.434 -29.291  1.00  0.00     0.210 C 
ENDBRANCH  18  24
ENDBRANCH  14  17
ENDBRANCH  12  13
ENDBRANCH  11  12
ENDBRANCH   4  11
BRANCH   8  26
HETATM   26  C   UNL     1     -10.061   2.813 -34.055  1.00  0.00    -0.044 A 
HETATM   27  C   UNL     1     -10.286   4.053 -34.679  1.00  0.00     0.008 A 
HETATM   28  C   UNL     1     -11.383   4.237 -35.521  1.00  0.00     0.001 A 
HETATM   29  C   UNL     1     -12.280   3.193 -35.739  1.00  0.00     0.000 A 
HETATM   30  C   UNL     1     -12.083   1.966 -35.111  1.00  0.00     0.001 A 
HETATM   31  C   UNL     1     -10.983   1.775 -34.274  1.00  0.00     0.008 A 
ENDBRANCH   8  26
BRANCH   9  32
HETATM   32  C   UNL     1      -7.131   1.169 -34.470  1.00  0.00     0.255 C 
HETATM   33  N   UNL     1      -6.708   0.231 -33.554  1.00  0.00    -0.323 N 
HETATM   34  H   UNL     1      -6.844   0.429 -32.572  1.00  0.00     0.169 HD
HETATM   35  O   UNL     1      -7.113   1.037 -35.690  1.00  0.00    -0.268 OA
BRANCH  33  36
HETATM   36  C   UNL     1      -6.043  -0.987 -33.822  1.00  0.00     0.035 A 
HETATM   37  C   UNL     1      -4.726  -1.262 -33.452  1.00  0.00     0.029 A 
HETATM   38  C   UNL     1      -4.158  -2.512 -33.721  1.00  0.00     0.002 A 
HETATM   39  C   UNL     1      -4.905  -3.500 -34.356  1.00  0.00     0.000 A 
HETATM   40  C   UNL     1      -6.218  -3.236 -34.734  1.00  0.00     0.002 A 
HETATM   41  C   UNL     1      -6.782  -1.983 -34.475  1.00  0.00     0.029 A 
ENDBRANCH  33  36
ENDBRANCH   9  32
TORSDOF 8
ENDMDL
MODEL 9
REMARK VINA RESULT:      -8.8      2.587      8.506
REMARK  8 active torsions:
REMARK  status: ('A' for Active; 'I' for Inactive)
REMARK    1  A    between atoms: C_4  and  S_5 
REMARK    2  A    between atoms: S_5  and  C_6 
REMARK    3  A    between atoms: C_6  and  C_7 
REMARK       I    between atoms: C_7  and  N_8 
REMARK    4  A    between atoms: N_8  and  C_9 
REMARK    5  A    between atoms: C_10  and  O_11 
REMARK    6  A    between atoms: C_22  and  C_23 
REMARK    7  A    between atoms: C_29  and  C_30 
REMARK       I    between atoms: C_30  and  N_31 
REMARK    8  A    between atoms: N_31  and  C_32 
ROOT
HETATM    1  C   UNL     1      -5.871   6.947 -29.304  1.00  0.00     0.069 C 
HETATM    2  C   UNL     1      -5.154   5.801 -29.972  1.00  0.00     0.019 C 
HETATM    3  N   UNL     1      -5.917   4.664 -30.205  1.00  0.00    -0.353 N 
HETATM    4  C   UNL     1      -5.373   3.416 -30.466  1.00  0.00     0.088 C 
HETATM    5  C   UNL     1      -4.095   3.329 -30.906  1.00  0.00     0.069 C 
HETATM    6  C   UNL     1      -3.434   2.092 -31.165  1.00  0.00     0.099 C 
HETATM    7  N   UNL     1      -2.834   1.120 -31.366  1.00  0.00    -0.192 NA
HETATM    8  C   UNL     1      -3.257   4.599 -31.060  1.00  0.00     0.106 C 
HETATM    9  C   UNL     1      -3.845   5.806 -30.327  1.00  0.00     0.046 C 
HETATM   10  H   UNL     1      -6.848   4.644 -29.796  1.00  0.00     0.166 HD
ENDROOT
BRANCH   4  11
HETATM   11  S   UNL     1      -6.307   1.971 -30.098  1.00  0.00    -0.102 SA
BRANCH  11  12
HETATM   12  C   UNL     1      -7.669   2.291 -31.261  1.00  0.00     0.184 C 
BRANCH  12  13
HETATM   13  C   UNL     1      -7.223   3.030 -32.507  1.00  0.00     0.231 C 
HETATM   14  N   UNL     1      -6.512   2.350 -33.461  1.00  0.00    -0.324 N 
HETATM   15  H   UNL     1      -5.877   2.938 -33.995  1.00  0.00     0.169 HD
HETATM   16  O   UNL     1      -7.333   4.254 -32.604  1.00  0.00    -0.272 OA
BRANCH  14  17
HETATM   17  C   UNL     1      -6.471   0.977 -33.761  1.00  0.00     0.070 A 
HETATM   18  C   UNL     1      -7.574   0.408 -34.423  1.00  0.00     0.095 A 
HETATM   19  C   UNL     1      -7.596  -0.966 -34.682  1.00  0.00     0.041 A 
HETATM   20  C   UNL     1      -6.524  -1.769 -34.287  1.00  0.00     0.026 A 
HETATM   21  C   UNL     1      -5.440  -1.201 -33.625  1.00  0.00     0.036 A 
HETATM   22 CL   UNL     1      -4.134  -2.198 -33.110  1.00  0.00    -0.084 Cl
HETATM   23  C   UNL     1      -5.409   0.164 -33.354  1.00  0.00     0.056 A 
BRANCH  18  24
HETATM   24  O   UNL     1      -8.581   1.272 -34.780  1.00  0.00    -0.354 OA
HETATM   25  C   UNL     1      -9.840   1.037 -34.154  1.00  0.00     0.210 C 
ENDBRANCH  18  24
ENDBRANCH  14  17
ENDBRANCH  12  13
ENDBRANCH  11  12
ENDBRANCH   4  11
BRANCH   8  26
HETATM   26  C   UNL     1      -2.982   4.881 -32.541  1.00  0.00    -0.044 A 
HETATM   27  C   UNL     1      -4.022   4.987 -33.480  1.00  0.00     0.008 A 
HETATM   28  C   UNL     1      -3.745   5.242 -34.823  1.00  0.00     0.001 A 
HETATM   29  C   UNL     1      -2.426   5.377 -35.252  1.00  0.00     0.000 A 
HETATM   30  C   UNL     1      -1.383   5.252 -34.338  1.00  0.00     0.001 A 
HETATM   31  C   UNL     1      -1.656   5.004 -32.992  1.00  0.00     0.008 A 
ENDBRANCH   8  26
BRANCH   9  32
HETATM   32  C   UNL     1      -2.912   6.857 -29.794  1.00  0.00     0.255 C 
HETATM   33  N   UNL     1      -1.819   6.367 -29.113  1.00  0.00    -0.323 N 
HETATM   34  H   UNL     1      -1.640   5.373 -29.153  1.00  0.00     0.169 HD
HETATM   35  O   UNL     1      -3.211   8.041 -29.911  1.00  0.00    -0.268 OA
BRANCH  33  36
HETATM   36  C   UNL     1      -0.920   7.096 -28.302  1.00  0.00     0.035 A 
HETATM   37  C   UNL     1      -1.112   7.344 -26.942  1.00  0.00     0.029 A 
HETATM   38  C   UNL     1      -0.150   8.040 -26.203  1.00  0.00     0.002 A 
HETATM   39  C   UNL     1       1.017   8.488 -26.816  1.00  0.00     0.000 A 
HETATM   40  C   UNL     1       1.218   8.250 -28.173  1.00  0.00     0.002 A 
HETATM   41  C   UNL     1       0.251   7.564 -28.913  1.00  0.00     0.029 A 
ENDBRANCH  33  36
ENDBRANCH   9  32
TORSDOF 8
ENDMDL
MODEL 10
REMARK VINA RESULT:      -8.7      2.637      4.168
REMARK  8 active torsions:
REMARK  status: ('A' for Active; 'I' for Inactive)
REMARK    1  A    between atoms: C_4  and  S_5 
REMARK    2  A    between atoms: S_5  and  C_6 
REMARK    3  A    between atoms: C_6  and  C_7 
REMARK       I    between atoms: C_7  and  N_8 
REMARK    4  A    between atoms: N_8  and  C_9 
REMARK    5  A    between atoms: C_10  and  O_11 
REMARK    6  A    between atoms: C_22  and  C_23 
REMARK    7  A    between atoms: C_29  and  C_30 
REMARK       I    between atoms: C_30  and  N_31 
REMARK    8  A    between atoms: N_31  and  C_32 
ROOT
HETATM    1  C   UNL     1      -4.714   4.268 -34.733  1.00  0.00     0.069 C 
HETATM    2  C   UNL     1      -5.920   4.335 -33.829  1.00  0.00     0.019 C 
HETATM    3  N   UNL     1      -6.409   5.608 -33.568  1.00  0.00    -0.353 N 
HETATM    4  C   UNL     1      -7.254   5.903 -32.509  1.00  0.00     0.088 C 
HETATM    5  C   UNL     1      -7.960   4.904 -31.928  1.00  0.00     0.069 C 
HETATM    6  C   UNL     1      -8.825   5.098 -30.810  1.00  0.00     0.099 C 
HETATM    7  N   UNL     1      -9.519   5.187 -29.885  1.00  0.00    -0.192 NA
HETATM    8  C   UNL     1      -7.781   3.464 -32.413  1.00  0.00     0.106 C 
HETATM    9  C   UNL     1      -6.522   3.262 -33.258  1.00  0.00     0.046 C 
HETATM   10  H   UNL     1      -5.849   6.392 -33.894  1.00  0.00     0.166 HD
ENDROOT
BRANCH   4  11
HETATM   11  S   UNL     1      -7.291   7.537 -31.861  1.00  0.00    -0.102 SA
BRANCH  11  12
HETATM   12  C   UNL     1      -5.545   7.611 -31.358  1.00  0.00     0.184 C 
BRANCH  12  13
HETATM   13  C   UNL     1      -5.235   6.734 -30.161  1.00  0.00     0.231 C 
HETATM   14  N   UNL     1      -4.078   5.998 -30.162  1.00  0.00    -0.324 N 
HETATM   15  H   UNL     1      -4.139   5.141 -29.619  1.00  0.00     0.169 HD
HETATM   16  O   UNL     1      -6.068   6.535 -29.275  1.00  0.00    -0.272 OA
BRANCH  14  17
HETATM   17  C   UNL     1      -2.866   6.206 -30.843  1.00  0.00     0.070 A 
HETATM   18  C   UNL     1      -1.850   6.927 -30.189  1.00  0.00     0.095 A 
HETATM   19  C   UNL     1      -0.656   7.207 -30.859  1.00  0.00     0.041 A 
HETATM   20  C   UNL     1      -0.471   6.769 -32.173  1.00  0.00     0.026 A 
HETATM   21  C   UNL     1      -1.483   6.063 -32.816  1.00  0.00     0.036 A 
HETATM   22 CL   UNL     1      -1.267   5.551 -34.446  1.00  0.00    -0.084 Cl
HETATM   23  C   UNL     1      -2.681   5.785 -32.163  1.00  0.00     0.056 A 
BRANCH  18  24
HETATM   24  O   UNL     1      -2.115   7.315 -28.898  1.00  0.00    -0.354 OA
HETATM   25  C   UNL     1      -1.492   8.528 -28.484  1.00  0.00     0.210 C 
ENDBRANCH  18  24
ENDBRANCH  14  17
ENDBRANCH  12  13
ENDBRANCH  11  12
ENDBRANCH   4  11
BRANCH   8  26
HETATM   26  C   UNL     1      -9.052   2.974 -33.115  1.00  0.00    -0.044 A 
HETATM   27  C   UNL     1      -9.635   1.733 -32.808  1.00  0.00     0.008 A 
HETATM   28  C   UNL     1     -10.791   1.309 -33.463  1.00  0.00     0.001 A 
HETATM   29  C   UNL     1     -11.372   2.108 -34.445  1.00  0.00     0.000 A 
HETATM   30  C   UNL     1     -10.794   3.331 -34.776  1.00  0.00     0.001 A 
HETATM   31  C   UNL     1      -9.641   3.763 -34.119  1.00  0.00     0.008 A 
ENDBRANCH   8  26
BRANCH   9  32
HETATM   32  C   UNL     1      -5.835   1.926 -33.229  1.00  0.00     0.255 C 
HETATM   33  N   UNL     1      -6.252   1.042 -34.201  1.00  0.00    -0.323 N 
HETATM   34  H   UNL     1      -6.852   1.390 -34.936  1.00  0.00     0.169 HD
HETATM   35  O   UNL     1      -5.042   1.676 -32.327  1.00  0.00    -0.268 OA
BRANCH  33  36
HETATM   36  C   UNL     1      -5.977  -0.343 -34.271  1.00  0.00     0.035 A 
HETATM   37  C   UNL     1      -4.746  -0.918 -33.951  1.00  0.00     0.029 A 
HETATM   38  C   UNL     1      -4.572  -2.304 -34.009  1.00  0.00     0.002 A 
HETATM   39  C   UNL     1      -5.630  -3.130 -34.380  1.00  0.00     0.000 A 
HETATM   40  C   UNL     1      -6.861  -2.568 -34.705  1.00  0.00     0.002 A 
HETATM   41  C   UNL     1      -7.031  -1.181 -34.658  1.00  0.00     0.029 A 
ENDBRANCH  33  36
ENDBRANCH   9  32
TORSDOF 8
ENDMDL
