MODEL 1
REMARK VINA RESULT:     -10.1      0.000      0.000
REMARK  4 active torsions:
REMARK  status: ('A' for Active; 'I' for Inactive)
REMARK    1  A    between atoms: C_5  and  N_6 
REMARK       I    between atoms: N_6  and  C_7 
REMARK    2  A    between atoms: C_7  and  C_8 
REMARK    3  A    between atoms: N_12  and  C_13 
REMARK    4  A    between atoms: C_24  and  O_25 
ROOT
HETATM    1  C   UNL     1      -4.220   1.415 -31.753  1.00  0.00     0.034 A 
HETATM    2  C   UNL     1      -3.468   0.353 -31.239  1.00  0.00     0.049 A 
HETATM    3  C   UNL     1      -3.563  -0.855 -31.900  1.00  0.00     0.064 A 
HETATM    4  C   UNL     1      -4.344  -1.061 -33.043  1.00  0.00     0.066 A 
HETATM    5  N   UNL     1      -4.176  -2.409 -33.432  1.00  0.00    -0.293 N 
HETATM    6  C   UNL     1      -3.348  -3.040 -32.463  1.00  0.00     0.328 A 
HETATM    7  O   UNL     1      -3.033  -4.216 -32.389  1.00  0.00    -0.247 OA
HETATM    8  N   UNL     1      -2.951  -2.050 -31.560  1.00  0.00    -0.306 N 
HETATM    9  C   UNL     1      -5.087  -0.020 -33.557  1.00  0.00     0.033 A 
HETATM   10  C   UNL     1      -5.016   1.224 -32.908  1.00  0.00     0.019 A 
HETATM   11  H   UNL     1      -2.357  -2.237 -30.770  1.00  0.00     0.171 HD
ENDROOT
BRANCH   1  12
HETATM   12  C   UNL     1      -4.198   2.776 -31.144  1.00  0.00     0.252 C 
HETATM   13  N   UNL     1      -3.336   3.693 -31.695  1.00  0.00    -0.346 N 
HETATM   14  H   UNL     1      -2.736   3.463 -32.473  1.00  0.00     0.163 HD
HETATM   15  O   UNL     1      -4.932   3.044 -30.201  1.00  0.00    -0.268 OA
BRANCH  13  16
HETATM   16  C   UNL     1      -3.264   5.054 -31.195  1.00  0.00     0.147 C 
HETATM   17  C   UNL     1      -1.853   5.576 -31.161  1.00  0.00    -0.027 A 
HETATM   18  C   UNL     1      -1.794   6.889 -31.640  1.00  0.00    -0.047 A 
HETATM   19  C   UNL     1      -0.712   4.944 -30.683  1.00  0.00     0.010 A 
HETATM   20  C   UNL     1      -0.597   7.587 -31.671  1.00  0.00     0.008 A 
HETATM   21  C   UNL     1      -3.155   7.393 -32.024  1.00  0.00     0.073 C 
HETATM   22  C   UNL     1       0.557   6.948 -31.215  1.00  0.00     0.001 A 
HETATM   23  C   UNL     1       0.499   5.637 -30.721  1.00  0.00     0.001 A 
HETATM   24  C   UNL     1      -3.963   6.088 -32.131  1.00  0.00     0.149 C 
BRANCH  24  25
HETATM   25  O   UNL     1      -3.956   5.654 -33.503  1.00  0.00    -0.393 OA
HETATM   26  H   UNL     1      -4.218   4.717 -33.477  1.00  0.00     0.210 HD
ENDBRANCH  24  25
ENDBRANCH  13  16
ENDBRANCH   1  12
BRANCH   5  27
HETATM   27  C   UNL     1      -4.853  -3.171 -34.459  1.00  0.00     0.095 C 
HETATM   28  C   UNL     1      -4.827  -4.697 -34.381  1.00  0.00     0.026 C 
HETATM   29  C   UNL     1      -5.939  -5.114 -35.331  1.00  0.00     0.002 C 
HETATM   30  C   UNL     1      -7.056  -4.132 -35.023  1.00  0.00     0.002 C 
HETATM   31  C   UNL     1      -6.364  -2.860 -34.533  1.00  0.00     0.026 C 
ENDBRANCH   5  27
TORSDOF 4
ENDMDL
MODEL 2
REMARK VINA RESULT:      -9.9      5.448      7.976
REMARK  4 active torsions:
REMARK  status: ('A' for Active; 'I' for Inactive)
REMARK    1  A    between atoms: C_5  and  N_6 
REMARK       I    between atoms: N_6  and  C_7 
REMARK    2  A    between atoms: C_7  and  C_8 
REMARK    3  A    between atoms: N_12  and  C_13 
REMARK    4  A    between atoms: C_24  and  O_25 
ROOT
HETATM    1  C   UNL     1      -7.888   1.518 -33.974  1.00  0.00     0.034 A 
HETATM    2  C   UNL     1      -6.709   1.710 -33.247  1.00  0.00     0.049 A 
HETATM    3  C   UNL     1      -5.762   0.708 -33.321  1.00  0.00     0.064 A 
HETATM    4  C   UNL     1      -5.913  -0.455 -34.084  1.00  0.00     0.066 A 
HETATM    5  N   UNL     1      -4.740  -1.225 -33.916  1.00  0.00    -0.293 N 
HETATM    6  C   UNL     1      -3.910  -0.554 -32.977  1.00  0.00     0.328 A 
HETATM    7  O   UNL     1      -2.852  -0.928 -32.500  1.00  0.00    -0.247 OA
HETATM    8  N   UNL     1      -4.543   0.652 -32.664  1.00  0.00    -0.306 N 
HETATM    9  C   UNL     1      -7.071  -0.651 -34.804  1.00  0.00     0.033 A 
HETATM   10  C   UNL     1      -8.058   0.347 -34.750  1.00  0.00     0.019 A 
HETATM   11  H   UNL     1      -4.160   1.319 -32.015  1.00  0.00     0.171 HD
ENDROOT
BRANCH   1  12
HETATM   12  C   UNL     1      -8.986   2.527 -33.992  1.00  0.00     0.252 C 
HETATM   13  N   UNL     1     -10.236   2.099 -33.614  1.00  0.00    -0.346 N 
HETATM   14  H   UNL     1     -10.413   1.144 -33.341  1.00  0.00     0.163 HD
HETATM   15  O   UNL     1      -8.757   3.684 -34.324  1.00  0.00    -0.268 OA
BRANCH  13  16
HETATM   16  C   UNL     1     -11.363   3.012 -33.566  1.00  0.00     0.147 C 
HETATM   17  C   UNL     1     -12.683   2.291 -33.608  1.00  0.00    -0.027 A 
HETATM   18  C   UNL     1     -13.579   2.836 -32.682  1.00  0.00    -0.047 A 
HETATM   19  C   UNL     1     -13.076   1.261 -34.453  1.00  0.00     0.010 A 
HETATM   20  C   UNL     1     -14.872   2.351 -32.566  1.00  0.00     0.008 A 
HETATM   21  C   UNL     1     -12.967   3.988 -31.940  1.00  0.00     0.073 C 
HETATM   22  C   UNL     1     -15.264   1.299 -33.395  1.00  0.00     0.001 A 
HETATM   23  C   UNL     1     -14.373   0.760 -34.335  1.00  0.00     0.001 A 
HETATM   24  C   UNL     1     -11.466   3.788 -32.216  1.00  0.00     0.149 C 
BRANCH  24  25
HETATM   25  O   UNL     1     -10.893   3.040 -31.128  1.00  0.00    -0.393 OA
HETATM   26  H   UNL     1     -11.651   2.737 -30.597  1.00  0.00     0.210 HD
ENDBRANCH  24  25
ENDBRANCH  13  16
ENDBRANCH   1  12
BRANCH   5  27
HETATM   27  C   UNL     1      -4.435  -2.565 -34.371  1.00  0.00     0.095 C 
HETATM   28  C   UNL     1      -3.892  -3.579 -33.365  1.00  0.00     0.026 C 
HETATM   29  C   UNL     1      -4.088  -4.911 -34.072  1.00  0.00     0.002 C 
HETATM   30  C   UNL     1      -5.468  -4.784 -34.693  1.00  0.00     0.002 C 
HETATM   31  C   UNL     1      -5.667  -3.291 -34.955  1.00  0.00     0.026 C 
ENDBRANCH   5  27
TORSDOF 4
ENDMDL
MODEL 3
REMARK VINA RESULT:      -9.6      3.023      4.933
REMARK  4 active torsions:
REMARK  status: ('A' for Active; 'I' for Inactive)
REMARK    1  A    between atoms: C_5  and  N_6 
REMARK       I    between atoms: N_6  and  C_7 
REMARK    2  A    between atoms: C_7  and  C_8 
REMARK    3  A    between atoms: N_12  and  C_13 
REMARK    4  A    between atoms: C_24  and  O_25 
ROOT
HETATM    1  C   UNL     1      -3.073   4.618 -31.529  1.00  0.00     0.034 A 
HETATM    2  C   UNL     1      -4.305   4.756 -30.882  1.00  0.00     0.049 A 
HETATM    3  C   UNL     1      -5.238   3.764 -31.099  1.00  0.00     0.064 A 
HETATM    4  C   UNL     1      -5.013   2.641 -31.903  1.00  0.00     0.066 A 
HETATM    5  N   UNL     1      -6.186   1.854 -31.870  1.00  0.00    -0.293 N 
HETATM    6  C   UNL     1      -7.156   2.555 -31.102  1.00  0.00     0.328 A 
HETATM    7  O   UNL     1      -8.322   2.256 -30.902  1.00  0.00    -0.247 OA
HETATM    8  N   UNL     1      -6.531   3.701 -30.604  1.00  0.00    -0.306 N 
HETATM    9  C   UNL     1      -3.801   2.496 -32.544  1.00  0.00     0.033 A 
HETATM   10  C   UNL     1      -2.828   3.489 -32.348  1.00  0.00     0.019 A 
HETATM   11  H   UNL     1      -7.004   4.375 -30.025  1.00  0.00     0.171 HD
ENDROOT
BRANCH   1  12
HETATM   12  C   UNL     1      -1.972   5.611 -31.370  1.00  0.00     0.252 C 
HETATM   13  N   UNL     1      -1.610   5.943 -30.086  1.00  0.00    -0.346 N 
HETATM   14  H   UNL     1      -2.068   5.542 -29.282  1.00  0.00     0.163 HD
HETATM   15  O   UNL     1      -1.422   6.089 -32.355  1.00  0.00    -0.268 OA
BRANCH  13  16
HETATM   16  C   UNL     1      -0.528   6.874 -29.825  1.00  0.00     0.147 C 
HETATM   17  C   UNL     1      -1.020   8.170 -29.239  1.00  0.00    -0.027 A 
HETATM   18  C   UNL     1      -0.197   8.585 -28.187  1.00  0.00    -0.047 A 
HETATM   19  C   UNL     1      -2.090   8.952 -29.654  1.00  0.00     0.010 A 
HETATM   20  C   UNL     1      -0.438   9.774 -27.516  1.00  0.00     0.008 A 
HETATM   21  C   UNL     1       0.940   7.630 -27.970  1.00  0.00     0.073 C 
HETATM   22  C   UNL     1      -1.528  10.551 -27.911  1.00  0.00     0.001 A 
HETATM   23  C   UNL     1      -2.346  10.145 -28.976  1.00  0.00     0.001 A 
HETATM   24  C   UNL     1       0.455   6.377 -28.720  1.00  0.00     0.149 C 
BRANCH  24  25
HETATM   25  O   UNL     1      -0.198   5.503 -27.782  1.00  0.00    -0.393 OA
HETATM   26  H   UNL     1      -1.086   5.879 -27.655  1.00  0.00     0.210 HD
ENDBRANCH  24  25
ENDBRANCH  13  16
ENDBRANCH   1  12
BRANCH   5  27
HETATM   27  C   UNL     1      -6.532   0.669 -32.626  1.00  0.00     0.095 C 
HETATM   28  C   UNL     1      -6.444   0.716 -34.150  1.00  0.00     0.026 C 
HETATM   29  C   UNL     1      -6.466  -0.753 -34.546  1.00  0.00     0.002 C 
HETATM   30  C   UNL     1      -5.551  -1.409 -33.527  1.00  0.00     0.002 C 
HETATM   31  C   UNL     1      -5.645  -0.544 -32.270  1.00  0.00     0.026 C 
ENDBRANCH   5  27
TORSDOF 4
ENDMDL
MODEL 4
REMARK VINA RESULT:      -9.1      2.993      4.130
REMARK  4 active torsions:
REMARK  status: ('A' for Active; 'I' for Inactive)
REMARK    1  A    between atoms: C_5  and  N_6 
REMARK       I    between atoms: N_6  and  C_7 
REMARK    2  A    between atoms: C_7  and  C_8 
REMARK    3  A    between atoms: N_12  and  C_13 
REMARK    4  A    between atoms: C_24  and  O_25 
ROOT
HETATM    1  C   UNL     1      -3.894   4.010 -32.160  1.00  0.00     0.034 A 
HETATM    2  C   UNL     1      -3.322   2.735 -32.228  1.00  0.00     0.049 A 
HETATM    3  C   UNL     1      -4.168   1.689 -32.533  1.00  0.00     0.064 A 
HETATM    4  C   UNL     1      -5.536   1.838 -32.788  1.00  0.00     0.066 A 
HETATM    5  N   UNL     1      -6.056   0.555 -33.071  1.00  0.00    -0.293 N 
HETATM    6  C   UNL     1      -5.003  -0.387 -32.903  1.00  0.00     0.328 A 
HETATM    7  O   UNL     1      -5.059  -1.603 -32.972  1.00  0.00    -0.247 OA
HETATM    8  N   UNL     1      -3.846   0.344 -32.618  1.00  0.00    -0.306 N 
HETATM    9  C   UNL     1      -6.107   3.090 -32.724  1.00  0.00     0.033 A 
HETATM   10  C   UNL     1      -5.276   4.179 -32.414  1.00  0.00     0.019 A 
HETATM   11  H   UNL     1      -2.953  -0.089 -32.452  1.00  0.00     0.171 HD
ENDROOT
BRANCH   1  12
HETATM   12  C   UNL     1      -3.091   5.228 -31.853  1.00  0.00     0.252 C 
HETATM   13  N   UNL     1      -2.189   5.140 -30.820  1.00  0.00    -0.346 N 
HETATM   14  H   UNL     1      -2.073   4.294 -30.283  1.00  0.00     0.163 HD
HETATM   15  O   UNL     1      -3.238   6.249 -32.514  1.00  0.00    -0.268 OA
BRANCH  13  16
HETATM   16  C   UNL     1      -1.336   6.259 -30.466  1.00  0.00     0.147 C 
HETATM   17  C   UNL     1      -1.762   6.916 -29.180  1.00  0.00    -0.027 A 
HETATM   18  C   UNL     1      -0.654   7.204 -28.376  1.00  0.00    -0.047 A 
HETATM   19  C   UNL     1      -3.041   7.284 -28.783  1.00  0.00     0.010 A 
HETATM   20  C   UNL     1      -0.802   7.842 -27.155  1.00  0.00     0.008 A 
HETATM   21  C   UNL     1       0.627   6.794 -29.042  1.00  0.00     0.073 C 
HETATM   22  C   UNL     1      -2.088   8.191 -26.739  1.00  0.00     0.001 A 
HETATM   23  C   UNL     1      -3.200   7.917 -27.549  1.00  0.00     0.001 A 
HETATM   24  C   UNL     1       0.129   5.835 -30.136  1.00  0.00     0.149 C 
BRANCH  24  25
HETATM   25  O   UNL     1       0.191   4.488 -29.632  1.00  0.00    -0.393 OA
HETATM   26  H   UNL     1       0.171   3.917 -30.420  1.00  0.00     0.210 HD
ENDBRANCH  24  25
ENDBRANCH  13  16
ENDBRANCH   1  12
BRANCH   5  27
HETATM   27  C   UNL     1      -7.425   0.130 -33.269  1.00  0.00     0.095 C 
HETATM   28  C   UNL     1      -8.445   0.393 -32.162  1.00  0.00     0.026 C 
HETATM   29  C   UNL     1      -9.780   0.206 -32.867  1.00  0.00     0.002 C 
HETATM   30  C   UNL     1      -9.577   0.899 -34.203  1.00  0.00     0.002 C 
HETATM   31  C   UNL     1      -8.081   0.790 -34.501  1.00  0.00     0.026 C 
ENDBRANCH   5  27
TORSDOF 4
ENDMDL
MODEL 5
REMARK VINA RESULT:      -9.1      5.757      8.541
REMARK  4 active torsions:
REMARK  status: ('A' for Active; 'I' for Inactive)
REMARK    1  A    between atoms: C_5  and  N_6 
REMARK       I    between atoms: N_6  and  C_7 
REMARK    2  A    between atoms: C_7  and  C_8 
REMARK    3  A    between atoms: N_12  and  C_13 
REMARK    4  A    between atoms: C_24  and  O_25 
ROOT
HETATM    1  C   UNL     1      -8.260   2.961 -33.088  1.00  0.00     0.034 A 
HETATM    2  C   UNL     1      -7.209   3.690 -32.521  1.00  0.00     0.049 A 
HETATM    3  C   UNL     1      -6.001   3.039 -32.384  1.00  0.00     0.064 A 
HETATM    4  C   UNL     1      -5.774   1.719 -32.791  1.00  0.00     0.066 A 
HETATM    5  N   UNL     1      -4.426   1.412 -32.500  1.00  0.00    -0.293 N 
HETATM    6  C   UNL     1      -3.859   2.535 -31.836  1.00  0.00     0.328 A 
HETATM    7  O   UNL     1      -2.747   2.643 -31.348  1.00  0.00    -0.247 OA
HETATM    8  N   UNL     1      -4.836   3.534 -31.821  1.00  0.00    -0.306 N 
HETATM    9  C   UNL     1      -6.803   0.993 -33.351  1.00  0.00     0.033 A 
HETATM   10  C   UNL     1      -8.048   1.625 -33.504  1.00  0.00     0.019 A 
HETATM   11  H   UNL     1      -4.688   4.438 -31.404  1.00  0.00     0.171 HD
ENDROOT
BRANCH   1  12
HETATM   12  C   UNL     1      -9.612   3.549 -33.305  1.00  0.00     0.252 C 
HETATM   13  N   UNL     1     -10.561   3.310 -32.340  1.00  0.00    -0.346 N 
HETATM   14  H   UNL     1     -10.361   2.757 -31.520  1.00  0.00     0.163 HD
HETATM   15  O   UNL     1      -9.842   4.221 -34.303  1.00  0.00    -0.268 OA
BRANCH  13  16
HETATM   16  C   UNL     1     -11.897   3.867 -32.442  1.00  0.00     0.147 C 
HETATM   17  C   UNL     1     -12.902   2.853 -32.920  1.00  0.00    -0.027 A 
HETATM   18  C   UNL     1     -14.086   2.937 -32.179  1.00  0.00    -0.047 A 
HETATM   19  C   UNL     1     -12.790   1.961 -33.978  1.00  0.00     0.010 A 
HETATM   20  C   UNL     1     -15.168   2.119 -32.464  1.00  0.00     0.008 A 
HETATM   21  C   UNL     1     -14.010   4.023 -31.146  1.00  0.00     0.073 C 
HETATM   22  C   UNL     1     -15.051   1.203 -33.510  1.00  0.00     0.001 A 
HETATM   23  C   UNL     1     -13.871   1.127 -34.265  1.00  0.00     0.001 A 
HETATM   24  C   UNL     1     -12.496   4.283 -31.063  1.00  0.00     0.149 C 
BRANCH  24  25
HETATM   25  O   UNL     1     -11.951   3.496 -29.988  1.00  0.00    -0.393 OA
HETATM   26  H   UNL     1     -11.194   3.021 -30.375  1.00  0.00     0.210 HD
ENDBRANCH  24  25
ENDBRANCH  13  16
ENDBRANCH   1  12
BRANCH   5  27
HETATM   27  C   UNL     1      -3.717   0.154 -32.594  1.00  0.00     0.095 C 
HETATM   28  C   UNL     1      -3.635  -0.739 -31.356  1.00  0.00     0.026 C 
HETATM   29  C   UNL     1      -3.212  -2.085 -31.925  1.00  0.00     0.002 C 
HETATM   30  C   UNL     1      -4.055  -2.220 -33.181  1.00  0.00     0.002 C 
HETATM   31  C   UNL     1      -4.320  -0.791 -33.656  1.00  0.00     0.026 C 
ENDBRANCH   5  27
TORSDOF 4
ENDMDL
MODEL 6
REMARK VINA RESULT:      -8.9      5.563     10.660
REMARK  4 active torsions:
REMARK  status: ('A' for Active; 'I' for Inactive)
REMARK    1  A    between atoms: C_5  and  N_6 
REMARK       I    between atoms: N_6  and  C_7 
REMARK    2  A    between atoms: C_7  and  C_8 
REMARK    3  A    between atoms: N_12  and  C_13 
REMARK    4  A    between atoms: C_24  and  O_25 
ROOT
HETATM    1  C   UNL     1      -0.288   6.301 -29.236  1.00  0.00     0.034 A 
HETATM    2  C   UNL     1       0.857   6.323 -28.433  1.00  0.00     0.049 A 
HETATM    3  C   UNL     1       0.832   7.158 -27.334  1.00  0.00     0.064 A 
HETATM    4  C   UNL     1      -0.264   7.953 -26.981  1.00  0.00     0.066 A 
HETATM    5  N   UNL     1       0.081   8.651 -25.803  1.00  0.00    -0.293 N 
HETATM    6  C   UNL     1       1.432   8.333 -25.490  1.00  0.00     0.328 A 
HETATM    7  O   UNL     1       2.130   8.790 -24.600  1.00  0.00    -0.247 OA
HETATM    8  N   UNL     1       1.851   7.380 -26.422  1.00  0.00    -0.306 N 
HETATM    9  C   UNL     1      -1.397   7.936 -27.766  1.00  0.00     0.033 A 
HETATM   10  C   UNL     1      -1.406   7.099 -28.894  1.00  0.00     0.019 A 
HETATM   11  H   UNL     1       2.777   6.986 -26.423  1.00  0.00     0.171 HD
ENDROOT
BRANCH   1  12
HETATM   12  C   UNL     1      -0.398   5.434 -30.444  1.00  0.00     0.252 C 
HETATM   13  N   UNL     1      -1.413   5.717 -31.326  1.00  0.00    -0.346 N 
HETATM   14  H   UNL     1      -2.063   6.472 -31.168  1.00  0.00     0.163 HD
HETATM   15  O   UNL     1       0.399   4.522 -30.625  1.00  0.00    -0.268 OA
BRANCH  13  16
HETATM   16  C   UNL     1      -1.583   4.953 -32.549  1.00  0.00     0.147 C 
HETATM   17  C   UNL     1      -3.031   4.813 -32.935  1.00  0.00    -0.027 A 
HETATM   18  C   UNL     1      -3.203   5.017 -34.309  1.00  0.00    -0.047 A 
HETATM   19  C   UNL     1      -4.109   4.470 -32.130  1.00  0.00     0.010 A 
HETATM   20  C   UNL     1      -4.451   4.904 -34.899  1.00  0.00     0.008 A 
HETATM   21  C   UNL     1      -1.894   5.292 -34.989  1.00  0.00     0.073 C 
HETATM   22  C   UNL     1      -5.543   4.585 -34.089  1.00  0.00     0.001 A 
HETATM   23  C   UNL     1      -5.372   4.365 -32.714  1.00  0.00     0.001 A 
HETATM   24  C   UNL     1      -0.986   5.662 -33.803  1.00  0.00     0.149 C 
BRANCH  24  25
HETATM   25  O   UNL     1      -0.983   7.094 -33.654  1.00  0.00    -0.393 OA
HETATM   26  H   UNL     1      -1.718   7.291 -33.046  1.00  0.00     0.210 HD
ENDBRANCH  24  25
ENDBRANCH  13  16
ENDBRANCH   1  12
BRANCH   5  27
HETATM   27  C   UNL     1      -0.631   9.695 -25.098  1.00  0.00     0.095 C 
HETATM   28  C   UNL     1      -1.080  10.933 -25.873  1.00  0.00     0.026 C 
HETATM   29  C   UNL     1      -2.109  11.568 -24.950  1.00  0.00     0.002 C 
HETATM   30  C   UNL     1      -2.910  10.382 -24.442  1.00  0.00     0.002 C 
HETATM   31  C   UNL     1      -1.948   9.194 -24.464  1.00  0.00     0.026 C 
ENDBRANCH   5  27
TORSDOF 4
ENDMDL
MODEL 7
REMARK VINA RESULT:      -8.8      4.435      9.160
REMARK  4 active torsions:
REMARK  status: ('A' for Active; 'I' for Inactive)
REMARK    1  A    between atoms: C_5  and  N_6 
REMARK       I    between atoms: N_6  and  C_7 
REMARK    2  A    between atoms: C_7  and  C_8 
REMARK    3  A    between atoms: N_12  and  C_13 
REMARK    4  A    between atoms: C_24  and  O_25 
ROOT
HETATM    1  C   UNL     1      -5.911   3.828 -32.032  1.00  0.00     0.034 A 
HETATM    2  C   UNL     1      -5.432   3.964 -33.339  1.00  0.00     0.049 A 
HETATM    3  C   UNL     1      -4.146   4.441 -33.485  1.00  0.00     0.064 A 
HETATM    4  C   UNL     1      -3.308   4.772 -32.414  1.00  0.00     0.066 A 
HETATM    5  N   UNL     1      -2.079   5.207 -32.957  1.00  0.00    -0.293 N 
HETATM    6  C   UNL     1      -2.208   5.215 -34.373  1.00  0.00     0.328 A 
HETATM    7  O   UNL     1      -1.404   5.602 -35.204  1.00  0.00    -0.247 OA
HETATM    8  N   UNL     1      -3.471   4.696 -34.668  1.00  0.00    -0.306 N 
HETATM    9  C   UNL     1      -3.771   4.641 -31.122  1.00  0.00     0.033 A 
HETATM   10  C   UNL     1      -5.078   4.160 -30.936  1.00  0.00     0.019 A 
HETATM   11  H   UNL     1      -3.815   4.594 -35.609  1.00  0.00     0.171 HD
ENDROOT
BRANCH   1  12
HETATM   12  C   UNL     1      -7.277   3.311 -31.733  1.00  0.00     0.252 C 
HETATM   13  N   UNL     1      -8.052   2.937 -32.804  1.00  0.00    -0.346 N 
HETATM   14  H   UNL     1      -7.722   3.011 -33.755  1.00  0.00     0.163 HD
HETATM   15  O   UNL     1      -7.666   3.224 -30.575  1.00  0.00    -0.268 OA
BRANCH  13  16
HETATM   16  C   UNL     1      -9.384   2.390 -32.616  1.00  0.00     0.147 C 
HETATM   17  C   UNL     1     -10.312   2.749 -33.745  1.00  0.00    -0.027 A 
HETATM   18  C   UNL     1     -11.078   1.644 -34.132  1.00  0.00    -0.047 A 
HETATM   19  C   UNL     1     -10.501   3.987 -34.345  1.00  0.00     0.010 A 
HETATM   20  C   UNL     1     -12.029   1.748 -35.135  1.00  0.00     0.008 A 
HETATM   21  C   UNL     1     -10.764   0.440 -33.294  1.00  0.00     0.073 C 
HETATM   22  C   UNL     1     -12.205   2.984 -35.759  1.00  0.00     0.001 A 
HETATM   23  C   UNL     1     -11.449   4.097 -35.364  1.00  0.00     0.001 A 
HETATM   24  C   UNL     1      -9.418   0.831 -32.660  1.00  0.00     0.149 C 
BRANCH  24  25
HETATM   25  O   UNL     1      -8.354   0.299 -33.471  1.00  0.00    -0.393 OA
HETATM   26  H   UNL     1      -7.572   0.284 -32.892  1.00  0.00     0.210 HD
ENDBRANCH  24  25
ENDBRANCH  13  16
ENDBRANCH   1  12
BRANCH   5  27
HETATM   27  C   UNL     1      -0.925   5.786 -32.301  1.00  0.00     0.095 C 
HETATM   28  C   UNL     1      -1.102   7.079 -31.505  1.00  0.00     0.026 C 
HETATM   29  C   UNL     1       0.159   7.141 -30.657  1.00  0.00     0.002 C 
HETATM   30  C   UNL     1       0.338   5.710 -30.181  1.00  0.00     0.002 C 
HETATM   31  C   UNL     1      -0.289   4.833 -31.265  1.00  0.00     0.026 C 
ENDBRANCH   5  27
TORSDOF 4
ENDMDL
MODEL 8
REMARK VINA RESULT:      -8.7      4.701      6.090
REMARK  4 active torsions:
REMARK  status: ('A' for Active; 'I' for Inactive)
REMARK    1  A    between atoms: C_5  and  N_6 
REMARK       I    between atoms: N_6  and  C_7 
REMARK    2  A    between atoms: C_7  and  C_8 
REMARK    3  A    between atoms: N_12  and  C_13 
REMARK    4  A    between atoms: C_24  and  O_25 
ROOT
HETATM    1  C   UNL     1      -4.979   5.561 -32.933  1.00  0.00     0.034 A 
HETATM    2  C   UNL     1      -6.095   6.374 -32.712  1.00  0.00     0.049 A 
HETATM    3  C   UNL     1      -7.319   5.743 -32.630  1.00  0.00     0.064 A 
HETATM    4  C   UNL     1      -7.494   4.358 -32.738  1.00  0.00     0.066 A 
HETATM    5  N   UNL     1      -8.874   4.094 -32.592  1.00  0.00    -0.293 N 
HETATM    6  C   UNL     1      -9.546   5.342 -32.477  1.00  0.00     0.328 A 
HETATM    7  O   UNL     1     -10.746   5.552 -32.418  1.00  0.00    -0.247 OA
HETATM    8  N   UNL     1      -8.561   6.333 -32.458  1.00  0.00    -0.306 N 
HETATM    9  C   UNL     1      -6.400   3.549 -32.955  1.00  0.00     0.033 A 
HETATM   10  C   UNL     1      -5.137   4.158 -33.045  1.00  0.00     0.019 A 
HETATM   11  H   UNL     1      -8.773   7.314 -32.384  1.00  0.00     0.171 HD
ENDROOT
BRANCH   1  12
HETATM   12  C   UNL     1      -3.597   6.112 -33.027  1.00  0.00     0.252 C 
HETATM   13  N   UNL     1      -2.914   6.293 -31.849  1.00  0.00    -0.346 N 
HETATM   14  H   UNL     1      -3.324   6.072 -30.954  1.00  0.00     0.163 HD
HETATM   15  O   UNL     1      -3.109   6.375 -34.120  1.00  0.00    -0.268 OA
BRANCH  13  16
HETATM   16  C   UNL     1      -1.551   6.793 -31.837  1.00  0.00     0.147 C 
HETATM   17  C   UNL     1      -1.210   7.488 -30.546  1.00  0.00    -0.027 A 
HETATM   18  C   UNL     1       0.062   7.114 -30.099  1.00  0.00    -0.047 A 
HETATM   19  C   UNL     1      -1.957   8.431 -29.852  1.00  0.00     0.010 A 
HETATM   20  C   UNL     1       0.602   7.656 -28.943  1.00  0.00     0.008 A 
HETATM   21  C   UNL     1       0.715   6.151 -31.047  1.00  0.00     0.073 C 
HETATM   22  C   UNL     1      -0.155   8.585 -28.227  1.00  0.00     0.001 A 
HETATM   23  C   UNL     1      -1.424   8.972 -28.681  1.00  0.00     0.001 A 
HETATM   24  C   UNL     1      -0.482   5.657 -31.879  1.00  0.00     0.149 C 
BRANCH  24  25
HETATM   25  O   UNL     1      -0.977   4.439 -31.295  1.00  0.00    -0.393 OA
HETATM   26  H   UNL     1      -0.440   3.728 -31.687  1.00  0.00     0.210 HD
ENDBRANCH  24  25
ENDBRANCH  13  16
ENDBRANCH   1  12
BRANCH   5  27
HETATM   27  C   UNL     1      -9.605   2.855 -32.753  1.00  0.00     0.095 C 
HETATM   28  C   UNL     1      -9.478   2.089 -34.069  1.00  0.00     0.026 C 
HETATM   29  C   UNL     1     -10.014   0.709 -33.723  1.00  0.00     0.002 C 
HETATM   30  C   UNL     1      -9.411   0.426 -32.359  1.00  0.00     0.002 C 
HETATM   31  C   UNL     1      -9.215   1.793 -31.702  1.00  0.00     0.026 C 
ENDBRANCH   5  27
TORSDOF 4
ENDMDL
MODEL 9
REMARK VINA RESULT:      -8.6      3.687      9.662
REMARK  4 active torsions:
REMARK  status: ('A' for Active; 'I' for Inactive)
REMARK    1  A    between atoms: C_5  and  N_6 
REMARK       I    between atoms: N_6  and  C_7 
REMARK    2  A    between atoms: C_7  and  C_8 
REMARK    3  A    between atoms: N_12  and  C_13 
REMARK    4  A    between atoms: C_24  and  O_25 
ROOT
HETATM    1  C   UNL     1      -5.883   5.117 -33.342  1.00  0.00     0.034 A 
HETATM    2  C   UNL     1      -4.707   5.114 -34.099  1.00  0.00     0.049 A 
HETATM    3  C   UNL     1      -3.689   5.942 -33.672  1.00  0.00     0.064 A 
HETATM    4  C   UNL     1      -3.766   6.754 -32.534  1.00  0.00     0.066 A 
HETATM    5  N   UNL     1      -2.536   7.438 -32.418  1.00  0.00    -0.293 N 
HETATM    6  C   UNL     1      -1.740   7.094 -33.546  1.00  0.00     0.328 A 
HETATM    7  O   UNL     1      -0.647   7.533 -33.862  1.00  0.00    -0.247 OA
HETATM    8  N   UNL     1      -2.456   6.140 -34.273  1.00  0.00    -0.306 N 
HETATM    9  C   UNL     1      -4.921   6.762 -31.782  1.00  0.00     0.033 A 
HETATM   10  C   UNL     1      -5.979   5.933 -32.189  1.00  0.00     0.019 A 
HETATM   11  H   UNL     1      -2.112   5.730 -35.125  1.00  0.00     0.171 HD
ENDROOT
BRANCH   1  12
HETATM   12  C   UNL     1      -7.054   4.260 -33.684  1.00  0.00     0.252 C 
HETATM   13  N   UNL     1      -7.021   2.956 -33.254  1.00  0.00    -0.346 N 
HETATM   14  H   UNL     1      -6.241   2.584 -32.734  1.00  0.00     0.163 HD
HETATM   15  O   UNL     1      -7.997   4.724 -34.314  1.00  0.00    -0.268 OA
BRANCH  13  16
HETATM   16  C   UNL     1      -8.127   2.050 -33.507  1.00  0.00     0.147 C 
HETATM   17  C   UNL     1      -7.660   0.678 -33.911  1.00  0.00    -0.027 A 
HETATM   18  C   UNL     1      -8.401  -0.313 -33.260  1.00  0.00    -0.047 A 
HETATM   19  C   UNL     1      -6.683   0.339 -34.838  1.00  0.00     0.010 A 
HETATM   20  C   UNL     1      -8.168  -1.658 -33.503  1.00  0.00     0.008 A 
HETATM   21  C   UNL     1      -9.453   0.284 -32.371  1.00  0.00     0.073 C 
HETATM   22  C   UNL     1      -7.169  -2.005 -34.414  1.00  0.00     0.001 A 
HETATM   23  C   UNL     1      -6.434  -1.013 -35.081  1.00  0.00     0.001 A 
HETATM   24  C   UNL     1      -8.968   1.737 -32.231  1.00  0.00     0.149 C 
BRANCH  24  25
HETATM   25  O   UNL     1      -8.177   1.846 -31.033  1.00  0.00    -0.393 OA
HETATM   26  H   UNL     1      -8.499   1.139 -30.447  1.00  0.00     0.210 HD
ENDBRANCH  24  25
ENDBRANCH  13  16
ENDBRANCH   1  12
BRANCH   5  27
HETATM   27  C   UNL     1      -2.139   8.490 -31.506  1.00  0.00     0.095 C 
HETATM   28  C   UNL     1      -3.208   9.439 -30.967  1.00  0.00     0.026 C 
HETATM   29  C   UNL     1      -2.523  10.096 -29.779  1.00  0.00     0.002 C 
HETATM   30  C   UNL     1      -1.799   8.945 -29.104  1.00  0.00     0.002 C 
HETATM   31  C   UNL     1      -1.485   7.945 -30.218  1.00  0.00     0.026 C 
ENDBRANCH   5  27
TORSDOF 4
ENDMDL
MODEL 10
REMARK VINA RESULT:      -8.6      3.445      9.354
REMARK  4 active torsions:
REMARK  status: ('A' for Active; 'I' for Inactive)
REMARK    1  A    between atoms: C_5  and  N_6 
REMARK       I    between atoms: N_6  and  C_7 
REMARK    2  A    between atoms: C_7  and  C_8 
REMARK    3  A    between atoms: N_12  and  C_13 
REMARK    4  A    between atoms: C_24  and  O_25 
ROOT
HETATM    1  C   UNL     1      -5.149   5.159 -32.455  1.00  0.00     0.034 A 
HETATM    2  C   UNL     1      -5.135   6.550 -32.308  1.00  0.00     0.049 A 
HETATM    3  C   UNL     1      -4.021   7.102 -31.710  1.00  0.00     0.064 A 
HETATM    4  C   UNL     1      -2.921   6.357 -31.269  1.00  0.00     0.066 A 
HETATM    5  N   UNL     1      -1.984   7.267 -30.728  1.00  0.00    -0.293 N 
HETATM    6  C   UNL     1      -2.565   8.565 -30.772  1.00  0.00     0.328 A 
HETATM    7  O   UNL     1      -2.116   9.608 -30.329  1.00  0.00    -0.247 OA
HETATM    8  N   UNL     1      -3.795   8.438 -31.421  1.00  0.00    -0.306 N 
HETATM    9  C   UNL     1      -2.926   4.987 -31.411  1.00  0.00     0.033 A 
HETATM   10  C   UNL     1      -4.046   4.390 -32.013  1.00  0.00     0.019 A 
HETATM   11  H   UNL     1      -4.412   9.217 -31.581  1.00  0.00     0.171 HD
ENDROOT
BRANCH   1  12
HETATM   12  C   UNL     1      -6.285   4.437 -33.096  1.00  0.00     0.252 C 
HETATM   13  N   UNL     1      -6.770   3.329 -32.443  1.00  0.00    -0.346 N 
HETATM   14  H   UNL     1      -6.377   3.007 -31.572  1.00  0.00     0.163 HD
HETATM   15  O   UNL     1      -6.756   4.838 -34.153  1.00  0.00    -0.268 OA
BRANCH  13  16
HETATM   16  C   UNL     1      -7.895   2.577 -32.968  1.00  0.00     0.147 C 
HETATM   17  C   UNL     1      -7.484   1.229 -33.496  1.00  0.00    -0.027 A 
HETATM   18  C   UNL     1      -8.389   0.239 -33.097  1.00  0.00    -0.047 A 
HETATM   19  C   UNL     1      -6.412   0.918 -34.323  1.00  0.00     0.010 A 
HETATM   20  C   UNL     1      -8.230  -1.079 -33.495  1.00  0.00     0.008 A 
HETATM   21  C   UNL     1      -9.508   0.818 -32.282  1.00  0.00     0.073 C 
HETATM   22  C   UNL     1      -7.139  -1.402 -34.304  1.00  0.00     0.001 A 
HETATM   23  C   UNL     1      -6.239  -0.409 -34.718  1.00  0.00     0.001 A 
HETATM   24  C   UNL     1      -8.936   2.186 -31.873  1.00  0.00     0.149 C 
BRANCH  24  25
HETATM   25  O   UNL     1      -8.322   2.061 -30.578  1.00  0.00    -0.393 OA
HETATM   26  H   UNL     1      -8.654   1.220 -30.216  1.00  0.00     0.210 HD
ENDBRANCH  24  25
ENDBRANCH  13  16
ENDBRANCH   1  12
BRANCH   5  27
HETATM   27  C   UNL     1      -0.746   7.016 -30.021  1.00  0.00     0.095 C 
HETATM   28  C   UNL     1      -0.805   6.662 -28.536  1.00  0.00     0.026 C 
HETATM   29  C   UNL     1       0.573   6.083 -28.260  1.00  0.00     0.002 C 
HETATM   30  C   UNL     1       0.838   5.205 -29.471  1.00  0.00     0.002 C 
HETATM   31  C   UNL     1       0.054   5.839 -30.620  1.00  0.00     0.026 C 
ENDBRANCH   5  27
TORSDOF 4
ENDMDL
