MODEL 1
REMARK VINA RESULT:      -9.2      0.000      0.000
REMARK  2 active torsions:
REMARK  status: ('A' for Active; 'I' for Inactive)
REMARK    1  A    between atoms: C_3  and  C_4 
REMARK    2  A    between atoms: C_11  and  C_12 
REMARK       I    between atoms: C_12  and  N_13 
ROOT
HETATM    1  C   UNL     1      -5.735   0.689 -31.167  1.00  0.00     0.256 C 
HETATM    2  N   UNL     1      -5.201   1.926 -31.556  1.00  0.00    -0.348 N 
HETATM    3  C   UNL     1      -4.767   2.238 -32.915  1.00  0.00     0.128 C 
HETATM    4  C   UNL     1      -4.867   3.723 -33.245  1.00  0.00     0.055 C 
HETATM    5  C   UNL     1      -4.213   4.617 -32.179  1.00  0.00     0.100 C 
HETATM    6  N   UNL     1      -2.735   4.385 -32.179  1.00  0.00    -0.273 NA
HETATM    7  C   UNL     1      -2.026   5.365 -31.435  1.00  0.00     0.036 A 
HETATM    8  C   UNL     1      -2.484   6.691 -31.338  1.00  0.00     0.056 A 
HETATM    9  N   UNL     1      -3.711   7.038 -31.913  1.00  0.00    -0.324 N 
HETATM   10  C   UNL     1      -4.551   6.107 -32.475  1.00  0.00     0.245 C 
HETATM   11  O   UNL     1      -5.551   6.474 -33.091  1.00  0.00    -0.271 OA
HETATM   12  C   UNL     1      -0.760   5.049 -30.934  1.00  0.00     0.026 A 
HETATM   13  C   UNL     1       0.005   6.023 -30.289  1.00  0.00     0.002 A 
HETATM   14  C   UNL     1      -0.472   7.329 -30.175  1.00  0.00     0.002 A 
HETATM   15  C   UNL     1      -1.714   7.670 -30.711  1.00  0.00     0.031 A 
HETATM   16  C   UNL     1      -4.806   4.252 -30.804  1.00  0.00     0.055 C 
HETATM   17  C   UNL     1      -4.654   2.768 -30.499  1.00  0.00     0.128 C 
HETATM   18  O   UNL     1      -5.927   0.399 -29.988  1.00  0.00    -0.267 OA
HETATM   19  H   UNL     1      -2.377   4.446 -33.134  1.00  0.00     0.129 HD
HETATM   20  H   UNL     1      -3.985   8.008 -31.994  1.00  0.00     0.169 HD
ENDROOT
BRANCH   1  21
HETATM   21  C   UNL     1      -6.137  -0.251 -32.216  1.00  0.00     0.062 A 
HETATM   22  C   UNL     1      -5.302  -1.259 -32.823  1.00  0.00    -0.014 A 
HETATM   23  C   UNL     1      -3.884  -1.522 -32.441  1.00  0.00     0.052 C 
HETATM   24  C   UNL     1      -6.066  -1.902 -33.793  1.00  0.00     0.085 A 
HETATM   25  N   UNL     1      -7.302  -1.292 -33.794  1.00  0.00    -0.356 N 
HETATM   26  H   UNL     1      -8.045  -1.559 -34.429  1.00  0.00     0.166 HD
HETATM   27  C   UNL     1      -7.352  -0.271 -32.885  1.00  0.00     0.022 A 
HETATM   28  C   UNL     1      -8.558   0.589 -32.770  1.00  0.00     0.069 C 
BRANCH  24  29
HETATM   29  C   UNL     1      -5.804  -2.990 -34.723  1.00  0.00     0.172 C 
HETATM   30  C   UNL     1      -6.836  -4.072 -34.903  1.00  0.00     0.098 C 
HETATM   31  O   UNL     1      -4.747  -3.043 -35.355  1.00  0.00    -0.291 OA
ENDBRANCH  24  29
ENDBRANCH   1  21
TORSDOF 2
ENDMDL
MODEL 2
REMARK VINA RESULT:      -9.1      3.849      7.630
REMARK  2 active torsions:
REMARK  status: ('A' for Active; 'I' for Inactive)
REMARK    1  A    between atoms: C_3  and  C_4 
REMARK    2  A    between atoms: C_11  and  C_12 
REMARK       I    between atoms: C_12  and  N_13 
ROOT
HETATM    1  C   UNL     1      -8.524   2.051 -31.920  1.00  0.00     0.256 C 
HETATM    2  N   UNL     1      -7.282   1.426 -32.102  1.00  0.00    -0.348 N 
HETATM    3  C   UNL     1      -6.233   1.933 -32.982  1.00  0.00     0.128 C 
HETATM    4  C   UNL     1      -4.833   1.525 -32.536  1.00  0.00     0.055 C 
HETATM    5  C   UNL     1      -4.712   0.018 -32.252  1.00  0.00     0.100 C 
HETATM    6  N   UNL     1      -4.877  -0.740 -33.532  1.00  0.00    -0.273 NA
HETATM    7  C   UNL     1      -4.498  -2.103 -33.414  1.00  0.00     0.036 A 
HETATM    8  C   UNL     1      -3.482  -2.512 -32.532  1.00  0.00     0.056 A 
HETATM    9  N   UNL     1      -2.886  -1.572 -31.686  1.00  0.00    -0.324 N 
HETATM   10  C   UNL     1      -3.332  -0.275 -31.595  1.00  0.00     0.245 C 
HETATM   11  O   UNL     1      -2.693   0.551 -30.946  1.00  0.00    -0.271 OA
HETATM   12  C   UNL     1      -5.024  -3.032 -34.315  1.00  0.00     0.026 A 
HETATM   13  C   UNL     1      -4.593  -4.360 -34.292  1.00  0.00     0.002 A 
HETATM   14  C   UNL     1      -3.603  -4.760 -33.393  1.00  0.00     0.002 A 
HETATM   15  C   UNL     1      -3.034  -3.833 -32.519  1.00  0.00     0.031 A 
HETATM   16  C   UNL     1      -5.817  -0.381 -31.254  1.00  0.00     0.055 C 
HETATM   17  C   UNL     1      -7.199   0.012 -31.754  1.00  0.00     0.128 C 
HETATM   18  O   UNL     1      -9.447   1.513 -31.313  1.00  0.00    -0.267 OA
HETATM   19  H   UNL     1      -4.267  -0.341 -34.248  1.00  0.00     0.129 HD
HETATM   20  H   UNL     1      -2.053  -1.805 -31.163  1.00  0.00     0.169 HD
ENDROOT
BRANCH   1  21
HETATM   21  C   UNL     1      -8.688   3.420 -32.416  1.00  0.00     0.062 A 
HETATM   22  C   UNL     1      -9.417   3.816 -33.597  1.00  0.00    -0.014 A 
HETATM   23  C   UNL     1     -10.155   2.876 -34.489  1.00  0.00     0.052 C 
HETATM   24  C   UNL     1      -9.289   5.198 -33.718  1.00  0.00     0.085 A 
HETATM   25  N   UNL     1      -8.495   5.617 -32.672  1.00  0.00    -0.356 N 
HETATM   26  H   UNL     1      -8.227   6.585 -32.541  1.00  0.00     0.166 HD
HETATM   27  C   UNL     1      -8.088   4.560 -31.904  1.00  0.00     0.022 A 
HETATM   28  C   UNL     1      -7.151   4.760 -30.769  1.00  0.00     0.069 C 
BRANCH  24  29
HETATM   29  C   UNL     1      -9.790   6.175 -34.672  1.00  0.00     0.172 C 
HETATM   30  C   UNL     1     -10.469   7.420 -34.168  1.00  0.00     0.098 C 
HETATM   31  O   UNL     1      -9.674   5.992 -35.886  1.00  0.00    -0.291 OA
ENDBRANCH  24  29
ENDBRANCH   1  21
TORSDOF 2
ENDMDL
MODEL 3
REMARK VINA RESULT:      -9.1      3.522      7.836
REMARK  2 active torsions:
REMARK  status: ('A' for Active; 'I' for Inactive)
REMARK    1  A    between atoms: C_3  and  C_4 
REMARK    2  A    between atoms: C_11  and  C_12 
REMARK       I    between atoms: C_12  and  N_13 
ROOT
HETATM    1  C   UNL     1      -7.902   2.470 -31.786  1.00  0.00     0.256 C 
HETATM    2  N   UNL     1      -6.760   1.687 -32.006  1.00  0.00    -0.348 N 
HETATM    3  C   UNL     1      -5.642   2.092 -32.854  1.00  0.00     0.128 C 
HETATM    4  C   UNL     1      -4.318   1.464 -32.433  1.00  0.00     0.055 C 
HETATM    5  C   UNL     1      -4.415  -0.059 -32.242  1.00  0.00     0.100 C 
HETATM    6  N   UNL     1      -4.674  -0.708 -33.565  1.00  0.00    -0.273 NA
HETATM    7  C   UNL     1      -4.493  -2.116 -33.531  1.00  0.00     0.036 A 
HETATM    8  C   UNL     1      -3.553  -2.718 -32.676  1.00  0.00     0.056 A 
HETATM    9  N   UNL     1      -2.837  -1.924 -31.774  1.00  0.00    -0.324 N 
HETATM   10  C   UNL     1      -3.096  -0.585 -31.604  1.00  0.00     0.245 C 
HETATM   11  O   UNL     1      -2.351   0.102 -30.905  1.00  0.00    -0.271 OA
HETATM   12  C   UNL     1      -5.138  -2.904 -34.487  1.00  0.00     0.026 A 
HETATM   13  C   UNL     1      -4.900  -4.279 -34.544  1.00  0.00     0.002 A 
HETATM   14  C   UNL     1      -3.984  -4.869 -33.672  1.00  0.00     0.002 A 
HETATM   15  C   UNL     1      -3.298  -4.087 -32.743  1.00  0.00     0.031 A 
HETATM   16  C   UNL     1      -5.573  -0.357 -31.269  1.00  0.00     0.055 C 
HETATM   17  C   UNL     1      -6.882   0.257 -31.745  1.00  0.00     0.128 C 
HETATM   18  O   UNL     1      -8.898   2.033 -31.212  1.00  0.00    -0.267 OA
HETATM   19  H   UNL     1      -4.008  -0.357 -34.256  1.00  0.00     0.129 HD
HETATM   20  H   UNL     1      -2.050  -2.304 -31.266  1.00  0.00     0.169 HD
ENDROOT
BRANCH   1  21
HETATM   21  C   UNL     1      -7.867   3.876 -32.198  1.00  0.00     0.062 A 
HETATM   22  C   UNL     1      -7.258   4.962 -31.469  1.00  0.00    -0.014 A 
HETATM   23  C   UNL     1      -6.530   4.808 -30.176  1.00  0.00     0.052 C 
HETATM   24  C   UNL     1      -7.485   6.128 -32.196  1.00  0.00     0.085 A 
HETATM   25  N   UNL     1      -8.223   5.768 -33.304  1.00  0.00    -0.356 N 
HETATM   26  H   UNL     1      -8.543   6.440 -33.991  1.00  0.00     0.166 HD
HETATM   27  C   UNL     1      -8.500   4.428 -33.301  1.00  0.00     0.022 A 
HETATM   28  C   UNL     1      -9.358   3.826 -34.353  1.00  0.00     0.069 C 
BRANCH  24  29
HETATM   29  C   UNL     1      -7.124   7.524 -32.000  1.00  0.00     0.172 C 
HETATM   30  C   UNL     1      -8.191   8.582 -32.085  1.00  0.00     0.098 C 
HETATM   31  O   UNL     1      -5.956   7.849 -31.775  1.00  0.00    -0.291 OA
ENDBRANCH  24  29
ENDBRANCH   1  21
TORSDOF 2
ENDMDL
MODEL 4
REMARK VINA RESULT:      -8.9      4.778      8.126
REMARK  2 active torsions:
REMARK  status: ('A' for Active; 'I' for Inactive)
REMARK    1  A    between atoms: C_3  and  C_4 
REMARK    2  A    between atoms: C_11  and  C_12 
REMARK       I    between atoms: C_12  and  N_13 
ROOT
HETATM    1  C   UNL     1      -9.922   1.396 -33.344  1.00  0.00     0.256 C 
HETATM    2  N   UNL     1      -8.638   0.878 -33.566  1.00  0.00    -0.348 N 
HETATM    3  C   UNL     1      -7.777   1.275 -34.677  1.00  0.00     0.128 C 
HETATM    4  C   UNL     1      -6.293   1.129 -34.361  1.00  0.00     0.055 C 
HETATM    5  C   UNL     1      -5.939  -0.251 -33.782  1.00  0.00     0.100 C 
HETATM    6  N   UNL     1      -6.151  -1.297 -34.832  1.00  0.00    -0.273 NA
HETATM    7  C   UNL     1      -5.582  -2.549 -34.481  1.00  0.00     0.036 A 
HETATM    8  C   UNL     1      -4.423  -2.637 -33.689  1.00  0.00     0.056 A 
HETATM    9  N   UNL     1      -3.863  -1.470 -33.159  1.00  0.00    -0.324 N 
HETATM   10  C   UNL     1      -4.465  -0.241 -33.284  1.00  0.00     0.245 C 
HETATM   11  O   UNL     1      -3.870   0.774 -32.926  1.00  0.00    -0.271 OA
HETATM   12  C   UNL     1      -6.082  -3.710 -35.077  1.00  0.00     0.026 A 
HETATM   13  C   UNL     1      -5.477  -4.945 -34.832  1.00  0.00     0.002 A 
HETATM   14  C   UNL     1      -4.343  -5.023 -34.022  1.00  0.00     0.002 A 
HETATM   15  C   UNL     1      -3.805  -3.865 -33.458  1.00  0.00     0.031 A 
HETATM   16  C   UNL     1      -6.855  -0.523 -32.572  1.00  0.00     0.055 C 
HETATM   17  C   UNL     1      -8.327  -0.402 -32.940  1.00  0.00     0.128 C 
HETATM   18  O   UNL     1     -10.687   0.919 -32.509  1.00  0.00    -0.267 OA
HETATM   19  H   UNL     1      -5.689  -1.012 -35.698  1.00  0.00     0.129 HD
HETATM   20  H   UNL     1      -2.951  -1.489 -32.724  1.00  0.00     0.169 HD
ENDROOT
BRANCH   1  21
HETATM   21  C   UNL     1     -10.325   2.589 -34.093  1.00  0.00     0.062 A 
HETATM   22  C   UNL     1      -9.769   3.913 -33.950  1.00  0.00    -0.014 A 
HETATM   23  C   UNL     1      -8.656   4.265 -33.022  1.00  0.00     0.052 C 
HETATM   24  C   UNL     1     -10.462   4.750 -34.821  1.00  0.00     0.085 A 
HETATM   25  N   UNL     1     -11.415   3.973 -35.445  1.00  0.00    -0.356 N 
HETATM   26  H   UNL     1     -12.074   4.348 -36.117  1.00  0.00     0.166 HD
HETATM   27  C   UNL     1     -11.378   2.683 -34.991  1.00  0.00     0.022 A 
HETATM   28  C   UNL     1     -12.372   1.682 -35.457  1.00  0.00     0.069 C 
BRANCH  24  29
HETATM   29  C   UNL     1     -10.371   6.166 -35.143  1.00  0.00     0.172 C 
HETATM   30  C   UNL     1     -11.039   7.173 -34.246  1.00  0.00     0.098 C 
HETATM   31  O   UNL     1      -9.763   6.548 -36.145  1.00  0.00    -0.291 OA
ENDBRANCH  24  29
ENDBRANCH   1  21
TORSDOF 2
ENDMDL
MODEL 5
REMARK VINA RESULT:      -8.9      4.268      7.848
REMARK  2 active torsions:
REMARK  status: ('A' for Active; 'I' for Inactive)
REMARK    1  A    between atoms: C_3  and  C_4 
REMARK    2  A    between atoms: C_11  and  C_12 
REMARK       I    between atoms: C_12  and  N_13 
ROOT
HETATM    1  C   UNL     1      -6.634  -0.042 -34.766  1.00  0.00     0.256 C 
HETATM    2  N   UNL     1      -7.743   0.426 -34.048  1.00  0.00    -0.348 N 
HETATM    3  C   UNL     1      -8.032   0.064 -32.663  1.00  0.00     0.128 C 
HETATM    4  C   UNL     1      -8.822   1.136 -31.920  1.00  0.00     0.055 C 
HETATM    5  C   UNL     1     -10.063   1.608 -32.696  1.00  0.00     0.100 C 
HETATM    6  N   UNL     1     -11.047   0.485 -32.784  1.00  0.00    -0.273 NA
HETATM    7  C   UNL     1     -12.328   0.911 -33.226  1.00  0.00     0.036 A 
HETATM    8  C   UNL     1     -12.819   2.195 -32.933  1.00  0.00     0.056 A 
HETATM    9  N   UNL     1     -11.998   3.110 -32.265  1.00  0.00    -0.324 N 
HETATM   10  C   UNL     1     -10.680   2.845 -31.981  1.00  0.00     0.245 C 
HETATM   11  O   UNL     1     -10.037   3.618 -31.271  1.00  0.00    -0.271 OA
HETATM   12  C   UNL     1     -13.185  -0.022 -33.815  1.00  0.00     0.026 A 
HETATM   13  C   UNL     1     -14.487   0.340 -34.166  1.00  0.00     0.002 A 
HETATM   14  C   UNL     1     -14.955   1.627 -33.895  1.00  0.00     0.002 A 
HETATM   15  C   UNL     1     -14.125   2.555 -33.265  1.00  0.00     0.031 A 
HETATM   16  C   UNL     1      -9.622   2.038 -34.109  1.00  0.00     0.055 C 
HETATM   17  C   UNL     1      -8.869   0.927 -34.827  1.00  0.00     0.128 C 
HETATM   18  O   UNL     1      -6.512   0.138 -35.976  1.00  0.00    -0.267 OA
HETATM   19  H   UNL     1     -11.192   0.081 -31.856  1.00  0.00     0.129 HD
HETATM   20  H   UNL     1     -12.378   3.975 -31.906  1.00  0.00     0.169 HD
ENDROOT
BRANCH   1  21
HETATM   21  C   UNL     1      -5.560  -0.707 -34.024  1.00  0.00     0.062 A 
HETATM   22  C   UNL     1      -5.289  -2.124 -34.003  1.00  0.00    -0.014 A 
HETATM   23  C   UNL     1      -6.059  -3.142 -34.775  1.00  0.00     0.052 C 
HETATM   24  C   UNL     1      -4.209  -2.328 -33.148  1.00  0.00     0.085 A 
HETATM   25  N   UNL     1      -3.857  -1.091 -32.651  1.00  0.00    -0.356 N 
HETATM   26  H   UNL     1      -3.107  -0.961 -31.983  1.00  0.00     0.166 HD
HETATM   27  C   UNL     1      -4.683  -0.111 -33.130  1.00  0.00     0.022 A 
HETATM   28  C   UNL     1      -4.549   1.294 -32.664  1.00  0.00     0.069 C 
BRANCH  24  29
HETATM   29  C   UNL     1      -3.470  -3.506 -32.721  1.00  0.00     0.172 C 
HETATM   30  C   UNL     1      -3.411  -4.709 -33.625  1.00  0.00     0.098 C 
HETATM   31  O   UNL     1      -2.903  -3.536 -31.628  1.00  0.00    -0.291 OA
ENDBRANCH  24  29
ENDBRANCH   1  21
TORSDOF 2
ENDMDL
MODEL 6
REMARK VINA RESULT:      -8.8      4.348      7.611
REMARK  2 active torsions:
REMARK  status: ('A' for Active; 'I' for Inactive)
REMARK    1  A    between atoms: C_3  and  C_4 
REMARK    2  A    between atoms: C_11  and  C_12 
REMARK       I    between atoms: C_12  and  N_13 
ROOT
HETATM    1  C   UNL     1     -10.132   3.002 -33.451  1.00  0.00     0.256 C 
HETATM    2  N   UNL     1      -9.277   1.900 -33.309  1.00  0.00    -0.348 N 
HETATM    3  C   UNL     1      -9.602   0.707 -32.532  1.00  0.00     0.128 C 
HETATM    4  C   UNL     1      -8.895  -0.545 -33.040  1.00  0.00     0.055 C 
HETATM    5  C   UNL     1      -7.383  -0.339 -33.235  1.00  0.00     0.100 C 
HETATM    6  N   UNL     1      -6.738  -0.123 -31.901  1.00  0.00    -0.273 NA
HETATM    7  C   UNL     1      -5.322  -0.212 -31.956  1.00  0.00     0.036 A 
HETATM    8  C   UNL     1      -4.671  -1.056 -32.873  1.00  0.00     0.056 A 
HETATM    9  N   UNL     1      -5.427  -1.762 -33.814  1.00  0.00    -0.324 N 
HETATM   10  C   UNL     1      -6.781  -1.579 -33.959  1.00  0.00     0.245 C 
HETATM   11  O   UNL     1      -7.427  -2.319 -34.699  1.00  0.00    -0.271 OA
HETATM   12  C   UNL     1      -4.567   0.420 -30.965  1.00  0.00     0.026 A 
HETATM   13  C   UNL     1      -3.179   0.267 -30.932  1.00  0.00     0.002 A 
HETATM   14  C   UNL     1      -2.541  -0.553 -31.864  1.00  0.00     0.002 A 
HETATM   15  C   UNL     1      -3.288  -1.227 -32.831  1.00  0.00     0.031 A 
HETATM   16  C   UNL     1      -7.169   0.895 -34.132  1.00  0.00     0.055 C 
HETATM   17  C   UNL     1      -7.860   2.129 -33.570  1.00  0.00     0.128 C 
HETATM   18  O   UNL     1      -9.765   4.057 -33.962  1.00  0.00    -0.267 OA
HETATM   19  H   UNL     1      -7.039  -0.853 -31.252  1.00  0.00     0.129 HD
HETATM   20  H   UNL     1      -5.003  -2.489 -34.374  1.00  0.00     0.169 HD
ENDROOT
BRANCH   1  21
HETATM   21  C   UNL     1     -11.529   2.851 -33.033  1.00  0.00     0.062 A 
HETATM   22  C   UNL     1     -12.560   2.140 -33.750  1.00  0.00    -0.014 A 
HETATM   23  C   UNL     1     -12.347   1.411 -35.033  1.00  0.00     0.052 C 
HETATM   24  C   UNL     1     -13.740   2.275 -33.021  1.00  0.00     0.085 A 
HETATM   25  N   UNL     1     -13.442   3.057 -31.925  1.00  0.00    -0.356 N 
HETATM   26  H   UNL     1     -14.137   3.327 -31.239  1.00  0.00     0.166 HD
HETATM   27  C   UNL     1     -12.131   3.448 -31.936  1.00  0.00     0.022 A 
HETATM   28  C   UNL     1     -11.602   4.370 -30.898  1.00  0.00     0.069 C 
BRANCH  24  29
HETATM   29  C   UNL     1     -15.099   1.793 -33.208  1.00  0.00     0.172 C 
HETATM   30  C   UNL     1     -16.192   2.294 -32.302  1.00  0.00     0.098 C 
HETATM   31  O   UNL     1     -15.364   0.972 -34.088  1.00  0.00    -0.291 OA
ENDBRANCH  24  29
ENDBRANCH   1  21
TORSDOF 2
ENDMDL
MODEL 7
REMARK VINA RESULT:      -8.7      2.523      8.579
REMARK  2 active torsions:
REMARK  status: ('A' for Active; 'I' for Inactive)
REMARK    1  A    between atoms: C_3  and  C_4 
REMARK    2  A    between atoms: C_11  and  C_12 
REMARK       I    between atoms: C_12  and  N_13 
ROOT
HETATM    1  C   UNL     1      -1.414   5.919 -32.216  1.00  0.00     0.256 C 
HETATM    2  N   UNL     1      -2.581   5.142 -32.170  1.00  0.00    -0.348 N 
HETATM    3  C   UNL     1      -3.308   4.830 -30.943  1.00  0.00     0.128 C 
HETATM    4  C   UNL     1      -4.795   4.588 -31.177  1.00  0.00     0.055 C 
HETATM    5  C   UNL     1      -5.065   3.588 -32.313  1.00  0.00     0.100 C 
HETATM    6  N   UNL     1      -4.577   2.233 -31.905  1.00  0.00    -0.273 NA
HETATM    7  C   UNL     1      -5.040   1.201 -32.764  1.00  0.00     0.036 A 
HETATM    8  C   UNL     1      -6.285   1.285 -33.412  1.00  0.00     0.056 A 
HETATM    9  N   UNL     1      -7.052   2.447 -33.281  1.00  0.00    -0.324 N 
HETATM   10  C   UNL     1      -6.588   3.567 -32.633  1.00  0.00     0.245 C 
HETATM   11  O   UNL     1      -7.345   4.512 -32.420  1.00  0.00    -0.271 OA
HETATM   12  C   UNL     1      -4.323   0.004 -32.830  1.00  0.00     0.026 A 
HETATM   13  C   UNL     1      -4.807  -1.066 -33.585  1.00  0.00     0.002 A 
HETATM   14  C   UNL     1      -6.032  -0.962 -34.247  1.00  0.00     0.002 A 
HETATM   15  C   UNL     1      -6.781   0.212 -34.151  1.00  0.00     0.031 A 
HETATM   16  C   UNL     1      -4.314   4.063 -33.572  1.00  0.00     0.055 C 
HETATM   17  C   UNL     1      -2.828   4.258 -33.304  1.00  0.00     0.128 C 
HETATM   18  O   UNL     1      -0.731   6.018 -33.233  1.00  0.00    -0.267 OA
HETATM   19  H   UNL     1      -4.936   2.005 -30.975  1.00  0.00     0.129 HD
HETATM   20  H   UNL     1      -8.010   2.470 -33.603  1.00  0.00     0.169 HD
ENDROOT
BRANCH   1  21
HETATM   21  C   UNL     1      -1.049   6.687 -31.024  1.00  0.00     0.062 A 
HETATM   22  C   UNL     1      -0.133   6.271 -29.989  1.00  0.00    -0.014 A 
HETATM   23  C   UNL     1       0.618   4.982 -29.995  1.00  0.00     0.052 C 
HETATM   24  C   UNL     1      -0.103   7.280 -29.030  1.00  0.00     0.085 A 
HETATM   25  N   UNL     1      -0.984   8.255 -29.452  1.00  0.00    -0.356 N 
HETATM   26  H   UNL     1      -1.167   9.096 -28.918  1.00  0.00     0.166 HD
HETATM   27  C   UNL     1      -1.593   7.898 -30.624  1.00  0.00     0.022 A 
HETATM   28  C   UNL     1      -2.648   8.755 -31.225  1.00  0.00     0.069 C 
BRANCH  24  29
HETATM   29  C   UNL     1       0.615   7.459 -27.778  1.00  0.00     0.172 C 
HETATM   30  C   UNL     1       1.610   8.583 -27.651  1.00  0.00     0.098 C 
HETATM   31  O   UNL     1       0.429   6.698 -26.827  1.00  0.00    -0.291 OA
ENDBRANCH  24  29
ENDBRANCH   1  21
TORSDOF 2
ENDMDL
MODEL 8
REMARK VINA RESULT:      -8.6      3.209      4.383
REMARK  2 active torsions:
REMARK  status: ('A' for Active; 'I' for Inactive)
REMARK    1  A    between atoms: C_3  and  C_4 
REMARK    2  A    between atoms: C_11  and  C_12 
REMARK       I    between atoms: C_12  and  N_13 
ROOT
HETATM    1  C   UNL     1      -7.929   2.203 -32.050  1.00  0.00     0.256 C 
HETATM    2  N   UNL     1      -7.204   3.384 -32.261  1.00  0.00    -0.348 N 
HETATM    3  C   UNL     1      -7.662   4.486 -33.103  1.00  0.00     0.128 C 
HETATM    4  C   UNL     1      -7.101   5.837 -32.672  1.00  0.00     0.055 C 
HETATM    5  C   UNL     1      -5.576   5.815 -32.478  1.00  0.00     0.100 C 
HETATM    6  N   UNL     1      -4.912   5.596 -33.801  1.00  0.00    -0.273 NA
HETATM    7  C   UNL     1      -3.515   5.847 -33.762  1.00  0.00     0.036 A 
HETATM    8  C   UNL     1      -2.963   6.811 -32.900  1.00  0.00     0.056 A 
HETATM    9  N   UNL     1      -3.793   7.480 -31.995  1.00  0.00    -0.324 N 
HETATM   10  C   UNL     1      -5.117   7.154 -31.830  1.00  0.00     0.245 C 
HETATM   11  O   UNL     1      -5.842   7.859 -31.129  1.00  0.00    -0.271 OA
HETATM   12  C   UNL     1      -2.694   5.248 -34.721  1.00  0.00     0.026 A 
HETATM   13  C   UNL     1      -1.332   5.555 -34.773  1.00  0.00     0.002 A 
HETATM   14  C   UNL     1      -0.790   6.494 -33.894  1.00  0.00     0.002 A 
HETATM   15  C   UNL     1      -1.608   7.134 -32.962  1.00  0.00     0.031 A 
HETATM   16  C   UNL     1      -5.222   4.667 -31.512  1.00  0.00     0.055 C 
HETATM   17  C   UNL     1      -5.770   3.332 -31.998  1.00  0.00     0.128 C 
HETATM   18  O   UNL     1      -7.444   1.227 -31.482  1.00  0.00    -0.267 OA
HETATM   19  H   UNL     1      -5.294   6.249 -34.489  1.00  0.00     0.129 HD
HETATM   20  H   UNL     1      -3.453   8.282 -31.481  1.00  0.00     0.169 HD
ENDROOT
BRANCH   1  21
HETATM   21  C   UNL     1      -9.334   2.171 -32.465  1.00  0.00     0.062 A 
HETATM   22  C   UNL     1      -9.864   1.499 -33.626  1.00  0.00    -0.014 A 
HETATM   23  C   UNL     1      -9.050   0.691 -34.580  1.00  0.00     0.052 C 
HETATM   24  C   UNL     1     -11.233   1.753 -33.664  1.00  0.00     0.085 A 
HETATM   25  N   UNL     1     -11.516   2.568 -32.588  1.00  0.00    -0.356 N 
HETATM   26  H   UNL     1     -12.446   2.920 -32.396  1.00  0.00     0.166 HD
HETATM   27  C   UNL     1     -10.383   2.865 -31.880  1.00  0.00     0.022 A 
HETATM   28  C   UNL     1     -10.429   3.800 -30.727  1.00  0.00     0.069 C 
BRANCH  24  29
HETATM   29  C   UNL     1     -12.306   1.358 -34.562  1.00  0.00     0.172 C 
HETATM   30  C   UNL     1     -13.349   0.382 -34.084  1.00  0.00     0.098 C 
HETATM   31  O   UNL     1     -12.367   1.802 -35.710  1.00  0.00    -0.291 OA
ENDBRANCH  24  29
ENDBRANCH   1  21
TORSDOF 2
ENDMDL
MODEL 9
REMARK VINA RESULT:      -8.3      2.415      3.717
REMARK  2 active torsions:
REMARK  status: ('A' for Active; 'I' for Inactive)
REMARK    1  A    between atoms: C_3  and  C_4 
REMARK    2  A    between atoms: C_11  and  C_12 
REMARK       I    between atoms: C_12  and  N_13 
ROOT
HETATM    1  C   UNL     1      -6.749   1.136 -32.340  1.00  0.00     0.256 C 
HETATM    2  N   UNL     1      -6.153   2.367 -32.032  1.00  0.00    -0.348 N 
HETATM    3  C   UNL     1      -6.472   3.622 -32.707  1.00  0.00     0.128 C 
HETATM    4  C   UNL     1      -6.248   4.846 -31.824  1.00  0.00     0.055 C 
HETATM    5  C   UNL     1      -4.865   4.852 -31.153  1.00  0.00     0.100 C 
HETATM    6  N   UNL     1      -3.808   5.011 -32.200  1.00  0.00    -0.273 NA
HETATM    7  C   UNL     1      -2.534   5.314 -31.652  1.00  0.00     0.036 A 
HETATM    8  C   UNL     1      -2.399   6.053 -30.463  1.00  0.00     0.056 A 
HETATM    9  N   UNL     1      -3.545   6.428 -29.753  1.00  0.00    -0.324 N 
HETATM   10  C   UNL     1      -4.803   6.004 -30.108  1.00  0.00     0.245 C 
HETATM   11  O   UNL     1      -5.791   6.470 -29.542  1.00  0.00    -0.271 OA
HETATM   12  C   UNL     1      -1.390   5.020 -32.398  1.00  0.00     0.026 A 
HETATM   13  C   UNL     1      -0.128   5.399 -31.932  1.00  0.00     0.002 A 
HETATM   14  C   UNL     1      -0.005   6.109 -30.737  1.00  0.00     0.002 A 
HETATM   15  C   UNL     1      -1.144   6.450 -30.005  1.00  0.00     0.031 A 
HETATM   16  C   UNL     1      -4.677   3.515 -30.409  1.00  0.00     0.055 C 
HETATM   17  C   UNL     1      -4.874   2.322 -31.333  1.00  0.00     0.128 C 
HETATM   18  O   UNL     1      -6.338   0.074 -31.880  1.00  0.00    -0.267 OA
HETATM   19  H   UNL     1      -4.044   5.797 -32.810  1.00  0.00     0.129 HD
HETATM   20  H   UNL     1      -3.484   7.088 -28.990  1.00  0.00     0.169 HD
ENDROOT
BRANCH   1  21
HETATM   21  C   UNL     1      -7.945   1.140 -33.187  1.00  0.00     0.062 A 
HETATM   22  C   UNL     1      -9.274   1.530 -32.783  1.00  0.00    -0.014 A 
HETATM   23  C   UNL     1      -9.631   2.027 -31.423  1.00  0.00     0.052 C 
HETATM   24  C   UNL     1     -10.111   1.349 -33.882  1.00  0.00     0.085 A 
HETATM   25  N   UNL     1      -9.328   0.846 -34.899  1.00  0.00    -0.356 N 
HETATM   26  H   UNL     1      -9.702   0.604 -35.809  1.00  0.00     0.166 HD
HETATM   27  C   UNL     1      -8.034   0.673 -34.490  1.00  0.00     0.022 A 
HETATM   28  C   UNL     1      -7.026   0.060 -35.392  1.00  0.00     0.069 C 
BRANCH  24  29
HETATM   29  C   UNL     1     -11.531   1.566 -34.112  1.00  0.00     0.172 C 
HETATM   30  C   UNL     1     -11.974   2.744 -34.939  1.00  0.00     0.098 C 
HETATM   31  O   UNL     1     -12.374   0.806 -33.631  1.00  0.00    -0.291 OA
ENDBRANCH  24  29
ENDBRANCH   1  21
TORSDOF 2
ENDMDL
MODEL 10
REMARK VINA RESULT:      -8.3      2.400      3.903
REMARK  2 active torsions:
REMARK  status: ('A' for Active; 'I' for Inactive)
REMARK    1  A    between atoms: C_3  and  C_4 
REMARK    2  A    between atoms: C_11  and  C_12 
REMARK       I    between atoms: C_12  and  N_13 
ROOT
HETATM    1  C   UNL     1      -5.334   4.495 -31.142  1.00  0.00     0.256 C 
HETATM    2  N   UNL     1      -3.999   4.911 -31.043  1.00  0.00    -0.348 N 
HETATM    3  C   UNL     1      -2.856   4.088 -31.432  1.00  0.00     0.128 C 
HETATM    4  C   UNL     1      -1.649   4.914 -31.865  1.00  0.00     0.055 C 
HETATM    5  C   UNL     1      -1.289   6.018 -30.857  1.00  0.00     0.100 C 
HETATM    6  N   UNL     1      -0.811   5.389 -29.586  1.00  0.00    -0.273 NA
HETATM    7  C   UNL     1      -0.190   6.321 -28.712  1.00  0.00     0.036 A 
HETATM    8  C   UNL     1       0.516   7.434 -29.203  1.00  0.00     0.056 A 
HETATM    9  N   UNL     1       0.539   7.682 -30.579  1.00  0.00    -0.324 N 
HETATM   10  C   UNL     1      -0.200   6.945 -31.473  1.00  0.00     0.245 C 
HETATM   11  O   UNL     1      -0.042   7.106 -32.682  1.00  0.00    -0.271 OA
HETATM   12  C   UNL     1      -0.134   6.034 -27.346  1.00  0.00     0.026 A 
HETATM   13  C   UNL     1       0.558   6.879 -26.476  1.00  0.00     0.002 A 
HETATM   14  C   UNL     1       1.233   7.996 -26.971  1.00  0.00     0.002 A 
HETATM   15  C   UNL     1       1.224   8.269 -28.340  1.00  0.00     0.031 A 
HETATM   16  C   UNL     1      -2.548   6.865 -30.588  1.00  0.00     0.055 C 
HETATM   17  C   UNL     1      -3.717   6.007 -30.124  1.00  0.00     0.128 C 
HETATM   18  O   UNL     1      -6.259   5.136 -30.648  1.00  0.00    -0.267 OA
HETATM   19  H   UNL     1      -0.099   4.687 -29.796  1.00  0.00     0.129 HD
HETATM   20  H   UNL     1       1.164   8.375 -30.966  1.00  0.00     0.169 HD
ENDROOT
BRANCH   1  21
HETATM   21  C   UNL     1      -5.628   3.291 -31.923  1.00  0.00     0.062 A 
HETATM   22  C   UNL     1      -5.731   1.946 -31.409  1.00  0.00    -0.014 A 
HETATM   23  C   UNL     1      -5.584   1.579 -29.971  1.00  0.00     0.052 C 
HETATM   24  C   UNL     1      -5.985   1.107 -32.491  1.00  0.00     0.085 A 
HETATM   25  N   UNL     1      -6.007   1.904 -33.616  1.00  0.00    -0.356 N 
HETATM   26  H   UNL     1      -6.152   1.534 -34.547  1.00  0.00     0.166 HD
HETATM   27  C   UNL     1      -5.752   3.211 -33.302  1.00  0.00     0.022 A 
HETATM   28  C   UNL     1      -5.639   4.242 -34.365  1.00  0.00     0.069 C 
BRANCH  24  29
HETATM   29  C   UNL     1      -6.196  -0.326 -32.626  1.00  0.00     0.172 C 
HETATM   30  C   UNL     1      -5.012  -1.255 -32.587  1.00  0.00     0.098 C 
HETATM   31  O   UNL     1      -7.329  -0.786 -32.782  1.00  0.00    -0.291 OA
ENDBRANCH  24  29
ENDBRANCH   1  21
TORSDOF 2
ENDMDL
