MODEL 1
REMARK VINA RESULT:      -8.9      0.000      0.000
REMARK  10 active torsions:
REMARK  status: ('A' for Active; 'I' for Inactive)
REMARK    1  A    between atoms: C_2  and  O_3 
REMARK    2  A    between atoms: O_3  and  C_4 
REMARK    3  A    between atoms: C_6  and  O_7 
REMARK    4  A    between atoms: O_7  and  C_8 
REMARK    5  A    between atoms: C_11  and  C_12 
REMARK       I    between atoms: C_12  and  N_13 
REMARK    6  A    between atoms: N_13  and  C_14 
REMARK    7  A    between atoms: C_14  and  N_15 
REMARK    8  A    between atoms: N_15  and  C_16 
REMARK    9  A    between atoms: C_18  and  C_19 
REMARK   10  A    between atoms: C_28  and  O_29 
ROOT
HETATM    1  N   UNL     1      -2.568   3.504 -31.223  1.00  0.00    -0.333 N 
HETATM    2  H   UNL     1      -1.873   3.098 -30.592  1.00  0.00     0.168 HD
ENDROOT
BRANCH   1   3
HETATM    3  C   UNL     1      -2.101   4.598 -31.911  1.00  0.00     0.179 C 
HETATM    4  S   UNL     1      -2.121   4.902 -33.556  1.00  0.00    -0.040 SA
BRANCH   3   5
HETATM    5  N   UNL     1      -1.522   5.583 -31.130  1.00  0.00    -0.299 N 
HETATM    6  C   UNL     1      -0.458   5.484 -30.242  1.00  0.00     0.258 C 
HETATM    7  O   UNL     1       0.279   4.501 -30.185  1.00  0.00    -0.267 OA
HETATM    8  H   UNL     1      -2.056   6.438 -31.163  1.00  0.00     0.171 HD
BRANCH   6   9
HETATM    9  C   UNL     1      -0.232   6.644 -29.326  1.00  0.00     0.037 A 
HETATM   10  C   UNL     1       0.741   6.506 -28.325  1.00  0.00     0.054 A 
HETATM   11  C   UNL     1       0.960   7.538 -27.411  1.00  0.00     0.072 A 
HETATM   12  C   UNL     1       0.191   8.704 -27.485  1.00  0.00     0.073 A 
HETATM   13  C   UNL     1      -0.767   8.858 -28.483  1.00  0.00     0.072 A 
HETATM   14  C   UNL     1      -0.963   7.836 -29.414  1.00  0.00     0.054 A 
BRANCH  11  15
HETATM   15  O   UNL     1       1.873   7.525 -26.391  1.00  0.00    -0.351 OA
BRANCH  15  16
HETATM   16  C   UNL     1       1.642   8.415 -25.299  1.00  0.00     0.171 C 
HETATM   17  C   UNL     1       2.971   9.043 -24.923  1.00  0.00     0.034 C 
ENDBRANCH  15  16
ENDBRANCH  11  15
BRANCH  13  18
HETATM   18  O   UNL     1      -1.571   9.950 -28.665  1.00  0.00    -0.351 OA
BRANCH  18  19
HETATM   19  C   UNL     1      -2.755   9.759 -29.440  1.00  0.00     0.171 C 
HETATM   20  C   UNL     1      -3.949   9.905 -28.513  1.00  0.00     0.034 C 
ENDBRANCH  18  19
ENDBRANCH  13  18
ENDBRANCH   6   9
ENDBRANCH   3   5
ENDBRANCH   1   3
BRANCH   1  21
HETATM   21  C   UNL     1      -3.815   2.841 -31.255  1.00  0.00     0.035 A 
HETATM   22  C   UNL     1      -3.855   1.577 -31.865  1.00  0.00     0.046 A 
HETATM   23  C   UNL     1      -5.041   0.819 -31.920  1.00  0.00     0.036 A 
HETATM   24  C   UNL     1      -6.187   1.349 -31.293  1.00  0.00     0.084 A 
HETATM   25  C   UNL     1      -6.166   2.596 -30.660  1.00  0.00    -0.026 A 
HETATM   26  C   UNL     1      -7.394   3.146 -29.994  1.00  0.00     0.051 C 
HETATM   27  C   UNL     1      -4.973   3.332 -30.651  1.00  0.00     0.039 A 
BRANCH  23  28
HETATM   28  C   UNL     1      -5.113  -0.494 -32.596  1.00  0.00     0.112 A 
HETATM   29  S   UNL     1      -3.785  -1.586 -32.641  1.00  0.00    -0.067 SA
HETATM   30  C   UNL     1      -4.693  -2.674 -33.617  1.00  0.00     0.035 A 
HETATM   31  C   UNL     1      -5.957  -2.131 -33.842  1.00  0.00     0.075 A 
HETATM   32  C   UNL     1      -4.314  -3.918 -34.149  1.00  0.00     0.021 A 
HETATM   33  N   UNL     1      -6.178  -0.889 -33.272  1.00  0.00    -0.239 NA
HETATM   34  C   UNL     1      -6.882  -2.860 -34.617  1.00  0.00     0.033 A 
HETATM   35  C   UNL     1      -6.519  -4.101 -35.148  1.00  0.00     0.002 A 
HETATM   36  C   UNL     1      -5.248  -4.620 -34.918  1.00  0.00     0.002 A 
ENDBRANCH  23  28
BRANCH  24  37
HETATM   37  O   UNL     1      -7.381   0.666 -31.264  1.00  0.00    -0.359 OA
HETATM   38  H   UNL     1      -7.361   0.056 -30.495  1.00  0.00     0.218 HD
ENDBRANCH  24  37
ENDBRANCH   1  21
TORSDOF 10
ENDMDL
MODEL 2
REMARK VINA RESULT:      -8.8      0.932      2.981
REMARK  10 active torsions:
REMARK  status: ('A' for Active; 'I' for Inactive)
REMARK    1  A    between atoms: C_2  and  O_3 
REMARK    2  A    between atoms: O_3  and  C_4 
REMARK    3  A    between atoms: C_6  and  O_7 
REMARK    4  A    between atoms: O_7  and  C_8 
REMARK    5  A    between atoms: C_11  and  C_12 
REMARK       I    between atoms: C_12  and  N_13 
REMARK    6  A    between atoms: N_13  and  C_14 
REMARK    7  A    between atoms: C_14  and  N_15 
REMARK    8  A    between atoms: N_15  and  C_16 
REMARK    9  A    between atoms: C_18  and  C_19 
REMARK   10  A    between atoms: C_28  and  O_29 
ROOT
HETATM    1  N   UNL     1      -2.538   3.689 -32.205  1.00  0.00    -0.333 N 
HETATM    2  H   UNL     1      -1.838   3.222 -31.626  1.00  0.00     0.168 HD
ENDROOT
BRANCH   1   3
HETATM    3  C   UNL     1      -2.077   4.847 -32.785  1.00  0.00     0.179 C 
HETATM    4  S   UNL     1      -2.008   5.267 -34.402  1.00  0.00    -0.040 SA
BRANCH   3   5
HETATM    5  N   UNL     1      -1.589   5.795 -31.902  1.00  0.00    -0.299 N 
HETATM    6  C   UNL     1      -0.686   5.637 -30.858  1.00  0.00     0.258 C 
HETATM    7  O   UNL     1      -0.009   4.623 -30.705  1.00  0.00    -0.267 OA
HETATM    8  H   UNL     1      -2.076   6.673 -32.002  1.00  0.00     0.171 HD
BRANCH   6   9
HETATM    9  C   UNL     1      -0.562   6.773 -29.895  1.00  0.00     0.037 A 
HETATM   10  C   UNL     1      -1.537   7.781 -29.944  1.00  0.00     0.054 A 
HETATM   11  C   UNL     1      -1.445   8.890 -29.103  1.00  0.00     0.072 A 
HETATM   12  C   UNL     1      -0.364   9.004 -28.221  1.00  0.00     0.073 A 
HETATM   13  C   UNL     1       0.601   8.003 -28.153  1.00  0.00     0.072 A 
HETATM   14  C   UNL     1       0.489   6.880 -28.976  1.00  0.00     0.054 A 
BRANCH  11  15
HETATM   15  O   UNL     1      -2.325   9.937 -29.056  1.00  0.00    -0.351 OA
BRANCH  15  16
HETATM   16  C   UNL     1      -2.714  10.517 -30.301  1.00  0.00     0.171 C 
HETATM   17  C   UNL     1      -4.219  10.372 -30.431  1.00  0.00     0.034 C 
ENDBRANCH  15  16
ENDBRANCH  11  15
BRANCH  13  18
HETATM   18  O   UNL     1       1.694   7.994 -27.330  1.00  0.00    -0.351 OA
BRANCH  18  19
HETATM   19  C   UNL     1       1.449   7.837 -25.932  1.00  0.00     0.171 C 
HETATM   20  C   UNL     1       2.404   8.753 -25.185  1.00  0.00     0.034 C 
ENDBRANCH  18  19
ENDBRANCH  13  18
ENDBRANCH   6   9
ENDBRANCH   3   5
ENDBRANCH   1   3
BRANCH   1  21
HETATM   21  C   UNL     1      -3.786   3.032 -32.291  1.00  0.00     0.035 A 
HETATM   22  C   UNL     1      -3.773   1.671 -32.637  1.00  0.00     0.046 A 
HETATM   23  C   UNL     1      -4.961   0.918 -32.717  1.00  0.00     0.036 A 
HETATM   24  C   UNL     1      -6.170   1.562 -32.387  1.00  0.00     0.084 A 
HETATM   25  C   UNL     1      -6.205   2.912 -32.018  1.00  0.00    -0.026 A 
HETATM   26  C   UNL     1      -7.501   3.584 -31.667  1.00  0.00     0.051 C 
HETATM   27  C   UNL     1      -5.005   3.634 -31.978  1.00  0.00     0.039 A 
BRANCH  23  28
HETATM   28  C   UNL     1      -4.972  -0.505 -33.121  1.00  0.00     0.112 A 
HETATM   29  S   UNL     1      -3.678  -1.579 -32.762  1.00  0.00    -0.067 SA
HETATM   30  C   UNL     1      -4.469  -2.844 -33.619  1.00  0.00     0.035 A 
HETATM   31  C   UNL     1      -5.677  -2.362 -34.122  1.00  0.00     0.075 A 
HETATM   32  C   UNL     1      -4.052  -4.168 -33.834  1.00  0.00     0.021 A 
HETATM   33  N   UNL     1      -5.943  -1.031 -33.847  1.00  0.00    -0.239 NA
HETATM   34  C   UNL     1      -6.504  -3.234 -34.857  1.00  0.00     0.033 A 
HETATM   35  C   UNL     1      -6.102  -4.555 -35.074  1.00  0.00     0.002 A 
HETATM   36  C   UNL     1      -4.889  -5.013 -34.570  1.00  0.00     0.002 A 
ENDBRANCH  23  28
BRANCH  24  37
HETATM   37  O   UNL     1      -7.375   0.899 -32.401  1.00  0.00    -0.359 OA
HETATM   38  H   UNL     1      -7.911   1.230 -31.649  1.00  0.00     0.218 HD
ENDBRANCH  24  37
ENDBRANCH   1  21
TORSDOF 10
ENDMDL
MODEL 3
REMARK VINA RESULT:      -8.7      4.896      9.973
REMARK  10 active torsions:
REMARK  status: ('A' for Active; 'I' for Inactive)
REMARK    1  A    between atoms: C_2  and  O_3 
REMARK    2  A    between atoms: O_3  and  C_4 
REMARK    3  A    between atoms: C_6  and  O_7 
REMARK    4  A    between atoms: O_7  and  C_8 
REMARK    5  A    between atoms: C_11  and  C_12 
REMARK       I    between atoms: C_12  and  N_13 
REMARK    6  A    between atoms: N_13  and  C_14 
REMARK    7  A    between atoms: C_14  and  N_15 
REMARK    8  A    between atoms: N_15  and  C_16 
REMARK    9  A    between atoms: C_18  and  C_19 
REMARK   10  A    between atoms: C_28  and  O_29 
ROOT
HETATM    1  N   UNL     1     -10.549   2.980 -32.688  1.00  0.00    -0.333 N 
HETATM    2  H   UNL     1     -11.200   2.842 -31.913  1.00  0.00     0.168 HD
ENDROOT
BRANCH   1   3
HETATM    3  C   UNL     1     -10.568   1.953 -33.602  1.00  0.00     0.179 C 
HETATM    4  S   UNL     1     -11.739   1.558 -34.728  1.00  0.00    -0.040 SA
BRANCH   3   5
HETATM    5  N   UNL     1      -9.462   1.120 -33.575  1.00  0.00    -0.299 N 
HETATM    6  C   UNL     1      -8.889   0.459 -32.496  1.00  0.00     0.258 C 
HETATM    7  O   UNL     1      -9.441   0.357 -31.402  1.00  0.00    -0.267 OA
HETATM    8  H   UNL     1      -8.980   1.123 -34.461  1.00  0.00     0.171 HD
BRANCH   6   9
HETATM    9  C   UNL     1      -7.537  -0.141 -32.712  1.00  0.00     0.037 A 
HETATM   10  C   UNL     1      -7.325  -0.869 -33.893  1.00  0.00     0.054 A 
HETATM   11  C   UNL     1      -6.099  -1.491 -34.125  1.00  0.00     0.072 A 
HETATM   12  C   UNL     1      -5.084  -1.403 -33.166  1.00  0.00     0.073 A 
HETATM   13  C   UNL     1      -5.276  -0.671 -31.997  1.00  0.00     0.072 A 
HETATM   14  C   UNL     1      -6.496  -0.024 -31.782  1.00  0.00     0.054 A 
BRANCH  11  15
HETATM   15  O   UNL     1      -5.770  -2.230 -35.229  1.00  0.00    -0.351 OA
BRANCH  15  16
HETATM   16  C   UNL     1      -5.431  -3.600 -35.019  1.00  0.00     0.171 C 
HETATM   17  C   UNL     1      -6.724  -4.388 -34.920  1.00  0.00     0.034 C 
ENDBRANCH  15  16
ENDBRANCH  11  15
BRANCH  13  18
HETATM   18  O   UNL     1      -4.363  -0.502 -30.993  1.00  0.00    -0.351 OA
BRANCH  18  19
HETATM   19  C   UNL     1      -3.124   0.115 -31.343  1.00  0.00     0.171 C 
HETATM   20  C   UNL     1      -3.356   1.613 -31.430  1.00  0.00     0.034 C 
ENDBRANCH  18  19
ENDBRANCH  13  18
ENDBRANCH   6   9
ENDBRANCH   3   5
ENDBRANCH   1   3
BRANCH   1  21
HETATM   21  C   UNL     1      -9.813   4.185 -32.652  1.00  0.00     0.035 A 
HETATM   22  C   UNL     1      -8.425   4.097 -32.849  1.00  0.00     0.046 A 
HETATM   23  C   UNL     1      -7.606   5.243 -32.864  1.00  0.00     0.036 A 
HETATM   24  C   UNL     1      -8.232   6.498 -32.725  1.00  0.00     0.084 A 
HETATM   25  C   UNL     1      -9.616   6.612 -32.550  1.00  0.00    -0.026 A 
HETATM   26  C   UNL     1     -10.269   7.957 -32.406  1.00  0.00     0.051 C 
HETATM   27  C   UNL     1     -10.392   5.446 -32.512  1.00  0.00     0.039 A 
BRANCH  23  28
HETATM   28  C   UNL     1      -6.139   5.167 -33.027  1.00  0.00     0.112 A 
HETATM   29  S   UNL     1      -5.066   4.993 -31.694  1.00  0.00    -0.067 SA
HETATM   30  C   UNL     1      -3.712   5.084 -32.751  1.00  0.00     0.035 A 
HETATM   31  C   UNL     1      -4.170   5.238 -34.059  1.00  0.00     0.075 A 
HETATM   32  C   UNL     1      -2.342   5.026 -32.447  1.00  0.00     0.021 A 
HETATM   33  N   UNL     1      -5.545   5.300 -34.201  1.00  0.00    -0.239 NA
HETATM   34  C   UNL     1      -3.227   5.326 -35.103  1.00  0.00     0.033 A 
HETATM   35  C   UNL     1      -1.861   5.266 -34.814  1.00  0.00     0.002 A 
HETATM   36  C   UNL     1      -1.426   5.120 -33.500  1.00  0.00     0.002 A 
ENDBRANCH  23  28
BRANCH  24  37
HETATM   37  O   UNL     1      -7.520   7.674 -32.764  1.00  0.00    -0.359 OA
HETATM   38  H   UNL     1      -7.963   8.316 -32.168  1.00  0.00     0.218 HD
ENDBRANCH  24  37
ENDBRANCH   1  21
TORSDOF 10
ENDMDL
MODEL 4
REMARK VINA RESULT:      -8.4      1.567      2.996
REMARK  10 active torsions:
REMARK  status: ('A' for Active; 'I' for Inactive)
REMARK    1  A    between atoms: C_2  and  O_3 
REMARK    2  A    between atoms: O_3  and  C_4 
REMARK    3  A    between atoms: C_6  and  O_7 
REMARK    4  A    between atoms: O_7  and  C_8 
REMARK    5  A    between atoms: C_11  and  C_12 
REMARK       I    between atoms: C_12  and  N_13 
REMARK    6  A    between atoms: N_13  and  C_14 
REMARK    7  A    between atoms: C_14  and  N_15 
REMARK    8  A    between atoms: N_15  and  C_16 
REMARK    9  A    between atoms: C_18  and  C_19 
REMARK   10  A    between atoms: C_28  and  O_29 
ROOT
HETATM    1  N   UNL     1      -4.458   5.235 -33.365  1.00  0.00    -0.333 N 
HETATM    2  H   UNL     1      -5.028   5.916 -33.869  1.00  0.00     0.168 HD
ENDROOT
BRANCH   1   3
HETATM    3  C   UNL     1      -3.109   5.474 -33.468  1.00  0.00     0.179 C 
HETATM    4  S   UNL     1      -2.048   5.055 -34.691  1.00  0.00    -0.040 SA
BRANCH   3   5
HETATM    5  N   UNL     1      -2.547   6.149 -32.398  1.00  0.00    -0.299 N 
HETATM    6  C   UNL     1      -1.898   5.637 -31.281  1.00  0.00     0.258 C 
HETATM    7  O   UNL     1      -1.539   4.465 -31.194  1.00  0.00    -0.267 OA
HETATM    8  H   UNL     1      -2.769   7.133 -32.428  1.00  0.00     0.171 HD
BRANCH   6   9
HETATM    9  C   UNL     1      -1.648   6.584 -30.152  1.00  0.00     0.037 A 
HETATM   10  C   UNL     1      -2.745   7.291 -29.636  1.00  0.00     0.054 A 
HETATM   11  C   UNL     1      -2.562   8.224 -28.615  1.00  0.00     0.072 A 
HETATM   12  C   UNL     1      -1.277   8.467 -28.120  1.00  0.00     0.073 A 
HETATM   13  C   UNL     1      -0.183   7.762 -28.613  1.00  0.00     0.072 A 
HETATM   14  C   UNL     1      -0.373   6.806 -29.614  1.00  0.00     0.054 A 
BRANCH  11  15
HETATM   15  O   UNL     1      -3.545   8.977 -28.031  1.00  0.00    -0.351 OA
BRANCH  15  16
HETATM   16  C   UNL     1      -4.729   8.295 -27.619  1.00  0.00     0.171 C 
HETATM   17  C   UNL     1      -4.433   7.607 -26.299  1.00  0.00     0.034 C 
ENDBRANCH  15  16
ENDBRANCH  11  15
BRANCH  13  18
HETATM   18  O   UNL     1       1.116   7.901 -28.206  1.00  0.00    -0.351 OA
BRANCH  18  19
HETATM   19  C   UNL     1       1.445   7.400 -26.910  1.00  0.00     0.171 C 
HETATM   20  C   UNL     1       2.118   8.518 -26.134  1.00  0.00     0.034 C 
ENDBRANCH  18  19
ENDBRANCH  13  18
ENDBRANCH   6   9
ENDBRANCH   3   5
ENDBRANCH   1   3
BRANCH   1  21
HETATM   21  C   UNL     1      -5.181   4.238 -32.672  1.00  0.00     0.035 A 
HETATM   22  C   UNL     1      -5.047   2.915 -33.125  1.00  0.00     0.046 A 
HETATM   23  C   UNL     1      -5.700   1.844 -32.483  1.00  0.00     0.036 A 
HETATM   24  C   UNL     1      -6.456   2.134 -31.330  1.00  0.00     0.084 A 
HETATM   25  C   UNL     1      -6.585   3.441 -30.846  1.00  0.00    -0.026 A 
HETATM   26  C   UNL     1      -7.393   3.734 -29.615  1.00  0.00     0.051 C 
HETATM   27  C   UNL     1      -5.944   4.483 -31.530  1.00  0.00     0.039 A 
BRANCH  23  28
HETATM   28  C   UNL     1      -5.606   0.452 -32.970  1.00  0.00     0.112 A 
HETATM   29  S   UNL     1      -4.111  -0.390 -33.085  1.00  0.00    -0.067 SA
HETATM   30  C   UNL     1      -4.912  -1.752 -33.765  1.00  0.00     0.035 A 
HETATM   31  C   UNL     1      -6.275  -1.475 -33.856  1.00  0.00     0.075 A 
HETATM   32  C   UNL     1      -4.375  -2.979 -34.191  1.00  0.00     0.021 A 
HETATM   33  N   UNL     1      -6.654  -0.218 -33.418  1.00  0.00    -0.239 NA
HETATM   34  C   UNL     1      -7.136  -2.460 -34.381  1.00  0.00     0.033 A 
HETATM   35  C   UNL     1      -6.614  -3.686 -34.804  1.00  0.00     0.002 A 
HETATM   36  C   UNL     1      -5.249  -3.939 -34.712  1.00  0.00     0.002 A 
ENDBRANCH  23  28
BRANCH  24  37
HETATM   37  O   UNL     1      -7.099   1.150 -30.615  1.00  0.00    -0.359 OA
HETATM   38  H   UNL     1      -7.328   1.516 -29.734  1.00  0.00     0.218 HD
ENDBRANCH  24  37
ENDBRANCH   1  21
TORSDOF 10
ENDMDL
MODEL 5
REMARK VINA RESULT:      -8.2      2.879      4.319
REMARK  10 active torsions:
REMARK  status: ('A' for Active; 'I' for Inactive)
REMARK    1  A    between atoms: C_2  and  O_3 
REMARK    2  A    between atoms: O_3  and  C_4 
REMARK    3  A    between atoms: C_6  and  O_7 
REMARK    4  A    between atoms: O_7  and  C_8 
REMARK    5  A    between atoms: C_11  and  C_12 
REMARK       I    between atoms: C_12  and  N_13 
REMARK    6  A    between atoms: N_13  and  C_14 
REMARK    7  A    between atoms: C_14  and  N_15 
REMARK    8  A    between atoms: N_15  and  C_16 
REMARK    9  A    between atoms: C_18  and  C_19 
REMARK   10  A    between atoms: C_28  and  O_29 
ROOT
HETATM    1  N   UNL     1      -7.595   3.889 -29.545  1.00  0.00    -0.333 N 
HETATM    2  H   UNL     1      -7.667   3.186 -28.807  1.00  0.00     0.168 HD
ENDROOT
BRANCH   1   3
HETATM    3  C   UNL     1      -7.231   5.129 -29.078  1.00  0.00     0.179 C 
HETATM    4  S   UNL     1      -8.162   6.288 -28.312  1.00  0.00    -0.040 SA
BRANCH   3   5
HETATM    5  N   UNL     1      -5.905   5.470 -29.283  1.00  0.00    -0.299 N 
HETATM    6  C   UNL     1      -5.343   6.229 -30.302  1.00  0.00     0.258 C 
HETATM    7  O   UNL     1      -6.012   6.906 -31.081  1.00  0.00    -0.267 OA
HETATM    8  H   UNL     1      -5.297   4.979 -28.645  1.00  0.00     0.171 HD
BRANCH   6   9
HETATM    9  C   UNL     1      -3.854   6.195 -30.428  1.00  0.00     0.037 A 
HETATM   10  C   UNL     1      -3.108   7.045 -29.597  1.00  0.00     0.054 A 
HETATM   11  C   UNL     1      -1.718   7.090 -29.705  1.00  0.00     0.072 A 
HETATM   12  C   UNL     1      -1.070   6.298 -30.659  1.00  0.00     0.073 A 
HETATM   13  C   UNL     1      -1.798   5.439 -31.478  1.00  0.00     0.072 A 
HETATM   14  C   UNL     1      -3.187   5.374 -31.347  1.00  0.00     0.054 A 
BRANCH  11  15
HETATM   15  O   UNL     1      -0.881   7.876 -28.960  1.00  0.00    -0.351 OA
BRANCH  15  16
HETATM   16  C   UNL     1       0.506   7.539 -28.966  1.00  0.00     0.171 C 
HETATM   17  C   UNL     1       0.837   6.911 -27.625  1.00  0.00     0.034 C 
ENDBRANCH  15  16
ENDBRANCH  11  15
BRANCH  13  18
HETATM   18  O   UNL     1      -1.282   4.611 -32.437  1.00  0.00    -0.351 OA
BRANCH  18  19
HETATM   19  C   UNL     1      -2.053   4.440 -33.627  1.00  0.00     0.171 C 
HETATM   20  C   UNL     1      -1.440   5.311 -34.709  1.00  0.00     0.034 C 
ENDBRANCH  18  19
ENDBRANCH  13  18
ENDBRANCH   6   9
ENDBRANCH   3   5
ENDBRANCH   1   3
BRANCH   1  21
HETATM   21  C   UNL     1      -7.859   3.422 -30.853  1.00  0.00     0.035 A 
HETATM   22  C   UNL     1      -7.260   2.211 -31.235  1.00  0.00     0.046 A 
HETATM   23  C   UNL     1      -7.486   1.643 -32.504  1.00  0.00     0.036 A 
HETATM   24  C   UNL     1      -8.379   2.306 -33.370  1.00  0.00     0.084 A 
HETATM   25  C   UNL     1      -9.004   3.503 -33.002  1.00  0.00    -0.026 A 
HETATM   26  C   UNL     1      -9.956   4.196 -33.935  1.00  0.00     0.051 C 
HETATM   27  C   UNL     1      -8.732   4.050 -31.741  1.00  0.00     0.039 A 
BRANCH  23  28
HETATM   28  C   UNL     1      -6.831   0.391 -32.941  1.00  0.00     0.112 A 
HETATM   29  S   UNL     1      -5.143   0.118 -32.765  1.00  0.00    -0.067 SA
HETATM   30  C   UNL     1      -5.289  -1.403 -33.555  1.00  0.00     0.035 A 
HETATM   31  C   UNL     1      -6.625  -1.605 -33.900  1.00  0.00     0.075 A 
HETATM   32  C   UNL     1      -4.295  -2.349 -33.853  1.00  0.00     0.021 A 
HETATM   33  N   UNL     1      -7.486  -0.575 -33.561  1.00  0.00    -0.239 NA
HETATM   34  C   UNL     1      -6.985  -2.800 -34.555  1.00  0.00     0.033 A 
HETATM   35  C   UNL     1      -6.005  -3.752 -34.853  1.00  0.00     0.002 A 
HETATM   36  C   UNL     1      -4.677  -3.525 -34.507  1.00  0.00     0.002 A 
ENDBRANCH  23  28
BRANCH  24  37
HETATM   37  O   UNL     1      -8.689   1.809 -34.614  1.00  0.00    -0.359 OA
HETATM   38  H   UNL     1      -7.858   1.751 -35.133  1.00  0.00     0.218 HD
ENDBRANCH  24  37
ENDBRANCH   1  21
TORSDOF 10
ENDMDL
MODEL 6
REMARK VINA RESULT:      -8.1      2.905     11.061
REMARK  10 active torsions:
REMARK  status: ('A' for Active; 'I' for Inactive)
REMARK    1  A    between atoms: C_2  and  O_3 
REMARK    2  A    between atoms: O_3  and  C_4 
REMARK    3  A    between atoms: C_6  and  O_7 
REMARK    4  A    between atoms: O_7  and  C_8 
REMARK    5  A    between atoms: C_11  and  C_12 
REMARK       I    between atoms: C_12  and  N_13 
REMARK    6  A    between atoms: N_13  and  C_14 
REMARK    7  A    between atoms: C_14  and  N_15 
REMARK    8  A    between atoms: N_15  and  C_16 
REMARK    9  A    between atoms: C_18  and  C_19 
REMARK   10  A    between atoms: C_28  and  O_29 
ROOT
HETATM    1  N   UNL     1      -5.835   4.649 -31.744  1.00  0.00    -0.333 N 
HETATM    2  H   UNL     1      -6.098   4.706 -30.758  1.00  0.00     0.168 HD
ENDROOT
BRANCH   1   3
HETATM    3  C   UNL     1      -6.818   4.105 -32.536  1.00  0.00     0.179 C 
HETATM    4  S   UNL     1      -8.258   4.781 -33.052  1.00  0.00    -0.040 SA
BRANCH   3   5
HETATM    5  N   UNL     1      -6.584   2.807 -32.957  1.00  0.00    -0.299 N 
HETATM    6  C   UNL     1      -7.075   1.616 -32.436  1.00  0.00     0.258 C 
HETATM    7  O   UNL     1      -7.993   1.569 -31.620  1.00  0.00    -0.267 OA
HETATM    8  H   UNL     1      -5.864   2.775 -33.663  1.00  0.00     0.171 HD
BRANCH   6   9
HETATM    9  C   UNL     1      -6.429   0.355 -32.912  1.00  0.00     0.037 A 
HETATM   10  C   UNL     1      -5.058   0.188 -32.664  1.00  0.00     0.054 A 
HETATM   11  C   UNL     1      -4.393  -0.947 -33.128  1.00  0.00     0.072 A 
HETATM   12  C   UNL     1      -5.094  -1.911 -33.860  1.00  0.00     0.073 A 
HETATM   13  C   UNL     1      -6.458  -1.764 -34.100  1.00  0.00     0.072 A 
HETATM   14  C   UNL     1      -7.127  -0.641 -33.608  1.00  0.00     0.054 A 
BRANCH  11  15
HETATM   15  O   UNL     1      -3.064  -1.224 -32.955  1.00  0.00    -0.351 OA
BRANCH  15  16
HETATM   16  C   UNL     1      -2.673  -1.784 -31.702  1.00  0.00     0.171 C 
HETATM   17  C   UNL     1      -2.893  -3.284 -31.775  1.00  0.00     0.034 C 
ENDBRANCH  15  16
ENDBRANCH  11  15
BRANCH  13  18
HETATM   18  O   UNL     1      -7.252  -2.638 -34.790  1.00  0.00    -0.351 OA
BRANCH  18  19
HETATM   19  C   UNL     1      -7.083  -4.027 -34.509  1.00  0.00     0.171 C 
HETATM   20  C   UNL     1      -6.276  -4.638 -35.642  1.00  0.00     0.034 C 
ENDBRANCH  18  19
ENDBRANCH  13  18
ENDBRANCH   6   9
ENDBRANCH   3   5
ENDBRANCH   1   3
BRANCH   1  21
HETATM   21  C   UNL     1      -4.555   5.159 -32.058  1.00  0.00     0.035 A 
HETATM   22  C   UNL     1      -3.879   5.862 -31.048  1.00  0.00     0.046 A 
HETATM   23  C   UNL     1      -2.585   6.381 -31.249  1.00  0.00     0.036 A 
HETATM   24  C   UNL     1      -1.961   6.127 -32.488  1.00  0.00     0.084 A 
HETATM   25  C   UNL     1      -2.607   5.410 -33.500  1.00  0.00    -0.026 A 
HETATM   26  C   UNL     1      -1.929   5.145 -34.814  1.00  0.00     0.051 C 
HETATM   27  C   UNL     1      -3.905   4.934 -33.272  1.00  0.00     0.039 A 
BRANCH  23  28
HETATM   28  C   UNL     1      -1.873   7.161 -30.214  1.00  0.00     0.112 A 
HETATM   29  S   UNL     1      -2.601   8.479 -29.384  1.00  0.00    -0.067 SA
HETATM   30  C   UNL     1      -1.133   8.780 -28.539  1.00  0.00     0.035 A 
HETATM   31  C   UNL     1      -0.180   7.847 -28.946  1.00  0.00     0.075 A 
HETATM   32  C   UNL     1      -0.842   9.770 -27.587  1.00  0.00     0.021 A 
HETATM   33  N   UNL     1      -0.606   6.946 -29.907  1.00  0.00    -0.239 NA
HETATM   34  C   UNL     1       1.108   7.897 -28.374  1.00  0.00     0.033 A 
HETATM   35  C   UNL     1       1.408   8.876 -27.422  1.00  0.00     0.002 A 
HETATM   36  C   UNL     1       0.444   9.802 -27.037  1.00  0.00     0.002 A 
ENDBRANCH  23  28
BRANCH  24  37
HETATM   37  O   UNL     1      -0.685   6.563 -32.762  1.00  0.00    -0.359 OA
HETATM   38  H   UNL     1      -0.151   6.470 -31.944  1.00  0.00     0.218 HD
ENDBRANCH  24  37
ENDBRANCH   1  21
TORSDOF 10
ENDMDL
MODEL 7
REMARK VINA RESULT:      -8.0      3.095      4.949
REMARK  10 active torsions:
REMARK  status: ('A' for Active; 'I' for Inactive)
REMARK    1  A    between atoms: C_2  and  O_3 
REMARK    2  A    between atoms: O_3  and  C_4 
REMARK    3  A    between atoms: C_6  and  O_7 
REMARK    4  A    between atoms: O_7  and  C_8 
REMARK    5  A    between atoms: C_11  and  C_12 
REMARK       I    between atoms: C_12  and  N_13 
REMARK    6  A    between atoms: N_13  and  C_14 
REMARK    7  A    between atoms: C_14  and  N_15 
REMARK    8  A    between atoms: N_15  and  C_16 
REMARK    9  A    between atoms: C_18  and  C_19 
REMARK   10  A    between atoms: C_28  and  O_29 
ROOT
HETATM    1  N   UNL     1      -8.095   3.868 -29.968  1.00  0.00    -0.333 N 
HETATM    2  H   UNL     1      -8.149   3.215 -29.184  1.00  0.00     0.168 HD
ENDROOT
BRANCH   1   3
HETATM    3  C   UNL     1      -7.788   5.151 -29.584  1.00  0.00     0.179 C 
HETATM    4  S   UNL     1      -8.799   6.361 -29.026  1.00  0.00    -0.040 SA
BRANCH   3   5
HETATM    5  N   UNL     1      -6.450   5.492 -29.685  1.00  0.00    -0.299 N 
HETATM    6  C   UNL     1      -5.803   6.214 -30.681  1.00  0.00     0.258 C 
HETATM    7  O   UNL     1      -6.403   6.854 -31.543  1.00  0.00    -0.267 OA
HETATM    8  H   UNL     1      -5.899   5.031 -28.977  1.00  0.00     0.171 HD
BRANCH   6   9
HETATM    9  C   UNL     1      -4.309   6.184 -30.674  1.00  0.00     0.037 A 
HETATM   10  C   UNL     1      -3.666   5.379 -31.627  1.00  0.00     0.054 A 
HETATM   11  C   UNL     1      -2.275   5.274 -31.636  1.00  0.00     0.072 A 
HETATM   12  C   UNL     1      -1.522   5.961 -30.678  1.00  0.00     0.073 A 
HETATM   13  C   UNL     1      -2.146   6.775 -29.737  1.00  0.00     0.072 A 
HETATM   14  C   UNL     1      -3.538   6.901 -29.750  1.00  0.00     0.054 A 
BRANCH  11  15
HETATM   15  O   UNL     1      -1.533   4.523 -32.507  1.00  0.00    -0.351 OA
BRANCH  15  16
HETATM   16  C   UNL     1      -1.964   4.488 -33.867  1.00  0.00     0.171 C 
HETATM   17  C   UNL     1      -1.261   5.613 -34.606  1.00  0.00     0.034 C 
ENDBRANCH  15  16
ENDBRANCH  11  15
BRANCH  13  18
HETATM   18  O   UNL     1      -1.523   7.501 -28.760  1.00  0.00    -0.351 OA
BRANCH  18  19
HETATM   19  C   UNL     1      -0.328   6.949 -28.207  1.00  0.00     0.171 C 
HETATM   20  C   UNL     1       0.814   7.901 -28.518  1.00  0.00     0.034 C 
ENDBRANCH  18  19
ENDBRANCH  13  18
ENDBRANCH   6   9
ENDBRANCH   3   5
ENDBRANCH   1   3
BRANCH   1  21
HETATM   21  C   UNL     1      -8.320   3.302 -31.243  1.00  0.00     0.035 A 
HETATM   22  C   UNL     1      -7.623   2.123 -31.554  1.00  0.00     0.046 A 
HETATM   23  C   UNL     1      -7.801   1.462 -32.786  1.00  0.00     0.036 A 
HETATM   24  C   UNL     1      -8.749   1.994 -33.684  1.00  0.00     0.084 A 
HETATM   25  C   UNL     1      -9.472   3.154 -33.385  1.00  0.00    -0.026 A 
HETATM   26  C   UNL     1     -10.480   3.706 -34.352  1.00  0.00     0.051 C 
HETATM   27  C   UNL     1      -9.245   3.798 -32.162  1.00  0.00     0.039 A 
BRANCH  23  28
HETATM   28  C   UNL     1      -7.045   0.245 -33.150  1.00  0.00     0.112 A 
HETATM   29  S   UNL     1      -5.346   0.108 -32.922  1.00  0.00    -0.067 SA
HETATM   30  C   UNL     1      -5.359  -1.452 -33.646  1.00  0.00     0.035 A 
HETATM   31  C   UNL     1      -6.666  -1.769 -34.013  1.00  0.00     0.075 A 
HETATM   32  C   UNL     1      -4.289  -2.334 -33.877  1.00  0.00     0.021 A 
HETATM   33  N   UNL     1      -7.609  -0.793 -33.741  1.00  0.00    -0.239 NA
HETATM   34  C   UNL     1      -6.918  -3.015 -34.622  1.00  0.00     0.033 A 
HETATM   35  C   UNL     1      -5.863  -3.903 -34.853  1.00  0.00     0.002 A 
HETATM   36  C   UNL     1      -4.565  -3.562 -34.487  1.00  0.00     0.002 A 
ENDBRANCH  23  28
BRANCH  24  37
HETATM   37  O   UNL     1      -9.018   1.397 -34.894  1.00  0.00    -0.359 OA
HETATM   38  H   UNL     1      -9.967   1.144 -34.901  1.00  0.00     0.218 HD
ENDBRANCH  24  37
ENDBRANCH   1  21
TORSDOF 10
ENDMDL
MODEL 8
REMARK VINA RESULT:      -8.0      1.771      2.114
REMARK  10 active torsions:
REMARK  status: ('A' for Active; 'I' for Inactive)
REMARK    1  A    between atoms: C_2  and  O_3 
REMARK    2  A    between atoms: O_3  and  C_4 
REMARK    3  A    between atoms: C_6  and  O_7 
REMARK    4  A    between atoms: O_7  and  C_8 
REMARK    5  A    between atoms: C_11  and  C_12 
REMARK       I    between atoms: C_12  and  N_13 
REMARK    6  A    between atoms: N_13  and  C_14 
REMARK    7  A    between atoms: C_14  and  N_15 
REMARK    8  A    between atoms: N_15  and  C_16 
REMARK    9  A    between atoms: C_18  and  C_19 
REMARK   10  A    between atoms: C_28  and  O_29 
ROOT
HETATM    1  N   UNL     1      -4.668   5.082 -33.542  1.00  0.00    -0.333 N 
HETATM    2  H   UNL     1      -5.266   5.711 -34.081  1.00  0.00     0.168 HD
ENDROOT
BRANCH   1   3
HETATM    3  C   UNL     1      -3.332   5.388 -33.636  1.00  0.00     0.179 C 
HETATM    4  S   UNL     1      -2.259   5.078 -34.880  1.00  0.00    -0.040 SA
BRANCH   3   5
HETATM    5  N   UNL     1      -2.798   6.037 -32.536  1.00  0.00    -0.299 N 
HETATM    6  C   UNL     1      -2.073   5.510 -31.474  1.00  0.00     0.258 C 
HETATM    7  O   UNL     1      -1.611   4.371 -31.478  1.00  0.00    -0.267 OA
HETATM    8  H   UNL     1      -3.105   6.997 -32.491  1.00  0.00     0.171 HD
BRANCH   6   9
HETATM    9  C   UNL     1      -1.870   6.397 -30.288  1.00  0.00     0.037 A 
HETATM   10  C   UNL     1      -0.551   6.671 -29.895  1.00  0.00     0.054 A 
HETATM   11  C   UNL     1      -0.302   7.452 -28.767  1.00  0.00     0.072 A 
HETATM   12  C   UNL     1      -1.373   7.947 -28.016  1.00  0.00     0.073 A 
HETATM   13  C   UNL     1      -2.686   7.694 -28.404  1.00  0.00     0.072 A 
HETATM   14  C   UNL     1      -2.932   6.937 -29.551  1.00  0.00     0.054 A 
BRANCH  11  15
HETATM   15  O   UNL     1       0.933   7.787 -28.280  1.00  0.00    -0.351 OA
BRANCH  15  16
HETATM   16  C   UNL     1       1.264   7.324 -26.971  1.00  0.00     0.171 C 
HETATM   17  C   UNL     1       1.973   8.452 -26.245  1.00  0.00     0.034 C 
ENDBRANCH  15  16
ENDBRANCH  11  15
BRANCH  13  18
HETATM   18  O   UNL     1      -3.814   8.128 -27.762  1.00  0.00    -0.351 OA
BRANCH  18  19
HETATM   19  C   UNL     1      -4.883   8.600 -28.581  1.00  0.00     0.171 C 
HETATM   20  C   UNL     1      -6.128   7.806 -28.227  1.00  0.00     0.034 C 
ENDBRANCH  18  19
ENDBRANCH  13  18
ENDBRANCH   6   9
ENDBRANCH   3   5
ENDBRANCH   1   3
BRANCH   1  21
HETATM   21  C   UNL     1      -5.349   4.076 -32.819  1.00  0.00     0.035 A 
HETATM   22  C   UNL     1      -5.302   2.771 -33.335  1.00  0.00     0.046 A 
HETATM   23  C   UNL     1      -5.920   1.692 -32.673  1.00  0.00     0.036 A 
HETATM   24  C   UNL     1      -6.548   1.952 -31.438  1.00  0.00     0.084 A 
HETATM   25  C   UNL     1      -6.587   3.241 -30.893  1.00  0.00    -0.026 A 
HETATM   26  C   UNL     1      -7.258   3.502 -29.575  1.00  0.00     0.051 C 
HETATM   27  C   UNL     1      -5.986   4.293 -31.597  1.00  0.00     0.039 A 
BRANCH  23  28
HETATM   28  C   UNL     1      -5.919   0.319 -33.222  1.00  0.00     0.112 A 
HETATM   29  S   UNL     1      -7.331  -0.422 -33.865  1.00  0.00    -0.067 SA
HETATM   30  C   UNL     1      -6.460  -1.881 -34.139  1.00  0.00     0.035 A 
HETATM   31  C   UNL     1      -5.141  -1.704 -33.723  1.00  0.00     0.075 A 
HETATM   32  C   UNL     1      -6.910  -3.096 -34.681  1.00  0.00     0.021 A 
HETATM   33  N   UNL     1      -4.851  -0.460 -33.190  1.00  0.00    -0.239 NA
HETATM   34  C   UNL     1      -4.235  -2.774 -33.862  1.00  0.00     0.033 A 
HETATM   35  C   UNL     1      -4.669  -3.988 -34.404  1.00  0.00     0.002 A 
HETATM   36  C   UNL     1      -5.992  -4.145 -34.805  1.00  0.00     0.002 A 
ENDBRANCH  23  28
BRANCH  24  37
HETATM   37  O   UNL     1      -7.146   0.956 -30.702  1.00  0.00    -0.359 OA
HETATM   38  H   UNL     1      -8.081   0.885 -30.992  1.00  0.00     0.218 HD
ENDBRANCH  24  37
ENDBRANCH   1  21
TORSDOF 10
ENDMDL
MODEL 9
REMARK VINA RESULT:      -7.8      2.932     11.472
REMARK  10 active torsions:
REMARK  status: ('A' for Active; 'I' for Inactive)
REMARK    1  A    between atoms: C_2  and  O_3 
REMARK    2  A    between atoms: O_3  and  C_4 
REMARK    3  A    between atoms: C_6  and  O_7 
REMARK    4  A    between atoms: O_7  and  C_8 
REMARK    5  A    between atoms: C_11  and  C_12 
REMARK       I    between atoms: C_12  and  N_13 
REMARK    6  A    between atoms: N_13  and  C_14 
REMARK    7  A    between atoms: C_14  and  N_15 
REMARK    8  A    between atoms: N_15  and  C_16 
REMARK    9  A    between atoms: C_18  and  C_19 
REMARK   10  A    between atoms: C_28  and  O_29 
ROOT
HETATM    1  N   UNL     1      -5.205   5.178 -31.975  1.00  0.00    -0.333 N 
HETATM    2  H   UNL     1      -5.913   5.584 -32.590  1.00  0.00     0.168 HD
ENDROOT
BRANCH   1   3
HETATM    3  C   UNL     1      -5.704   4.206 -31.141  1.00  0.00     0.179 C 
HETATM    4  S   UNL     1      -5.895   4.232 -29.480  1.00  0.00    -0.040 SA
BRANCH   3   5
HETATM    5  N   UNL     1      -6.091   3.034 -31.767  1.00  0.00    -0.299 N 
HETATM    6  C   UNL     1      -5.316   2.114 -32.462  1.00  0.00     0.258 C 
HETATM    7  O   UNL     1      -4.087   2.115 -32.432  1.00  0.00    -0.267 OA
HETATM    8  H   UNL     1      -7.096   2.946 -31.791  1.00  0.00     0.171 HD
BRANCH   6   9
HETATM    9  C   UNL     1      -6.045   1.093 -33.274  1.00  0.00     0.037 A 
HETATM   10  C   UNL     1      -7.333   1.417 -33.728  1.00  0.00     0.054 A 
HETATM   11  C   UNL     1      -8.079   0.484 -34.449  1.00  0.00     0.072 A 
HETATM   12  C   UNL     1      -7.546  -0.784 -34.702  1.00  0.00     0.073 A 
HETATM   13  C   UNL     1      -6.264  -1.112 -34.270  1.00  0.00     0.072 A 
HETATM   14  C   UNL     1      -5.508  -0.165 -33.575  1.00  0.00     0.054 A 
BRANCH  11  15
HETATM   15  O   UNL     1      -9.342   0.676 -34.941  1.00  0.00    -0.351 OA
BRANCH  15  16
HETATM   16  C   UNL     1     -10.182   1.591 -34.240  1.00  0.00     0.171 C 
HETATM   17  C   UNL     1     -11.275   0.789 -33.558  1.00  0.00     0.034 C 
ENDBRANCH  15  16
ENDBRANCH  11  15
BRANCH  13  18
HETATM   18  O   UNL     1      -5.630  -2.309 -34.463  1.00  0.00    -0.351 OA
BRANCH  18  19
HETATM   19  C   UNL     1      -4.250  -2.376 -34.104  1.00  0.00     0.171 C 
HETATM   20  C   UNL     1      -3.943  -3.805 -33.694  1.00  0.00     0.034 C 
ENDBRANCH  18  19
ENDBRANCH  13  18
ENDBRANCH   6   9
ENDBRANCH   3   5
ENDBRANCH   1   3
BRANCH   1  21
HETATM   21  C   UNL     1      -3.897   5.686 -32.142  1.00  0.00     0.035 A 
HETATM   22  C   UNL     1      -3.312   6.330 -31.039  1.00  0.00     0.046 A 
HETATM   23  C   UNL     1      -2.001   6.843 -31.092  1.00  0.00     0.036 A 
HETATM   24  C   UNL     1      -1.266   6.643 -32.278  1.00  0.00     0.084 A 
HETATM   25  C   UNL     1      -1.820   5.985 -33.382  1.00  0.00    -0.026 A 
HETATM   26  C   UNL     1      -1.024   5.777 -34.638  1.00  0.00     0.051 C 
HETATM   27  C   UNL     1      -3.138   5.515 -33.300  1.00  0.00     0.039 A 
BRANCH  23  28
HETATM   28  C   UNL     1      -1.384   7.561 -29.957  1.00  0.00     0.112 A 
HETATM   29  S   UNL     1      -2.194   8.817 -29.105  1.00  0.00    -0.067 SA
HETATM   30  C   UNL     1      -0.800   9.076 -28.130  1.00  0.00     0.035 A 
HETATM   31  C   UNL     1       0.195   8.179 -28.518  1.00  0.00     0.075 A 
HETATM   32  C   UNL     1      -0.598  10.006 -27.097  1.00  0.00     0.021 A 
HETATM   33  N   UNL     1      -0.142   7.338 -29.564  1.00  0.00    -0.239 NA
HETATM   34  C   UNL     1       1.433   8.204 -27.844  1.00  0.00     0.033 A 
HETATM   35  C   UNL     1       1.644   9.122 -26.811  1.00  0.00     0.002 A 
HETATM   36  C   UNL     1       0.640  10.013 -26.446  1.00  0.00     0.002 A 
ENDBRANCH  23  28
BRANCH  24  37
HETATM   37  O   UNL     1       0.033   7.075 -32.410  1.00  0.00    -0.359 OA
HETATM   38  H   UNL     1       0.437   6.592 -33.163  1.00  0.00     0.218 HD
ENDBRANCH  24  37
ENDBRANCH   1  21
TORSDOF 10
ENDMDL
MODEL 10
REMARK VINA RESULT:      -7.7      5.122     10.979
REMARK  10 active torsions:
REMARK  status: ('A' for Active; 'I' for Inactive)
REMARK    1  A    between atoms: C_2  and  O_3 
REMARK    2  A    between atoms: O_3  and  C_4 
REMARK    3  A    between atoms: C_6  and  O_7 
REMARK    4  A    between atoms: O_7  and  C_8 
REMARK    5  A    between atoms: C_11  and  C_12 
REMARK       I    between atoms: C_12  and  N_13 
REMARK    6  A    between atoms: N_13  and  C_14 
REMARK    7  A    between atoms: C_14  and  N_15 
REMARK    8  A    between atoms: N_15  and  C_16 
REMARK    9  A    between atoms: C_18  and  C_19 
REMARK   10  A    between atoms: C_28  and  O_29 
ROOT
HETATM    1  N   UNL     1      -7.879   1.478 -30.966  1.00  0.00    -0.333 N 
HETATM    2  H   UNL     1      -8.335   0.666 -30.546  1.00  0.00     0.168 HD
ENDROOT
BRANCH   1   3
HETATM    3  C   UNL     1      -8.656   2.612 -30.935  1.00  0.00     0.179 C 
HETATM    4  S   UNL     1      -8.712   3.827 -29.787  1.00  0.00    -0.040 SA
BRANCH   3   5
HETATM    5  N   UNL     1      -9.525   2.761 -32.002  1.00  0.00    -0.299 N 
HETATM    6  C   UNL     1      -9.343   3.461 -33.189  1.00  0.00     0.258 C 
HETATM    7  O   UNL     1      -8.250   3.891 -33.553  1.00  0.00    -0.267 OA
HETATM    8  H   UNL     1     -10.437   2.389 -31.787  1.00  0.00     0.171 HD
BRANCH   6   9
HETATM    9  C   UNL     1     -10.556   3.685 -34.033  1.00  0.00     0.037 A 
HETATM   10  C   UNL     1     -11.364   2.575 -34.324  1.00  0.00     0.054 A 
HETATM   11  C   UNL     1     -12.481   2.715 -35.148  1.00  0.00     0.072 A 
HETATM   12  C   UNL     1     -12.783   3.965 -35.700  1.00  0.00     0.073 A 
HETATM   13  C   UNL     1     -11.997   5.077 -35.407  1.00  0.00     0.072 A 
HETATM   14  C   UNL     1     -10.897   4.938 -34.557  1.00  0.00     0.054 A 
BRANCH  11  15
HETATM   15  O   UNL     1     -13.343   1.715 -35.508  1.00  0.00    -0.351 OA
BRANCH  15  16
HETATM   16  C   UNL     1     -13.612   0.706 -34.536  1.00  0.00     0.171 C 
HETATM   17  C   UNL     1     -15.111   0.679 -34.297  1.00  0.00     0.034 C 
ENDBRANCH  15  16
ENDBRANCH  11  15
BRANCH  13  18
HETATM   18  O   UNL     1     -12.194   6.347 -35.874  1.00  0.00    -0.351 OA
BRANCH  18  19
HETATM   19  C   UNL     1     -13.518   6.872 -35.782  1.00  0.00     0.171 C 
HETATM   20  C   UNL     1     -14.023   7.113 -37.195  1.00  0.00     0.034 C 
ENDBRANCH  18  19
ENDBRANCH  13  18
ENDBRANCH   6   9
ENDBRANCH   3   5
ENDBRANCH   1   3
BRANCH   1  21
HETATM   21  C   UNL     1      -6.571   1.254 -31.450  1.00  0.00     0.035 A 
HETATM   22  C   UNL     1      -5.710   2.362 -31.511  1.00  0.00     0.046 A 
HETATM   23  C   UNL     1      -4.377   2.239 -31.948  1.00  0.00     0.036 A 
HETATM   24  C   UNL     1      -3.910   0.950 -32.275  1.00  0.00     0.084 A 
HETATM   25  C   UNL     1      -4.743  -0.172 -32.199  1.00  0.00    -0.026 A 
HETATM   26  C   UNL     1      -4.230  -1.540 -32.549  1.00  0.00     0.051 C 
HETATM   27  C   UNL     1      -6.071  -0.003 -31.788  1.00  0.00     0.039 A 
BRANCH  23  28
HETATM   28  C   UNL     1      -3.468   3.400 -32.060  1.00  0.00     0.112 A 
HETATM   29  S   UNL     1      -3.661   4.613 -33.264  1.00  0.00    -0.067 SA
HETATM   30  C   UNL     1      -2.236   5.407 -32.715  1.00  0.00     0.035 A 
HETATM   31  C   UNL     1      -1.707   4.692 -31.641  1.00  0.00     0.075 A 
HETATM   32  C   UNL     1      -1.627   6.576 -33.199  1.00  0.00     0.021 A 
HETATM   33  N   UNL     1      -2.404   3.549 -31.290  1.00  0.00    -0.239 NA
HETATM   34  C   UNL     1      -0.533   5.167 -31.021  1.00  0.00     0.033 A 
HETATM   35  C   UNL     1       0.079   6.332 -31.491  1.00  0.00     0.002 A 
HETATM   36  C   UNL     1      -0.461   7.025 -32.570  1.00  0.00     0.002 A 
ENDBRANCH  23  28
BRANCH  24  37
HETATM   37  O   UNL     1      -2.613   0.726 -32.675  1.00  0.00    -0.359 OA
HETATM   38  H   UNL     1      -2.622   0.003 -33.339  1.00  0.00     0.218 HD
ENDBRANCH  24  37
ENDBRANCH   1  21
TORSDOF 10
ENDMDL
