MODEL 1
REMARK VINA RESULT:      -7.3      0.000      0.000
REMARK  4 active torsions:
REMARK  status: ('A' for Active; 'I' for Inactive)
REMARK    1  A    between atoms: O_2  and  C_3 
REMARK    2  A    between atoms: C_5  and  C_6 
REMARK    3  A    between atoms: C_10  and  N_11 
REMARK    4  A    between atoms: C_14  and  C_15 
ROOT
HETATM    1  C   UNL     1      -9.034   1.045 -31.994  1.00  0.00     0.164 C 
HETATM    2  N   UNL     1      -9.929   1.576 -33.018  1.00  0.00    -0.074 N 
HETATM    3  C   UNL     1     -10.108   2.907 -33.274  1.00  0.00     0.736 A 
HETATM    4  N   UNL     1     -10.954   3.036 -34.264  1.00  0.00     0.131 NA
HETATM    5  C   UNL     1     -11.314   1.748 -34.533  1.00  0.00     0.753 A 
HETATM    6  N   UNL     1     -10.710   0.812 -33.803  1.00  0.00     0.037 NA
HETATM    7  N   UNL     1      -9.474   3.853 -32.559  1.00  0.00    -0.214 N 
HETATM    8  C   UNL     1      -8.546   3.522 -31.488  1.00  0.00     0.135 C 
HETATM    9  C   UNL     1      -8.864   2.126 -30.904  1.00  0.00     0.063 C 
HETATM   10  H   UNL     1      -9.548   4.826 -32.839  1.00  0.00     0.178 HD
ENDROOT
BRANCH   1  11
HETATM   11  C   UNL     1      -7.713   0.500 -32.542  1.00  0.00    -0.030 A 
HETATM   12  C   UNL     1      -6.675   0.019 -31.718  1.00  0.00     0.046 A 
HETATM   13  C   UNL     1      -5.493  -0.494 -32.261  1.00  0.00     0.068 A 
HETATM   14  C   UNL     1      -5.334  -0.524 -33.645  1.00  0.00     0.037 A 
HETATM   15  C   UNL     1      -6.331  -0.029 -34.481  1.00  0.00     0.003 A 
HETATM   16  C   UNL     1      -7.505   0.486 -33.934  1.00  0.00     0.009 A 
BRANCH  13  17
HETATM   17  O   UNL     1      -4.435  -0.997 -31.553  1.00  0.00    -0.356 OA
HETATM   18  C   UNL     1      -3.432  -0.072 -31.152  1.00  0.00     0.210 C 
ENDBRANCH  13  17
ENDBRANCH   1  11
BRANCH   8  19
HETATM   19  C   UNL     1      -7.089   3.701 -31.887  1.00  0.00    -0.035 A 
HETATM   20  C   UNL     1      -6.686   4.036 -33.190  1.00  0.00     0.010 A 
HETATM   21  C   UNL     1      -5.332   4.142 -33.519  1.00  0.00     0.019 A 
HETATM   22  C   UNL     1      -4.363   3.927 -32.544  1.00  0.00     0.011 A 
HETATM   23 BR   UNL     1      -2.531   4.057 -32.991  1.00  0.00    -0.051 Br
HETATM   24  C   UNL     1      -4.735   3.616 -31.240  1.00  0.00     0.019 A 
HETATM   25  C   UNL     1      -6.090   3.506 -30.914  1.00  0.00     0.010 A 
ENDBRANCH   8  19
BRANCH   5  26
HETATM   26  N   UNL     1     -12.194   1.522 -35.501  1.00  0.00    -0.229 N 
HETATM   27  H   UNL     1     -12.647   0.618 -35.512  1.00  0.00     0.174 HD
HETATM   28  H   UNL     1     -12.766   2.299 -35.801  1.00  0.00     0.174 HD
ENDBRANCH   5  26
TORSDOF 4
ENDMDL
MODEL 2
REMARK VINA RESULT:      -6.9      1.647      2.360
REMARK  4 active torsions:
REMARK  status: ('A' for Active; 'I' for Inactive)
REMARK    1  A    between atoms: O_2  and  C_3 
REMARK    2  A    between atoms: C_5  and  C_6 
REMARK    3  A    between atoms: C_10  and  N_11 
REMARK    4  A    between atoms: C_14  and  C_15 
ROOT
HETATM    1  C   UNL     1      -7.321   2.095 -30.747  1.00  0.00     0.164 C 
HETATM    2  N   UNL     1      -8.470   1.842 -31.610  1.00  0.00    -0.074 N 
HETATM    3  C   UNL     1      -9.065   2.785 -32.402  1.00  0.00     0.736 A 
HETATM    4  N   UNL     1     -10.045   2.223 -33.063  1.00  0.00     0.131 NA
HETATM    5  C   UNL     1     -10.049   0.946 -32.584  1.00  0.00     0.753 A 
HETATM    6  N   UNL     1      -9.100   0.656 -31.696  1.00  0.00     0.037 NA
HETATM    7  N   UNL     1      -8.638   4.060 -32.421  1.00  0.00    -0.214 N 
HETATM    8  C   UNL     1      -7.509   4.509 -31.621  1.00  0.00     0.135 C 
HETATM    9  C   UNL     1      -7.318   3.597 -30.386  1.00  0.00     0.063 C 
HETATM   10  H   UNL     1      -9.031   4.710 -33.095  1.00  0.00     0.178 HD
ENDROOT
BRANCH   1  11
HETATM   11  C   UNL     1      -5.993   1.586 -31.310  1.00  0.00    -0.030 A 
HETATM   12  C   UNL     1      -5.908   0.643 -32.355  1.00  0.00     0.046 A 
HETATM   13  C   UNL     1      -4.672   0.223 -32.857  1.00  0.00     0.068 A 
HETATM   14  C   UNL     1      -3.500   0.740 -32.308  1.00  0.00     0.037 A 
HETATM   15  C   UNL     1      -3.555   1.651 -31.257  1.00  0.00     0.003 A 
HETATM   16  C   UNL     1      -4.790   2.062 -30.757  1.00  0.00     0.009 A 
BRANCH  13  17
HETATM   17  O   UNL     1      -4.480  -0.672 -33.874  1.00  0.00    -0.356 OA
HETATM   18  C   UNL     1      -4.280  -2.031 -33.506  1.00  0.00     0.210 C 
ENDBRANCH  13  17
ENDBRANCH   1  11
BRANCH   8  19
HETATM   19  C   UNL     1      -6.240   4.706 -32.438  1.00  0.00    -0.035 A 
HETATM   20  C   UNL     1      -6.118   4.296 -33.776  1.00  0.00     0.010 A 
HETATM   21  C   UNL     1      -4.915   4.455 -34.469  1.00  0.00     0.019 A 
HETATM   22  C   UNL     1      -3.822   5.039 -33.837  1.00  0.00     0.011 A 
HETATM   23 BR   UNL     1      -2.192   5.243 -34.771  1.00  0.00    -0.051 Br
HETATM   24  C   UNL     1      -3.923   5.475 -32.520  1.00  0.00     0.019 A 
HETATM   25  C   UNL     1      -5.125   5.310 -31.826  1.00  0.00     0.010 A 
ENDBRANCH   8  19
BRANCH   5  26
HETATM   26  N   UNL     1     -10.956   0.094 -33.049  1.00  0.00    -0.229 N 
HETATM   27  H   UNL     1     -11.043   0.016 -34.054  1.00  0.00     0.174 HD
HETATM   28  H   UNL     1     -11.100  -0.761 -32.531  1.00  0.00     0.174 HD
ENDBRANCH   5  26
TORSDOF 4
ENDMDL
MODEL 3
REMARK VINA RESULT:      -6.9      3.288      5.142
REMARK  4 active torsions:
REMARK  status: ('A' for Active; 'I' for Inactive)
REMARK    1  A    between atoms: O_2  and  C_3 
REMARK    2  A    between atoms: C_5  and  C_6 
REMARK    3  A    between atoms: C_10  and  N_11 
REMARK    4  A    between atoms: C_14  and  C_15 
ROOT
HETATM    1  C   UNL     1      -8.091   3.373 -30.770  1.00  0.00     0.164 C 
HETATM    2  N   UNL     1      -7.618   4.586 -31.429  1.00  0.00    -0.074 N 
HETATM    3  C   UNL     1      -6.333   4.786 -31.851  1.00  0.00     0.736 A 
HETATM    4  N   UNL     1      -6.254   5.961 -32.420  1.00  0.00     0.131 NA
HETATM    5  C   UNL     1      -7.510   6.468 -32.259  1.00  0.00     0.753 A 
HETATM    6  N   UNL     1      -8.388   5.663 -31.664  1.00  0.00     0.037 NA
HETATM    7  N   UNL     1      -5.376   3.861 -31.657  1.00  0.00    -0.214 N 
HETATM    8  C   UNL     1      -5.651   2.588 -31.008  1.00  0.00     0.135 C 
HETATM    9  C   UNL     1      -6.882   2.704 -30.079  1.00  0.00     0.063 C 
HETATM   10  H   UNL     1      -4.459   3.994 -32.072  1.00  0.00     0.178 HD
ENDROOT
BRANCH   1  11
HETATM   11  C   UNL     1      -8.885   2.436 -31.682  1.00  0.00    -0.030 A 
HETATM   12  C   UNL     1      -9.566   2.875 -32.837  1.00  0.00     0.046 A 
HETATM   13  C   UNL     1     -10.260   1.980 -33.657  1.00  0.00     0.068 A 
HETATM   14  C   UNL     1     -10.288   0.628 -33.323  1.00  0.00     0.037 A 
HETATM   15  C   UNL     1      -9.648   0.172 -32.174  1.00  0.00     0.003 A 
HETATM   16  C   UNL     1      -8.962   1.069 -31.356  1.00  0.00     0.009 A 
BRANCH  13  17
HETATM   17  O   UNL     1     -10.938   2.300 -34.802  1.00  0.00    -0.356 OA
HETATM   18  C   UNL     1     -12.167   1.623 -35.032  1.00  0.00     0.210 C 
ENDBRANCH  13  17
ENDBRANCH   1  11
BRANCH   8  19
HETATM   19  C   UNL     1      -5.730   1.425 -31.987  1.00  0.00    -0.035 A 
HETATM   20  C   UNL     1      -6.059   1.586 -33.343  1.00  0.00     0.010 A 
HETATM   21  C   UNL     1      -6.167   0.482 -34.192  1.00  0.00     0.019 A 
HETATM   22  C   UNL     1      -5.934  -0.798 -33.698  1.00  0.00     0.011 A 
HETATM   23 BR   UNL     1      -6.092  -2.293 -34.844  1.00  0.00    -0.051 Br
HETATM   24  C   UNL     1      -5.585  -0.983 -32.365  1.00  0.00     0.019 A 
HETATM   25  C   UNL     1      -5.482   0.122 -31.516  1.00  0.00     0.010 A 
ENDBRANCH   8  19
BRANCH   5  26
HETATM   26  N   UNL     1      -7.770   7.684 -32.724  1.00  0.00    -0.229 N 
HETATM   27  H   UNL     1      -6.989   8.319 -32.821  1.00  0.00     0.174 HD
HETATM   28  H   UNL     1      -8.490   7.770 -33.428  1.00  0.00     0.174 HD
ENDBRANCH   5  26
TORSDOF 4
ENDMDL
MODEL 4
REMARK VINA RESULT:      -6.9      6.440      9.119
REMARK  4 active torsions:
REMARK  status: ('A' for Active; 'I' for Inactive)
REMARK    1  A    between atoms: O_2  and  C_3 
REMARK    2  A    between atoms: C_5  and  C_6 
REMARK    3  A    between atoms: C_10  and  N_11 
REMARK    4  A    between atoms: C_14  and  C_15 
ROOT
HETATM    1  C   UNL     1      -2.283   7.106 -31.685  1.00  0.00     0.164 C 
HETATM    2  N   UNL     1      -2.739   5.720 -31.704  1.00  0.00    -0.074 N 
HETATM    3  C   UNL     1      -1.925   4.636 -31.527  1.00  0.00     0.736 A 
HETATM    4  N   UNL     1      -2.652   3.549 -31.577  1.00  0.00     0.131 NA
HETATM    5  C   UNL     1      -3.900   4.025 -31.856  1.00  0.00     0.753 A 
HETATM    6  N   UNL     1      -4.011   5.349 -31.937  1.00  0.00     0.037 NA
HETATM    7  N   UNL     1      -0.599   4.773 -31.345  1.00  0.00    -0.214 N 
HETATM    8  C   UNL     1       0.045   6.076 -31.303  1.00  0.00     0.135 C 
HETATM    9  C   UNL     1      -0.789   7.122 -32.079  1.00  0.00     0.063 C 
HETATM   10  H   UNL     1      -0.039   3.958 -31.113  1.00  0.00     0.178 HD
ENDROOT
BRANCH   1  11
HETATM   11  C   UNL     1      -2.592   7.846 -30.382  1.00  0.00    -0.030 A 
HETATM   12  C   UNL     1      -2.998   7.193 -29.200  1.00  0.00     0.046 A 
HETATM   13  C   UNL     1      -3.247   7.906 -28.023  1.00  0.00     0.068 A 
HETATM   14  C   UNL     1      -3.100   9.292 -28.020  1.00  0.00     0.037 A 
HETATM   15  C   UNL     1      -2.728   9.965 -29.180  1.00  0.00     0.003 A 
HETATM   16  C   UNL     1      -2.486   9.249 -30.352  1.00  0.00     0.009 A 
BRANCH  13  17
HETATM   17  O   UNL     1      -3.629   7.369 -26.824  1.00  0.00    -0.356 OA
HETATM   18  C   UNL     1      -2.634   7.285 -25.811  1.00  0.00     0.210 C 
ENDBRANCH  13  17
ENDBRANCH   1  11
BRANCH   8  19
HETATM   19  C   UNL     1       0.416   6.513 -29.893  1.00  0.00    -0.035 A 
HETATM   20  C   UNL     1       0.353   5.655 -28.784  1.00  0.00     0.010 A 
HETATM   21  C   UNL     1       0.658   6.116 -27.500  1.00  0.00     0.019 A 
HETATM   22  C   UNL     1       1.042   7.440 -27.312  1.00  0.00     0.011 A 
HETATM   23 BR   UNL     1       1.442   8.067 -25.575  1.00  0.00    -0.051 Br
HETATM   24  C   UNL     1       1.135   8.305 -28.397  1.00  0.00     0.019 A 
HETATM   25  C   UNL     1       0.825   7.843 -29.680  1.00  0.00     0.010 A 
ENDBRANCH   8  19
BRANCH   5  26
HETATM   26  N   UNL     1      -4.897   3.158 -31.990  1.00  0.00    -0.229 N 
HETATM   27  H   UNL     1      -4.671   2.250 -32.374  1.00  0.00     0.174 HD
HETATM   28  H   UNL     1      -5.617   3.164 -31.282  1.00  0.00     0.174 HD
ENDBRANCH   5  26
TORSDOF 4
ENDMDL
MODEL 5
REMARK VINA RESULT:      -6.7      4.407      6.155
REMARK  4 active torsions:
REMARK  status: ('A' for Active; 'I' for Inactive)
REMARK    1  A    between atoms: O_2  and  C_3 
REMARK    2  A    between atoms: C_5  and  C_6 
REMARK    3  A    between atoms: C_10  and  N_11 
REMARK    4  A    between atoms: C_14  and  C_15 
ROOT
HETATM    1  C   UNL     1      -4.068  -0.998 -34.053  1.00  0.00     0.164 C 
HETATM    2  N   UNL     1      -3.857  -2.297 -33.422  1.00  0.00    -0.074 N 
HETATM    3  C   UNL     1      -3.270  -2.478 -32.200  1.00  0.00     0.736 A 
HETATM    4  N   UNL     1      -3.260  -3.756 -31.921  1.00  0.00     0.131 NA
HETATM    5  C   UNL     1      -3.795  -4.321 -33.042  1.00  0.00     0.753 A 
HETATM    6  N   UNL     1      -4.184  -3.472 -33.991  1.00  0.00     0.037 NA
HETATM    7  N   UNL     1      -2.805  -1.440 -31.482  1.00  0.00    -0.214 N 
HETATM    8  C   UNL     1      -2.915  -0.066 -31.948  1.00  0.00     0.135 C 
HETATM    9  C   UNL     1      -3.013  -0.020 -33.491  1.00  0.00     0.063 C 
HETATM   10  H   UNL     1      -2.470  -1.595 -30.537  1.00  0.00     0.178 HD
ENDROOT
BRANCH   1  11
HETATM   11  C   UNL     1      -5.506  -0.486 -33.960  1.00  0.00    -0.030 A 
HETATM   12  C   UNL     1      -5.851   0.877 -34.087  1.00  0.00     0.046 A 
HETATM   13  C   UNL     1      -7.182   1.299 -34.020  1.00  0.00     0.068 A 
HETATM   14  C   UNL     1      -8.188   0.358 -33.816  1.00  0.00     0.037 A 
HETATM   15  C   UNL     1      -7.874  -0.989 -33.659  1.00  0.00     0.003 A 
HETATM   16  C   UNL     1      -6.544  -1.405 -33.721  1.00  0.00     0.009 A 
BRANCH  13  17
HETATM   17  O   UNL     1      -7.622   2.589 -34.145  1.00  0.00    -0.356 OA
HETATM   18  C   UNL     1      -6.695   3.619 -33.827  1.00  0.00     0.210 C 
ENDBRANCH  13  17
ENDBRANCH   1  11
BRANCH   8  19
HETATM   19  C   UNL     1      -4.012   0.717 -31.241  1.00  0.00    -0.035 A 
HETATM   20  C   UNL     1      -5.086   0.102 -30.577  1.00  0.00     0.010 A 
HETATM   21  C   UNL     1      -6.096   0.864 -29.984  1.00  0.00     0.019 A 
HETATM   22  C   UNL     1      -6.037   2.254 -30.037  1.00  0.00     0.011 A 
HETATM   23 BR   UNL     1      -7.410   3.285 -29.246  1.00  0.00    -0.051 Br
HETATM   24  C   UNL     1      -4.973   2.888 -30.669  1.00  0.00     0.019 A 
HETATM   25  C   UNL     1      -3.967   2.123 -31.266  1.00  0.00     0.010 A 
ENDBRANCH   8  19
BRANCH   5  26
HETATM   26  N   UNL     1      -3.915  -5.643 -33.093  1.00  0.00    -0.229 N 
HETATM   27  H   UNL     1      -3.129  -6.165 -33.455  1.00  0.00     0.174 HD
HETATM   28  H   UNL     1      -4.431  -6.092 -32.349  1.00  0.00     0.174 HD
ENDBRANCH   5  26
TORSDOF 4
ENDMDL
MODEL 6
REMARK VINA RESULT:      -6.7      4.929      6.913
REMARK  4 active torsions:
REMARK  status: ('A' for Active; 'I' for Inactive)
REMARK    1  A    between atoms: O_2  and  C_3 
REMARK    2  A    between atoms: C_5  and  C_6 
REMARK    3  A    between atoms: C_10  and  N_11 
REMARK    4  A    between atoms: C_14  and  C_15 
ROOT
HETATM    1  C   UNL     1      -2.298   3.961 -32.673  1.00  0.00     0.164 C 
HETATM    2  N   UNL     1      -1.713   4.916 -31.737  1.00  0.00    -0.074 N 
HETATM    3  C   UNL     1      -1.980   6.257 -31.732  1.00  0.00     0.736 A 
HETATM    4  N   UNL     1      -1.314   6.816 -30.754  1.00  0.00     0.131 NA
HETATM    5  C   UNL     1      -0.600   5.778 -30.232  1.00  0.00     0.753 A 
HETATM    6  N   UNL     1      -0.812   4.589 -30.793  1.00  0.00     0.037 NA
HETATM    7  N   UNL     1      -2.805   6.814 -32.636  1.00  0.00    -0.214 N 
HETATM    8  C   UNL     1      -3.478   6.027 -33.657  1.00  0.00     0.135 C 
HETATM    9  C   UNL     1      -2.689   4.731 -33.954  1.00  0.00     0.063 C 
HETATM   10  H   UNL     1      -3.064   7.792 -32.542  1.00  0.00     0.178 HD
ENDROOT
BRANCH   1  11
HETATM   11  C   UNL     1      -3.429   3.120 -32.081  1.00  0.00    -0.030 A 
HETATM   12  C   UNL     1      -3.845   1.889 -32.629  1.00  0.00     0.046 A 
HETATM   13  C   UNL     1      -4.869   1.139 -32.041  1.00  0.00     0.068 A 
HETATM   14  C   UNL     1      -5.497   1.621 -30.894  1.00  0.00     0.037 A 
HETATM   15  C   UNL     1      -5.125   2.846 -30.348  1.00  0.00     0.003 A 
HETATM   16  C   UNL     1      -4.108   3.593 -30.942  1.00  0.00     0.009 A 
BRANCH  13  17
HETATM   17  O   UNL     1      -5.336  -0.069 -32.483  1.00  0.00    -0.356 OA
HETATM   18  C   UNL     1      -4.416  -0.896 -33.185  1.00  0.00     0.210 C 
ENDBRANCH  13  17
ENDBRANCH   1  11
BRANCH   8  19
HETATM   19  C   UNL     1      -4.951   5.791 -33.354  1.00  0.00    -0.035 A 
HETATM   20  C   UNL     1      -5.649   6.490 -32.356  1.00  0.00     0.010 A 
HETATM   21  C   UNL     1      -6.989   6.203 -32.081  1.00  0.00     0.019 A 
HETATM   22  C   UNL     1      -7.652   5.221 -32.811  1.00  0.00     0.011 A 
HETATM   23 BR   UNL     1      -9.460   4.824 -32.431  1.00  0.00    -0.051 Br
HETATM   24  C   UNL     1      -6.989   4.529 -33.820  1.00  0.00     0.019 A 
HETATM   25  C   UNL     1      -5.648   4.814 -34.089  1.00  0.00     0.010 A 
ENDBRANCH   8  19
BRANCH   5  26
HETATM   26  N   UNL     1       0.210   6.014 -29.207  1.00  0.00    -0.229 N 
HETATM   27  H   UNL     1       0.584   5.211 -28.719  1.00  0.00     0.174 HD
HETATM   28  H   UNL     1       0.831   6.808 -29.278  1.00  0.00     0.174 HD
ENDBRANCH   5  26
TORSDOF 4
ENDMDL
MODEL 7
REMARK VINA RESULT:      -6.7      5.659      7.542
REMARK  4 active torsions:
REMARK  status: ('A' for Active; 'I' for Inactive)
REMARK    1  A    between atoms: O_2  and  C_3 
REMARK    2  A    between atoms: C_5  and  C_6 
REMARK    3  A    between atoms: C_10  and  N_11 
REMARK    4  A    between atoms: C_14  and  C_15 
ROOT
HETATM    1  C   UNL     1      -2.036   5.635 -32.371  1.00  0.00     0.164 C 
HETATM    2  N   UNL     1      -1.161   5.525 -31.209  1.00  0.00    -0.074 N 
HETATM    3  C   UNL     1      -1.256   6.309 -30.092  1.00  0.00     0.736 A 
HETATM    4  N   UNL     1      -0.341   5.935 -29.235  1.00  0.00     0.131 NA
HETATM    5  C   UNL     1       0.333   4.958 -29.908  1.00  0.00     0.753 A 
HETATM    6  N   UNL     1      -0.133   4.662 -31.120  1.00  0.00     0.037 NA
HETATM    7  N   UNL     1      -2.174   7.287 -29.995  1.00  0.00    -0.214 N 
HETATM    8  C   UNL     1      -3.132   7.557 -31.055  1.00  0.00     0.135 C 
HETATM    9  C   UNL     1      -2.584   7.078 -32.420  1.00  0.00     0.063 C 
HETATM   10  H   UNL     1      -2.287   7.781 -29.115  1.00  0.00     0.178 HD
ENDROOT
BRANCH   1  11
HETATM   11  C   UNL     1      -3.117   4.555 -32.442  1.00  0.00    -0.030 A 
HETATM   12  C   UNL     1      -3.149   3.436 -31.583  1.00  0.00     0.046 A 
HETATM   13  C   UNL     1      -4.170   2.484 -31.667  1.00  0.00     0.068 A 
HETATM   14  C   UNL     1      -5.172   2.638 -32.622  1.00  0.00     0.037 A 
HETATM   15  C   UNL     1      -5.149   3.718 -33.501  1.00  0.00     0.003 A 
HETATM   16  C   UNL     1      -4.126   4.661 -33.418  1.00  0.00     0.009 A 
BRANCH  13  17
HETATM   17  O   UNL     1      -4.301   1.375 -30.875  1.00  0.00    -0.356 OA
HETATM   18  C   UNL     1      -3.455   0.271 -31.169  1.00  0.00     0.210 C 
ENDBRANCH  13  17
ENDBRANCH   1  11
BRANCH   8  19
HETATM   19  C   UNL     1      -4.529   7.041 -30.741  1.00  0.00    -0.035 A 
HETATM   20  C   UNL     1      -4.807   6.192 -29.658  1.00  0.00     0.010 A 
HETATM   21  C   UNL     1      -6.099   5.705 -29.439  1.00  0.00     0.019 A 
HETATM   22  C   UNL     1      -7.132   6.072 -30.295  1.00  0.00     0.011 A 
HETATM   23 BR   UNL     1      -8.877   5.403 -30.007  1.00  0.00    -0.051 Br
HETATM   24  C   UNL     1      -6.889   6.929 -31.363  1.00  0.00     0.019 A 
HETATM   25  C   UNL     1      -5.595   7.411 -31.583  1.00  0.00     0.010 A 
ENDBRANCH   8  19
BRANCH   5  26
HETATM   26  N   UNL     1       1.358   4.363 -29.309  1.00  0.00    -0.229 N 
HETATM   27  H   UNL     1       1.519   3.389 -29.527  1.00  0.00     0.174 HD
HETATM   28  H   UNL     1       2.188   4.917 -29.150  1.00  0.00     0.174 HD
ENDBRANCH   5  26
TORSDOF 4
ENDMDL
MODEL 8
REMARK VINA RESULT:      -6.6      4.136      6.540
REMARK  4 active torsions:
REMARK  status: ('A' for Active; 'I' for Inactive)
REMARK    1  A    between atoms: O_2  and  C_3 
REMARK    2  A    between atoms: C_5  and  C_6 
REMARK    3  A    between atoms: C_10  and  N_11 
REMARK    4  A    between atoms: C_14  and  C_15 
ROOT
HETATM    1  C   UNL     1      -5.531   6.445 -30.574  1.00  0.00     0.164 C 
HETATM    2  N   UNL     1      -5.320   6.367 -29.131  1.00  0.00    -0.074 N 
HETATM    3  C   UNL     1      -5.884   5.424 -28.317  1.00  0.00     0.736 A 
HETATM    4  N   UNL     1      -5.471   5.624 -27.092  1.00  0.00     0.131 NA
HETATM    5  C   UNL     1      -4.706   6.748 -27.202  1.00  0.00     0.753 A 
HETATM    6  N   UNL     1      -4.574   7.241 -28.432  1.00  0.00     0.037 NA
HETATM    7  N   UNL     1      -6.722   4.489 -28.798  1.00  0.00    -0.214 N 
HETATM    8  C   UNL     1      -7.063   4.408 -30.210  1.00  0.00     0.135 C 
HETATM    9  C   UNL     1      -6.891   5.785 -30.892  1.00  0.00     0.063 C 
HETATM   10  H   UNL     1      -7.042   3.742 -28.189  1.00  0.00     0.178 HD
ENDROOT
BRANCH   1  11
HETATM   11  C   UNL     1      -4.366   5.903 -31.404  1.00  0.00    -0.030 A 
HETATM   12  C   UNL     1      -3.175   5.406 -30.834  1.00  0.00     0.046 A 
HETATM   13  C   UNL     1      -2.144   4.898 -31.629  1.00  0.00     0.068 A 
HETATM   14  C   UNL     1      -2.291   4.889 -33.015  1.00  0.00     0.037 A 
HETATM   15  C   UNL     1      -3.444   5.400 -33.606  1.00  0.00     0.003 A 
HETATM   16  C   UNL     1      -4.467   5.911 -32.808  1.00  0.00     0.009 A 
BRANCH  13  17
HETATM   17  O   UNL     1      -0.961   4.380 -31.177  1.00  0.00    -0.356 OA
HETATM   18  C   UNL     1      -0.179   5.210 -30.328  1.00  0.00     0.210 C 
ENDBRANCH  13  17
ENDBRANCH   1  11
BRANCH   8  19
HETATM   19  C   UNL     1      -6.349   3.274 -30.931  1.00  0.00    -0.035 A 
HETATM   20  C   UNL     1      -6.584   2.954 -32.279  1.00  0.00     0.010 A 
HETATM   21  C   UNL     1      -5.938   1.872 -32.883  1.00  0.00     0.019 A 
HETATM   22  C   UNL     1      -5.039   1.104 -32.151  1.00  0.00     0.011 A 
HETATM   23 BR   UNL     1      -4.175  -0.367 -32.965  1.00  0.00    -0.051 Br
HETATM   24  C   UNL     1      -4.771   1.413 -30.821  1.00  0.00     0.019 A 
HETATM   25  C   UNL     1      -5.421   2.493 -30.217  1.00  0.00     0.010 A 
ENDBRANCH   8  19
BRANCH   5  26
HETATM   26  N   UNL     1      -4.135   7.239 -26.109  1.00  0.00    -0.229 N 
HETATM   27  H   UNL     1      -3.296   7.790 -26.233  1.00  0.00     0.174 HD
HETATM   28  H   UNL     1      -4.744   7.537 -25.359  1.00  0.00     0.174 HD
ENDBRANCH   5  26
TORSDOF 4
ENDMDL
MODEL 9
REMARK VINA RESULT:      -6.6      3.933      6.028
REMARK  4 active torsions:
REMARK  status: ('A' for Active; 'I' for Inactive)
REMARK    1  A    between atoms: O_2  and  C_3 
REMARK    2  A    between atoms: C_5  and  C_6 
REMARK    3  A    between atoms: C_10  and  N_11 
REMARK    4  A    between atoms: C_14  and  C_15 
ROOT
HETATM    1  C   UNL     1      -5.731   3.675 -31.068  1.00  0.00     0.164 C 
HETATM    2  N   UNL     1      -4.564   4.377 -31.592  1.00  0.00    -0.074 N 
HETATM    3  C   UNL     1      -3.307   3.843 -31.660  1.00  0.00     0.736 A 
HETATM    4  N   UNL     1      -2.503   4.723 -32.201  1.00  0.00     0.131 NA
HETATM    5  C   UNL     1      -3.311   5.808 -32.383  1.00  0.00     0.753 A 
HETATM    6  N   UNL     1      -4.585   5.648 -32.032  1.00  0.00     0.037 NA
HETATM    7  N   UNL     1      -3.042   2.604 -31.210  1.00  0.00    -0.214 N 
HETATM    8  C   UNL     1      -4.075   1.750 -30.644  1.00  0.00     0.135 C 
HETATM    9  C   UNL     1      -5.234   2.601 -30.075  1.00  0.00     0.063 C 
HETATM   10  H   UNL     1      -2.125   2.198 -31.369  1.00  0.00     0.178 HD
ENDROOT
BRANCH   1  11
HETATM   11  C   UNL     1      -6.673   3.139 -32.147  1.00  0.00    -0.030 A 
HETATM   12  C   UNL     1      -8.025   2.817 -31.903  1.00  0.00     0.046 A 
HETATM   13  C   UNL     1      -8.858   2.353 -32.925  1.00  0.00     0.068 A 
HETATM   14  C   UNL     1      -8.341   2.196 -34.210  1.00  0.00     0.037 A 
HETATM   15  C   UNL     1      -7.004   2.479 -34.472  1.00  0.00     0.003 A 
HETATM   16  C   UNL     1      -6.175   2.937 -33.448  1.00  0.00     0.009 A 
BRANCH  13  17
HETATM   17  O   UNL     1     -10.181   2.028 -32.798  1.00  0.00    -0.356 OA
HETATM   18  C   UNL     1     -10.780   1.334 -33.885  1.00  0.00     0.210 C 
ENDBRANCH  13  17
ENDBRANCH   1  11
BRANCH   8  19
HETATM   19  C   UNL     1      -4.530   0.654 -31.596  1.00  0.00    -0.035 A 
HETATM   20  C   UNL     1      -3.764   0.224 -32.692  1.00  0.00     0.010 A 
HETATM   21  C   UNL     1      -4.247  -0.752 -33.568  1.00  0.00     0.019 A 
HETATM   22  C   UNL     1      -5.498  -1.321 -33.350  1.00  0.00     0.011 A 
HETATM   23 BR   UNL     1      -6.157  -2.633 -34.541  1.00  0.00    -0.051 Br
HETATM   24  C   UNL     1      -6.268  -0.930 -32.259  1.00  0.00     0.019 A 
HETATM   25  C   UNL     1      -5.785   0.051 -31.388  1.00  0.00     0.010 A 
ENDBRANCH   8  19
BRANCH   5  26
HETATM   26  N   UNL     1      -2.789   6.908 -32.913  1.00  0.00    -0.229 N 
HETATM   27  H   UNL     1      -2.222   6.797 -33.743  1.00  0.00     0.174 HD
HETATM   28  H   UNL     1      -3.344   7.752 -32.875  1.00  0.00     0.174 HD
ENDBRANCH   5  26
TORSDOF 4
ENDMDL
MODEL 10
REMARK VINA RESULT:      -6.6      2.361      4.564
REMARK  4 active torsions:
REMARK  status: ('A' for Active; 'I' for Inactive)
REMARK    1  A    between atoms: O_2  and  C_3 
REMARK    2  A    between atoms: C_5  and  C_6 
REMARK    3  A    between atoms: C_10  and  N_11 
REMARK    4  A    between atoms: C_14  and  C_15 
ROOT
HETATM    1  C   UNL     1      -8.341   3.943 -33.372  1.00  0.00     0.164 C 
HETATM    2  N   UNL     1      -9.113   4.192 -32.159  1.00  0.00    -0.074 N 
HETATM    3  C   UNL     1      -9.624   3.213 -31.352  1.00  0.00     0.736 A 
HETATM    4  N   UNL     1     -10.237   3.776 -30.343  1.00  0.00     0.131 NA
HETATM    5  C   UNL     1     -10.128   5.108 -30.618  1.00  0.00     0.753 A 
HETATM    6  N   UNL     1      -9.443   5.419 -31.716  1.00  0.00     0.037 NA
HETATM    7  N   UNL     1      -9.471   1.910 -31.644  1.00  0.00    -0.214 N 
HETATM    8  C   UNL     1      -8.738   1.460 -32.818  1.00  0.00     0.135 C 
HETATM    9  C   UNL     1      -8.740   2.552 -33.913  1.00  0.00     0.063 C 
HETATM   10  H   UNL     1      -9.771   1.208 -30.974  1.00  0.00     0.178 HD
ENDROOT
BRANCH   1  11
HETATM   11  C   UNL     1      -6.833   4.136 -33.202  1.00  0.00    -0.030 A 
HETATM   12  C   UNL     1      -5.967   4.441 -34.274  1.00  0.00     0.046 A 
HETATM   13  C   UNL     1      -4.598   4.634 -34.070  1.00  0.00     0.068 A 
HETATM   14  C   UNL     1      -4.074   4.515 -32.785  1.00  0.00     0.037 A 
HETATM   15  C   UNL     1      -4.901   4.187 -31.714  1.00  0.00     0.003 A 
HETATM   16  C   UNL     1      -6.266   3.990 -31.923  1.00  0.00     0.009 A 
BRANCH  13  17
HETATM   17  O   UNL     1      -3.678   4.947 -35.035  1.00  0.00    -0.356 OA
HETATM   18  C   UNL     1      -2.428   5.457 -34.590  1.00  0.00     0.210 C 
ENDBRANCH  13  17
ENDBRANCH   1  11
BRANCH   8  19
HETATM   19  C   UNL     1      -7.350   0.929 -32.486  1.00  0.00    -0.035 A 
HETATM   20  C   UNL     1      -6.922   0.670 -31.174  1.00  0.00     0.010 A 
HETATM   21  C   UNL     1      -5.621   0.228 -30.917  1.00  0.00     0.019 A 
HETATM   22  C   UNL     1      -4.736   0.028 -31.971  1.00  0.00     0.011 A 
HETATM   23 BR   UNL     1      -2.973  -0.557 -31.622  1.00  0.00    -0.051 Br
HETATM   24  C   UNL     1      -5.142   0.256 -33.282  1.00  0.00     0.019 A 
HETATM   25  C   UNL     1      -6.441   0.702 -33.537  1.00  0.00     0.010 A 
ENDBRANCH   8  19
BRANCH   5  26
HETATM   26  N   UNL     1     -10.672   5.978 -29.776  1.00  0.00    -0.229 N 
HETATM   27  H   UNL     1     -10.730   5.707 -28.804  1.00  0.00     0.174 HD
HETATM   28  H   UNL     1     -10.498   6.959 -29.944  1.00  0.00     0.174 HD
ENDBRANCH   5  26
TORSDOF 4
ENDMDL
