MODEL 1
REMARK VINA RESULT:      -8.1      0.000      0.000
REMARK  6 active torsions:
REMARK  status: ('A' for Active; 'I' for Inactive)
REMARK    1  A    between atoms: C_2  and  O_3 
REMARK    2  A    between atoms: O_3  and  C_4 
REMARK    3  A    between atoms: C_8  and  C_9 
REMARK    4  A    between atoms: C_9  and  N_10 
REMARK       I    between atoms: N_10  and  C_11 
REMARK       I    between atoms: C_11  and  N_12 
REMARK    5  A    between atoms: N_12  and  C_13 
REMARK    6  A    between atoms: C_14  and  C_15 
ROOT
HETATM    1  N   UNL     1      -6.008   4.027 -33.915  1.00  0.00    -0.339 N 
HETATM    2  C   UNL     1      -6.864   3.522 -32.974  1.00  0.00     0.316 C 
HETATM    3  N   UNL     1      -7.339   2.280 -33.319  1.00  0.00    -0.338 N 
HETATM    4  O   UNL     1      -7.168   4.113 -31.946  1.00  0.00    -0.247 OA
HETATM    5  H   UNL     1      -5.860   3.522 -34.774  1.00  0.00     0.164 HD
HETATM    6  H   UNL     1      -6.839   1.775 -34.037  1.00  0.00     0.164 HD
ENDROOT
BRANCH   1   7
HETATM    7  C   UNL     1      -5.413   5.338 -33.781  1.00  0.00     0.163 C 
BRANCH   7   8
HETATM    8  C   UNL     1      -3.907   5.289 -33.789  1.00  0.00    -0.035 A 
HETATM    9  C   UNL     1      -3.175   5.365 -34.977  1.00  0.00     0.028 A 
HETATM   10  C   UNL     1      -1.795   5.252 -34.918  1.00  0.00     0.120 A 
HETATM   11  N   UNL     1      -1.104   5.049 -33.777  1.00  0.00    -0.237 NA
HETATM   12  C   UNL     1      -1.823   4.942 -32.646  1.00  0.00     0.165 A 
HETATM   13  C   UNL     1      -3.204   5.069 -32.600  1.00  0.00     0.066 A 
BRANCH  12  14
HETATM   14  O   UNL     1      -1.203   4.714 -31.439  1.00  0.00    -0.324 OA
BRANCH  14  15
HETATM   15  C   UNL     1      -0.664   5.822 -30.693  1.00  0.00     0.058 C 
HETATM   16  C   UNL     1      -1.727   6.522 -29.836  1.00  0.00     0.045 C 
HETATM   17  C   UNL     1       0.123   6.811 -31.569  1.00  0.00     0.045 C 
HETATM   18  C   UNL     1       0.343   5.158 -29.733  1.00  0.00     0.045 C 
ENDBRANCH  14  15
ENDBRANCH  12  14
ENDBRANCH   7   8
ENDBRANCH   1   7
BRANCH   3  19
HETATM   19  C   UNL     1      -8.191   1.513 -32.454  1.00  0.00     0.095 A 
HETATM   20  C   UNL     1      -7.997   0.025 -32.237  1.00  0.00     0.043 A 
HETATM   21  C   UNL     1      -9.166   0.538 -33.043  1.00  0.00     0.037 A 
BRANCH  20  22
HETATM   22  C   UNL     1      -6.870  -0.724 -32.910  1.00  0.00    -0.052 A 
HETATM   23  C   UNL     1      -5.579  -0.744 -32.354  1.00  0.00     0.007 A 
HETATM   24  C   UNL     1      -4.532  -1.437 -32.966  1.00  0.00     0.001 A 
HETATM   25  C   UNL     1      -4.758  -2.138 -34.147  1.00  0.00     0.000 A 
HETATM   26  C   UNL     1      -6.030  -2.148 -34.711  1.00  0.00     0.001 A 
HETATM   27  C   UNL     1      -7.073  -1.451 -34.095  1.00  0.00     0.007 A 
ENDBRANCH  20  22
ENDBRANCH   3  19
TORSDOF 6
ENDMDL
MODEL 2
REMARK VINA RESULT:      -7.9      2.549      9.017
REMARK  6 active torsions:
REMARK  status: ('A' for Active; 'I' for Inactive)
REMARK    1  A    between atoms: C_2  and  O_3 
REMARK    2  A    between atoms: O_3  and  C_4 
REMARK    3  A    between atoms: C_8  and  C_9 
REMARK    4  A    between atoms: C_9  and  N_10 
REMARK       I    between atoms: N_10  and  C_11 
REMARK       I    between atoms: C_11  and  N_12 
REMARK    5  A    between atoms: N_12  and  C_13 
REMARK    6  A    between atoms: C_14  and  C_15 
ROOT
HETATM    1  N   UNL     1      -3.465   3.757 -31.215  1.00  0.00    -0.339 N 
HETATM    2  C   UNL     1      -2.374   4.255 -31.875  1.00  0.00     0.316 C 
HETATM    3  N   UNL     1      -1.507   4.903 -31.029  1.00  0.00    -0.338 N 
HETATM    4  O   UNL     1      -2.197   4.135 -33.081  1.00  0.00    -0.247 OA
HETATM    5  H   UNL     1      -3.586   3.956 -30.235  1.00  0.00     0.164 HD
HETATM    6  H   UNL     1      -1.605   4.723 -30.039  1.00  0.00     0.164 HD
ENDROOT
BRANCH   1   7
HETATM    7  C   UNL     1      -4.529   3.067 -31.909  1.00  0.00     0.163 C 
BRANCH   7   8
HETATM    8  C   UNL     1      -4.410   1.570 -31.802  1.00  0.00    -0.035 A 
HETATM    9  C   UNL     1      -3.276   0.960 -31.259  1.00  0.00     0.028 A 
HETATM   10  C   UNL     1      -3.206  -0.425 -31.247  1.00  0.00     0.120 A 
HETATM   11  N   UNL     1      -4.162  -1.233 -31.752  1.00  0.00    -0.237 NA
HETATM   12  C   UNL     1      -5.231  -0.632 -32.304  1.00  0.00     0.165 A 
HETATM   13  C   UNL     1      -5.404   0.744 -32.337  1.00  0.00     0.066 A 
BRANCH  12  14
HETATM   14  O   UNL     1      -6.244  -1.376 -32.861  1.00  0.00    -0.324 OA
BRANCH  14  15
HETATM   15  C   UNL     1      -6.200  -1.709 -34.261  1.00  0.00     0.058 C 
HETATM   16  C   UNL     1      -4.790  -2.100 -34.725  1.00  0.00     0.045 C 
HETATM   17  C   UNL     1      -6.829  -0.629 -35.157  1.00  0.00     0.045 C 
HETATM   18  C   UNL     1      -7.088  -2.965 -34.365  1.00  0.00     0.045 C 
ENDBRANCH  14  15
ENDBRANCH  12  14
ENDBRANCH   7   8
ENDBRANCH   1   7
BRANCH   3  19
HETATM   19  C   UNL     1      -0.253   5.442 -31.474  1.00  0.00     0.095 A 
HETATM   20  C   UNL     1       0.553   6.416 -30.638  1.00  0.00     0.043 A 
HETATM   21  C   UNL     1      -0.165   6.882 -31.882  1.00  0.00     0.037 A 
BRANCH  20  22
HETATM   22  C   UNL     1       0.079   6.852 -29.271  1.00  0.00    -0.052 A 
HETATM   23  C   UNL     1       0.446   6.139 -28.115  1.00  0.00     0.007 A 
HETATM   24  C   UNL     1       0.018   6.537 -26.847  1.00  0.00     0.001 A 
HETATM   25  C   UNL     1      -0.780   7.668 -26.705  1.00  0.00     0.000 A 
HETATM   26  C   UNL     1      -1.144   8.402 -27.829  1.00  0.00     0.001 A 
HETATM   27  C   UNL     1      -0.715   7.998 -29.097  1.00  0.00     0.007 A 
ENDBRANCH  20  22
ENDBRANCH   3  19
TORSDOF 6
ENDMDL
MODEL 3
REMARK VINA RESULT:      -7.7      1.906      2.534
REMARK  6 active torsions:
REMARK  status: ('A' for Active; 'I' for Inactive)
REMARK    1  A    between atoms: C_2  and  O_3 
REMARK    2  A    between atoms: O_3  and  C_4 
REMARK    3  A    between atoms: C_8  and  C_9 
REMARK    4  A    between atoms: C_9  and  N_10 
REMARK       I    between atoms: N_10  and  C_11 
REMARK       I    between atoms: C_11  and  N_12 
REMARK    5  A    between atoms: N_12  and  C_13 
REMARK    6  A    between atoms: C_14  and  C_15 
ROOT
HETATM    1  N   UNL     1      -4.016   3.568 -32.853  1.00  0.00    -0.339 N 
HETATM    2  C   UNL     1      -4.585   2.878 -31.816  1.00  0.00     0.316 C 
HETATM    3  N   UNL     1      -5.958   2.930 -31.851  1.00  0.00    -0.338 N 
HETATM    4  O   UNL     1      -3.941   2.286 -30.959  1.00  0.00    -0.247 OA
HETATM    5  H   UNL     1      -4.602   4.095 -33.479  1.00  0.00     0.164 HD
HETATM    6  H   UNL     1      -6.389   3.211 -32.721  1.00  0.00     0.164 HD
ENDROOT
BRANCH   1   7
HETATM    7  C   UNL     1      -2.582   3.681 -32.998  1.00  0.00     0.163 C 
BRANCH   7   8
HETATM    8  C   UNL     1      -2.091   5.087 -32.772  1.00  0.00    -0.035 A 
HETATM    9  C   UNL     1      -2.554   6.159 -33.539  1.00  0.00     0.028 A 
HETATM   10  C   UNL     1      -2.015   7.417 -33.320  1.00  0.00     0.120 A 
HETATM   11  N   UNL     1      -1.043   7.674 -32.419  1.00  0.00    -0.237 NA
HETATM   12  C   UNL     1      -0.581   6.627 -31.714  1.00  0.00     0.165 A 
HETATM   13  C   UNL     1      -1.077   5.338 -31.842  1.00  0.00     0.066 A 
BRANCH  12  14
HETATM   14  O   UNL     1       0.423   6.792 -30.788  1.00  0.00    -0.324 OA
BRANCH  14  15
HETATM   15  C   UNL     1       0.112   6.744 -29.382  1.00  0.00     0.058 C 
HETATM   16  C   UNL     1       0.635   5.466 -28.712  1.00  0.00     0.045 C 
HETATM   17  C   UNL     1      -1.376   6.991 -29.085  1.00  0.00     0.045 C 
HETATM   18  C   UNL     1       0.900   7.932 -28.794  1.00  0.00     0.045 C 
ENDBRANCH  14  15
ENDBRANCH  12  14
ENDBRANCH   7   8
ENDBRANCH   1   7
BRANCH   3  19
HETATM   19  C   UNL     1      -6.781   2.218 -30.914  1.00  0.00     0.095 A 
HETATM   20  C   UNL     1      -7.366   0.854 -31.222  1.00  0.00     0.043 A 
HETATM   21  C   UNL     1      -8.251   2.076 -31.172  1.00  0.00     0.037 A 
BRANCH  20  22
HETATM   22  C   UNL     1      -7.087   0.162 -32.537  1.00  0.00    -0.052 A 
HETATM   23  C   UNL     1      -7.898   0.391 -33.663  1.00  0.00     0.007 A 
HETATM   24  C   UNL     1      -7.646  -0.239 -34.884  1.00  0.00     0.001 A 
HETATM   25  C   UNL     1      -6.566  -1.108 -35.007  1.00  0.00     0.000 A 
HETATM   26  C   UNL     1      -5.738  -1.342 -33.914  1.00  0.00     0.001 A 
HETATM   27  C   UNL     1      -5.996  -0.709 -32.694  1.00  0.00     0.007 A 
ENDBRANCH  20  22
ENDBRANCH   3  19
TORSDOF 6
ENDMDL
MODEL 4
REMARK VINA RESULT:      -7.6      2.134      8.359
REMARK  6 active torsions:
REMARK  status: ('A' for Active; 'I' for Inactive)
REMARK    1  A    between atoms: C_2  and  O_3 
REMARK    2  A    between atoms: O_3  and  C_4 
REMARK    3  A    between atoms: C_8  and  C_9 
REMARK    4  A    between atoms: C_9  and  N_10 
REMARK       I    between atoms: N_10  and  C_11 
REMARK       I    between atoms: C_11  and  N_12 
REMARK    5  A    between atoms: N_12  and  C_13 
REMARK    6  A    between atoms: C_14  and  C_15 
ROOT
HETATM    1  N   UNL     1      -4.520   3.951 -30.646  1.00  0.00    -0.339 N 
HETATM    2  C   UNL     1      -3.435   3.685 -31.438  1.00  0.00     0.316 C 
HETATM    3  N   UNL     1      -2.993   4.802 -32.104  1.00  0.00    -0.338 N 
HETATM    4  O   UNL     1      -2.923   2.577 -31.538  1.00  0.00    -0.247 OA
HETATM    5  H   UNL     1      -4.938   4.867 -30.668  1.00  0.00     0.164 HD
HETATM    6  H   UNL     1      -3.306   5.700 -31.761  1.00  0.00     0.164 HD
ENDROOT
BRANCH   1   7
HETATM    7  C   UNL     1      -5.178   2.917 -29.879  1.00  0.00     0.163 C 
BRANCH   7   8
HETATM    8  C   UNL     1      -6.282   2.243 -30.651  1.00  0.00    -0.035 A 
HETATM    9  C   UNL     1      -7.577   2.768 -30.690  1.00  0.00     0.028 A 
HETATM   10  C   UNL     1      -8.560   2.066 -31.369  1.00  0.00     0.120 A 
HETATM   11  N   UNL     1      -8.354   0.882 -31.982  1.00  0.00    -0.237 NA
HETATM   12  C   UNL     1      -7.112   0.370 -31.905  1.00  0.00     0.165 A 
HETATM   13  C   UNL     1      -6.057   1.012 -31.275  1.00  0.00     0.066 A 
BRANCH  12  14
HETATM   14  O   UNL     1      -6.815  -0.842 -32.485  1.00  0.00    -0.324 OA
BRANCH  14  15
HETATM   15  C   UNL     1      -6.203  -0.879 -33.787  1.00  0.00     0.058 C 
HETATM   16  C   UNL     1      -4.680  -1.055 -33.712  1.00  0.00     0.045 C 
HETATM   17  C   UNL     1      -6.610   0.305 -34.679  1.00  0.00     0.045 C 
HETATM   18  C   UNL     1      -6.786  -2.155 -34.427  1.00  0.00     0.045 C 
ENDBRANCH  14  15
ENDBRANCH  12  14
ENDBRANCH   7   8
ENDBRANCH   1   7
BRANCH   3  19
HETATM   19  C   UNL     1      -1.821   4.792 -32.934  1.00  0.00     0.095 A 
HETATM   20  C   UNL     1      -0.492   5.351 -32.466  1.00  0.00     0.043 A 
HETATM   21  C   UNL     1      -1.306   6.077 -33.509  1.00  0.00     0.037 A 
BRANCH  20  22
HETATM   22  C   UNL     1      -0.331   5.930 -31.079  1.00  0.00    -0.052 A 
HETATM   23  C   UNL     1      -0.779   7.229 -30.779  1.00  0.00     0.007 A 
HETATM   24  C   UNL     1      -0.639   7.771 -29.499  1.00  0.00     0.001 A 
HETATM   25  C   UNL     1      -0.056   7.017 -28.485  1.00  0.00     0.000 A 
HETATM   26  C   UNL     1       0.381   5.723 -28.749  1.00  0.00     0.001 A 
HETATM   27  C   UNL     1       0.241   5.187 -30.032  1.00  0.00     0.007 A 
ENDBRANCH  20  22
ENDBRANCH   3  19
TORSDOF 6
ENDMDL
MODEL 5
REMARK VINA RESULT:      -7.3      2.654      8.728
REMARK  6 active torsions:
REMARK  status: ('A' for Active; 'I' for Inactive)
REMARK    1  A    between atoms: C_2  and  O_3 
REMARK    2  A    between atoms: O_3  and  C_4 
REMARK    3  A    between atoms: C_8  and  C_9 
REMARK    4  A    between atoms: C_9  and  N_10 
REMARK       I    between atoms: N_10  and  C_11 
REMARK       I    between atoms: C_11  and  N_12 
REMARK    5  A    between atoms: N_12  and  C_13 
REMARK    6  A    between atoms: C_14  and  C_15 
ROOT
HETATM    1  N   UNL     1      -4.284   3.400 -30.457  1.00  0.00    -0.339 N 
HETATM    2  C   UNL     1      -3.463   3.443 -31.552  1.00  0.00     0.316 C 
HETATM    3  N   UNL     1      -2.656   4.556 -31.551  1.00  0.00    -0.338 N 
HETATM    4  O   UNL     1      -3.453   2.588 -32.427  1.00  0.00    -0.247 OA
HETATM    5  H   UNL     1      -4.295   4.175 -29.814  1.00  0.00     0.164 HD
HETATM    6  H   UNL     1      -2.552   5.052 -30.676  1.00  0.00     0.164 HD
ENDROOT
BRANCH   1   7
HETATM    7  C   UNL     1      -5.246   2.338 -30.266  1.00  0.00     0.163 C 
BRANCH   7   8
HETATM    8  C   UNL     1      -6.643   2.751 -30.647  1.00  0.00    -0.035 A 
HETATM    9  C   UNL     1      -7.510   3.346 -29.726  1.00  0.00     0.028 A 
HETATM   10  C   UNL     1      -8.803   3.645 -30.127  1.00  0.00     0.120 A 
HETATM   11  N   UNL     1      -9.293   3.378 -31.355  1.00  0.00    -0.237 NA
HETATM   12  C   UNL     1      -8.459   2.773 -32.219  1.00  0.00     0.165 A 
HETATM   13  C   UNL     1      -7.141   2.460 -31.921  1.00  0.00     0.066 A 
BRANCH  12  14
HETATM   14  O   UNL     1      -8.879   2.445 -33.487  1.00  0.00    -0.324 OA
BRANCH  14  15
HETATM   15  C   UNL     1      -9.307   1.100 -33.772  1.00  0.00     0.058 C 
HETATM   16  C   UNL     1      -9.517   0.271 -32.496  1.00  0.00     0.045 C 
HETATM   17  C   UNL     1      -8.406   0.383 -34.791  1.00  0.00     0.045 C 
HETATM   18  C   UNL     1     -10.687   1.289 -34.433  1.00  0.00     0.045 C 
ENDBRANCH  14  15
ENDBRANCH  12  14
ENDBRANCH   7   8
ENDBRANCH   1   7
BRANCH   3  19
HETATM   19  C   UNL     1      -1.654   4.783 -32.555  1.00  0.00     0.095 A 
HETATM   20  C   UNL     1      -0.334   5.459 -32.243  1.00  0.00     0.043 A 
HETATM   21  C   UNL     1      -1.393   6.176 -33.044  1.00  0.00     0.037 A 
BRANCH  20  22
HETATM   22  C   UNL     1       0.004   5.908 -30.840  1.00  0.00    -0.052 A 
HETATM   23  C   UNL     1       0.509   5.003 -29.890  1.00  0.00     0.007 A 
HETATM   24  C   UNL     1       0.829   5.409 -28.593  1.00  0.00     0.001 A 
HETATM   25  C   UNL     1       0.660   6.739 -28.220  1.00  0.00     0.000 A 
HETATM   26  C   UNL     1       0.177   7.661 -29.144  1.00  0.00     0.001 A 
HETATM   27  C   UNL     1      -0.143   7.247 -30.440  1.00  0.00     0.007 A 
ENDBRANCH  20  22
ENDBRANCH   3  19
TORSDOF 6
ENDMDL
MODEL 6
REMARK VINA RESULT:      -7.3      1.997      8.341
REMARK  6 active torsions:
REMARK  status: ('A' for Active; 'I' for Inactive)
REMARK    1  A    between atoms: C_2  and  O_3 
REMARK    2  A    between atoms: O_3  and  C_4 
REMARK    3  A    between atoms: C_8  and  C_9 
REMARK    4  A    between atoms: C_9  and  N_10 
REMARK       I    between atoms: N_10  and  C_11 
REMARK       I    between atoms: C_11  and  N_12 
REMARK    5  A    between atoms: N_12  and  C_13 
REMARK    6  A    between atoms: C_14  and  C_15 
ROOT
HETATM    1  N   UNL     1      -3.892   3.755 -31.154  1.00  0.00    -0.339 N 
HETATM    2  C   UNL     1      -3.005   4.244 -32.075  1.00  0.00     0.316 C 
HETATM    3  N   UNL     1      -3.049   5.615 -32.159  1.00  0.00    -0.338 N 
HETATM    4  O   UNL     1      -2.261   3.538 -32.743  1.00  0.00    -0.247 OA
HETATM    5  H   UNL     1      -4.528   4.385 -30.693  1.00  0.00     0.164 HD
HETATM    6  H   UNL     1      -3.493   6.112 -31.399  1.00  0.00     0.164 HD
ENDROOT
BRANCH   1   7
HETATM    7  C   UNL     1      -4.046   2.336 -30.921  1.00  0.00     0.163 C 
BRANCH   7   8
HETATM    8  C   UNL     1      -4.953   1.683 -31.930  1.00  0.00    -0.035 A 
HETATM    9  C   UNL     1      -4.547   0.571 -32.673  1.00  0.00     0.028 A 
HETATM   10  C   UNL     1      -5.410   0.057 -33.629  1.00  0.00     0.120 A 
HETATM   11  N   UNL     1      -6.623   0.579 -33.908  1.00  0.00    -0.237 NA
HETATM   12  C   UNL     1      -6.986   1.670 -33.211  1.00  0.00     0.165 A 
HETATM   13  C   UNL     1      -6.205   2.239 -32.216  1.00  0.00     0.066 A 
BRANCH  12  14
HETATM   14  O   UNL     1      -8.197   2.280 -33.443  1.00  0.00    -0.324 OA
BRANCH  14  15
HETATM   15  C   UNL     1      -9.354   1.881 -32.685  1.00  0.00     0.058 C 
HETATM   16  C   UNL     1      -9.824   2.976 -31.715  1.00  0.00     0.045 C 
HETATM   17  C   UNL     1      -9.179   0.522 -31.988  1.00  0.00     0.045 C 
HETATM   18  C   UNL     1     -10.450   1.710 -33.756  1.00  0.00     0.045 C 
ENDBRANCH  14  15
ENDBRANCH  12  14
ENDBRANCH   7   8
ENDBRANCH   1   7
BRANCH   3  19
HETATM   19  C   UNL     1      -2.157   6.366 -32.997  1.00  0.00     0.095 A 
HETATM   20  C   UNL     1      -0.788   6.815 -32.527  1.00  0.00     0.043 A 
HETATM   21  C   UNL     1      -1.904   7.815 -32.706  1.00  0.00     0.037 A 
BRANCH  20  22
HETATM   22  C   UNL     1      -0.283   6.468 -31.145  1.00  0.00    -0.052 A 
HETATM   23  C   UNL     1       0.384   5.255 -30.900  1.00  0.00     0.007 A 
HETATM   24  C   UNL     1       0.860   4.928 -29.628  1.00  0.00     0.001 A 
HETATM   25  C   UNL     1       0.687   5.817 -28.571  1.00  0.00     0.000 A 
HETATM   26  C   UNL     1       0.044   7.032 -28.788  1.00  0.00     0.001 A 
HETATM   27  C   UNL     1      -0.431   7.353 -30.063  1.00  0.00     0.007 A 
ENDBRANCH  20  22
ENDBRANCH   3  19
TORSDOF 6
ENDMDL
MODEL 7
REMARK VINA RESULT:      -7.2      4.826      7.453
REMARK  6 active torsions:
REMARK  status: ('A' for Active; 'I' for Inactive)
REMARK    1  A    between atoms: C_2  and  O_3 
REMARK    2  A    between atoms: O_3  and  C_4 
REMARK    3  A    between atoms: C_8  and  C_9 
REMARK    4  A    between atoms: C_9  and  N_10 
REMARK       I    between atoms: N_10  and  C_11 
REMARK       I    between atoms: C_11  and  N_12 
REMARK    5  A    between atoms: N_12  and  C_13 
REMARK    6  A    between atoms: C_14  and  C_15 
ROOT
HETATM    1  N   UNL     1      -7.383   0.532 -31.399  1.00  0.00    -0.339 N 
HETATM    2  C   UNL     1      -6.092   0.719 -31.815  1.00  0.00     0.316 C 
HETATM    3  N   UNL     1      -5.397  -0.464 -31.892  1.00  0.00    -0.338 N 
HETATM    4  O   UNL     1      -5.617   1.814 -32.084  1.00  0.00    -0.247 OA
HETATM    5  H   UNL     1      -7.687  -0.387 -31.121  1.00  0.00     0.164 HD
HETATM    6  H   UNL     1      -5.936  -1.319 -31.905  1.00  0.00     0.164 HD
ENDROOT
BRANCH   1   7
HETATM    7  C   UNL     1      -8.292   1.641 -31.210  1.00  0.00     0.163 C 
BRANCH   7   8
HETATM    8  C   UNL     1      -9.333   1.722 -32.295  1.00  0.00    -0.035 A 
HETATM    9  C   UNL     1     -10.037   0.594 -32.725  1.00  0.00     0.028 A 
HETATM   10  C   UNL     1     -10.937   0.728 -33.771  1.00  0.00     0.120 A 
HETATM   11  N   UNL     1     -11.165   1.886 -34.425  1.00  0.00    -0.237 NA
HETATM   12  C   UNL     1     -10.455   2.956 -34.025  1.00  0.00     0.165 A 
HETATM   13  C   UNL     1      -9.554   2.927 -32.971  1.00  0.00     0.066 A 
BRANCH  12  14
HETATM   14  O   UNL     1     -10.609   4.173 -34.647  1.00  0.00    -0.324 OA
BRANCH  14  15
HETATM   15  C   UNL     1     -11.787   4.961 -34.393  1.00  0.00     0.058 C 
HETATM   16  C   UNL     1     -12.464   4.590 -33.067  1.00  0.00     0.045 C 
HETATM   17  C   UNL     1     -12.775   4.964 -35.571  1.00  0.00     0.045 C 
HETATM   18  C   UNL     1     -11.241   6.396 -34.250  1.00  0.00     0.045 C 
ENDBRANCH  14  15
ENDBRANCH  12  14
ENDBRANCH   7   8
ENDBRANCH   1   7
BRANCH   3  19
HETATM   19  C   UNL     1      -4.047  -0.535 -32.378  1.00  0.00     0.095 A 
HETATM   20  C   UNL     1      -3.603  -1.577 -33.385  1.00  0.00     0.043 A 
HETATM   21  C   UNL     1      -3.158  -1.662 -31.945  1.00  0.00     0.037 A 
BRANCH  20  22
HETATM   22  C   UNL     1      -4.576  -2.587 -33.948  1.00  0.00    -0.052 A 
HETATM   23  C   UNL     1      -4.264  -3.958 -33.977  1.00  0.00     0.007 A 
HETATM   24  C   UNL     1      -5.158  -4.900 -34.490  1.00  0.00     0.001 A 
HETATM   25  C   UNL     1      -6.396  -4.489 -34.977  1.00  0.00     0.000 A 
HETATM   26  C   UNL     1      -6.738  -3.141 -34.947  1.00  0.00     0.001 A 
HETATM   27  C   UNL     1      -5.838  -2.203 -34.434  1.00  0.00     0.007 A 
ENDBRANCH  20  22
ENDBRANCH   3  19
TORSDOF 6
ENDMDL
MODEL 8
REMARK VINA RESULT:      -7.2     16.769     18.662
REMARK  6 active torsions:
REMARK  status: ('A' for Active; 'I' for Inactive)
REMARK    1  A    between atoms: C_2  and  O_3 
REMARK    2  A    between atoms: O_3  and  C_4 
REMARK    3  A    between atoms: C_8  and  C_9 
REMARK    4  A    between atoms: C_9  and  N_10 
REMARK       I    between atoms: N_10  and  C_11 
REMARK       I    between atoms: C_11  and  N_12 
REMARK    5  A    between atoms: N_12  and  C_13 
REMARK    6  A    between atoms: C_14  and  C_15 
ROOT
HETATM    1  N   UNL     1      -5.689 -13.171 -36.038  1.00  0.00    -0.339 N 
HETATM    2  C   UNL     1      -5.121 -12.718 -37.198  1.00  0.00     0.316 C 
HETATM    3  N   UNL     1      -6.041 -12.597 -38.212  1.00  0.00    -0.338 N 
HETATM    4  O   UNL     1      -3.932 -12.452 -37.313  1.00  0.00    -0.247 OA
HETATM    5  H   UNL     1      -6.659 -13.443 -36.032  1.00  0.00     0.164 HD
HETATM    6  H   UNL     1      -7.018 -12.586 -37.953  1.00  0.00     0.164 HD
ENDROOT
BRANCH   1   7
HETATM    7  C   UNL     1      -4.905 -13.410 -34.846  1.00  0.00     0.163 C 
BRANCH   7   8
HETATM    8  C   UNL     1      -5.587 -14.350 -33.888  1.00  0.00    -0.035 A 
HETATM    9  C   UNL     1      -6.779 -15.001 -34.220  1.00  0.00     0.028 A 
HETATM   10  C   UNL     1      -7.386 -15.806 -33.269  1.00  0.00     0.120 A 
HETATM   11  N   UNL     1      -6.908 -15.988 -32.019  1.00  0.00    -0.237 NA
HETATM   12  C   UNL     1      -5.781 -15.327 -31.702  1.00  0.00     0.165 A 
HETATM   13  C   UNL     1      -5.086 -14.523 -32.594  1.00  0.00     0.066 A 
BRANCH  12  14
HETATM   14  O   UNL     1      -5.233 -15.437 -30.445  1.00  0.00    -0.324 OA
BRANCH  14  15
HETATM   15  C   UNL     1      -4.962 -16.741 -29.896  1.00  0.00     0.058 C 
HETATM   16  C   UNL     1      -4.474 -17.733 -30.961  1.00  0.00     0.045 C 
HETATM   17  C   UNL     1      -6.130 -17.302 -29.069  1.00  0.00     0.045 C 
HETATM   18  C   UNL     1      -3.791 -16.491 -28.925  1.00  0.00     0.045 C 
ENDBRANCH  14  15
ENDBRANCH  12  14
ENDBRANCH   7   8
ENDBRANCH   1   7
BRANCH   3  19
HETATM   19  C   UNL     1      -5.700 -12.065 -39.502  1.00  0.00     0.095 A 
HETATM   20  C   UNL     1      -6.646 -12.141 -40.684  1.00  0.00     0.043 A 
HETATM   21  C   UNL     1      -5.405 -12.999 -40.637  1.00  0.00     0.037 A 
BRANCH  20  22
HETATM   22  C   UNL     1      -8.016 -12.765 -40.552  1.00  0.00    -0.052 A 
HETATM   23  C   UNL     1      -8.203 -14.148 -40.726  1.00  0.00     0.007 A 
HETATM   24  C   UNL     1      -9.464 -14.736 -40.601  1.00  0.00     0.001 A 
HETATM   25  C   UNL     1     -10.569 -13.949 -40.287  1.00  0.00     0.000 A 
HETATM   26  C   UNL     1     -10.411 -12.580 -40.094  1.00  0.00     0.001 A 
HETATM   27  C   UNL     1      -9.146 -11.998 -40.223  1.00  0.00     0.007 A 
ENDBRANCH  20  22
ENDBRANCH   3  19
TORSDOF 6
ENDMDL
MODEL 9
REMARK VINA RESULT:      -7.1      2.482      3.527
REMARK  6 active torsions:
REMARK  status: ('A' for Active; 'I' for Inactive)
REMARK    1  A    between atoms: C_2  and  O_3 
REMARK    2  A    between atoms: O_3  and  C_4 
REMARK    3  A    between atoms: C_8  and  C_9 
REMARK    4  A    between atoms: C_9  and  N_10 
REMARK       I    between atoms: N_10  and  C_11 
REMARK       I    between atoms: C_11  and  N_12 
REMARK    5  A    between atoms: N_12  and  C_13 
REMARK    6  A    between atoms: C_14  and  C_15 
ROOT
HETATM    1  N   UNL     1      -4.220   3.825 -32.672  1.00  0.00    -0.339 N 
HETATM    2  C   UNL     1      -3.974   2.573 -32.175  1.00  0.00     0.316 C 
HETATM    3  N   UNL     1      -4.944   2.166 -31.291  1.00  0.00    -0.338 N 
HETATM    4  O   UNL     1      -3.000   1.900 -32.485  1.00  0.00    -0.247 OA
HETATM    5  H   UNL     1      -5.000   4.355 -32.317  1.00  0.00     0.164 HD
HETATM    6  H   UNL     1      -5.821   2.667 -31.302  1.00  0.00     0.164 HD
ENDROOT
BRANCH   1   7
HETATM    7  C   UNL     1      -3.314   4.474 -33.592  1.00  0.00     0.163 C 
BRANCH   7   8
HETATM    8  C   UNL     1      -2.434   5.490 -32.912  1.00  0.00    -0.035 A 
HETATM    9  C   UNL     1      -1.193   5.142 -32.371  1.00  0.00     0.028 A 
HETATM   10  C   UNL     1      -0.462   6.113 -31.705  1.00  0.00     0.120 A 
HETATM   11  N   UNL     1      -0.883   7.382 -31.522  1.00  0.00    -0.237 NA
HETATM   12  C   UNL     1      -2.094   7.693 -32.017  1.00  0.00     0.165 A 
HETATM   13  C   UNL     1      -2.887   6.799 -32.722  1.00  0.00     0.066 A 
BRANCH  12  14
HETATM   14  O   UNL     1      -2.613   8.957 -31.860  1.00  0.00    -0.324 OA
BRANCH  14  15
HETATM   15  C   UNL     1      -3.140   9.360 -30.582  1.00  0.00     0.058 C 
HETATM   16  C   UNL     1      -2.389  10.562 -29.992  1.00  0.00     0.045 C 
HETATM   17  C   UNL     1      -3.251   8.196 -29.583  1.00  0.00     0.045 C 
HETATM   18  C   UNL     1      -4.573   9.822 -30.908  1.00  0.00     0.045 C 
ENDBRANCH  14  15
ENDBRANCH  12  14
ENDBRANCH   7   8
ENDBRANCH   1   7
BRANCH   3  19
HETATM   19  C   UNL     1      -4.946   0.858 -30.697  1.00  0.00     0.095 A 
HETATM   20  C   UNL     1      -5.730  -0.298 -31.287  1.00  0.00     0.043 A 
HETATM   21  C   UNL     1      -6.177   0.358 -30.003  1.00  0.00     0.037 A 
BRANCH  20  22
HETATM   22  C   UNL     1      -6.535  -0.132 -32.555  1.00  0.00    -0.052 A 
HETATM   23  C   UNL     1      -7.891   0.237 -32.510  1.00  0.00     0.007 A 
HETATM   24  C   UNL     1      -8.643   0.399 -33.676  1.00  0.00     0.001 A 
HETATM   25  C   UNL     1      -8.047   0.204 -34.919  1.00  0.00     0.000 A 
HETATM   26  C   UNL     1      -6.703  -0.146 -34.994  1.00  0.00     0.001 A 
HETATM   27  C   UNL     1      -5.956  -0.308 -33.824  1.00  0.00     0.007 A 
ENDBRANCH  20  22
ENDBRANCH   3  19
TORSDOF 6
ENDMDL
MODEL 10
REMARK VINA RESULT:      -7.1      4.207      7.476
REMARK  6 active torsions:
REMARK  status: ('A' for Active; 'I' for Inactive)
REMARK    1  A    between atoms: C_2  and  O_3 
REMARK    2  A    between atoms: O_3  and  C_4 
REMARK    3  A    between atoms: C_8  and  C_9 
REMARK    4  A    between atoms: C_9  and  N_10 
REMARK       I    between atoms: N_10  and  C_11 
REMARK       I    between atoms: C_11  and  N_12 
REMARK    5  A    between atoms: N_12  and  C_13 
REMARK    6  A    between atoms: C_14  and  C_15 
ROOT
HETATM    1  N   UNL     1      -7.423   3.488 -33.687  1.00  0.00    -0.339 N 
HETATM    2  C   UNL     1      -6.900   3.091 -32.486  1.00  0.00     0.316 C 
HETATM    3  N   UNL     1      -6.481   1.783 -32.510  1.00  0.00    -0.338 N 
HETATM    4  O   UNL     1      -6.818   3.821 -31.507  1.00  0.00    -0.247 OA
HETATM    5  H   UNL     1      -7.530   2.815 -34.429  1.00  0.00     0.164 HD
HETATM    6  H   UNL     1      -6.350   1.354 -33.416  1.00  0.00     0.164 HD
ENDROOT
BRANCH   1   7
HETATM    7  C   UNL     1      -7.960   4.816 -33.885  1.00  0.00     0.163 C 
BRANCH   7   8
HETATM    8  C   UNL     1      -9.431   4.798 -34.210  1.00  0.00    -0.035 A 
HETATM    9  C   UNL     1     -10.031   5.813 -34.959  1.00  0.00     0.028 A 
HETATM   10  C   UNL     1     -11.400   5.767 -35.169  1.00  0.00     0.120 A 
HETATM   11  N   UNL     1     -12.207   4.805 -34.673  1.00  0.00    -0.237 NA
HETATM   12  C   UNL     1     -11.622   3.854 -33.923  1.00  0.00     0.165 A 
HETATM   13  C   UNL     1     -10.257   3.800 -33.681  1.00  0.00     0.066 A 
BRANCH  12  14
HETATM   14  O   UNL     1     -12.369   2.846 -33.360  1.00  0.00    -0.324 OA
BRANCH  14  15
HETATM   15  C   UNL     1     -12.644   1.653 -34.118  1.00  0.00     0.058 C 
HETATM   16  C   UNL     1     -11.925   0.421 -33.550  1.00  0.00     0.045 C 
HETATM   17  C   UNL     1     -12.400   1.826 -35.625  1.00  0.00     0.045 C 
HETATM   18  C   UNL     1     -14.158   1.437 -33.921  1.00  0.00     0.045 C 
ENDBRANCH  14  15
ENDBRANCH  12  14
ENDBRANCH   7   8
ENDBRANCH   1   7
BRANCH   3  19
HETATM   19  C   UNL     1      -5.826   1.162 -31.393  1.00  0.00     0.095 A 
HETATM   20  C   UNL     1      -5.325  -0.268 -31.440  1.00  0.00     0.043 A 
HETATM   21  C   UNL     1      -6.535   0.095 -30.614  1.00  0.00     0.037 A 
BRANCH  20  22
HETATM   22  C   UNL     1      -5.471  -1.108 -32.688  1.00  0.00    -0.052 A 
HETATM   23  C   UNL     1      -4.367  -1.781 -33.242  1.00  0.00     0.007 A 
HETATM   24  C   UNL     1      -4.492  -2.564 -34.391  1.00  0.00     0.001 A 
HETATM   25  C   UNL     1      -5.733  -2.701 -35.007  1.00  0.00     0.000 A 
HETATM   26  C   UNL     1      -6.845  -2.059 -34.472  1.00  0.00     0.001 A 
HETATM   27  C   UNL     1      -6.713  -1.275 -33.322  1.00  0.00     0.007 A 
ENDBRANCH  20  22
ENDBRANCH   3  19
TORSDOF 6
ENDMDL
