MODEL 1
REMARK VINA RESULT:     -10.0      0.000      0.000
REMARK  7 active torsions:
REMARK  status: ('A' for Active; 'I' for Inactive)
REMARK    1  A    between atoms: N_7  and  C_8 
REMARK    2  A    between atoms: C_8  and  C_9 
REMARK       I    between atoms: C_9  and  N_10 
REMARK    3  A    between atoms: N_10  and  C_11 
REMARK    4  A    between atoms: C_11  and  C_12 
REMARK    5  A    between atoms: C_12  and  C_13 
REMARK    6  A    between atoms: C_12  and  C_23 
REMARK    7  A    between atoms: C_26  and  O_27 
ROOT
HETATM    1  C   UNL     1      -7.503   2.304 -31.813  1.00  0.00     0.136 C 
ENDROOT
BRANCH   1   2
HETATM    2  N   UNL     1      -7.014   3.670 -31.907  1.00  0.00    -0.359 N 
HETATM    3  C   UNL     1      -7.299   4.595 -30.924  1.00  0.00     0.236 C 
HETATM    4  O   UNL     1      -7.964   4.326 -29.927  1.00  0.00    -0.272 OA
HETATM    5  H   UNL     1      -6.387   3.928 -32.672  1.00  0.00     0.162 HD
BRANCH   3   6
HETATM    6  C   UNL     1      -6.750   5.992 -31.189  1.00  0.00     0.239 C 
BRANCH   6   7
HETATM    7  N   UNL     1      -5.306   5.963 -31.245  1.00  0.00    -0.259 N 
HETATM    8  C   UNL     1      -4.503   5.924 -30.152  1.00  0.00     0.326 A 
HETATM    9  N   UNL     1      -3.199   5.838 -30.568  1.00  0.00    -0.324 N 
HETATM   10  O   UNL     1      -4.855   5.979 -28.986  1.00  0.00    -0.247 OA
HETATM   11  C   UNL     1      -3.066   5.849 -32.015  1.00  0.00     0.119 A 
HETATM   12  H   UNL     1      -2.438   5.820 -29.902  1.00  0.00     0.165 HD
HETATM   13  C   UNL     1      -2.387   4.554 -32.520  1.00  0.00     0.019 C 
HETATM   14  C   UNL     1      -4.566   5.939 -32.393  1.00  0.00     0.257 A 
HETATM   15  C   UNL     1      -2.320   7.119 -32.448  1.00  0.00     0.041 C 
HETATM   16  C   UNL     1      -3.192   3.278 -32.232  1.00  0.00     0.013 C 
HETATM   17  C   UNL     1      -2.051   4.623 -34.019  1.00  0.00     0.007 C 
HETATM   18  C   UNL     1      -1.245   5.871 -34.362  1.00  0.00     0.001 C 
HETATM   19  C   UNL     1      -1.969   7.139 -33.933  1.00  0.00     0.003 C 
HETATM   20  O   UNL     1      -5.007   5.962 -33.533  1.00  0.00    -0.270 OA
ENDBRANCH   6   7
ENDBRANCH   3   6
ENDBRANCH   1   2
BRANCH   1  21
HETATM   21  C   UNL     1      -7.880   1.676 -33.169  1.00  0.00     0.071 C 
BRANCH  21  22
HETATM   22  C   UNL     1      -9.320   1.228 -33.268  1.00  0.00    -0.020 A 
HETATM   23  C   UNL     1     -10.369   1.895 -33.993  1.00  0.00    -0.001 A 
HETATM   24  C   UNL     1     -11.536   1.146 -33.836  1.00  0.00     0.042 A 
HETATM   25  C   UNL     1     -10.430   3.065 -34.779  1.00  0.00     0.014 A 
HETATM   26  C   UNL     1     -12.754   1.501 -34.428  1.00  0.00     0.030 A 
HETATM   27  N   UNL     1     -11.221   0.072 -33.038  1.00  0.00    -0.365 N 
HETATM   28  C   UNL     1     -12.783   2.661 -35.207  1.00  0.00     0.002 A 
HETATM   29  C   UNL     1     -11.639   3.435 -35.380  1.00  0.00     0.001 A 
HETATM   30  H   UNL     1     -11.878  -0.644 -32.759  1.00  0.00     0.165 HD
HETATM   31  C   UNL     1      -9.901   0.113 -32.685  1.00  0.00     0.097 A 
ENDBRANCH  21  22
BRANCH  21  32
HETATM   32  C   UNL     1      -7.057   0.447 -33.540  1.00  0.00    -0.048 A 
HETATM   33  C   UNL     1      -6.085  -0.032 -32.646  1.00  0.00     0.011 A 
HETATM   34  C   UNL     1      -5.331  -1.169 -32.948  1.00  0.00     0.037 A 
HETATM   35  C   UNL     1      -5.531  -1.860 -34.143  1.00  0.00     0.068 A 
HETATM   36  C   UNL     1      -6.472  -1.382 -35.052  1.00  0.00     0.037 A 
HETATM   37  C   UNL     1      -7.224  -0.239 -34.754  1.00  0.00     0.011 A 
BRANCH  35  38
HETATM   38  O   UNL     1      -4.745  -2.967 -34.308  1.00  0.00    -0.356 OA
HETATM   39  C   UNL     1      -5.401  -4.155 -34.735  1.00  0.00     0.210 C 
ENDBRANCH  35  38
ENDBRANCH  21  32
ENDBRANCH   1  21
TORSDOF 7
ENDMDL
MODEL 2
REMARK VINA RESULT:     -10.0      1.577      2.605
REMARK  7 active torsions:
REMARK  status: ('A' for Active; 'I' for Inactive)
REMARK    1  A    between atoms: N_7  and  C_8 
REMARK    2  A    between atoms: C_8  and  C_9 
REMARK       I    between atoms: C_9  and  N_10 
REMARK    3  A    between atoms: N_10  and  C_11 
REMARK    4  A    between atoms: C_11  and  C_12 
REMARK    5  A    between atoms: C_12  and  C_13 
REMARK    6  A    between atoms: C_12  and  C_23 
REMARK    7  A    between atoms: C_26  and  O_27 
ROOT
HETATM    1  C   UNL     1      -7.021   2.076 -32.082  1.00  0.00     0.136 C 
ENDROOT
BRANCH   1   2
HETATM    2  N   UNL     1      -6.691   3.483 -32.252  1.00  0.00    -0.359 N 
HETATM    3  C   UNL     1      -5.431   3.872 -32.655  1.00  0.00     0.236 C 
HETATM    4  O   UNL     1      -4.531   3.072 -32.897  1.00  0.00    -0.272 OA
HETATM    5  H   UNL     1      -7.424   4.186 -32.145  1.00  0.00     0.162 HD
BRANCH   3   6
HETATM    6  C   UNL     1      -5.232   5.380 -32.746  1.00  0.00     0.239 C 
BRANCH   6   7
HETATM    7  N   UNL     1      -3.823   5.702 -32.773  1.00  0.00    -0.259 N 
HETATM    8  C   UNL     1      -3.118   5.940 -33.907  1.00  0.00     0.326 A 
HETATM    9  N   UNL     1      -1.833   6.278 -33.564  1.00  0.00    -0.324 N 
HETATM   10  O   UNL     1      -3.527   5.852 -35.053  1.00  0.00    -0.247 OA
HETATM   11  C   UNL     1      -1.606   6.248 -32.128  1.00  0.00     0.119 A 
HETATM   12  H   UNL     1      -1.137   6.473 -34.271  1.00  0.00     0.165 HD
HETATM   13  C   UNL     1      -1.172   7.637 -31.606  1.00  0.00     0.019 C 
HETATM   14  C   UNL     1      -3.029   5.840 -31.669  1.00  0.00     0.257 A 
HETATM   15  C   UNL     1      -0.592   5.144 -31.798  1.00  0.00     0.041 C 
HETATM   16  C   UNL     1      -2.236   8.729 -31.789  1.00  0.00     0.013 C 
HETATM   17  C   UNL     1      -0.731   7.589 -30.134  1.00  0.00     0.007 C 
HETATM   18  C   UNL     1       0.332   6.523 -29.894  1.00  0.00     0.001 C 
HETATM   19  C   UNL     1      -0.148   5.148 -30.338  1.00  0.00     0.003 C 
HETATM   20  O   UNL     1      -3.380   5.690 -30.508  1.00  0.00    -0.270 OA
ENDBRANCH   6   7
ENDBRANCH   3   6
ENDBRANCH   1   2
BRANCH   1  21
HETATM   21  C   UNL     1      -7.544   1.393 -33.360  1.00  0.00     0.071 C 
BRANCH  21  22
HETATM   22  C   UNL     1      -9.008   1.018 -33.309  1.00  0.00    -0.020 A 
HETATM   23  C   UNL     1     -10.092   1.744 -33.916  1.00  0.00    -0.001 A 
HETATM   24  C   UNL     1     -11.272   1.051 -33.641  1.00  0.00     0.042 A 
HETATM   25  C   UNL     1     -10.177   2.923 -34.685  1.00  0.00     0.014 A 
HETATM   26  C   UNL     1     -12.526   1.472 -34.099  1.00  0.00     0.030 A 
HETATM   27  N   UNL     1     -10.930  -0.045 -32.886  1.00  0.00    -0.365 N 
HETATM   28  C   UNL     1     -12.579   2.640 -34.864  1.00  0.00     0.002 A 
HETATM   29  C   UNL     1     -11.422   3.359 -35.153  1.00  0.00     0.001 A 
HETATM   30  H   UNL     1     -11.588  -0.731 -32.544  1.00  0.00     0.165 HD
HETATM   31  C   UNL     1      -9.579  -0.073 -32.674  1.00  0.00     0.097 A 
ENDBRANCH  21  22
BRANCH  21  32
HETATM   32  C   UNL     1      -6.817   0.103 -33.723  1.00  0.00    -0.048 A 
HETATM   33  C   UNL     1      -5.730  -0.323 -32.943  1.00  0.00     0.011 A 
HETATM   34  C   UNL     1      -5.059  -1.513 -33.237  1.00  0.00     0.037 A 
HETATM   35  C   UNL     1      -5.456  -2.309 -34.311  1.00  0.00     0.068 A 
HETATM   36  C   UNL     1      -6.515  -1.886 -35.111  1.00  0.00     0.037 A 
HETATM   37  C   UNL     1      -7.186  -0.691 -34.822  1.00  0.00     0.011 A 
BRANCH  35  38
HETATM   38  O   UNL     1      -4.731  -3.456 -34.479  1.00  0.00    -0.356 OA
HETATM   39  C   UNL     1      -5.473  -4.650 -34.701  1.00  0.00     0.210 C 
ENDBRANCH  35  38
ENDBRANCH  21  32
ENDBRANCH   1  21
TORSDOF 7
ENDMDL
MODEL 3
REMARK VINA RESULT:      -9.7      2.412      5.339
REMARK  7 active torsions:
REMARK  status: ('A' for Active; 'I' for Inactive)
REMARK    1  A    between atoms: N_7  and  C_8 
REMARK    2  A    between atoms: C_8  and  C_9 
REMARK       I    between atoms: C_9  and  N_10 
REMARK    3  A    between atoms: N_10  and  C_11 
REMARK    4  A    between atoms: C_11  and  C_12 
REMARK    5  A    between atoms: C_12  and  C_13 
REMARK    6  A    between atoms: C_12  and  C_23 
REMARK    7  A    between atoms: C_26  and  O_27 
ROOT
HETATM    1  C   UNL     1      -7.430   3.383 -33.551  1.00  0.00     0.136 C 
ENDROOT
BRANCH   1   2
HETATM    2  N   UNL     1      -5.992   3.364 -33.765  1.00  0.00    -0.359 N 
HETATM    3  C   UNL     1      -5.117   3.599 -32.725  1.00  0.00     0.236 C 
HETATM    4  O   UNL     1      -5.491   3.827 -31.577  1.00  0.00    -0.272 OA
HETATM    5  H   UNL     1      -5.624   3.099 -34.680  1.00  0.00     0.162 HD
BRANCH   3   6
HETATM    6  C   UNL     1      -3.645   3.586 -33.119  1.00  0.00     0.239 C 
BRANCH   6   7
HETATM    7  N   UNL     1      -3.022   4.847 -32.784  1.00  0.00    -0.259 N 
HETATM    8  C   UNL     1      -3.291   6.019 -33.412  1.00  0.00     0.326 A 
HETATM    9  N   UNL     1      -2.579   7.019 -32.800  1.00  0.00    -0.324 N 
HETATM   10  O   UNL     1      -4.021   6.180 -34.376  1.00  0.00    -0.247 OA
HETATM   11  C   UNL     1      -1.744   6.534 -31.713  1.00  0.00     0.119 A 
HETATM   12  H   UNL     1      -2.622   7.973 -33.135  1.00  0.00     0.165 HD
HETATM   13  C   UNL     1      -2.136   7.200 -30.373  1.00  0.00     0.019 C 
HETATM   14  C   UNL     1      -2.114   5.031 -31.779  1.00  0.00     0.257 A 
HETATM   15  C   UNL     1      -0.267   6.745 -32.073  1.00  0.00     0.041 C 
HETATM   16  C   UNL     1      -3.566   6.878 -29.915  1.00  0.00     0.013 C 
HETATM   17  C   UNL     1      -1.145   6.861 -29.247  1.00  0.00     0.007 C 
HETATM   18  C   UNL     1       0.294   7.167 -29.647  1.00  0.00     0.001 C 
HETATM   19  C   UNL     1       0.687   6.435 -30.923  1.00  0.00     0.003 C 
HETATM   20  O   UNL     1      -1.679   4.163 -31.036  1.00  0.00    -0.270 OA
ENDBRANCH   6   7
ENDBRANCH   3   6
ENDBRANCH   1   2
BRANCH   1  21
HETATM   21  C   UNL     1      -8.035   2.005 -33.218  1.00  0.00     0.071 C 
BRANCH  21  22
HETATM   22  C   UNL     1      -7.327   0.841 -33.872  1.00  0.00    -0.020 A 
HETATM   23  C   UNL     1      -6.278   0.048 -33.286  1.00  0.00    -0.001 A 
HETATM   24  C   UNL     1      -5.915  -0.927 -34.216  1.00  0.00     0.042 A 
HETATM   25  C   UNL     1      -5.611   0.064 -32.043  1.00  0.00     0.014 A 
HETATM   26  C   UNL     1      -4.928  -1.887 -33.965  1.00  0.00     0.030 A 
HETATM   27  N   UNL     1      -6.696  -0.733 -35.330  1.00  0.00    -0.365 N 
HETATM   28  C   UNL     1      -4.288  -1.852 -32.723  1.00  0.00     0.002 A 
HETATM   29  C   UNL     1      -4.622  -0.890 -31.774  1.00  0.00     0.001 A 
HETATM   30  H   UNL     1      -6.650  -1.300 -36.165  1.00  0.00     0.165 HD
HETATM   31  C   UNL     1      -7.540   0.326 -35.140  1.00  0.00     0.097 A 
ENDBRANCH  21  22
BRANCH  21  32
HETATM   32  C   UNL     1      -9.499   1.852 -33.615  1.00  0.00    -0.048 A 
HETATM   33  C   UNL     1     -10.093   2.805 -34.458  1.00  0.00     0.011 A 
HETATM   34  C   UNL     1     -11.426   2.679 -34.858  1.00  0.00     0.037 A 
HETATM   35  C   UNL     1     -12.197   1.598 -34.434  1.00  0.00     0.068 A 
HETATM   36  C   UNL     1     -11.632   0.658 -33.575  1.00  0.00     0.037 A 
HETATM   37  C   UNL     1     -10.298   0.786 -33.168  1.00  0.00     0.011 A 
BRANCH  35  38
HETATM   38  O   UNL     1     -13.479   1.580 -34.912  1.00  0.00    -0.356 OA
HETATM   39  C   UNL     1     -14.380   0.678 -34.281  1.00  0.00     0.210 C 
ENDBRANCH  35  38
ENDBRANCH  21  32
ENDBRANCH   1  21
TORSDOF 7
ENDMDL
MODEL 4
REMARK VINA RESULT:      -9.6      2.317      3.543
REMARK  7 active torsions:
REMARK  status: ('A' for Active; 'I' for Inactive)
REMARK    1  A    between atoms: N_7  and  C_8 
REMARK    2  A    between atoms: C_8  and  C_9 
REMARK       I    between atoms: C_9  and  N_10 
REMARK    3  A    between atoms: N_10  and  C_11 
REMARK    4  A    between atoms: C_11  and  C_12 
REMARK    5  A    between atoms: C_12  and  C_13 
REMARK    6  A    between atoms: C_12  and  C_23 
REMARK    7  A    between atoms: C_26  and  O_27 
ROOT
HETATM    1  C   UNL     1      -4.662   2.004 -31.925  1.00  0.00     0.136 C 
ENDROOT
BRANCH   1   2
HETATM    2  N   UNL     1      -3.524   2.682 -32.525  1.00  0.00    -0.359 N 
HETATM    3  C   UNL     1      -3.632   3.977 -32.985  1.00  0.00     0.236 C 
HETATM    4  O   UNL     1      -4.672   4.627 -32.912  1.00  0.00    -0.272 OA
HETATM    5  H   UNL     1      -2.613   2.219 -32.536  1.00  0.00     0.162 HD
BRANCH   3   6
HETATM    6  C   UNL     1      -2.364   4.530 -33.624  1.00  0.00     0.239 C 
BRANCH   6   7
HETATM    7  N   UNL     1      -1.841   5.626 -32.839  1.00  0.00    -0.259 N 
HETATM    8  C   UNL     1      -1.708   6.895 -33.299  1.00  0.00     0.326 A 
HETATM    9  N   UNL     1      -1.247   7.687 -32.278  1.00  0.00    -0.324 N 
HETATM   10  O   UNL     1      -1.932   7.289 -34.432  1.00  0.00    -0.247 OA
HETATM   11  C   UNL     1      -1.011   6.943 -31.050  1.00  0.00     0.119 A 
HETATM   12  H   UNL     1      -1.058   8.670 -32.422  1.00  0.00     0.165 HD
HETATM   13  C   UNL     1      -1.885   7.487 -29.896  1.00  0.00     0.019 C 
HETATM   14  C   UNL     1      -1.445   5.537 -31.534  1.00  0.00     0.257 A 
HETATM   15  C   UNL     1       0.489   6.965 -30.724  1.00  0.00     0.041 C 
HETATM   16  C   UNL     1      -3.393   7.337 -30.135  1.00  0.00     0.013 C 
HETATM   17  C   UNL     1      -1.512   6.858 -28.543  1.00  0.00     0.007 C 
HETATM   18  C   UNL     1      -0.021   6.984 -28.250  1.00  0.00     0.001 C 
HETATM   19  C   UNL     1       0.820   6.367 -29.359  1.00  0.00     0.003 C 
HETATM   20  O   UNL     1      -1.452   4.525 -30.849  1.00  0.00    -0.270 OA
ENDBRANCH   6   7
ENDBRANCH   3   6
ENDBRANCH   1   2
BRANCH   1  21
HETATM   21  C   UNL     1      -5.722   1.533 -32.940  1.00  0.00     0.071 C 
BRANCH  21  22
HETATM   22  C   UNL     1      -7.143   1.590 -32.428  1.00  0.00    -0.020 A 
HETATM   23  C   UNL     1      -8.165   2.506 -32.860  1.00  0.00    -0.001 A 
HETATM   24  C   UNL     1      -9.328   2.211 -32.147  1.00  0.00     0.042 A 
HETATM   25  C   UNL     1      -8.210   3.556 -33.801  1.00  0.00     0.014 A 
HETATM   26  C   UNL     1     -10.530   2.903 -32.332  1.00  0.00     0.030 A 
HETATM   27  N   UNL     1      -9.030   1.168 -31.303  1.00  0.00    -0.365 N 
HETATM   28  C   UNL     1     -10.548   3.933 -33.276  1.00  0.00     0.002 A 
HETATM   29  C   UNL     1      -9.405   4.258 -34.001  1.00  0.00     0.001 A 
HETATM   30  H   UNL     1      -9.689   0.742 -30.667  1.00  0.00     0.165 HD
HETATM   31  C   UNL     1      -7.724   0.791 -31.456  1.00  0.00     0.097 A 
ENDBRANCH  21  22
BRANCH  21  32
HETATM   32  C   UNL     1      -5.532   0.099 -33.423  1.00  0.00    -0.048 A 
HETATM   33  C   UNL     1      -4.510  -0.690 -32.869  1.00  0.00     0.011 A 
HETATM   34  C   UNL     1      -4.327  -2.015 -33.275  1.00  0.00     0.037 A 
HETATM   35  C   UNL     1      -5.159  -2.587 -34.235  1.00  0.00     0.068 A 
HETATM   36  C   UNL     1      -6.160  -1.810 -34.814  1.00  0.00     0.037 A 
HETATM   37  C   UNL     1      -6.342  -0.481 -34.413  1.00  0.00     0.011 A 
BRANCH  35  38
HETATM   38  O   UNL     1      -4.888  -3.895 -34.528  1.00  0.00    -0.356 OA
HETATM   39  C   UNL     1      -3.751  -4.466 -33.893  1.00  0.00     0.210 C 
ENDBRANCH  35  38
ENDBRANCH  21  32
ENDBRANCH   1  21
TORSDOF 7
ENDMDL
MODEL 5
REMARK VINA RESULT:      -9.6      2.634      7.520
REMARK  7 active torsions:
REMARK  status: ('A' for Active; 'I' for Inactive)
REMARK    1  A    between atoms: N_7  and  C_8 
REMARK    2  A    between atoms: C_8  and  C_9 
REMARK       I    between atoms: C_9  and  N_10 
REMARK    3  A    between atoms: N_10  and  C_11 
REMARK    4  A    between atoms: C_11  and  C_12 
REMARK    5  A    between atoms: C_12  and  C_13 
REMARK    6  A    between atoms: C_12  and  C_23 
REMARK    7  A    between atoms: C_26  and  O_27 
ROOT
HETATM    1  C   UNL     1      -6.721   4.813 -31.641  1.00  0.00     0.136 C 
ENDROOT
BRANCH   1   2
HETATM    2  N   UNL     1      -7.978   5.192 -32.267  1.00  0.00    -0.359 N 
HETATM    3  C   UNL     1      -9.169   5.096 -31.579  1.00  0.00     0.236 C 
HETATM    4  O   UNL     1      -9.240   4.701 -30.418  1.00  0.00    -0.272 OA
HETATM    5  H   UNL     1      -7.969   5.605 -33.201  1.00  0.00     0.162 HD
BRANCH   3   6
HETATM    6  C   UNL     1     -10.401   5.490 -32.386  1.00  0.00     0.239 C 
BRANCH   6   7
HETATM    7  N   UNL     1     -10.728   4.457 -33.343  1.00  0.00    -0.259 N 
HETATM    8  C   UNL     1     -10.162   4.353 -34.572  1.00  0.00     0.326 A 
HETATM    9  N   UNL     1     -10.650   3.228 -35.187  1.00  0.00    -0.324 N 
HETATM   10  O   UNL     1      -9.367   5.128 -35.078  1.00  0.00    -0.247 OA
HETATM   11  C   UNL     1     -11.627   2.521 -34.375  1.00  0.00     0.119 A 
HETATM   12  H   UNL     1     -10.368   2.981 -36.126  1.00  0.00     0.165 HD
HETATM   13  C   UNL     1     -11.158   1.078 -34.071  1.00  0.00     0.019 C 
HETATM   14  C   UNL     1     -11.616   3.441 -33.129  1.00  0.00     0.257 A 
HETATM   15  C   UNL     1     -12.995   2.567 -35.071  1.00  0.00     0.041 C 
HETATM   16  C   UNL     1      -9.867   1.007 -33.243  1.00  0.00     0.013 C 
HETATM   17  C   UNL     1     -12.255   0.244 -33.390  1.00  0.00     0.007 C 
HETATM   18  C   UNL     1     -13.561   0.275 -34.176  1.00  0.00     0.001 C 
HETATM   19  C   UNL     1     -14.051   1.700 -34.391  1.00  0.00     0.003 C 
HETATM   20  O   UNL     1     -12.278   3.268 -32.116  1.00  0.00    -0.270 OA
ENDBRANCH   6   7
ENDBRANCH   3   6
ENDBRANCH   1   2
BRANCH   1  21
HETATM   21  C   UNL     1      -5.784   3.997 -32.553  1.00  0.00     0.071 C 
BRANCH  21  22
HETATM   22  C   UNL     1      -5.830   2.505 -32.314  1.00  0.00    -0.020 A 
HETATM   23  C   UNL     1      -6.217   1.503 -33.272  1.00  0.00    -0.001 A 
HETATM   24  C   UNL     1      -6.105   0.258 -32.652  1.00  0.00     0.042 A 
HETATM   25  C   UNL     1      -6.642   1.541 -34.616  1.00  0.00     0.014 A 
HETATM   26  C   UNL     1      -6.390  -0.947 -33.305  1.00  0.00     0.030 A 
HETATM   27  N   UNL     1      -5.682   0.485 -31.364  1.00  0.00    -0.365 N 
HETATM   28  C   UNL     1      -6.803  -0.879 -34.639  1.00  0.00     0.002 A 
HETATM   29  C   UNL     1      -6.930   0.346 -35.287  1.00  0.00     0.001 A 
HETATM   30  H   UNL     1      -5.513  -0.241 -30.682  1.00  0.00     0.165 HD
HETATM   31  C   UNL     1      -5.520   1.826 -31.147  1.00  0.00     0.097 A 
ENDBRANCH  21  22
BRANCH  21  32
HETATM   32  C   UNL     1      -4.311   4.372 -32.435  1.00  0.00    -0.048 A 
HETATM   33  C   UNL     1      -3.842   4.975 -31.256  1.00  0.00     0.011 A 
HETATM   34  C   UNL     1      -2.493   5.310 -31.110  1.00  0.00     0.037 A 
HETATM   35  C   UNL     1      -1.579   5.046 -32.129  1.00  0.00     0.068 A 
HETATM   36  C   UNL     1      -2.033   4.473 -33.314  1.00  0.00     0.037 A 
HETATM   37  C   UNL     1      -3.386   4.143 -33.466  1.00  0.00     0.011 A 
BRANCH  35  38
HETATM   38  O   UNL     1      -0.287   5.401 -31.853  1.00  0.00    -0.356 OA
HETATM   39  C   UNL     1      -0.103   6.404 -30.861  1.00  0.00     0.210 C 
ENDBRANCH  35  38
ENDBRANCH  21  32
ENDBRANCH   1  21
TORSDOF 7
ENDMDL
MODEL 6
REMARK VINA RESULT:      -9.5      2.283      4.971
REMARK  7 active torsions:
REMARK  status: ('A' for Active; 'I' for Inactive)
REMARK    1  A    between atoms: N_7  and  C_8 
REMARK    2  A    between atoms: C_8  and  C_9 
REMARK       I    between atoms: C_9  and  N_10 
REMARK    3  A    between atoms: N_10  and  C_11 
REMARK    4  A    between atoms: C_11  and  C_12 
REMARK    5  A    between atoms: C_12  and  C_13 
REMARK    6  A    between atoms: C_12  and  C_23 
REMARK    7  A    between atoms: C_26  and  O_27 
ROOT
HETATM    1  C   UNL     1      -6.523   2.826 -34.337  1.00  0.00     0.136 C 
ENDROOT
BRANCH   1   2
HETATM    2  N   UNL     1      -6.146   4.037 -33.627  1.00  0.00    -0.359 N 
HETATM    3  C   UNL     1      -6.966   5.146 -33.631  1.00  0.00     0.236 C 
HETATM    4  O   UNL     1      -8.046   5.175 -34.216  1.00  0.00    -0.272 OA
HETATM    5  H   UNL     1      -5.299   4.041 -33.055  1.00  0.00     0.162 HD
BRANCH   3   6
HETATM    6  C   UNL     1      -6.411   6.348 -32.876  1.00  0.00     0.239 C 
BRANCH   6   7
HETATM    7  N   UNL     1      -5.307   5.948 -32.034  1.00  0.00    -0.259 N 
HETATM    8  C   UNL     1      -5.439   5.201 -30.909  1.00  0.00     0.326 A 
HETATM    9  N   UNL     1      -4.191   4.953 -30.397  1.00  0.00    -0.324 N 
HETATM   10  O   UNL     1      -6.482   4.822 -30.404  1.00  0.00    -0.247 OA
HETATM   11  C   UNL     1      -3.129   5.575 -31.171  1.00  0.00     0.119 A 
HETATM   12  H   UNL     1      -4.072   4.427 -29.541  1.00  0.00     0.165 HD
HETATM   13  C   UNL     1      -2.148   4.513 -31.721  1.00  0.00     0.019 C 
HETATM   14  C   UNL     1      -3.993   6.238 -32.273  1.00  0.00     0.257 A 
HETATM   15  C   UNL     1      -2.433   6.641 -30.313  1.00  0.00     0.041 C 
HETATM   16  C   UNL     1      -2.791   3.524 -32.703  1.00  0.00     0.013 C 
HETATM   17  C   UNL     1      -0.909   5.152 -32.370  1.00  0.00     0.007 C 
HETATM   18  C   UNL     1      -0.225   6.142 -31.433  1.00  0.00     0.001 C 
HETATM   19  C   UNL     1      -1.187   7.228 -30.970  1.00  0.00     0.003 C 
HETATM   20  O   UNL     1      -3.561   6.891 -33.212  1.00  0.00    -0.270 OA
ENDBRANCH   6   7
ENDBRANCH   3   6
ENDBRANCH   1   2
BRANCH   1  21
HETATM   21  C   UNL     1      -6.953   1.665 -33.418  1.00  0.00     0.071 C 
BRANCH  21  22
HETATM   22  C   UNL     1      -6.243   0.359 -33.694  1.00  0.00    -0.020 A 
HETATM   23  C   UNL     1      -5.151  -0.191 -32.935  1.00  0.00    -0.001 A 
HETATM   24  C   UNL     1      -4.803  -1.411 -33.516  1.00  0.00     0.042 A 
HETATM   25  C   UNL     1      -4.432   0.234 -31.798  1.00  0.00     0.014 A 
HETATM   26  C   UNL     1      -3.781  -2.228 -33.016  1.00  0.00     0.030 A 
HETATM   27  N   UNL     1      -5.635  -1.596 -34.594  1.00  0.00    -0.365 N 
HETATM   28  C   UNL     1      -3.091  -1.785 -31.884  1.00  0.00     0.002 A 
HETATM   29  C   UNL     1      -3.409  -0.571 -31.283  1.00  0.00     0.001 A 
HETATM   30  H   UNL     1      -5.610  -2.403 -35.202  1.00  0.00     0.165 HD
HETATM   31  C   UNL     1      -6.496  -0.542 -34.716  1.00  0.00     0.097 A 
ENDBRANCH  21  22
BRANCH  21  32
HETATM   32  C   UNL     1      -8.438   1.330 -33.486  1.00  0.00    -0.048 A 
HETATM   33  C   UNL     1      -8.944   0.261 -32.728  1.00  0.00     0.011 A 
HETATM   34  C   UNL     1     -10.305  -0.055 -32.751  1.00  0.00     0.037 A 
HETATM   35  C   UNL     1     -11.195   0.689 -33.524  1.00  0.00     0.068 A 
HETATM   36  C   UNL     1     -10.706   1.735 -34.303  1.00  0.00     0.037 A 
HETATM   37  C   UNL     1      -9.342   2.049 -34.286  1.00  0.00     0.011 A 
BRANCH  35  38
HETATM   38  O   UNL     1     -12.502   0.291 -33.444  1.00  0.00    -0.356 OA
HETATM   39  C   UNL     1     -13.482   1.247 -33.829  1.00  0.00     0.210 C 
ENDBRANCH  35  38
ENDBRANCH  21  32
ENDBRANCH   1  21
TORSDOF 7
ENDMDL
MODEL 7
REMARK VINA RESULT:      -9.3      3.305      7.038
REMARK  7 active torsions:
REMARK  status: ('A' for Active; 'I' for Inactive)
REMARK    1  A    between atoms: N_7  and  C_8 
REMARK    2  A    between atoms: C_8  and  C_9 
REMARK       I    between atoms: C_9  and  N_10 
REMARK    3  A    between atoms: N_10  and  C_11 
REMARK    4  A    between atoms: C_11  and  C_12 
REMARK    5  A    between atoms: C_12  and  C_13 
REMARK    6  A    between atoms: C_12  and  C_23 
REMARK    7  A    between atoms: C_26  and  O_27 
ROOT
HETATM    1  C   UNL     1      -8.141  -0.123 -34.048  1.00  0.00     0.136 C 
ENDROOT
BRANCH   1   2
HETATM    2  N   UNL     1      -9.130   0.866 -34.443  1.00  0.00    -0.359 N 
HETATM    3  C   UNL     1     -10.397   0.859 -33.898  1.00  0.00     0.236 C 
HETATM    4  O   UNL     1     -10.758   0.039 -33.058  1.00  0.00    -0.272 OA
HETATM    5  H   UNL     1      -8.860   1.622 -35.076  1.00  0.00     0.162 HD
BRANCH   3   6
HETATM    6  C   UNL     1     -11.329   1.933 -34.446  1.00  0.00     0.239 C 
BRANCH   6   7
HETATM    7  N   UNL     1     -11.399   3.053 -33.534  1.00  0.00    -0.259 N 
HETATM    8  C   UNL     1     -12.461   3.316 -32.732  1.00  0.00     0.326 A 
HETATM    9  N   UNL     1     -12.165   4.406 -31.954  1.00  0.00    -0.324 N 
HETATM   10  O   UNL     1     -13.521   2.713 -32.705  1.00  0.00    -0.247 OA
HETATM   11  C   UNL     1     -10.851   4.961 -32.236  1.00  0.00     0.119 A 
HETATM   12  H   UNL     1     -12.839   4.779 -31.299  1.00  0.00     0.165 HD
HETATM   13  C   UNL     1      -9.952   4.926 -30.978  1.00  0.00     0.019 C 
HETATM   14  C   UNL     1     -10.402   3.967 -33.336  1.00  0.00     0.257 A 
HETATM   15  C   UNL     1     -11.011   6.374 -32.814  1.00  0.00     0.041 C 
HETATM   16  C   UNL     1      -9.653   3.509 -30.468  1.00  0.00     0.013 C 
HETATM   17  C   UNL     1      -8.633   5.687 -31.189  1.00  0.00     0.007 C 
HETATM   18  C   UNL     1      -8.871   7.106 -31.691  1.00  0.00     0.001 C 
HETATM   19  C   UNL     1      -9.686   7.115 -32.977  1.00  0.00     0.003 C 
HETATM   20  O   UNL     1      -9.323   3.989 -33.911  1.00  0.00    -0.270 OA
ENDBRANCH   6   7
ENDBRANCH   3   6
ENDBRANCH   1   2
BRANCH   1  21
HETATM   21  C   UNL     1      -6.697   0.415 -33.998  1.00  0.00     0.071 C 
BRANCH  21  22
HETATM   22  C   UNL     1      -5.639  -0.656 -33.869  1.00  0.00    -0.020 A 
HETATM   23  C   UNL     1      -5.793  -2.047 -34.206  1.00  0.00    -0.001 A 
HETATM   24  C   UNL     1      -4.577  -2.682 -33.952  1.00  0.00     0.042 A 
HETATM   25  C   UNL     1      -6.855  -2.823 -34.715  1.00  0.00     0.014 A 
HETATM   26  C   UNL     1      -4.368  -4.046 -34.185  1.00  0.00     0.030 A 
HETATM   27  N   UNL     1      -3.717  -1.727 -33.466  1.00  0.00    -0.365 N 
HETATM   28  C   UNL     1      -5.435  -4.789 -34.696  1.00  0.00     0.002 A 
HETATM   29  C   UNL     1      -6.664  -4.189 -34.957  1.00  0.00     0.001 A 
HETATM   30  H   UNL     1      -2.759  -1.904 -33.199  1.00  0.00     0.165 HD
HETATM   31  C   UNL     1      -4.341  -0.512 -33.405  1.00  0.00     0.097 A 
ENDBRANCH  21  22
BRANCH  21  32
HETATM   32  C   UNL     1      -6.428   1.378 -32.847  1.00  0.00    -0.048 A 
HETATM   33  C   UNL     1      -6.733   0.989 -31.532  1.00  0.00     0.011 A 
HETATM   34  C   UNL     1      -6.477   1.841 -30.454  1.00  0.00     0.037 A 
HETATM   35  C   UNL     1      -5.905   3.096 -30.659  1.00  0.00     0.068 A 
HETATM   36  C   UNL     1      -5.621   3.507 -31.959  1.00  0.00     0.037 A 
HETATM   37  C   UNL     1      -5.883   2.658 -33.041  1.00  0.00     0.011 A 
BRANCH  35  38
HETATM   38  O   UNL     1      -5.686   3.823 -29.521  1.00  0.00    -0.356 OA
HETATM   39  C   UNL     1      -5.347   5.193 -29.698  1.00  0.00     0.210 C 
ENDBRANCH  35  38
ENDBRANCH  21  32
ENDBRANCH   1  21
TORSDOF 7
ENDMDL
MODEL 8
REMARK VINA RESULT:      -9.2      3.224      5.367
REMARK  7 active torsions:
REMARK  status: ('A' for Active; 'I' for Inactive)
REMARK    1  A    between atoms: N_7  and  C_8 
REMARK    2  A    between atoms: C_8  and  C_9 
REMARK       I    between atoms: C_9  and  N_10 
REMARK    3  A    between atoms: N_10  and  C_11 
REMARK    4  A    between atoms: C_11  and  C_12 
REMARK    5  A    between atoms: C_12  and  C_13 
REMARK    6  A    between atoms: C_12  and  C_23 
REMARK    7  A    between atoms: C_26  and  O_27 
ROOT
HETATM    1  C   UNL     1      -5.292   2.746 -30.024  1.00  0.00     0.136 C 
ENDROOT
BRANCH   1   2
HETATM    2  N   UNL     1      -5.146   4.155 -29.696  1.00  0.00    -0.359 N 
HETATM    3  C   UNL     1      -6.248   4.979 -29.601  1.00  0.00     0.236 C 
HETATM    4  O   UNL     1      -7.396   4.580 -29.776  1.00  0.00    -0.272 OA
HETATM    5  H   UNL     1      -4.222   4.522 -29.459  1.00  0.00     0.162 HD
BRANCH   3   6
HETATM    6  C   UNL     1      -5.925   6.436 -29.292  1.00  0.00     0.239 C 
BRANCH   6   7
HETATM    7  N   UNL     1      -4.664   6.811 -29.890  1.00  0.00    -0.259 N 
HETATM    8  C   UNL     1      -4.505   7.118 -31.201  1.00  0.00     0.326 A 
HETATM    9  N   UNL     1      -3.202   7.490 -31.412  1.00  0.00    -0.324 N 
HETATM   10  O   UNL     1      -5.357   7.060 -32.073  1.00  0.00    -0.247 OA
HETATM   11  C   UNL     1      -2.392   7.413 -30.207  1.00  0.00     0.119 A 
HETATM   12  H   UNL     1      -2.870   7.738 -32.335  1.00  0.00     0.165 HD
HETATM   13  C   UNL     1      -1.802   8.797 -29.844  1.00  0.00     0.019 C 
HETATM   14  C   UNL     1      -3.482   6.935 -29.215  1.00  0.00     0.257 A 
HETATM   15  C   UNL     1      -1.313   6.336 -30.388  1.00  0.00     0.041 C 
HETATM   16  C   UNL     1      -2.863   9.855 -29.510  1.00  0.00     0.013 C 
HETATM   17  C   UNL     1      -0.783   8.708 -28.697  1.00  0.00     0.007 C 
HETATM   18  C   UNL     1       0.301   7.673 -28.979  1.00  0.00     0.001 C 
HETATM   19  C   UNL     1      -0.297   6.299 -29.250  1.00  0.00     0.003 C 
HETATM   20  O   UNL     1      -3.310   6.728 -28.022  1.00  0.00    -0.270 OA
ENDBRANCH   6   7
ENDBRANCH   3   6
ENDBRANCH   1   2
BRANCH   1  21
HETATM   21  C   UNL     1      -5.508   2.467 -31.525  1.00  0.00     0.071 C 
BRANCH  21  22
HETATM   22  C   UNL     1      -5.206   1.047 -31.943  1.00  0.00    -0.020 A 
HETATM   23  C   UNL     1      -5.817   0.335 -33.035  1.00  0.00    -0.001 A 
HETATM   24  C   UNL     1      -5.245  -0.937 -33.084  1.00  0.00     0.042 A 
HETATM   25  C   UNL     1      -6.798   0.660 -33.994  1.00  0.00     0.014 A 
HETATM   26  C   UNL     1      -5.598  -1.894 -34.043  1.00  0.00     0.030 A 
HETATM   27  N   UNL     1      -4.333  -1.009 -32.058  1.00  0.00    -0.365 N 
HETATM   28  C   UNL     1      -6.568  -1.541 -34.985  1.00  0.00     0.002 A 
HETATM   29  C   UNL     1      -7.163  -0.283 -34.962  1.00  0.00     0.001 A 
HETATM   30  H   UNL     1      -3.764  -1.820 -31.856  1.00  0.00     0.165 HD
HETATM   31  C   UNL     1      -4.304   0.168 -31.364  1.00  0.00     0.097 A 
ENDBRANCH  21  22
BRANCH  21  32
HETATM   32  C   UNL     1      -4.668   3.340 -32.450  1.00  0.00    -0.048 A 
HETATM   33  C   UNL     1      -3.286   3.454 -32.230  1.00  0.00     0.011 A 
HETATM   34  C   UNL     1      -2.486   4.229 -33.075  1.00  0.00     0.037 A 
HETATM   35  C   UNL     1      -3.041   4.901 -34.163  1.00  0.00     0.068 A 
HETATM   36  C   UNL     1      -4.415   4.819 -34.379  1.00  0.00     0.037 A 
HETATM   37  C   UNL     1      -5.219   4.049 -33.530  1.00  0.00     0.011 A 
BRANCH  35  38
HETATM   38  O   UNL     1      -2.149   5.605 -34.923  1.00  0.00    -0.356 OA
HETATM   39  C   UNL     1      -1.106   6.273 -34.224  1.00  0.00     0.210 C 
ENDBRANCH  35  38
ENDBRANCH  21  32
ENDBRANCH   1  21
TORSDOF 7
ENDMDL
MODEL 9
REMARK VINA RESULT:      -9.2      2.994      5.655
REMARK  7 active torsions:
REMARK  status: ('A' for Active; 'I' for Inactive)
REMARK    1  A    between atoms: N_7  and  C_8 
REMARK    2  A    between atoms: C_8  and  C_9 
REMARK       I    between atoms: C_9  and  N_10 
REMARK    3  A    between atoms: N_10  and  C_11 
REMARK    4  A    between atoms: C_11  and  C_12 
REMARK    5  A    between atoms: C_12  and  C_13 
REMARK    6  A    between atoms: C_12  and  C_23 
REMARK    7  A    between atoms: C_26  and  O_27 
ROOT
HETATM    1  C   UNL     1      -5.342   3.848 -33.305  1.00  0.00     0.136 C 
ENDROOT
BRANCH   1   2
HETATM    2  N   UNL     1      -3.915   4.092 -33.161  1.00  0.00    -0.359 N 
HETATM    3  C   UNL     1      -3.240   4.901 -34.051  1.00  0.00     0.236 C 
HETATM    4  O   UNL     1      -3.793   5.461 -34.994  1.00  0.00    -0.272 OA
HETATM    5  H   UNL     1      -3.422   3.719 -32.348  1.00  0.00     0.162 HD
BRANCH   3   6
HETATM    6  C   UNL     1      -1.744   5.023 -33.789  1.00  0.00     0.239 C 
BRANCH   6   7
HETATM    7  N   UNL     1      -1.486   6.051 -32.807  1.00  0.00    -0.259 N 
HETATM    8  C   UNL     1      -1.501   7.381 -33.076  1.00  0.00     0.326 A 
HETATM    9  N   UNL     1      -1.283   8.069 -31.909  1.00  0.00    -0.324 N 
HETATM   10  O   UNL     1      -1.658   7.903 -34.167  1.00  0.00    -0.247 OA
HETATM   11  C   UNL     1      -1.072   7.192 -30.769  1.00  0.00     0.119 A 
HETATM   12  H   UNL     1      -1.235   9.079 -31.898  1.00  0.00     0.165 HD
HETATM   13  C   UNL     1      -2.141   7.433 -29.677  1.00  0.00     0.019 C 
HETATM   14  C   UNL     1      -1.227   5.826 -31.484  1.00  0.00     0.257 A 
HETATM   15  C   UNL     1       0.361   7.372 -30.249  1.00  0.00     0.041 C 
HETATM   16  C   UNL     1      -3.573   7.114 -30.129  1.00  0.00     0.013 C 
HETATM   17  C   UNL     1      -1.826   6.669 -28.381  1.00  0.00     0.007 C 
HETATM   18  C   UNL     1      -0.414   6.954 -27.882  1.00  0.00     0.001 C 
HETATM   19  C   UNL     1       0.629   6.630 -28.942  1.00  0.00     0.003 C 
HETATM   20  O   UNL     1      -1.153   4.733 -30.943  1.00  0.00    -0.270 OA
ENDBRANCH   6   7
ENDBRANCH   3   6
ENDBRANCH   1   2
BRANCH   1  21
HETATM   21  C   UNL     1      -5.976   3.102 -32.115  1.00  0.00     0.071 C 
BRANCH  21  22
HETATM   22  C   UNL     1      -5.840   1.598 -32.180  1.00  0.00    -0.020 A 
HETATM   23  C   UNL     1      -6.328   0.747 -33.233  1.00  0.00    -0.001 A 
HETATM   24  C   UNL     1      -5.981  -0.566 -32.912  1.00  0.00     0.042 A 
HETATM   25  C   UNL     1      -7.025   0.974 -34.438  1.00  0.00     0.014 A 
HETATM   26  C   UNL     1      -6.289  -1.658 -33.732  1.00  0.00     0.030 A 
HETATM   27  N   UNL     1      -5.322  -0.525 -31.706  1.00  0.00    -0.365 N 
HETATM   28  C   UNL     1      -6.973  -1.401 -34.923  1.00  0.00     0.002 A 
HETATM   29  C   UNL     1      -7.339  -0.105 -35.273  1.00  0.00     0.001 A 
HETATM   30  H   UNL     1      -4.951  -1.336 -31.231  1.00  0.00     0.165 HD
HETATM   31  C   UNL     1      -5.236   0.762 -31.254  1.00  0.00     0.097 A 
ENDBRANCH  21  22
BRANCH  21  32
HETATM   32  C   UNL     1      -7.469   3.357 -31.940  1.00  0.00    -0.048 A 
HETATM   33  C   UNL     1      -8.112   2.936 -30.765  1.00  0.00     0.011 A 
HETATM   34  C   UNL     1      -9.474   3.176 -30.566  1.00  0.00     0.037 A 
HETATM   35  C   UNL     1     -10.227   3.846 -31.529  1.00  0.00     0.068 A 
HETATM   36  C   UNL     1      -9.611   4.246 -32.712  1.00  0.00     0.037 A 
HETATM   37  C   UNL     1      -8.247   4.002 -32.916  1.00  0.00     0.011 A 
BRANCH  35  38
HETATM   38  O   UNL     1     -11.542   4.036 -31.205  1.00  0.00    -0.356 OA
HETATM   39  C   UNL     1     -11.910   5.343 -30.781  1.00  0.00     0.210 C 
ENDBRANCH  35  38
ENDBRANCH  21  32
ENDBRANCH   1  21
TORSDOF 7
ENDMDL
MODEL 10
REMARK VINA RESULT:      -9.1      2.683      6.040
REMARK  7 active torsions:
REMARK  status: ('A' for Active; 'I' for Inactive)
REMARK    1  A    between atoms: N_7  and  C_8 
REMARK    2  A    between atoms: C_8  and  C_9 
REMARK       I    between atoms: C_9  and  N_10 
REMARK    3  A    between atoms: N_10  and  C_11 
REMARK    4  A    between atoms: C_11  and  C_12 
REMARK    5  A    between atoms: C_12  and  C_13 
REMARK    6  A    between atoms: C_12  and  C_23 
REMARK    7  A    between atoms: C_26  and  O_27 
ROOT
HETATM    1  C   UNL     1      -8.962  -0.039 -33.191  1.00  0.00     0.136 C 
ENDROOT
BRANCH   1   2
HETATM    2  N   UNL     1      -9.609   1.189 -33.626  1.00  0.00    -0.359 N 
HETATM    3  C   UNL     1     -10.981   1.263 -33.746  1.00  0.00     0.236 C 
HETATM    4  O   UNL     1     -11.725   0.320 -33.491  1.00  0.00    -0.272 OA
HETATM    5  H   UNL     1      -9.046   2.029 -33.772  1.00  0.00     0.162 HD
BRANCH   3   6
HETATM    6  C   UNL     1     -11.501   2.603 -34.252  1.00  0.00     0.239 C 
BRANCH   6   7
HETATM    7  N   UNL     1     -11.422   3.601 -33.210  1.00  0.00    -0.259 N 
HETATM    8  C   UNL     1     -12.412   3.847 -32.315  1.00  0.00     0.326 A 
HETATM    9  N   UNL     1     -11.979   4.803 -31.432  1.00  0.00    -0.324 N 
HETATM   10  O   UNL     1     -13.519   3.334 -32.292  1.00  0.00    -0.247 OA
HETATM   11  C   UNL     1     -10.639   5.280 -31.729  1.00  0.00     0.119 A 
HETATM   12  H   UNL     1     -12.581   5.145 -30.695  1.00  0.00     0.165 HD
HETATM   13  C   UNL     1      -9.679   5.015 -30.546  1.00  0.00     0.019 C 
HETATM   14  C   UNL     1     -10.339   4.399 -32.968  1.00  0.00     0.257 A 
HETATM   15  C   UNL     1     -10.703   6.763 -32.122  1.00  0.00     0.041 C 
HETATM   16  C   UNL     1      -9.480   3.525 -30.230  1.00  0.00     0.013 C 
HETATM   17  C   UNL     1      -8.311   5.686 -30.748  1.00  0.00     0.007 C 
HETATM   18  C   UNL     1      -8.449   7.173 -31.059  1.00  0.00     0.001 C 
HETATM   19  C   UNL     1      -9.329   7.408 -32.279  1.00  0.00     0.003 C 
HETATM   20  O   UNL     1      -9.295   4.405 -33.604  1.00  0.00    -0.270 OA
ENDBRANCH   6   7
ENDBRANCH   3   6
ENDBRANCH   1   2
BRANCH   1  21
HETATM   21  C   UNL     1      -7.532   0.161 -32.649  1.00  0.00     0.071 C 
BRANCH  21  22
HETATM   22  C   UNL     1      -6.911   1.490 -33.012  1.00  0.00    -0.020 A 
HETATM   23  C   UNL     1      -6.280   2.409 -32.101  1.00  0.00    -0.001 A 
HETATM   24  C   UNL     1      -5.830   3.501 -32.845  1.00  0.00     0.042 A 
HETATM   25  C   UNL     1      -6.041   2.408 -30.711  1.00  0.00     0.014 A 
HETATM   26  C   UNL     1      -5.151   4.583 -32.274  1.00  0.00     0.030 A 
HETATM   27  N   UNL     1      -6.182   3.270 -34.154  1.00  0.00    -0.365 N 
HETATM   28  C   UNL     1      -4.921   4.551 -30.896  1.00  0.00     0.002 A 
HETATM   29  C   UNL     1      -5.361   3.480 -30.122  1.00  0.00     0.001 A 
HETATM   30  H   UNL     1      -5.978   3.898 -34.919  1.00  0.00     0.165 HD
HETATM   31  C   UNL     1      -6.835   2.074 -34.266  1.00  0.00     0.097 A 
ENDBRANCH  21  22
BRANCH  21  32
HETATM   32  C   UNL     1      -6.531  -0.887 -33.122  1.00  0.00    -0.048 A 
HETATM   33  C   UNL     1      -6.910  -1.811 -34.109  1.00  0.00     0.011 A 
HETATM   34  C   UNL     1      -6.006  -2.769 -34.579  1.00  0.00     0.037 A 
HETATM   35  C   UNL     1      -4.705  -2.824 -34.084  1.00  0.00     0.068 A 
HETATM   36  C   UNL     1      -4.322  -1.931 -33.085  1.00  0.00     0.037 A 
HETATM   37  C   UNL     1      -5.227  -0.975 -32.608  1.00  0.00     0.011 A 
BRANCH  35  38
HETATM   38  O   UNL     1      -3.915  -3.792 -34.641  1.00  0.00    -0.356 OA
HETATM   39  C   UNL     1      -3.424  -4.796 -33.761  1.00  0.00     0.210 C 
ENDBRANCH  35  38
ENDBRANCH  21  32
ENDBRANCH   1  21
TORSDOF 7
ENDMDL
