MODEL 1
REMARK VINA RESULT:     -10.4      0.000      0.000
REMARK  4 active torsions:
REMARK  status: ('A' for Active; 'I' for Inactive)
REMARK       I    between atoms: C_2  and  N_3 
REMARK    1  A    between atoms: C_2  and  C_21 
REMARK    2  A    between atoms: N_3  and  C_4 
REMARK    3  A    between atoms: C_7  and  C_10 
REMARK    4  A    between atoms: C_24  and  N_27 
ROOT
HETATM    1  C   UNL     1      -3.636   2.427 -31.819  1.00  0.00     0.035 A 
HETATM    2  C   UNL     1      -4.766   2.521 -32.637  1.00  0.00     0.030 A 
HETATM    3  C   UNL     1      -5.340   1.370 -33.189  1.00  0.00     0.016 A 
HETATM    4  C   UNL     1      -4.797   0.115 -32.911  1.00  0.00    -0.005 A 
HETATM    5  C   UNL     1      -3.659   0.009 -32.108  1.00  0.00     0.016 A 
HETATM    6  C   UNL     1      -3.089   1.162 -31.559  1.00  0.00     0.030 A 
ENDROOT
BRANCH   1   7
HETATM    7  N   UNL     1      -2.992   3.538 -31.234  1.00  0.00    -0.323 N 
HETATM    8  C   UNL     1      -2.162   4.454 -31.857  1.00  0.00     0.256 C 
HETATM    9  O   UNL     1      -1.802   4.442 -33.027  1.00  0.00    -0.267 OA
HETATM   10  H   UNL     1      -3.092   3.624 -30.231  1.00  0.00     0.169 HD
BRANCH   8  11
HETATM   11  C   UNL     1      -1.639   5.530 -30.968  1.00  0.00     0.032 A 
HETATM   12  C   UNL     1      -2.485   6.374 -30.248  1.00  0.00     0.019 A 
HETATM   13  C   UNL     1      -1.941   7.360 -29.413  1.00  0.00     0.030 A 
HETATM   14  C   UNL     1      -0.554   7.553 -29.279  1.00  0.00     0.030 A 
HETATM   15  C   UNL     1       0.269   6.692 -30.021  1.00  0.00     0.030 A 
HETATM   16  C   UNL     1      -0.259   5.703 -30.864  1.00  0.00     0.019 A 
BRANCH  14  17
HETATM   17  N   UNL     1      -0.057   8.522 -28.410  1.00  0.00    -0.381 N 
HETATM   18  C   UNL     1      -0.913   9.145 -27.389  1.00  0.00     0.123 C 
HETATM   19  C   UNL     1      -0.776   8.423 -26.050  1.00  0.00     0.020 C 
HETATM   20  C   UNL     1       0.688   8.334 -25.618  1.00  0.00     0.003 C 
HETATM   21  C   UNL     1       1.549   7.727 -26.723  1.00  0.00     0.020 C 
HETATM   22  C   UNL     1       1.369   8.478 -28.044  1.00  0.00     0.123 C 
ENDBRANCH  14  17
ENDBRANCH   8  11
ENDBRANCH   1   7
BRANCH   4  23
HETATM   23  C   UNL     1      -5.392  -1.088 -33.544  1.00  0.00     0.098 A 
HETATM   24  N   UNL     1      -6.503  -0.913 -34.198  1.00  0.00    -0.170 NA
HETATM   25  N   UNL     1      -7.054  -1.976 -34.839  1.00  0.00    -0.242 N 
HETATM   26  C   UNL     1      -6.524  -3.240 -34.912  1.00  0.00     0.272 A 
HETATM   27  H   UNL     1      -7.908  -1.798 -35.358  1.00  0.00     0.192 HD
HETATM   28  O   UNL     1      -7.048  -4.138 -35.562  1.00  0.00    -0.266 OA
HETATM   29  C   UNL     1      -5.289  -3.469 -34.145  1.00  0.00     0.046 A 
HETATM   30  C   UNL     1      -4.712  -4.744 -34.108  1.00  0.00     0.018 A 
HETATM   31  C   UNL     1      -4.725  -2.411 -33.434  1.00  0.00     0.011 A 
HETATM   32  C   UNL     1      -3.572  -4.967 -33.339  1.00  0.00     0.001 A 
HETATM   33  C   UNL     1      -3.019  -3.921 -32.600  1.00  0.00     0.001 A 
HETATM   34  C   UNL     1      -3.596  -2.647 -32.638  1.00  0.00     0.015 A 
ENDBRANCH   4  23
TORSDOF 4
ENDMDL
MODEL 2
REMARK VINA RESULT:     -10.0      6.887      9.708
REMARK  4 active torsions:
REMARK  status: ('A' for Active; 'I' for Inactive)
REMARK       I    between atoms: C_2  and  N_3 
REMARK    1  A    between atoms: C_2  and  C_21 
REMARK    2  A    between atoms: N_3  and  C_4 
REMARK    3  A    between atoms: C_7  and  C_10 
REMARK    4  A    between atoms: C_24  and  N_27 
ROOT
HETATM    1  C   UNL     1      -7.885   1.659 -34.051  1.00  0.00     0.035 A 
HETATM    2  C   UNL     1      -7.210   0.895 -35.008  1.00  0.00     0.030 A 
HETATM    3  C   UNL     1      -6.252  -0.047 -34.618  1.00  0.00     0.016 A 
HETATM    4  C   UNL     1      -5.976  -0.244 -33.264  1.00  0.00    -0.005 A 
HETATM    5  C   UNL     1      -6.631   0.524 -32.298  1.00  0.00     0.016 A 
HETATM    6  C   UNL     1      -7.587   1.464 -32.694  1.00  0.00     0.030 A 
ENDROOT
BRANCH   1   7
HETATM    7  N   UNL     1      -8.854   2.636 -34.363  1.00  0.00    -0.323 N 
HETATM    8  C   UNL     1     -10.230   2.491 -34.348  1.00  0.00     0.256 C 
HETATM    9  O   UNL     1     -10.860   1.470 -34.100  1.00  0.00    -0.267 OA
HETATM   10  H   UNL     1      -8.494   3.517 -34.707  1.00  0.00     0.169 HD
BRANCH   8  11
HETATM   11  C   UNL     1     -10.993   3.718 -34.718  1.00  0.00     0.032 A 
HETATM   12  C   UNL     1     -12.384   3.723 -34.822  1.00  0.00     0.019 A 
HETATM   13  C   UNL     1     -13.054   4.907 -35.158  1.00  0.00     0.030 A 
HETATM   14  C   UNL     1     -12.373   6.111 -35.418  1.00  0.00     0.030 A 
HETATM   15  C   UNL     1     -10.974   6.070 -35.311  1.00  0.00     0.030 A 
HETATM   16  C   UNL     1     -10.289   4.892 -34.979  1.00  0.00     0.019 A 
BRANCH  14  17
HETATM   17  N   UNL     1     -13.082   7.273 -35.714  1.00  0.00    -0.381 N 
HETATM   18  C   UNL     1     -12.389   8.527 -36.043  1.00  0.00     0.123 C 
HETATM   19  C   UNL     1     -12.245   8.688 -37.557  1.00  0.00     0.020 C 
HETATM   20  C   UNL     1     -13.598   8.560 -38.256  1.00  0.00     0.003 C 
HETATM   21  C   UNL     1     -14.304   7.268 -37.850  1.00  0.00     0.020 C 
HETATM   22  C   UNL     1     -14.415   7.151 -36.328  1.00  0.00     0.123 C 
ENDBRANCH  14  17
ENDBRANCH   8  11
ENDBRANCH   1   7
BRANCH   4  23
HETATM   23  C   UNL     1      -4.922  -1.213 -32.873  1.00  0.00     0.098 A 
HETATM   24  N   UNL     1      -4.059  -0.809 -31.988  1.00  0.00    -0.170 NA
HETATM   25  N   UNL     1      -3.109  -1.682 -31.560  1.00  0.00    -0.242 N 
HETATM   26  C   UNL     1      -2.989  -2.995 -31.939  1.00  0.00     0.272 A 
HETATM   27  H   UNL     1      -2.468  -1.341 -30.852  1.00  0.00     0.192 HD
HETATM   28  O   UNL     1      -2.142  -3.744 -31.465  1.00  0.00    -0.266 OA
HETATM   29  C   UNL     1      -3.931  -3.460 -32.971  1.00  0.00     0.046 A 
HETATM   30  C   UNL     1      -3.841  -4.767 -33.467  1.00  0.00     0.018 A 
HETATM   31  C   UNL     1      -4.886  -2.574 -33.468  1.00  0.00     0.011 A 
HETATM   32  C   UNL     1      -4.702  -5.184 -34.480  1.00  0.00     0.001 A 
HETATM   33  C   UNL     1      -5.640  -4.294 -35.004  1.00  0.00     0.001 A 
HETATM   34  C   UNL     1      -5.729  -2.989 -34.507  1.00  0.00     0.015 A 
ENDBRANCH   4  23
TORSDOF 4
ENDMDL
MODEL 3
REMARK VINA RESULT:      -9.9      8.042     11.704
REMARK  4 active torsions:
REMARK  status: ('A' for Active; 'I' for Inactive)
REMARK       I    between atoms: C_2  and  N_3 
REMARK    1  A    between atoms: C_2  and  C_21 
REMARK    2  A    between atoms: N_3  and  C_4 
REMARK    3  A    between atoms: C_7  and  C_10 
REMARK    4  A    between atoms: C_24  and  N_27 
ROOT
HETATM    1  C   UNL     1     -10.401   1.648 -32.923  1.00  0.00     0.035 A 
HETATM    2  C   UNL     1      -9.630   1.889 -34.062  1.00  0.00     0.030 A 
HETATM    3  C   UNL     1      -8.318   1.408 -34.147  1.00  0.00     0.016 A 
HETATM    4  C   UNL     1      -7.777   0.665 -33.097  1.00  0.00    -0.005 A 
HETATM    5  C   UNL     1      -8.532   0.430 -31.946  1.00  0.00     0.016 A 
HETATM    6  C   UNL     1      -9.842   0.913 -31.867  1.00  0.00     0.030 A 
ENDROOT
BRANCH   1   7
HETATM    7  N   UNL     1     -11.725   2.108 -32.755  1.00  0.00    -0.323 N 
HETATM    8  C   UNL     1     -12.888   1.514 -33.215  1.00  0.00     0.256 C 
HETATM    9  O   UNL     1     -12.975   0.497 -33.891  1.00  0.00    -0.267 OA
HETATM   10  H   UNL     1     -11.821   3.013 -32.312  1.00  0.00     0.169 HD
BRANCH   8  11
HETATM   11  C   UNL     1     -14.142   2.240 -32.865  1.00  0.00     0.032 A 
HETATM   12  C   UNL     1     -15.396   1.635 -32.944  1.00  0.00     0.019 A 
HETATM   13  C   UNL     1     -16.543   2.357 -32.589  1.00  0.00     0.030 A 
HETATM   14  C   UNL     1     -16.489   3.697 -32.166  1.00  0.00     0.030 A 
HETATM   15  C   UNL     1     -15.213   4.279 -32.104  1.00  0.00     0.030 A 
HETATM   16  C   UNL     1     -14.056   3.571 -32.459  1.00  0.00     0.019 A 
BRANCH  14  17
HETATM   17  N   UNL     1     -17.651   4.367 -31.788  1.00  0.00    -0.381 N 
HETATM   18  C   UNL     1     -17.636   5.801 -31.467  1.00  0.00     0.123 C 
HETATM   19  C   UNL     1     -18.010   6.637 -32.690  1.00  0.00     0.020 C 
HETATM   20  C   UNL     1     -19.342   6.180 -33.285  1.00  0.00     0.003 C 
HETATM   21  C   UNL     1     -19.331   4.677 -33.560  1.00  0.00     0.020 C 
HETATM   22  C   UNL     1     -18.943   3.887 -32.309  1.00  0.00     0.123 C 
ENDBRANCH  14  17
ENDBRANCH   8  11
ENDBRANCH   1   7
BRANCH   4  23
HETATM   23  C   UNL     1      -6.369   0.205 -33.186  1.00  0.00     0.098 A 
HETATM   24  N   UNL     1      -5.459   1.027 -32.753  1.00  0.00    -0.170 NA
HETATM   25  N   UNL     1      -4.161   0.626 -32.765  1.00  0.00    -0.242 N 
HETATM   26  C   UNL     1      -3.700  -0.607 -33.153  1.00  0.00     0.272 A 
HETATM   27  H   UNL     1      -3.481   1.283 -32.398  1.00  0.00     0.192 HD
HETATM   28  O   UNL     1      -2.516  -0.921 -33.080  1.00  0.00    -0.266 OA
HETATM   29  C   UNL     1      -4.709  -1.537 -33.686  1.00  0.00     0.046 A 
HETATM   30  C   UNL     1      -4.320  -2.794 -34.167  1.00  0.00     0.018 A 
HETATM   31  C   UNL     1      -6.043  -1.137 -33.735  1.00  0.00     0.011 A 
HETATM   32  C   UNL     1      -5.273  -3.650 -34.717  1.00  0.00     0.001 A 
HETATM   33  C   UNL     1      -6.605  -3.244 -34.798  1.00  0.00     0.001 A 
HETATM   34  C   UNL     1      -6.991  -1.989 -34.316  1.00  0.00     0.015 A 
ENDBRANCH   4  23
TORSDOF 4
ENDMDL
MODEL 4
REMARK VINA RESULT:      -9.6      1.969      3.019
REMARK  4 active torsions:
REMARK  status: ('A' for Active; 'I' for Inactive)
REMARK       I    between atoms: C_2  and  N_3 
REMARK    1  A    between atoms: C_2  and  C_21 
REMARK    2  A    between atoms: N_3  and  C_4 
REMARK    3  A    between atoms: C_7  and  C_10 
REMARK    4  A    between atoms: C_24  and  N_27 
ROOT
HETATM    1  C   UNL     1      -3.397   4.745 -30.893  1.00  0.00     0.035 A 
HETATM    2  C   UNL     1      -4.741   4.529 -30.577  1.00  0.00     0.030 A 
HETATM    3  C   UNL     1      -5.511   3.629 -31.322  1.00  0.00     0.016 A 
HETATM    4  C   UNL     1      -4.933   2.925 -32.380  1.00  0.00    -0.005 A 
HETATM    5  C   UNL     1      -3.596   3.143 -32.717  1.00  0.00     0.016 A 
HETATM    6  C   UNL     1      -2.832   4.044 -31.969  1.00  0.00     0.030 A 
ENDROOT
BRANCH   1   7
HETATM    7  N   UNL     1      -2.558   5.643 -30.199  1.00  0.00    -0.323 N 
HETATM    8  C   UNL     1      -2.266   6.953 -30.534  1.00  0.00     0.256 C 
HETATM    9  O   UNL     1      -2.654   7.563 -31.523  1.00  0.00    -0.267 OA
HETATM   10  H   UNL     1      -2.057   5.253 -29.410  1.00  0.00     0.169 HD
BRANCH   8  11
HETATM   11  C   UNL     1      -1.348   7.651 -29.590  1.00  0.00     0.032 A 
HETATM   12  C   UNL     1      -0.033   7.231 -29.387  1.00  0.00     0.019 A 
HETATM   13  C   UNL     1       0.795   7.932 -28.500  1.00  0.00     0.030 A 
HETATM   14  C   UNL     1       0.347   9.051 -27.776  1.00  0.00     0.030 A 
HETATM   15  C   UNL     1      -0.982   9.444 -27.998  1.00  0.00     0.030 A 
HETATM   16  C   UNL     1      -1.825   8.752 -28.879  1.00  0.00     0.019 A 
BRANCH  14  17
HETATM   17  N   UNL     1       1.215   9.739 -26.931  1.00  0.00    -0.381 N 
HETATM   18  C   UNL     1       0.767  10.914 -26.168  1.00  0.00     0.123 C 
HETATM   19  C   UNL     1       0.328  10.512 -24.760  1.00  0.00     0.020 C 
HETATM   20  C   UNL     1       1.425   9.726 -24.043  1.00  0.00     0.003 C 
HETATM   21  C   UNL     1       1.895   8.545 -24.889  1.00  0.00     0.020 C 
HETATM   22  C   UNL     1       2.313   8.997 -26.290  1.00  0.00     0.123 C 
ENDBRANCH  14  17
ENDBRANCH   8  11
ENDBRANCH   1   7
BRANCH   4  23
HETATM   23  C   UNL     1      -5.778   2.012 -33.189  1.00  0.00     0.098 A 
HETATM   24  N   UNL     1      -6.835   2.532 -33.740  1.00  0.00    -0.170 NA
HETATM   25  N   UNL     1      -7.609   1.745 -34.534  1.00  0.00    -0.242 N 
HETATM   26  C   UNL     1      -7.361   0.436 -34.861  1.00  0.00     0.272 A 
HETATM   27  H   UNL     1      -8.412   2.190 -34.966  1.00  0.00     0.192 HD
HETATM   28  O   UNL     1      -8.072  -0.197 -35.634  1.00  0.00    -0.266 OA
HETATM   29  C   UNL     1      -6.192  -0.183 -34.214  1.00  0.00     0.046 A 
HETATM   30  C   UNL     1      -5.900  -1.534 -34.438  1.00  0.00     0.018 A 
HETATM   31  C   UNL     1      -5.407   0.583 -33.354  1.00  0.00     0.011 A 
HETATM   32  C   UNL     1      -4.822  -2.127 -33.783  1.00  0.00     0.001 A 
HETATM   33  C   UNL     1      -4.050  -1.376 -32.897  1.00  0.00     0.001 A 
HETATM   34  C   UNL     1      -4.344  -0.027 -32.675  1.00  0.00     0.015 A 
ENDBRANCH   4  23
TORSDOF 4
ENDMDL
MODEL 5
REMARK VINA RESULT:      -9.5      1.602      2.110
REMARK  4 active torsions:
REMARK  status: ('A' for Active; 'I' for Inactive)
REMARK       I    between atoms: C_2  and  N_3 
REMARK    1  A    between atoms: C_2  and  C_21 
REMARK    2  A    between atoms: N_3  and  C_4 
REMARK    3  A    between atoms: C_7  and  C_10 
REMARK    4  A    between atoms: C_24  and  N_27 
ROOT
HETATM    1  C   UNL     1      -4.200   3.107 -31.184  1.00  0.00     0.035 A 
HETATM    2  C   UNL     1      -5.338   2.357 -30.877  1.00  0.00     0.030 A 
HETATM    3  C   UNL     1      -5.623   1.179 -31.577  1.00  0.00     0.016 A 
HETATM    4  C   UNL     1      -4.759   0.735 -32.579  1.00  0.00    -0.005 A 
HETATM    5  C   UNL     1      -3.627   1.484 -32.907  1.00  0.00     0.016 A 
HETATM    6  C   UNL     1      -3.347   2.660 -32.204  1.00  0.00     0.030 A 
ENDROOT
BRANCH   1   7
HETATM    7  N   UNL     1      -3.849   4.310 -30.534  1.00  0.00    -0.323 N 
HETATM    8  C   UNL     1      -4.131   5.602 -30.943  1.00  0.00     0.256 C 
HETATM    9  O   UNL     1      -4.705   5.938 -31.971  1.00  0.00    -0.267 OA
HETATM   10  H   UNL     1      -3.259   4.210 -29.718  1.00  0.00     0.169 HD
BRANCH   8  11
HETATM   11  C   UNL     1      -3.632   6.670 -30.031  1.00  0.00     0.032 A 
HETATM   12  C   UNL     1      -2.373   7.251 -30.187  1.00  0.00     0.019 A 
HETATM   13  C   UNL     1      -1.958   8.263 -29.311  1.00  0.00     0.030 A 
HETATM   14  C   UNL     1      -2.761   8.717 -28.250  1.00  0.00     0.030 A 
HETATM   15  C   UNL     1      -4.019   8.108 -28.116  1.00  0.00     0.030 A 
HETATM   16  C   UNL     1      -4.447   7.091 -28.981  1.00  0.00     0.019 A 
BRANCH  14  17
HETATM   17  N   UNL     1      -2.323   9.750 -27.425  1.00  0.00    -0.381 N 
HETATM   18  C   UNL     1      -3.026  10.082 -26.177  1.00  0.00     0.123 C 
HETATM   19  C   UNL     1      -2.383   9.374 -24.985  1.00  0.00     0.020 C 
HETATM   20  C   UNL     1      -0.884   9.664 -24.913  1.00  0.00     0.003 C 
HETATM   21  C   UNL     1      -0.201   9.351 -26.242  1.00  0.00     0.020 C 
HETATM   22  C   UNL     1      -0.887  10.076 -27.403  1.00  0.00     0.123 C 
ENDBRANCH  14  17
ENDBRANCH   8  11
ENDBRANCH   1   7
BRANCH   4  23
HETATM   23  C   UNL     1      -5.104  -0.490 -33.342  1.00  0.00     0.098 A 
HETATM   24  N   UNL     1      -6.024  -0.368 -34.253  1.00  0.00    -0.170 NA
HETATM   25  N   UNL     1      -6.334  -1.452 -35.013  1.00  0.00    -0.242 N 
HETATM   26  C   UNL     1      -5.729  -2.682 -34.951  1.00  0.00     0.272 A 
HETATM   27  H   UNL     1      -7.039  -1.314 -35.729  1.00  0.00     0.192 HD
HETATM   28  O   UNL     1      -6.019  -3.599 -35.712  1.00  0.00    -0.266 OA
HETATM   29  C   UNL     1      -4.714  -2.851 -33.898  1.00  0.00     0.046 A 
HETATM   30  C   UNL     1      -4.090  -4.093 -33.718  1.00  0.00     0.018 A 
HETATM   31  C   UNL     1      -4.409  -1.774 -33.068  1.00  0.00     0.011 A 
HETATM   32  C   UNL     1      -3.167  -4.261 -32.688  1.00  0.00     0.001 A 
HETATM   33  C   UNL     1      -2.880  -3.197 -31.833  1.00  0.00     0.001 A 
HETATM   34  C   UNL     1      -3.503  -1.958 -32.015  1.00  0.00     0.015 A 
ENDBRANCH   4  23
TORSDOF 4
ENDMDL
MODEL 6
REMARK VINA RESULT:      -9.4      5.379      6.904
REMARK  4 active torsions:
REMARK  status: ('A' for Active; 'I' for Inactive)
REMARK       I    between atoms: C_2  and  N_3 
REMARK    1  A    between atoms: C_2  and  C_21 
REMARK    2  A    between atoms: N_3  and  C_4 
REMARK    3  A    between atoms: C_7  and  C_10 
REMARK    4  A    between atoms: C_24  and  N_27 
ROOT
HETATM    1  C   UNL     1      -7.518   3.914 -33.036  1.00  0.00     0.035 A 
HETATM    2  C   UNL     1      -8.345   4.565 -33.955  1.00  0.00     0.030 A 
HETATM    3  C   UNL     1      -9.640   4.096 -34.202  1.00  0.00     0.016 A 
HETATM    4  C   UNL     1     -10.123   2.982 -33.514  1.00  0.00    -0.005 A 
HETATM    5  C   UNL     1      -9.301   2.312 -32.604  1.00  0.00     0.016 A 
HETATM    6  C   UNL     1      -8.007   2.786 -32.363  1.00  0.00     0.030 A 
ENDROOT
BRANCH   1   7
HETATM    7  N   UNL     1      -6.198   4.316 -32.740  1.00  0.00    -0.323 N 
HETATM    8  C   UNL     1      -5.185   4.608 -33.638  1.00  0.00     0.256 C 
HETATM    9  O   UNL     1      -5.240   4.530 -34.859  1.00  0.00    -0.267 OA
HETATM   10  H   UNL     1      -5.949   4.316 -31.759  1.00  0.00     0.169 HD
BRANCH   8  11
HETATM   11  C   UNL     1      -3.895   5.018 -33.014  1.00  0.00     0.032 A 
HETATM   12  C   UNL     1      -2.693   5.012 -33.723  1.00  0.00     0.019 A 
HETATM   13  C   UNL     1      -1.510   5.422 -33.094  1.00  0.00     0.030 A 
HETATM   14  C   UNL     1      -1.474   5.829 -31.748  1.00  0.00     0.030 A 
HETATM   15  C   UNL     1      -2.698   5.816 -31.061  1.00  0.00     0.030 A 
HETATM   16  C   UNL     1      -3.890   5.406 -31.675  1.00  0.00     0.019 A 
BRANCH  14  17
HETATM   17  N   UNL     1      -0.281   6.262 -31.173  1.00  0.00    -0.381 N 
HETATM   18  C   UNL     1      -0.250   7.398 -30.240  1.00  0.00     0.123 C 
HETATM   19  C   UNL     1      -0.327   6.916 -28.792  1.00  0.00     0.020 C 
HETATM   20  C   UNL     1       0.758   5.881 -28.496  1.00  0.00     0.003 C 
HETATM   21  C   UNL     1       0.722   4.744 -29.515  1.00  0.00     0.020 C 
HETATM   22  C   UNL     1       0.792   5.278 -30.947  1.00  0.00     0.123 C 
ENDBRANCH  14  17
ENDBRANCH   8  11
ENDBRANCH   1   7
BRANCH   4  23
HETATM   23  C   UNL     1     -11.481   2.472 -33.824  1.00  0.00     0.098 A 
HETATM   24  N   UNL     1     -11.583   1.669 -34.843  1.00  0.00    -0.170 NA
HETATM   25  N   UNL     1     -12.799   1.135 -35.130  1.00  0.00    -0.242 N 
HETATM   26  C   UNL     1     -13.954   1.321 -34.413  1.00  0.00     0.272 A 
HETATM   27  H   UNL     1     -12.837   0.495 -35.917  1.00  0.00     0.192 HD
HETATM   28  O   UNL     1     -15.005   0.757 -34.697  1.00  0.00    -0.266 OA
HETATM   29  C   UNL     1     -13.868   2.259 -33.281  1.00  0.00     0.046 A 
HETATM   30  C   UNL     1     -15.013   2.560 -32.531  1.00  0.00     0.018 A 
HETATM   31  C   UNL     1     -12.647   2.863 -32.990  1.00  0.00     0.011 A 
HETATM   32  C   UNL     1     -14.936   3.487 -31.494  1.00  0.00     0.001 A 
HETATM   33  C   UNL     1     -13.724   4.119 -31.216  1.00  0.00     0.001 A 
HETATM   34  C   UNL     1     -12.583   3.817 -31.965  1.00  0.00     0.015 A 
ENDBRANCH   4  23
TORSDOF 4
ENDMDL
MODEL 7
REMARK VINA RESULT:      -9.2      7.016      9.403
REMARK  4 active torsions:
REMARK  status: ('A' for Active; 'I' for Inactive)
REMARK       I    between atoms: C_2  and  N_3 
REMARK    1  A    between atoms: C_2  and  C_21 
REMARK    2  A    between atoms: N_3  and  C_4 
REMARK    3  A    between atoms: C_7  and  C_10 
REMARK    4  A    between atoms: C_24  and  N_27 
ROOT
HETATM    1  C   UNL     1      -8.695   1.304 -34.389  1.00  0.00     0.035 A 
HETATM    2  C   UNL     1      -9.056   0.273 -33.518  1.00  0.00     0.030 A 
HETATM    3  C   UNL     1      -8.307  -0.908 -33.465  1.00  0.00     0.016 A 
HETATM    4  C   UNL     1      -7.178  -1.055 -34.272  1.00  0.00    -0.005 A 
HETATM    5  C   UNL     1      -6.814  -0.039 -35.158  1.00  0.00     0.016 A 
HETATM    6  C   UNL     1      -7.567   1.138 -35.207  1.00  0.00     0.030 A 
ENDROOT
BRANCH   1   7
HETATM    7  N   UNL     1      -9.403   2.519 -34.511  1.00  0.00    -0.323 N 
HETATM    8  C   UNL     1      -9.468   3.552 -33.592  1.00  0.00     0.256 C 
HETATM    9  O   UNL     1      -8.952   3.582 -32.482  1.00  0.00    -0.267 OA
HETATM   10  H   UNL     1      -9.988   2.604 -35.333  1.00  0.00     0.169 HD
BRANCH   8  11
HETATM   11  C   UNL     1     -10.296   4.716 -34.017  1.00  0.00     0.032 A 
HETATM   12  C   UNL     1      -9.963   5.499 -35.123  1.00  0.00     0.019 A 
HETATM   13  C   UNL     1     -10.784   6.574 -35.490  1.00  0.00     0.030 A 
HETATM   14  C   UNL     1     -11.942   6.918 -34.770  1.00  0.00     0.030 A 
HETATM   15  C   UNL     1     -12.245   6.115 -33.659  1.00  0.00     0.030 A 
HETATM   16  C   UNL     1     -11.432   5.038 -33.276  1.00  0.00     0.019 A 
BRANCH  14  17
HETATM   17  N   UNL     1     -12.749   7.972 -35.191  1.00  0.00    -0.381 N 
HETATM   18  C   UNL     1     -12.534   8.627 -36.491  1.00  0.00     0.123 C 
HETATM   19  C   UNL     1     -13.435   8.014 -37.563  1.00  0.00     0.020 C 
HETATM   20  C   UNL     1     -14.900   8.031 -37.129  1.00  0.00     0.003 C 
HETATM   21  C   UNL     1     -15.072   7.385 -35.756  1.00  0.00     0.020 C 
HETATM   22  C   UNL     1     -14.144   8.026 -34.721  1.00  0.00     0.123 C 
ENDBRANCH  14  17
ENDBRANCH   8  11
ENDBRANCH   1   7
BRANCH   4  23
HETATM   23  C   UNL     1      -6.424  -2.334 -34.235  1.00  0.00     0.098 A 
HETATM   24  N   UNL     1      -6.900  -3.310 -34.951  1.00  0.00    -0.170 NA
HETATM   25  N   UNL     1      -6.213  -4.482 -34.990  1.00  0.00    -0.242 N 
HETATM   26  C   UNL     1      -5.013  -4.736 -34.375  1.00  0.00     0.272 A 
HETATM   27  H   UNL     1      -6.600  -5.213 -35.577  1.00  0.00     0.192 HD
HETATM   28  O   UNL     1      -4.418  -5.801 -34.504  1.00  0.00    -0.266 OA
HETATM   29  C   UNL     1      -4.479  -3.658 -33.527  1.00  0.00     0.046 A 
HETATM   30  C   UNL     1      -3.293  -3.852 -32.808  1.00  0.00     0.018 A 
HETATM   31  C   UNL     1      -5.186  -2.461 -33.424  1.00  0.00     0.011 A 
HETATM   32  C   UNL     1      -2.819  -2.846 -31.968  1.00  0.00     0.001 A 
HETATM   33  C   UNL     1      -3.538  -1.658 -31.836  1.00  0.00     0.001 A 
HETATM   34  C   UNL     1      -4.722  -1.465 -32.554  1.00  0.00     0.015 A 
ENDBRANCH   4  23
TORSDOF 4
ENDMDL
MODEL 8
REMARK VINA RESULT:      -9.2      3.233      4.067
REMARK  4 active torsions:
REMARK  status: ('A' for Active; 'I' for Inactive)
REMARK       I    between atoms: C_2  and  N_3 
REMARK    1  A    between atoms: C_2  and  C_21 
REMARK    2  A    between atoms: N_3  and  C_4 
REMARK    3  A    between atoms: C_7  and  C_10 
REMARK    4  A    between atoms: C_24  and  N_27 
ROOT
HETATM    1  C   UNL     1      -4.468   2.691 -30.736  1.00  0.00     0.035 A 
HETATM    2  C   UNL     1      -3.540   2.414 -31.743  1.00  0.00     0.030 A 
HETATM    3  C   UNL     1      -3.414   1.117 -32.257  1.00  0.00     0.016 A 
HETATM    4  C   UNL     1      -4.231   0.093 -31.776  1.00  0.00    -0.005 A 
HETATM    5  C   UNL     1      -5.152   0.353 -30.758  1.00  0.00     0.016 A 
HETATM    6  C   UNL     1      -5.273   1.650 -30.249  1.00  0.00     0.030 A 
ENDROOT
BRANCH   1   7
HETATM    7  N   UNL     1      -4.648   3.966 -30.158  1.00  0.00    -0.323 N 
HETATM    8  C   UNL     1      -5.617   4.903 -30.471  1.00  0.00     0.256 C 
HETATM    9  O   UNL     1      -6.474   4.811 -31.341  1.00  0.00    -0.267 OA
HETATM   10  H   UNL     1      -3.939   4.249 -29.494  1.00  0.00     0.169 HD
BRANCH   8  11
HETATM   11  C   UNL     1      -5.553   6.160 -29.673  1.00  0.00     0.032 A 
HETATM   12  C   UNL     1      -4.645   7.178 -29.964  1.00  0.00     0.019 A 
HETATM   13  C   UNL     1      -4.636   8.348 -29.191  1.00  0.00     0.030 A 
HETATM   14  C   UNL     1      -5.506   8.538 -28.103  1.00  0.00     0.030 A 
HETATM   15  C   UNL     1      -6.403   7.492 -27.832  1.00  0.00     0.030 A 
HETATM   16  C   UNL     1      -6.421   6.315 -28.593  1.00  0.00     0.019 A 
BRANCH  14  17
HETATM   17  N   UNL     1      -5.487   9.731 -27.384  1.00  0.00    -0.381 N 
HETATM   18  C   UNL     1      -6.236   9.879 -26.127  1.00  0.00     0.123 C 
HETATM   19  C   UNL     1      -5.341   9.586 -24.924  1.00  0.00     0.020 C 
HETATM   20  C   UNL     1      -4.073  10.438 -24.958  1.00  0.00     0.003 C 
HETATM   21  C   UNL     1      -3.352  10.293 -26.296  1.00  0.00     0.020 C 
HETATM   22  C   UNL     1      -4.291  10.587 -27.468  1.00  0.00     0.123 C 
ENDBRANCH  14  17
ENDBRANCH   8  11
ENDBRANCH   1   7
BRANCH   4  23
HETATM   23  C   UNL     1      -4.050  -1.284 -32.299  1.00  0.00     0.098 A 
HETATM   24  N   UNL     1      -3.074  -1.976 -31.788  1.00  0.00    -0.170 NA
HETATM   25  N   UNL     1      -2.904  -3.260 -32.198  1.00  0.00    -0.242 N 
HETATM   26  C   UNL     1      -3.703  -3.938 -33.084  1.00  0.00     0.272 A 
HETATM   27  H   UNL     1      -2.148  -3.778 -31.762  1.00  0.00     0.192 HD
HETATM   28  O   UNL     1      -3.525  -5.119 -33.363  1.00  0.00    -0.266 OA
HETATM   29  C   UNL     1      -4.788  -3.159 -33.704  1.00  0.00     0.046 A 
HETATM   30  C   UNL     1      -5.613  -3.751 -34.669  1.00  0.00     0.018 A 
HETATM   31  C   UNL     1      -4.958  -1.824 -33.343  1.00  0.00     0.011 A 
HETATM   32  C   UNL     1      -6.605  -2.994 -35.289  1.00  0.00     0.001 A 
HETATM   33  C   UNL     1      -6.761  -1.648 -34.956  1.00  0.00     0.001 A 
HETATM   34  C   UNL     1      -5.937  -1.060 -33.992  1.00  0.00     0.015 A 
ENDBRANCH   4  23
TORSDOF 4
ENDMDL
MODEL 9
REMARK VINA RESULT:      -9.1      7.808     10.855
REMARK  4 active torsions:
REMARK  status: ('A' for Active; 'I' for Inactive)
REMARK       I    between atoms: C_2  and  N_3 
REMARK    1  A    between atoms: C_2  and  C_21 
REMARK    2  A    between atoms: N_3  and  C_4 
REMARK    3  A    between atoms: C_7  and  C_10 
REMARK    4  A    between atoms: C_24  and  N_27 
ROOT
HETATM    1  C   UNL     1      -9.739   2.102 -32.472  1.00  0.00     0.035 A 
HETATM    2  C   UNL     1      -8.728   2.456 -33.369  1.00  0.00     0.030 A 
HETATM    3  C   UNL     1      -7.498   1.788 -33.353  1.00  0.00     0.016 A 
HETATM    4  C   UNL     1      -7.279   0.747 -32.450  1.00  0.00    -0.005 A 
HETATM    5  C   UNL     1      -8.276   0.393 -31.538  1.00  0.00     0.016 A 
HETATM    6  C   UNL     1      -9.502   1.064 -31.558  1.00  0.00     0.030 A 
ENDROOT
BRANCH   1   7
HETATM    7  N   UNL     1     -11.000   2.732 -32.416  1.00  0.00    -0.323 N 
HETATM    8  C   UNL     1     -11.409   3.719 -31.536  1.00  0.00     0.256 C 
HETATM    9  O   UNL     1     -10.760   4.198 -30.614  1.00  0.00    -0.267 OA
HETATM   10  H   UNL     1     -11.703   2.363 -33.043  1.00  0.00     0.169 HD
BRANCH   8  11
HETATM   11  C   UNL     1     -12.808   4.196 -31.736  1.00  0.00     0.032 A 
HETATM   12  C   UNL     1     -13.112   5.544 -31.925  1.00  0.00     0.019 A 
HETATM   13  C   UNL     1     -14.443   5.937 -32.125  1.00  0.00     0.030 A 
HETATM   14  C   UNL     1     -15.508   5.019 -32.126  1.00  0.00     0.030 A 
HETATM   15  C   UNL     1     -15.168   3.672 -31.927  1.00  0.00     0.030 A 
HETATM   16  C   UNL     1     -13.843   3.262 -31.722  1.00  0.00     0.019 A 
BRANCH  14  17
HETATM   17  N   UNL     1     -16.811   5.450 -32.364  1.00  0.00    -0.381 N 
HETATM   18  C   UNL     1     -17.947   4.518 -32.305  1.00  0.00     0.123 C 
HETATM   19  C   UNL     1     -18.600   4.542 -30.924  1.00  0.00     0.020 C 
HETATM   20  C   UNL     1     -18.983   5.965 -30.519  1.00  0.00     0.003 C 
HETATM   21  C   UNL     1     -17.789   6.910 -30.640  1.00  0.00     0.020 C 
HETATM   22  C   UNL     1     -17.166   6.841 -32.036  1.00  0.00     0.123 C 
ENDBRANCH  14  17
ENDBRANCH   8  11
ENDBRANCH   1   7
BRANCH   4  23
HETATM   23  C   UNL     1      -5.952   0.083 -32.417  1.00  0.00     0.098 A 
HETATM   24  N   UNL     1      -5.047   0.630 -31.660  1.00  0.00    -0.170 NA
HETATM   25  N   UNL     1      -3.834   0.026 -31.558  1.00  0.00    -0.242 N 
HETATM   26  C   UNL     1      -3.468  -1.158 -32.148  1.00  0.00     0.272 A 
HETATM   27  H   UNL     1      -3.160   0.466 -30.940  1.00  0.00     0.192 HD
HETATM   28  O   UNL     1      -2.373  -1.677 -31.962  1.00  0.00    -0.266 OA
HETATM   29  C   UNL     1      -4.465  -1.770 -33.042  1.00  0.00     0.046 A 
HETATM   30  C   UNL     1      -4.155  -2.945 -33.738  1.00  0.00     0.018 A 
HETATM   31  C   UNL     1      -5.701  -1.148 -33.209  1.00  0.00     0.011 A 
HETATM   32  C   UNL     1      -5.083  -3.492 -34.622  1.00  0.00     0.001 A 
HETATM   33  C   UNL     1      -6.310  -2.859 -34.818  1.00  0.00     0.001 A 
HETATM   34  C   UNL     1      -6.619  -1.686 -34.121  1.00  0.00     0.015 A 
ENDBRANCH   4  23
TORSDOF 4
ENDMDL
MODEL 10
REMARK VINA RESULT:      -9.0      7.684     10.914
REMARK  4 active torsions:
REMARK  status: ('A' for Active; 'I' for Inactive)
REMARK       I    between atoms: C_2  and  N_3 
REMARK    1  A    between atoms: C_2  and  C_21 
REMARK    2  A    between atoms: N_3  and  C_4 
REMARK    3  A    between atoms: C_7  and  C_10 
REMARK    4  A    between atoms: C_24  and  N_27 
ROOT
HETATM    1  C   UNL     1     -10.098   1.461 -32.939  1.00  0.00     0.035 A 
HETATM    2  C   UNL     1      -9.462   0.844 -31.858  1.00  0.00     0.030 A 
HETATM    3  C   UNL     1      -8.360   0.007 -32.065  1.00  0.00     0.016 A 
HETATM    4  C   UNL     1      -7.875  -0.204 -33.357  1.00  0.00    -0.005 A 
HETATM    5  C   UNL     1      -8.511   0.393 -34.448  1.00  0.00     0.016 A 
HETATM    6  C   UNL     1      -9.612   1.229 -34.235  1.00  0.00     0.030 A 
ENDROOT
BRANCH   1   7
HETATM    7  N   UNL     1     -11.220   2.308 -32.816  1.00  0.00    -0.323 N 
HETATM    8  C   UNL     1     -12.540   2.003 -33.097  1.00  0.00     0.256 C 
HETATM    9  O   UNL     1     -12.971   0.948 -33.546  1.00  0.00    -0.267 OA
HETATM   10  H   UNL     1     -11.018   3.268 -32.565  1.00  0.00     0.169 HD
BRANCH   8  11
HETATM   11  C   UNL     1     -13.504   3.114 -32.854  1.00  0.00     0.032 A 
HETATM   12  C   UNL     1     -14.710   2.916 -32.182  1.00  0.00     0.019 A 
HETATM   13  C   UNL     1     -15.575   3.997 -31.965  1.00  0.00     0.030 A 
HETATM   14  C   UNL     1     -15.285   5.296 -32.420  1.00  0.00     0.030 A 
HETATM   15  C   UNL     1     -14.067   5.461 -33.099  1.00  0.00     0.030 A 
HETATM   16  C   UNL     1     -13.193   4.388 -33.327  1.00  0.00     0.019 A 
BRANCH  14  17
HETATM   17  N   UNL     1     -16.156   6.349 -32.152  1.00  0.00    -0.381 N 
HETATM   18  C   UNL     1     -17.266   6.673 -33.061  1.00  0.00     0.123 C 
HETATM   19  C   UNL     1     -18.557   5.994 -32.608  1.00  0.00     0.020 C 
HETATM   20  C   UNL     1     -18.874   6.326 -31.150  1.00  0.00     0.003 C 
HETATM   21  C   UNL     1     -17.680   6.020 -30.247  1.00  0.00     0.020 C 
HETATM   22  C   UNL     1     -16.412   6.715 -30.748  1.00  0.00     0.123 C 
ENDBRANCH  14  17
ENDBRANCH   8  11
ENDBRANCH   1   7
BRANCH   4  23
HETATM   23  C   UNL     1      -6.736  -1.133 -33.560  1.00  0.00     0.098 A 
HETATM   24  N   UNL     1      -6.913  -2.092 -34.421  1.00  0.00    -0.170 NA
HETATM   25  N   UNL     1      -5.878  -2.933 -34.679  1.00  0.00    -0.242 N 
HETATM   26  C   UNL     1      -4.616  -2.848 -34.147  1.00  0.00     0.272 A 
HETATM   27  H   UNL     1      -6.044  -3.655 -35.373  1.00  0.00     0.192 HD
HETATM   28  O   UNL     1      -3.710  -3.609 -34.473  1.00  0.00    -0.266 OA
HETATM   29  C   UNL     1      -4.407  -1.795 -33.140  1.00  0.00     0.046 A 
HETATM   30  C   UNL     1      -3.169  -1.675 -32.496  1.00  0.00     0.018 A 
HETATM   31  C   UNL     1      -5.464  -0.947 -32.815  1.00  0.00     0.011 A 
HETATM   32  C   UNL     1      -2.994  -0.709 -31.507  1.00  0.00     0.001 A 
HETATM   33  C   UNL     1      -4.056   0.123 -31.155  1.00  0.00     0.001 A 
HETATM   34  C   UNL     1      -5.291   0.002 -31.799  1.00  0.00     0.015 A 
ENDBRANCH   4  23
TORSDOF 4
ENDMDL
