MODEL 1
REMARK VINA RESULT:      -9.7      0.000      0.000
REMARK  6 active torsions:
REMARK  status: ('A' for Active; 'I' for Inactive)
REMARK    1  A    between atoms: C_5  and  C_6 
REMARK    2  A    between atoms: C_12  and  C_13 
REMARK       I    between atoms: C_13  and  N_14 
REMARK    3  A    between atoms: N_14  and  C_15 
REMARK    4  A    between atoms: C_18  and  C_19 
REMARK    5  A    between atoms: C_19  and  O_20 
REMARK    6  A    between atoms: C_25  and  C_26 
ROOT
HETATM    1  C   UNL     1      -6.954   0.171 -35.167  1.00  0.00     0.118 C 
HETATM    2  N   UNL     1      -6.441   1.434 -34.596  1.00  0.00    -0.365 N 
HETATM    3  C   UNL     1      -6.838   1.792 -33.335  1.00  0.00     0.138 A 
HETATM    4  N   UNL     1      -7.878   1.142 -32.708  1.00  0.00    -0.240 N 
HETATM    5  N   UNL     1      -8.088   1.551 -31.450  1.00  0.00    -0.181 NA
HETATM    6  C   UNL     1      -7.219   2.553 -31.302  1.00  0.00     0.160 A 
HETATM    7  C   UNL     1      -6.407   2.761 -32.445  1.00  0.00     0.096 A 
HETATM    8  C   UNL     1      -8.681   0.093 -33.313  1.00  0.00     0.221 C 
HETATM    9  C   UNL     1      -8.450   0.070 -34.837  1.00  0.00     0.066 C 
HETATM   10  H   UNL     1      -6.427   2.180 -35.296  1.00  0.00     0.161 HD
ENDROOT
BRANCH   7  11
HETATM   11  C   UNL     1      -5.367   3.772 -32.570  1.00  0.00     0.261 C 
HETATM   12  N   UNL     1      -4.688   4.031 -31.395  1.00  0.00    -0.323 N 
HETATM   13  H   UNL     1      -5.063   3.577 -30.569  1.00  0.00     0.169 HD
HETATM   14  O   UNL     1      -5.150   4.299 -33.655  1.00  0.00    -0.267 OA
BRANCH  12  15
HETATM   15  C   UNL     1      -3.521   4.802 -31.227  1.00  0.00     0.035 A 
HETATM   16  C   UNL     1      -2.247   4.379 -31.601  1.00  0.00     0.030 A 
HETATM   17  C   UNL     1      -1.121   5.176 -31.344  1.00  0.00     0.012 A 
HETATM   18  C   UNL     1      -1.239   6.417 -30.707  1.00  0.00    -0.030 A 
HETATM   19  C   UNL     1      -2.528   6.836 -30.342  1.00  0.00     0.012 A 
HETATM   20  C   UNL     1      -3.655   6.048 -30.610  1.00  0.00     0.030 A 
BRANCH  18  21
HETATM   21  C   UNL     1      -0.036   7.264 -30.333  1.00  0.00     0.147 C 
HETATM   22  C   UNL     1       0.506   7.068 -28.918  1.00  0.00     0.044 C 
BRANCH  21  23
HETATM   23  O   UNL     1       1.027   6.997 -31.250  1.00  0.00    -0.391 OA
HETATM   24  H   UNL     1       0.810   7.451 -32.081  1.00  0.00     0.210 HD
ENDBRANCH  21  23
ENDBRANCH  18  21
ENDBRANCH  12  15
ENDBRANCH   7  11
BRANCH   1  25
HETATM   25  C   UNL     1      -6.171  -1.062 -34.723  1.00  0.00    -0.035 A 
HETATM   26  C   UNL     1      -6.531  -2.370 -35.085  1.00  0.00     0.010 A 
HETATM   27  C   UNL     1      -5.745  -3.467 -34.713  1.00  0.00     0.007 A 
HETATM   28  C   UNL     1      -4.589  -3.289 -33.953  1.00  0.00    -0.062 A 
HETATM   29  C   UNL     1      -3.714  -4.452 -33.590  1.00  0.00     0.048 C 
HETATM   30  C   UNL     1      -4.236  -1.996 -33.557  1.00  0.00     0.007 A 
HETATM   31  C   UNL     1      -5.023  -0.901 -33.927  1.00  0.00     0.010 A 
ENDBRANCH   1  25
BRANCH   8  32
HETATM   32  C   UNL     1     -10.158   0.276 -33.038  1.00  0.00     0.409 C 
HETATM   33  F   UNL     1     -10.397   1.283 -32.167  1.00  0.00    -0.169 F 
HETATM   34  F   UNL     1     -10.794   0.614 -34.195  1.00  0.00    -0.169 F 
HETATM   35  F   UNL     1     -10.774  -0.835 -32.587  1.00  0.00    -0.169 F 
ENDBRANCH   8  32
TORSDOF 6
ENDMDL
MODEL 2
REMARK VINA RESULT:      -9.7      4.430      8.485
REMARK  6 active torsions:
REMARK  status: ('A' for Active; 'I' for Inactive)
REMARK    1  A    between atoms: C_5  and  C_6 
REMARK    2  A    between atoms: C_12  and  C_13 
REMARK       I    between atoms: C_13  and  N_14 
REMARK    3  A    between atoms: N_14  and  C_15 
REMARK    4  A    between atoms: C_18  and  C_19 
REMARK    5  A    between atoms: C_19  and  O_20 
REMARK    6  A    between atoms: C_25  and  C_26 
ROOT
HETATM    1  C   UNL     1      -5.631   0.623 -31.274  1.00  0.00     0.118 C 
HETATM    2  N   UNL     1      -6.908   1.361 -31.184  1.00  0.00    -0.365 N 
HETATM    3  C   UNL     1      -7.112   2.423 -32.023  1.00  0.00     0.138 A 
HETATM    4  N   UNL     1      -6.073   2.961 -32.751  1.00  0.00    -0.240 N 
HETATM    5  N   UNL     1      -6.450   3.937 -33.587  1.00  0.00    -0.181 NA
HETATM    6  C   UNL     1      -7.748   4.091 -33.316  1.00  0.00     0.160 A 
HETATM    7  C   UNL     1      -8.227   3.178 -32.344  1.00  0.00     0.096 A 
HETATM    8  C   UNL     1      -4.691   2.521 -32.666  1.00  0.00     0.221 C 
HETATM    9  C   UNL     1      -4.496   1.648 -31.411  1.00  0.00     0.066 C 
HETATM   10  H   UNL     1      -7.195   1.489 -30.211  1.00  0.00     0.161 HD
ENDROOT
BRANCH   7  11
HETATM   11  C   UNL     1      -9.598   3.103 -31.859  1.00  0.00     0.261 C 
HETATM   12  N   UNL     1     -10.553   3.346 -32.827  1.00  0.00    -0.323 N 
HETATM   13  H   UNL     1     -10.193   3.656 -33.723  1.00  0.00     0.169 HD
HETATM   14  O   UNL     1      -9.820   2.827 -30.685  1.00  0.00    -0.267 OA
BRANCH  12  15
HETATM   15  C   UNL     1     -11.946   3.165 -32.726  1.00  0.00     0.035 A 
HETATM   16  C   UNL     1     -12.783   3.970 -31.956  1.00  0.00     0.030 A 
HETATM   17  C   UNL     1     -14.154   3.690 -31.852  1.00  0.00     0.012 A 
HETATM   18  C   UNL     1     -14.725   2.598 -32.517  1.00  0.00    -0.030 A 
HETATM   19  C   UNL     1     -13.874   1.798 -33.297  1.00  0.00     0.012 A 
HETATM   20  C   UNL     1     -12.507   2.084 -33.412  1.00  0.00     0.030 A 
BRANCH  18  21
HETATM   21  C   UNL     1     -16.185   2.212 -32.357  1.00  0.00     0.147 C 
HETATM   22  C   UNL     1     -17.124   3.325 -31.895  1.00  0.00     0.044 C 
BRANCH  21  23
HETATM   23  O   UNL     1     -16.676   1.715 -33.604  1.00  0.00    -0.391 OA
HETATM   24  H   UNL     1     -16.153   0.926 -33.825  1.00  0.00     0.210 HD
ENDBRANCH  21  23
ENDBRANCH  18  21
ENDBRANCH  12  15
ENDBRANCH   7  11
BRANCH   1  25
HETATM   25  C   UNL     1      -5.608  -0.428 -32.381  1.00  0.00    -0.035 A 
HETATM   26  C   UNL     1      -4.451  -1.135 -32.745  1.00  0.00     0.010 A 
HETATM   27  C   UNL     1      -4.491  -2.139 -33.719  1.00  0.00     0.007 A 
HETATM   28  C   UNL     1      -5.686  -2.451 -34.371  1.00  0.00    -0.062 A 
HETATM   29  C   UNL     1      -5.749  -3.558 -35.381  1.00  0.00     0.048 C 
HETATM   30  C   UNL     1      -6.839  -1.732 -34.043  1.00  0.00     0.007 A 
HETATM   31  C   UNL     1      -6.797  -0.728 -33.071  1.00  0.00     0.010 A 
ENDBRANCH   1  25
BRANCH   8  32
HETATM   32  C   UNL     1      -3.725   3.686 -32.614  1.00  0.00     0.409 C 
HETATM   33  F   UNL     1      -4.197   4.710 -31.866  1.00  0.00    -0.169 F 
HETATM   34  F   UNL     1      -2.566   3.285 -32.022  1.00  0.00    -0.169 F 
HETATM   35  F   UNL     1      -3.378   4.165 -33.825  1.00  0.00    -0.169 F 
ENDBRANCH   8  32
TORSDOF 6
ENDMDL
MODEL 3
REMARK VINA RESULT:      -9.3      1.114      1.326
REMARK  6 active torsions:
REMARK  status: ('A' for Active; 'I' for Inactive)
REMARK    1  A    between atoms: C_5  and  C_6 
REMARK    2  A    between atoms: C_12  and  C_13 
REMARK       I    between atoms: C_13  and  N_14 
REMARK    3  A    between atoms: N_14  and  C_15 
REMARK    4  A    between atoms: C_18  and  C_19 
REMARK    5  A    between atoms: C_19  and  O_20 
REMARK    6  A    between atoms: C_25  and  C_26 
ROOT
HETATM    1  C   UNL     1      -6.652   0.510 -34.809  1.00  0.00     0.118 C 
HETATM    2  N   UNL     1      -6.149   1.410 -33.750  1.00  0.00    -0.365 N 
HETATM    3  C   UNL     1      -6.849   1.499 -32.577  1.00  0.00     0.138 A 
HETATM    4  N   UNL     1      -8.118   0.973 -32.467  1.00  0.00    -0.240 N 
HETATM    5  N   UNL     1      -8.634   1.065 -31.235  1.00  0.00    -0.181 NA
HETATM    6  C   UNL     1      -7.707   1.751 -30.563  1.00  0.00     0.160 A 
HETATM    7  C   UNL     1      -6.565   2.059 -31.343  1.00  0.00     0.096 A 
HETATM    8  C   UNL     1      -8.850   0.350 -33.557  1.00  0.00     0.221 C 
HETATM    9  C   UNL     1      -8.175   0.685 -34.901  1.00  0.00     0.066 C 
HETATM   10  H   UNL     1      -5.809   2.291 -34.143  1.00  0.00     0.161 HD
ENDROOT
BRANCH   7  11
HETATM   11  C   UNL     1      -5.393   2.787 -30.876  1.00  0.00     0.261 C 
HETATM   12  N   UNL     1      -4.703   3.446 -31.875  1.00  0.00    -0.323 N 
HETATM   13  H   UNL     1      -5.021   3.256 -32.819  1.00  0.00     0.169 HD
HETATM   14  O   UNL     1      -5.107   2.788 -29.684  1.00  0.00    -0.267 OA
BRANCH  12  15
HETATM   15  C   UNL     1      -3.656   4.377 -31.728  1.00  0.00     0.035 A 
HETATM   16  C   UNL     1      -2.350   4.155 -32.158  1.00  0.00     0.030 A 
HETATM   17  C   UNL     1      -1.344   5.102 -31.920  1.00  0.00     0.012 A 
HETATM   18  C   UNL     1      -1.617   6.299 -31.246  1.00  0.00    -0.030 A 
HETATM   19  C   UNL     1      -2.939   6.515 -30.823  1.00  0.00     0.012 A 
HETATM   20  C   UNL     1      -3.947   5.575 -31.072  1.00  0.00     0.030 A 
BRANCH  18  21
HETATM   21  C   UNL     1      -0.538   7.306 -30.891  1.00  0.00     0.147 C 
HETATM   22  C   UNL     1      -0.384   7.626 -29.406  1.00  0.00     0.044 C 
BRANCH  21  23
HETATM   23  O   UNL     1       0.722   6.828 -31.368  1.00  0.00    -0.391 OA
HETATM   24  H   UNL     1       1.404   7.435 -31.035  1.00  0.00     0.210 HD
ENDBRANCH  21  23
ENDBRANCH  18  21
ENDBRANCH  12  15
ENDBRANCH   7  11
BRANCH   1  25
HETATM   25  C   UNL     1      -6.241  -0.948 -34.617  1.00  0.00    -0.035 A 
HETATM   26  C   UNL     1      -7.066  -2.030 -34.963  1.00  0.00     0.010 A 
HETATM   27  C   UNL     1      -6.621  -3.351 -34.834  1.00  0.00     0.007 A 
HETATM   28  C   UNL     1      -5.346  -3.627 -34.338  1.00  0.00    -0.062 A 
HETATM   29  C   UNL     1      -4.842  -5.037 -34.241  1.00  0.00     0.048 C 
HETATM   30  C   UNL     1      -4.526  -2.561 -33.958  1.00  0.00     0.007 A 
HETATM   31  C   UNL     1      -4.972  -1.242 -34.085  1.00  0.00     0.010 A 
ENDBRANCH   1  25
BRANCH   8  32
HETATM   32  C   UNL     1     -10.295   0.801 -33.603  1.00  0.00     0.409 C 
HETATM   33  F   UNL     1     -10.739   0.971 -34.870  1.00  0.00    -0.169 F 
HETATM   34  F   UNL     1     -11.085  -0.160 -33.048  1.00  0.00    -0.169 F 
HETATM   35  F   UNL     1     -10.539   1.930 -32.909  1.00  0.00    -0.169 F 
ENDBRANCH   8  32
TORSDOF 6
ENDMDL
MODEL 4
REMARK VINA RESULT:      -9.0      1.726      1.820
REMARK  6 active torsions:
REMARK  status: ('A' for Active; 'I' for Inactive)
REMARK    1  A    between atoms: C_5  and  C_6 
REMARK    2  A    between atoms: C_12  and  C_13 
REMARK       I    between atoms: C_13  and  N_14 
REMARK    3  A    between atoms: N_14  and  C_15 
REMARK    4  A    between atoms: C_18  and  C_19 
REMARK    5  A    between atoms: C_19  and  O_20 
REMARK    6  A    between atoms: C_25  and  C_26 
ROOT
HETATM    1  C   UNL     1      -6.774   0.437 -34.909  1.00  0.00     0.118 C 
HETATM    2  N   UNL     1      -6.310   1.605 -34.130  1.00  0.00    -0.365 N 
HETATM    3  C   UNL     1      -6.831   1.809 -32.881  1.00  0.00     0.138 A 
HETATM    4  N   UNL     1      -7.938   1.110 -32.451  1.00  0.00    -0.240 N 
HETATM    5  N   UNL     1      -8.272   1.360 -31.179  1.00  0.00    -0.181 NA
HETATM    6  C   UNL     1      -7.413   2.314 -30.816  1.00  0.00     0.160 A 
HETATM    7  C   UNL     1      -6.485   2.647 -31.834  1.00  0.00     0.096 A 
HETATM    8  C   UNL     1      -8.684   0.165 -33.265  1.00  0.00     0.221 C 
HETATM    9  C   UNL     1      -8.297   0.331 -34.748  1.00  0.00     0.066 C 
HETATM   10  H   UNL     1      -6.215   2.433 -34.723  1.00  0.00     0.161 HD
ENDROOT
BRANCH   7  11
HETATM   11  C   UNL     1      -5.427   3.641 -31.721  1.00  0.00     0.261 C 
HETATM   12  N   UNL     1      -5.852   4.865 -31.243  1.00  0.00    -0.323 N 
HETATM   13  H   UNL     1      -6.856   4.963 -31.136  1.00  0.00     0.169 HD
HETATM   14  O   UNL     1      -4.276   3.349 -32.025  1.00  0.00    -0.267 OA
BRANCH  12  15
HETATM   15  C   UNL     1      -5.056   5.957 -30.845  1.00  0.00     0.035 A 
HETATM   16  C   UNL     1      -4.647   6.187 -29.533  1.00  0.00     0.030 A 
HETATM   17  C   UNL     1      -3.908   7.331 -29.200  1.00  0.00     0.012 A 
HETATM   18  C   UNL     1      -3.557   8.278 -30.171  1.00  0.00    -0.030 A 
HETATM   19  C   UNL     1      -3.968   8.032 -31.491  1.00  0.00     0.012 A 
HETATM   20  C   UNL     1      -4.694   6.882 -31.827  1.00  0.00     0.030 A 
BRANCH  18  21
HETATM   21  C   UNL     1      -2.837   9.571 -29.834  1.00  0.00     0.147 C 
HETATM   22  C   UNL     1      -1.649   9.446 -28.882  1.00  0.00     0.044 C 
BRANCH  21  23
HETATM   23  O   UNL     1      -2.368  10.174 -31.042  1.00  0.00    -0.391 OA
HETATM   24  H   UNL     1      -1.419   9.978 -31.111  1.00  0.00     0.210 HD
ENDBRANCH  21  23
ENDBRANCH  18  21
ENDBRANCH  12  15
ENDBRANCH   7  11
BRANCH   1  25
HETATM   25  C   UNL     1      -6.054  -0.861 -34.550  1.00  0.00    -0.035 A 
HETATM   26  C   UNL     1      -6.482  -2.122 -34.993  1.00  0.00     0.010 A 
HETATM   27  C   UNL     1      -5.753  -3.280 -34.698  1.00  0.00     0.007 A 
HETATM   28  C   UNL     1      -4.586  -3.210 -33.935  1.00  0.00    -0.062 A 
HETATM   29  C   UNL     1      -3.771  -4.438 -33.653  1.00  0.00     0.048 C 
HETATM   30  C   UNL     1      -4.166  -1.966 -33.458  1.00  0.00     0.007 A 
HETATM   31  C   UNL     1      -4.897  -0.810 -33.752  1.00  0.00     0.010 A 
ENDBRANCH   1  25
BRANCH   8  32
HETATM   32  C   UNL     1     -10.181   0.346 -33.120  1.00  0.00     0.409 C 
HETATM   33  F   UNL     1     -10.495   1.427 -32.369  1.00  0.00    -0.169 F 
HETATM   34  F   UNL     1     -10.729   0.563 -34.348  1.00  0.00    -0.169 F 
HETATM   35  F   UNL     1     -10.817  -0.728 -32.613  1.00  0.00    -0.169 F 
ENDBRANCH   8  32
TORSDOF 6
ENDMDL
MODEL 5
REMARK VINA RESULT:      -8.8      3.433      8.105
REMARK  6 active torsions:
REMARK  status: ('A' for Active; 'I' for Inactive)
REMARK    1  A    between atoms: C_5  and  C_6 
REMARK    2  A    between atoms: C_12  and  C_13 
REMARK       I    between atoms: C_13  and  N_14 
REMARK    3  A    between atoms: N_14  and  C_15 
REMARK    4  A    between atoms: C_18  and  C_19 
REMARK    5  A    between atoms: C_19  and  O_20 
REMARK    6  A    between atoms: C_25  and  C_26 
ROOT
HETATM    1  C   UNL     1      -5.140   4.351 -30.123  1.00  0.00     0.118 C 
HETATM    2  N   UNL     1      -5.849   3.175 -30.669  1.00  0.00    -0.365 N 
HETATM    3  C   UNL     1      -6.964   3.380 -31.437  1.00  0.00     0.138 A 
HETATM    4  N   UNL     1      -7.567   4.617 -31.496  1.00  0.00    -0.240 N 
HETATM    5  N   UNL     1      -8.592   4.676 -32.355  1.00  0.00    -0.181 NA
HETATM    6  C   UNL     1      -8.707   3.418 -32.786  1.00  0.00     0.160 A 
HETATM    7  C   UNL     1      -7.721   2.552 -32.249  1.00  0.00     0.096 A 
HETATM    8  C   UNL     1      -7.144   5.779 -30.732  1.00  0.00     0.221 C 
HETATM    9  C   UNL     1      -6.190   5.343 -29.602  1.00  0.00     0.066 C 
HETATM   10  H   UNL     1      -5.906   2.423 -29.979  1.00  0.00     0.161 HD
ENDROOT
BRANCH   7  11
HETATM   11  C   UNL     1      -7.591   1.133 -32.546  1.00  0.00     0.261 C 
HETATM   12  N   UNL     1      -6.611   0.838 -33.474  1.00  0.00    -0.323 N 
HETATM   13  H   UNL     1      -6.182   1.642 -33.920  1.00  0.00     0.169 HD
HETATM   14  O   UNL     1      -8.308   0.318 -31.975  1.00  0.00    -0.267 OA
BRANCH  12  15
HETATM   15  C   UNL     1      -6.116  -0.431 -33.829  1.00  0.00     0.035 A 
HETATM   16  C   UNL     1      -6.815  -1.351 -34.607  1.00  0.00     0.030 A 
HETATM   17  C   UNL     1      -6.285  -2.624 -34.867  1.00  0.00     0.012 A 
HETATM   18  C   UNL     1      -5.039  -3.010 -34.357  1.00  0.00    -0.030 A 
HETATM   19  C   UNL     1      -4.339  -2.071 -33.581  1.00  0.00     0.012 A 
HETATM   20  C   UNL     1      -4.862  -0.796 -33.332  1.00  0.00     0.030 A 
BRANCH  18  21
HETATM   21  C   UNL     1      -4.474  -4.406 -34.542  1.00  0.00     0.147 C 
HETATM   22  C   UNL     1      -3.574  -4.918 -33.418  1.00  0.00     0.044 C 
BRANCH  21  23
HETATM   23  O   UNL     1      -5.554  -5.331 -34.693  1.00  0.00    -0.391 OA
HETATM   24  H   UNL     1      -6.010  -5.383 -33.837  1.00  0.00     0.210 HD
ENDBRANCH  21  23
ENDBRANCH  18  21
ENDBRANCH  12  15
ENDBRANCH   7  11
BRANCH   1  25
HETATM   25  C   UNL     1      -4.169   4.992 -31.112  1.00  0.00    -0.035 A 
HETATM   26  C   UNL     1      -3.804   6.346 -31.061  1.00  0.00     0.010 A 
HETATM   27  C   UNL     1      -2.856   6.876 -31.945  1.00  0.00     0.007 A 
HETATM   28  C   UNL     1      -2.263   6.070 -32.918  1.00  0.00    -0.062 A 
HETATM   29  C   UNL     1      -1.211   6.616 -33.838  1.00  0.00     0.048 C 
HETATM   30  C   UNL     1      -2.641   4.728 -33.003  1.00  0.00     0.007 A 
HETATM   31  C   UNL     1      -3.589   4.200 -32.120  1.00  0.00     0.010 A 
ENDBRANCH   1  25
BRANCH   8  32
HETATM   32  C   UNL     1      -8.318   6.522 -30.129  1.00  0.00     0.409 C 
HETATM   33  F   UNL     1      -9.256   5.681 -29.633  1.00  0.00    -0.169 F 
HETATM   34  F   UNL     1      -7.886   7.272 -29.078  1.00  0.00    -0.169 F 
HETATM   35  F   UNL     1      -8.918   7.380 -30.977  1.00  0.00    -0.169 F 
ENDBRANCH   8  32
TORSDOF 6
ENDMDL
MODEL 6
REMARK VINA RESULT:      -8.7     16.020     18.156
REMARK  6 active torsions:
REMARK  status: ('A' for Active; 'I' for Inactive)
REMARK    1  A    between atoms: C_5  and  C_6 
REMARK    2  A    between atoms: C_12  and  C_13 
REMARK       I    between atoms: C_13  and  N_14 
REMARK    3  A    between atoms: N_14  and  C_15 
REMARK    4  A    between atoms: C_18  and  C_19 
REMARK    5  A    between atoms: C_19  and  O_20 
REMARK    6  A    between atoms: C_25  and  C_26 
ROOT
HETATM    1  C   UNL     1      -3.719 -12.296 -37.408  1.00  0.00     0.118 C 
HETATM    2  N   UNL     1      -4.687 -12.839 -36.431  1.00  0.00    -0.365 N 
HETATM    3  C   UNL     1      -5.574 -13.794 -36.850  1.00  0.00     0.138 A 
HETATM    4  N   UNL     1      -5.745 -14.065 -38.190  1.00  0.00    -0.240 N 
HETATM    5  N   UNL     1      -6.583 -15.081 -38.431  1.00  0.00    -0.181 NA
HETATM    6  C   UNL     1      -7.031 -15.407 -37.217  1.00  0.00     0.160 A 
HETATM    7  C   UNL     1      -6.444 -14.638 -36.180  1.00  0.00     0.096 A 
HETATM    8  C   UNL     1      -5.080 -13.352 -39.267  1.00  0.00     0.221 C 
HETATM    9  C   UNL     1      -4.461 -12.047 -38.728  1.00  0.00     0.066 C 
HETATM   10  H   UNL     1      -5.063 -12.101 -35.832  1.00  0.00     0.161 HD
ENDROOT
BRANCH   7  11
HETATM   11  C   UNL     1      -6.729 -14.778 -34.759  1.00  0.00     0.261 C 
HETATM   12  N   UNL     1      -6.097 -15.850 -34.160  1.00  0.00    -0.323 N 
HETATM   13  H   UNL     1      -5.607 -16.473 -34.793  1.00  0.00     0.169 HD
HETATM   14  O   UNL     1      -7.462 -13.971 -34.199  1.00  0.00    -0.267 OA
BRANCH  12  15
HETATM   15  C   UNL     1      -6.016 -16.142 -32.784  1.00  0.00     0.035 A 
HETATM   16  C   UNL     1      -5.280 -15.392 -31.870  1.00  0.00     0.030 A 
HETATM   17  C   UNL     1      -5.193 -15.780 -30.525  1.00  0.00     0.012 A 
HETATM   18  C   UNL     1      -5.843 -16.929 -30.057  1.00  0.00    -0.030 A 
HETATM   19  C   UNL     1      -6.589 -17.673 -30.986  1.00  0.00     0.012 A 
HETATM   20  C   UNL     1      -6.686 -17.279 -32.327  1.00  0.00     0.030 A 
BRANCH  18  21
HETATM   21  C   UNL     1      -5.699 -17.429 -28.631  1.00  0.00     0.147 C 
HETATM   22  C   UNL     1      -4.453 -16.963 -27.881  1.00  0.00     0.044 C 
BRANCH  21  23
HETATM   23  O   UNL     1      -6.843 -17.022 -27.876  1.00  0.00    -0.391 OA
HETATM   24  H   UNL     1      -7.579 -16.919 -28.502  1.00  0.00     0.210 HD
ENDBRANCH  21  23
ENDBRANCH  18  21
ENDBRANCH  12  15
ENDBRANCH   7  11
BRANCH   1  25
HETATM   25  C   UNL     1      -2.479 -13.168 -37.588  1.00  0.00    -0.035 A 
HETATM   26  C   UNL     1      -1.569 -12.999 -38.644  1.00  0.00     0.010 A 
HETATM   27  C   UNL     1      -0.408 -13.776 -38.732  1.00  0.00     0.007 A 
HETATM   28  C   UNL     1      -0.135 -14.758 -37.778  1.00  0.00    -0.062 A 
HETATM   29  C   UNL     1       1.130 -15.563 -37.836  1.00  0.00     0.048 C 
HETATM   30  C   UNL     1      -1.048 -14.961 -36.740  1.00  0.00     0.007 A 
HETATM   31  C   UNL     1      -2.209 -14.185 -36.654  1.00  0.00     0.010 A 
ENDBRANCH   1  25
BRANCH   8  32
HETATM   32  C   UNL     1      -6.027 -13.020 -40.401  1.00  0.00     0.409 C 
HETATM   33  F   UNL     1      -7.258 -12.673 -39.955  1.00  0.00    -0.169 F 
HETATM   34  F   UNL     1      -5.553 -11.942 -41.084  1.00  0.00    -0.169 F 
HETATM   35  F   UNL     1      -6.163 -14.006 -41.309  1.00  0.00    -0.169 F 
ENDBRANCH   8  32
TORSDOF 6
ENDMDL
MODEL 7
REMARK VINA RESULT:      -8.6      4.572      7.921
REMARK  6 active torsions:
REMARK  status: ('A' for Active; 'I' for Inactive)
REMARK    1  A    between atoms: C_5  and  C_6 
REMARK    2  A    between atoms: C_12  and  C_13 
REMARK       I    between atoms: C_13  and  N_14 
REMARK    3  A    between atoms: N_14  and  C_15 
REMARK    4  A    between atoms: C_18  and  C_19 
REMARK    5  A    between atoms: C_19  and  O_20 
REMARK    6  A    between atoms: C_25  and  C_26 
ROOT
HETATM    1  C   UNL     1     -10.241   4.203 -34.366  1.00  0.00     0.118 C 
HETATM    2  N   UNL     1      -8.986   3.481 -34.066  1.00  0.00    -0.365 N 
HETATM    3  C   UNL     1      -8.601   3.351 -32.758  1.00  0.00     0.138 A 
HETATM    4  N   UNL     1      -9.213   4.082 -31.763  1.00  0.00    -0.240 N 
HETATM    5  N   UNL     1      -8.784   3.779 -30.532  1.00  0.00    -0.181 NA
HETATM    6  C   UNL     1      -7.805   2.899 -30.754  1.00  0.00     0.160 A 
HETATM    7  C   UNL     1      -7.634   2.589 -32.126  1.00  0.00     0.096 A 
HETATM    8  C   UNL     1     -10.247   5.078 -31.988  1.00  0.00     0.221 C 
HETATM    9  C   UNL     1     -10.295   5.456 -33.481  1.00  0.00     0.066 C 
HETATM   10  H   UNL     1      -8.250   3.723 -34.733  1.00  0.00     0.161 HD
ENDROOT
BRANCH   7  11
HETATM   11  C   UNL     1      -6.654   1.657 -32.666  1.00  0.00     0.261 C 
HETATM   12  N   UNL     1      -7.032   0.330 -32.583  1.00  0.00    -0.323 N 
HETATM   13  H   UNL     1      -7.884   0.155 -32.061  1.00  0.00     0.169 HD
HETATM   14  O   UNL     1      -5.611   2.077 -33.153  1.00  0.00    -0.267 OA
BRANCH  12  15
HETATM   15  C   UNL     1      -6.405  -0.782 -33.177  1.00  0.00     0.035 A 
HETATM   16  C   UNL     1      -7.013  -1.608 -34.120  1.00  0.00     0.030 A 
HETATM   17  C   UNL     1      -6.349  -2.737 -34.622  1.00  0.00     0.012 A 
HETATM   18  C   UNL     1      -5.057  -3.070 -34.194  1.00  0.00    -0.030 A 
HETATM   19  C   UNL     1      -4.452  -2.226 -33.249  1.00  0.00     0.012 A 
HETATM   20  C   UNL     1      -5.109  -1.091 -32.758  1.00  0.00     0.030 A 
BRANCH  18  21
HETATM   21  C   UNL     1      -4.343  -4.331 -34.646  1.00  0.00     0.147 C 
HETATM   22  C   UNL     1      -3.290  -4.884 -33.687  1.00  0.00     0.044 C 
BRANCH  21  23
HETATM   23  O   UNL     1      -5.310  -5.360 -34.874  1.00  0.00    -0.391 OA
HETATM   24  H   UNL     1      -4.830  -6.135 -35.211  1.00  0.00     0.210 HD
ENDBRANCH  21  23
ENDBRANCH  18  21
ENDBRANCH  12  15
ENDBRANCH   7  11
BRANCH   1  25
HETATM   25  C   UNL     1     -11.490   3.336 -34.232  1.00  0.00    -0.035 A 
HETATM   26  C   UNL     1     -12.730   3.838 -33.807  1.00  0.00     0.010 A 
HETATM   27  C   UNL     1     -13.867   3.022 -33.765  1.00  0.00     0.007 A 
HETATM   28  C   UNL     1     -13.791   1.677 -34.127  1.00  0.00    -0.062 A 
HETATM   29  C   UNL     1     -15.013   0.806 -34.131  1.00  0.00     0.048 C 
HETATM   30  C   UNL     1     -12.556   1.154 -34.520  1.00  0.00     0.007 A 
HETATM   31  C   UNL     1     -11.420   1.969 -34.560  1.00  0.00     0.010 A 
ENDBRANCH   1  25
BRANCH   8  32
HETATM   32  C   UNL     1     -10.019   6.330 -31.167  1.00  0.00     0.409 C 
HETATM   33  F   UNL     1      -8.724   6.725 -31.183  1.00  0.00    -0.169 F 
HETATM   34  F   UNL     1     -10.736   7.357 -31.702  1.00  0.00    -0.169 F 
HETATM   35  F   UNL     1     -10.418   6.225 -29.884  1.00  0.00    -0.169 F 
ENDBRANCH   8  32
TORSDOF 6
ENDMDL
MODEL 8
REMARK VINA RESULT:      -8.5      5.239      8.707
REMARK  6 active torsions:
REMARK  status: ('A' for Active; 'I' for Inactive)
REMARK    1  A    between atoms: C_5  and  C_6 
REMARK    2  A    between atoms: C_12  and  C_13 
REMARK       I    between atoms: C_13  and  N_14 
REMARK    3  A    between atoms: N_14  and  C_15 
REMARK    4  A    between atoms: C_18  and  C_19 
REMARK    5  A    between atoms: C_19  and  O_20 
REMARK    6  A    between atoms: C_25  and  C_26 
ROOT
HETATM    1  C   UNL     1     -12.632   5.192 -32.395  1.00  0.00     0.118 C 
HETATM    2  N   UNL     1     -11.573   4.161 -32.422  1.00  0.00    -0.365 N 
HETATM    3  C   UNL     1     -11.865   2.936 -32.958  1.00  0.00     0.138 A 
HETATM    4  N   UNL     1     -13.165   2.572 -33.230  1.00  0.00    -0.240 N 
HETATM    5  N   UNL     1     -13.277   1.380 -33.829  1.00  0.00    -0.181 NA
HETATM    6  C   UNL     1     -12.021   0.928 -33.854  1.00  0.00     0.160 A 
HETATM    7  C   UNL     1     -11.085   1.850 -33.321  1.00  0.00     0.096 A 
HETATM    8  C   UNL     1     -14.330   3.389 -32.932  1.00  0.00     0.221 C 
HETATM    9  C   UNL     1     -13.942   4.519 -31.960  1.00  0.00     0.066 C 
HETATM   10  H   UNL     1     -11.033   4.160 -31.553  1.00  0.00     0.161 HD
ENDROOT
BRANCH   7  11
HETATM   11  C   UNL     1      -9.648   1.637 -33.228  1.00  0.00     0.261 C 
HETATM   12  N   UNL     1      -9.272   0.308 -33.255  1.00  0.00    -0.323 N 
HETATM   13  H   UNL     1     -10.035  -0.359 -33.221  1.00  0.00     0.169 HD
HETATM   14  O   UNL     1      -8.889   2.597 -33.152  1.00  0.00    -0.267 OA
BRANCH  12  15
HETATM   15  C   UNL     1      -7.970  -0.216 -33.373  1.00  0.00     0.035 A 
HETATM   16  C   UNL     1      -7.486  -0.851 -34.515  1.00  0.00     0.030 A 
HETATM   17  C   UNL     1      -6.198  -1.406 -34.539  1.00  0.00     0.012 A 
HETATM   18  C   UNL     1      -5.358  -1.338 -33.420  1.00  0.00    -0.030 A 
HETATM   19  C   UNL     1      -5.852  -0.688 -32.278  1.00  0.00     0.012 A 
HETATM   20  C   UNL     1      -7.134  -0.123 -32.258  1.00  0.00     0.030 A 
BRANCH  18  21
HETATM   21  C   UNL     1      -3.994  -2.004 -33.378  1.00  0.00     0.147 C 
HETATM   22  C   UNL     1      -3.358  -2.138 -31.996  1.00  0.00     0.044 C 
BRANCH  21  23
HETATM   23  O   UNL     1      -4.095  -3.313 -33.942  1.00  0.00    -0.391 OA
HETATM   24  H   UNL     1      -3.191  -3.662 -34.023  1.00  0.00     0.210 HD
ENDBRANCH  21  23
ENDBRANCH  18  21
ENDBRANCH  12  15
ENDBRANCH   7  11
BRANCH   1  25
HETATM   25  C   UNL     1     -12.774   5.957 -33.709  1.00  0.00    -0.035 A 
HETATM   26  C   UNL     1     -13.986   6.514 -34.145  1.00  0.00     0.010 A 
HETATM   27  C   UNL     1     -14.056   7.267 -35.323  1.00  0.00     0.007 A 
HETATM   28  C   UNL     1     -12.920   7.466 -36.108  1.00  0.00    -0.062 A 
HETATM   29  C   UNL     1     -12.973   8.311 -37.346  1.00  0.00     0.048 C 
HETATM   30  C   UNL     1     -11.713   6.889 -35.704  1.00  0.00     0.007 A 
HETATM   31  C   UNL     1     -11.644   6.136 -34.528  1.00  0.00     0.010 A 
ENDBRANCH   1  25
BRANCH   8  32
HETATM   32  C   UNL     1     -15.454   2.576 -32.324  1.00  0.00     0.409 C 
HETATM   33  F   UNL     1     -15.036   1.824 -31.279  1.00  0.00    -0.169 F 
HETATM   34  F   UNL     1     -16.404   3.419 -31.831  1.00  0.00    -0.169 F 
HETATM   35  F   UNL     1     -16.088   1.774 -33.202  1.00  0.00    -0.169 F 
ENDBRANCH   8  32
TORSDOF 6
ENDMDL
MODEL 9
REMARK VINA RESULT:      -8.4      2.085      2.620
REMARK  6 active torsions:
REMARK  status: ('A' for Active; 'I' for Inactive)
REMARK    1  A    between atoms: C_5  and  C_6 
REMARK    2  A    between atoms: C_12  and  C_13 
REMARK       I    between atoms: C_13  and  N_14 
REMARK    3  A    between atoms: N_14  and  C_15 
REMARK    4  A    between atoms: C_18  and  C_19 
REMARK    5  A    between atoms: C_19  and  O_20 
REMARK    6  A    between atoms: C_25  and  C_26 
ROOT
HETATM    1  C   UNL     1      -6.638   1.100 -34.648  1.00  0.00     0.118 C 
HETATM    2  N   UNL     1      -6.307   2.122 -33.631  1.00  0.00    -0.365 N 
HETATM    3  C   UNL     1      -6.990   2.111 -32.445  1.00  0.00     0.138 A 
HETATM    4  N   UNL     1      -8.126   1.347 -32.288  1.00  0.00    -0.240 N 
HETATM    5  N   UNL     1      -8.628   1.378 -31.046  1.00  0.00    -0.181 NA
HETATM    6  C   UNL     1      -7.846   2.260 -30.420  1.00  0.00     0.160 A 
HETATM    7  C   UNL     1      -6.803   2.762 -31.237  1.00  0.00     0.096 A 
HETATM    8  C   UNL     1      -8.737   0.550 -33.338  1.00  0.00     0.221 C 
HETATM    9  C   UNL     1      -8.166   0.964 -34.708  1.00  0.00     0.066 C 
HETATM   10  H   UNL     1      -6.157   3.038 -34.061  1.00  0.00     0.161 HD
ENDROOT
BRANCH   7  11
HETATM   11  C   UNL     1      -5.793   3.726 -30.823  1.00  0.00     0.261 C 
HETATM   12  N   UNL     1      -6.251   4.671 -29.925  1.00  0.00    -0.323 N 
HETATM   13  H   UNL     1      -7.250   4.653 -29.749  1.00  0.00     0.169 HD
HETATM   14  O   UNL     1      -4.650   3.641 -31.257  1.00  0.00    -0.267 OA
BRANCH  12  15
HETATM   15  C   UNL     1      -5.489   5.607 -29.199  1.00  0.00     0.035 A 
HETATM   16  C   UNL     1      -4.645   6.548 -29.785  1.00  0.00     0.030 A 
HETATM   17  C   UNL     1      -3.868   7.408 -28.996  1.00  0.00     0.012 A 
HETATM   18  C   UNL     1      -3.914   7.351 -27.597  1.00  0.00    -0.030 A 
HETATM   19  C   UNL     1      -4.774   6.405 -27.017  1.00  0.00     0.012 A 
HETATM   20  C   UNL     1      -5.561   5.554 -27.805  1.00  0.00     0.030 A 
BRANCH  18  21
HETATM   21  C   UNL     1      -3.022   8.202 -26.711  1.00  0.00     0.147 C 
HETATM   22  C   UNL     1      -2.538   7.545 -25.421  1.00  0.00     0.044 C 
BRANCH  21  23
HETATM   23  O   UNL     1      -1.871   8.604 -27.457  1.00  0.00    -0.391 OA
HETATM   24  H   UNL     1      -1.093   8.244 -26.999  1.00  0.00     0.210 HD
ENDBRANCH  21  23
ENDBRANCH  18  21
ENDBRANCH  12  15
ENDBRANCH   7  11
BRANCH   1  25
HETATM   25  C   UNL     1      -5.939  -0.238 -34.419  1.00  0.00    -0.035 A 
HETATM   26  C   UNL     1      -4.820  -0.385 -33.584  1.00  0.00     0.010 A 
HETATM   27  C   UNL     1      -4.252  -1.643 -33.349  1.00  0.00     0.007 A 
HETATM   28  C   UNL     1      -4.776  -2.785 -33.957  1.00  0.00    -0.062 A 
HETATM   29  C   UNL     1      -4.205  -4.143 -33.673  1.00  0.00     0.048 C 
HETATM   30  C   UNL     1      -5.869  -2.649 -34.816  1.00  0.00     0.007 A 
HETATM   31  C   UNL     1      -6.434  -1.392 -35.053  1.00  0.00     0.010 A 
ENDBRANCH   1  25
BRANCH   8  32
HETATM   32  C   UNL     1     -10.243   0.701 -33.363  1.00  0.00     0.409 C 
HETATM   33  F   UNL     1     -10.873  -0.337 -32.764  1.00  0.00    -0.169 F 
HETATM   34  F   UNL     1     -10.597   1.815 -32.665  1.00  0.00    -0.169 F 
HETATM   35  F   UNL     1     -10.758   0.857 -34.599  1.00  0.00    -0.169 F 
ENDBRANCH   8  32
TORSDOF 6
ENDMDL
MODEL 10
REMARK VINA RESULT:      -8.3     16.660     18.011
REMARK  6 active torsions:
REMARK  status: ('A' for Active; 'I' for Inactive)
REMARK    1  A    between atoms: C_5  and  C_6 
REMARK    2  A    between atoms: C_12  and  C_13 
REMARK       I    between atoms: C_13  and  N_14 
REMARK    3  A    between atoms: N_14  and  C_15 
REMARK    4  A    between atoms: C_18  and  C_19 
REMARK    5  A    between atoms: C_19  and  O_20 
REMARK    6  A    between atoms: C_25  and  C_26 
ROOT
HETATM    1  C   UNL     1      -5.828 -12.376 -39.765  1.00  0.00     0.118 C 
HETATM    2  N   UNL     1      -5.812 -12.893 -38.381  1.00  0.00    -0.365 N 
HETATM    3  C   UNL     1      -6.760 -13.809 -38.012  1.00  0.00     0.138 A 
HETATM    4  N   UNL     1      -7.854 -14.058 -38.811  1.00  0.00    -0.240 N 
HETATM    5  N   UNL     1      -8.642 -15.039 -38.355  1.00  0.00    -0.181 NA
HETATM    6  C   UNL     1      -8.088 -15.362 -37.184  1.00  0.00     0.160 A 
HETATM    7  C   UNL     1      -6.908 -14.627 -36.905  1.00  0.00     0.096 A 
HETATM    8  C   UNL     1      -8.147 -13.359 -40.051  1.00  0.00     0.221 C 
HETATM    9  C   UNL     1      -7.286 -12.084 -40.149  1.00  0.00     0.066 C 
HETATM   10  H   UNL     1      -5.615 -12.148 -37.708  1.00  0.00     0.161 HD
ENDROOT
BRANCH   7  11
HETATM   11  C   UNL     1      -6.085 -14.772 -35.712  1.00  0.00     0.261 C 
HETATM   12  N   UNL     1      -6.806 -14.982 -34.552  1.00  0.00    -0.323 N 
HETATM   13  H   UNL     1      -7.812 -14.898 -34.646  1.00  0.00     0.169 HD
HETATM   14  O   UNL     1      -4.864 -14.719 -35.799  1.00  0.00    -0.267 OA
BRANCH  12  15
HETATM   15  C   UNL     1      -6.310 -15.344 -33.285  1.00  0.00     0.035 A 
HETATM   16  C   UNL     1      -5.570 -14.494 -32.465  1.00  0.00     0.030 A 
HETATM   17  C   UNL     1      -5.053 -14.944 -31.242  1.00  0.00     0.012 A 
HETATM   18  C   UNL     1      -5.263 -16.257 -30.803  1.00  0.00    -0.030 A 
HETATM   19  C   UNL     1      -6.016 -17.103 -31.633  1.00  0.00     0.012 A 
HETATM   20  C   UNL     1      -6.544 -16.651 -32.850  1.00  0.00     0.030 A 
BRANCH  18  21
HETATM   21  C   UNL     1      -4.644 -16.806 -29.530  1.00  0.00     0.147 C 
HETATM   22  C   UNL     1      -3.118 -16.801 -29.472  1.00  0.00     0.044 C 
BRANCH  21  23
HETATM   23  O   UNL     1      -5.127 -16.054 -28.414  1.00  0.00    -0.391 OA
HETATM   24  H   UNL     1      -4.741 -16.447 -27.614  1.00  0.00     0.210 HD
ENDBRANCH  21  23
ENDBRANCH  18  21
ENDBRANCH  12  15
ENDBRANCH   7  11
BRANCH   1  25
HETATM   25  C   UNL     1      -5.130 -13.292 -40.767  1.00  0.00    -0.035 A 
HETATM   26  C   UNL     1      -5.640 -13.559 -42.047  1.00  0.00     0.010 A 
HETATM   27  C   UNL     1      -4.932 -14.350 -42.960  1.00  0.00     0.007 A 
HETATM   28  C   UNL     1      -3.703 -14.912 -42.610  1.00  0.00    -0.062 A 
HETATM   29  C   UNL     1      -2.914 -15.722 -43.597  1.00  0.00     0.048 C 
HETATM   30  C   UNL     1      -3.199 -14.683 -41.327  1.00  0.00     0.007 A 
HETATM   31  C   UNL     1      -3.907 -13.894 -40.416  1.00  0.00     0.010 A 
ENDBRANCH   1  25
BRANCH   8  32
HETATM   32  C   UNL     1      -9.608 -12.979 -40.159  1.00  0.00     0.409 C 
HETATM   33  F   UNL     1     -10.213 -12.919 -38.950  1.00  0.00    -0.169 F 
HETATM   34  F   UNL     1      -9.711 -11.732 -40.699  1.00  0.00    -0.169 F 
HETATM   35  F   UNL     1     -10.328 -13.791 -40.958  1.00  0.00    -0.169 F 
ENDBRANCH   8  32
TORSDOF 6
ENDMDL
