MODEL 1
REMARK VINA RESULT:      -9.4      0.000      0.000
REMARK  6 active torsions:
REMARK  status: ('A' for Active; 'I' for Inactive)
REMARK    1  A    between atoms: C_10  and  C_11 
REMARK       I    between atoms: C_11  and  N_12 
REMARK    2  A    between atoms: N_12  and  C_13 
REMARK    3  A    between atoms: C_13  and  C_14 
REMARK    4  A    between atoms: C_14  and  N_15 
REMARK    5  A    between atoms: C_14  and  C_19 
REMARK    6  A    between atoms: C_20  and  O_21 
ROOT
HETATM    1  C   UNL     1      -5.969   2.202 -33.301  1.00  0.00     0.276 C 
HETATM    2  N   UNL     1      -5.412   2.531 -32.072  1.00  0.00    -0.353 N 
HETATM    3  O   UNL     1      -6.388   3.078 -34.052  1.00  0.00    -0.265 OA
HETATM    4  H   UNL     1      -5.333   1.755 -31.416  1.00  0.00     0.162 HD
ENDROOT
BRANCH   2   5
HETATM    5  C   UNL     1      -5.513   3.904 -31.586  1.00  0.00     0.161 C 
BRANCH   5   6
HETATM    6  C   UNL     1      -4.115   4.496 -31.213  1.00  0.00     0.240 C 
BRANCH   6   7
HETATM    7  N   UNL     1      -4.322   5.599 -30.148  1.00  0.00    -0.069 N 
HETATM    8  H   UNL     1      -3.441   5.581 -29.617  1.00  0.00     0.279 HD
HETATM    9  C   UNL     1      -4.409   6.969 -30.760  1.00  0.00     0.270 C 
HETATM   10  C   UNL     1      -5.436   5.366 -29.176  1.00  0.00     0.270 C 
ENDBRANCH   6   7
BRANCH   6  11
HETATM   11  C   UNL     1      -3.252   4.897 -32.394  1.00  0.00     0.007 A 
HETATM   12  C   UNL     1      -1.845   4.868 -32.276  1.00  0.00     0.076 A 
HETATM   13  C   UNL     1      -1.035   5.243 -33.352  1.00  0.00     0.037 A 
HETATM   14  C   UNL     1      -1.611   5.625 -34.561  1.00  0.00     0.003 A 
HETATM   15  C   UNL     1      -2.994   5.645 -34.698  1.00  0.00     0.001 A 
HETATM   16  C   UNL     1      -3.811   5.288 -33.625  1.00  0.00     0.012 A 
BRANCH  12  17
HETATM   17  O   UNL     1      -1.339   4.514 -31.051  1.00  0.00    -0.355 OA
HETATM   18  C   UNL     1      -0.405   5.431 -30.479  1.00  0.00     0.210 C 
ENDBRANCH  12  17
ENDBRANCH   6  11
ENDBRANCH   5   6
ENDBRANCH   2   5
BRANCH   1  19
HETATM   19  C   UNL     1      -5.981   0.790 -33.599  1.00  0.00     0.150 A 
HETATM   20  O   UNL     1      -4.903   0.037 -33.212  1.00  0.00    -0.304 OA
HETATM   21  C   UNL     1      -5.103  -1.223 -33.687  1.00  0.00     0.087 A 
HETATM   22  C   UNL     1      -4.215  -2.286 -33.552  1.00  0.00     0.045 A 
HETATM   23  C   UNL     1      -6.322  -1.304 -34.341  1.00  0.00     0.007 A 
HETATM   24  C   UNL     1      -4.591  -3.519 -34.121  1.00  0.00    -0.053 A 
HETATM   25  C   UNL     1      -5.823  -3.645 -34.801  1.00  0.00    -0.055 A 
HETATM   26  C   UNL     1      -3.632  -4.677 -34.025  1.00  0.00     0.049 C 
HETATM   27  C   UNL     1      -6.252  -4.955 -35.409  1.00  0.00     0.049 C 
HETATM   28  C   UNL     1      -6.696  -2.540 -34.899  1.00  0.00     0.022 A 
HETATM   29  C   UNL     1      -6.900  -0.000 -34.273  1.00  0.00    -0.009 A 
HETATM   30  C   UNL     1      -8.210   0.424 -34.831  1.00  0.00     0.052 C 
ENDBRANCH   1  19
TORSDOF 6
ENDMDL
MODEL 2
REMARK VINA RESULT:      -8.8      1.250      2.140
REMARK  6 active torsions:
REMARK  status: ('A' for Active; 'I' for Inactive)
REMARK    1  A    between atoms: C_10  and  C_11 
REMARK       I    between atoms: C_11  and  N_12 
REMARK    2  A    between atoms: N_12  and  C_13 
REMARK    3  A    between atoms: C_13  and  C_14 
REMARK    4  A    between atoms: C_14  and  N_15 
REMARK    5  A    between atoms: C_14  and  C_19 
REMARK    6  A    between atoms: C_20  and  O_21 
ROOT
HETATM    1  C   UNL     1      -6.095   1.692 -31.616  1.00  0.00     0.276 C 
HETATM    2  N   UNL     1      -5.318   2.804 -31.914  1.00  0.00    -0.353 N 
HETATM    3  O   UNL     1      -7.095   1.799 -30.911  1.00  0.00    -0.265 OA
HETATM    4  H   UNL     1      -4.389   2.593 -32.274  1.00  0.00     0.162 HD
ENDROOT
BRANCH   2   5
HETATM    5  C   UNL     1      -5.575   4.063 -31.219  1.00  0.00     0.161 C 
BRANCH   5   6
HETATM    6  C   UNL     1      -4.314   4.985 -31.195  1.00  0.00     0.240 C 
BRANCH   6   7
HETATM    7  N   UNL     1      -4.721   6.352 -30.593  1.00  0.00    -0.069 N 
HETATM    8  H   UNL     1      -5.240   6.801 -31.361  1.00  0.00     0.279 HD
HETATM    9  C   UNL     1      -5.699   6.204 -29.462  1.00  0.00     0.270 C 
HETATM   10  C   UNL     1      -3.593   7.262 -30.223  1.00  0.00     0.270 C 
ENDBRANCH   6   7
BRANCH   6  11
HETATM   11  C   UNL     1      -3.549   5.062 -32.503  1.00  0.00     0.007 A 
HETATM   12  C   UNL     1      -2.180   4.716 -32.536  1.00  0.00     0.076 A 
HETATM   13  C   UNL     1      -1.459   4.790 -33.732  1.00  0.00     0.037 A 
HETATM   14  C   UNL     1      -2.093   5.181 -34.909  1.00  0.00     0.003 A 
HETATM   15  C   UNL     1      -3.443   5.510 -34.896  1.00  0.00     0.001 A 
HETATM   16  C   UNL     1      -4.168   5.455 -33.704  1.00  0.00     0.012 A 
BRANCH  12  17
HETATM   17  O   UNL     1      -1.605   4.371 -31.340  1.00  0.00    -0.355 OA
HETATM   18  C   UNL     1      -0.500   5.177 -30.928  1.00  0.00     0.210 C 
ENDBRANCH  12  17
ENDBRANCH   6  11
ENDBRANCH   5   6
ENDBRANCH   2   5
BRANCH   1  19
HETATM   19  C   UNL     1      -5.640   0.461 -32.214  1.00  0.00     0.150 A 
HETATM   20  O   UNL     1      -6.449  -0.148 -33.139  1.00  0.00    -0.304 OA
HETATM   21  C   UNL     1      -5.854  -1.325 -33.478  1.00  0.00     0.087 A 
HETATM   22  C   UNL     1      -6.377  -2.269 -34.356  1.00  0.00     0.045 A 
HETATM   23  C   UNL     1      -4.645  -1.463 -32.814  1.00  0.00     0.007 A 
HETATM   24  C   UNL     1      -5.620  -3.436 -34.577  1.00  0.00    -0.053 A 
HETATM   25  C   UNL     1      -4.384  -3.621 -33.917  1.00  0.00    -0.055 A 
HETATM   26  C   UNL     1      -6.179  -4.494 -35.492  1.00  0.00     0.049 C 
HETATM   27  C   UNL     1      -3.550  -4.855 -34.145  1.00  0.00     0.049 C 
HETATM   28  C   UNL     1      -3.889  -2.626 -33.046  1.00  0.00     0.022 A 
HETATM   29  C   UNL     1      -4.497  -0.297 -32.003  1.00  0.00    -0.009 A 
HETATM   30  C   UNL     1      -3.361   0.024 -31.102  1.00  0.00     0.052 C 
ENDBRANCH   1  19
TORSDOF 6
ENDMDL
MODEL 3
REMARK VINA RESULT:      -8.8      1.729      3.320
REMARK  6 active torsions:
REMARK  status: ('A' for Active; 'I' for Inactive)
REMARK    1  A    between atoms: C_10  and  C_11 
REMARK       I    between atoms: C_11  and  N_12 
REMARK    2  A    between atoms: N_12  and  C_13 
REMARK    3  A    between atoms: C_13  and  C_14 
REMARK    4  A    between atoms: C_14  and  N_15 
REMARK    5  A    between atoms: C_14  and  C_19 
REMARK    6  A    between atoms: C_20  and  O_21 
ROOT
HETATM    1  C   UNL     1      -5.174   2.220 -32.435  1.00  0.00     0.276 C 
HETATM    2  N   UNL     1      -4.038   3.019 -32.404  1.00  0.00    -0.353 N 
HETATM    3  O   UNL     1      -6.279   2.695 -32.186  1.00  0.00    -0.265 OA
HETATM    4  H   UNL     1      -3.157   2.509 -32.364  1.00  0.00     0.162 HD
ENDROOT
BRANCH   2   5
HETATM    5  C   UNL     1      -4.133   4.377 -31.875  1.00  0.00     0.161 C 
BRANCH   5   6
HETATM    6  C   UNL     1      -3.248   5.381 -32.682  1.00  0.00     0.240 C 
BRANCH   6   7
HETATM    7  N   UNL     1      -3.056   4.821 -34.112  1.00  0.00    -0.069 N 
HETATM    8  H   UNL     1      -3.033   3.802 -33.964  1.00  0.00     0.279 HD
HETATM    9  C   UNL     1      -4.246   5.086 -34.989  1.00  0.00     0.270 C 
HETATM   10  C   UNL     1      -1.780   5.203 -34.795  1.00  0.00     0.270 C 
ENDBRANCH   6   7
BRANCH   6  11
HETATM   11  C   UNL     1      -1.972   5.815 -31.985  1.00  0.00     0.007 A 
HETATM   12  C   UNL     1      -1.728   7.188 -31.760  1.00  0.00     0.076 A 
HETATM   13  C   UNL     1      -0.553   7.605 -31.128  1.00  0.00     0.037 A 
HETATM   14  C   UNL     1       0.378   6.666 -30.690  1.00  0.00     0.003 A 
HETATM   15  C   UNL     1       0.146   5.310 -30.891  1.00  0.00     0.001 A 
HETATM   16  C   UNL     1      -1.017   4.885 -31.536  1.00  0.00     0.012 A 
BRANCH  12  17
HETATM   17  O   UNL     1      -2.665   8.065 -32.243  1.00  0.00    -0.355 OA
HETATM   18  C   UNL     1      -3.482   8.702 -31.259  1.00  0.00     0.210 C 
ENDBRANCH  12  17
ENDBRANCH   6  11
ENDBRANCH   5   6
ENDBRANCH   2   5
BRANCH   1  19
HETATM   19  C   UNL     1      -4.933   0.844 -32.797  1.00  0.00     0.150 A 
HETATM   20  O   UNL     1      -5.730   0.278 -33.758  1.00  0.00    -0.304 OA
HETATM   21  C   UNL     1      -5.376  -1.033 -33.851  1.00  0.00     0.087 A 
HETATM   22  C   UNL     1      -5.979  -1.974 -34.680  1.00  0.00     0.045 A 
HETATM   23  C   UNL     1      -4.328  -1.312 -32.988  1.00  0.00     0.007 A 
HETATM   24  C   UNL     1      -5.482  -3.292 -34.631  1.00  0.00    -0.053 A 
HETATM   25  C   UNL     1      -4.418  -3.621 -33.762  1.00  0.00    -0.055 A 
HETATM   26  C   UNL     1      -6.141  -4.341 -35.489  1.00  0.00     0.049 C 
HETATM   27  C   UNL     1      -3.861  -5.020 -33.700  1.00  0.00     0.049 C 
HETATM   28  C   UNL     1      -3.830  -2.627 -32.951  1.00  0.00     0.022 A 
HETATM   29  C   UNL     1      -4.029  -0.090 -32.312  1.00  0.00    -0.009 A 
HETATM   30  C   UNL     1      -2.978   0.126 -31.285  1.00  0.00     0.052 C 
ENDBRANCH   1  19
TORSDOF 6
ENDMDL
MODEL 4
REMARK VINA RESULT:      -8.7      3.254      5.957
REMARK  6 active torsions:
REMARK  status: ('A' for Active; 'I' for Inactive)
REMARK    1  A    between atoms: C_10  and  C_11 
REMARK       I    between atoms: C_11  and  N_12 
REMARK    2  A    between atoms: N_12  and  C_13 
REMARK    3  A    between atoms: C_13  and  C_14 
REMARK    4  A    between atoms: C_14  and  N_15 
REMARK    5  A    between atoms: C_14  and  C_19 
REMARK    6  A    between atoms: C_20  and  O_21 
ROOT
HETATM    1  C   UNL     1      -6.303   2.415 -33.191  1.00  0.00     0.276 C 
HETATM    2  N   UNL     1      -7.603   2.694 -33.591  1.00  0.00    -0.353 N 
HETATM    3  O   UNL     1      -5.621   3.273 -32.637  1.00  0.00    -0.265 OA
HETATM    4  H   UNL     1      -7.998   2.033 -34.257  1.00  0.00     0.162 HD
ENDROOT
BRANCH   2   5
HETATM    5  C   UNL     1      -8.087   4.072 -33.539  1.00  0.00     0.161 C 
BRANCH   5   6
HETATM    6  C   UNL     1      -9.572   4.152 -33.060  1.00  0.00     0.240 C 
BRANCH   6   7
HETATM    7  N   UNL     1      -9.610   3.862 -31.541  1.00  0.00    -0.069 N 
HETATM    8  H   UNL     1      -9.505   2.839 -31.494  1.00  0.00     0.279 HD
HETATM    9  C   UNL     1      -8.419   4.434 -30.825  1.00  0.00     0.270 C 
HETATM   10  C   UNL     1     -10.885   4.214 -30.842  1.00  0.00     0.270 C 
ENDBRANCH   6   7
BRANCH   6  11
HETATM   11  C   UNL     1     -10.559   3.353 -33.891  1.00  0.00     0.007 A 
HETATM   12  C   UNL     1     -10.730   1.973 -33.641  1.00  0.00     0.076 A 
HETATM   13  C   UNL     1     -11.629   1.221 -34.403  1.00  0.00     0.037 A 
HETATM   14  C   UNL     1     -12.383   1.833 -35.402  1.00  0.00     0.003 A 
HETATM   15  C   UNL     1     -12.236   3.192 -35.651  1.00  0.00     0.001 A 
HETATM   16  C   UNL     1     -11.330   3.948 -34.906  1.00  0.00     0.012 A 
BRANCH  12  17
HETATM   17  O   UNL     1      -9.936   1.422 -32.668  1.00  0.00    -0.355 OA
HETATM   18  C   UNL     1      -9.838  -0.003 -32.681  1.00  0.00     0.210 C 
ENDBRANCH  12  17
ENDBRANCH   6  11
ENDBRANCH   5   6
ENDBRANCH   2   5
BRANCH   1  19
HETATM   19  C   UNL     1      -5.867   1.065 -33.457  1.00  0.00     0.150 A 
HETATM   20  O   UNL     1      -6.682   0.257 -34.207  1.00  0.00    -0.304 OA
HETATM   21  C   UNL     1      -6.107  -0.977 -34.234  1.00  0.00     0.087 A 
HETATM   22  C   UNL     1      -6.642  -2.102 -34.852  1.00  0.00     0.045 A 
HETATM   23  C   UNL     1      -4.905  -0.964 -33.544  1.00  0.00     0.007 A 
HETATM   24  C   UNL     1      -5.906  -3.300 -34.766  1.00  0.00    -0.053 A 
HETATM   25  C   UNL     1      -4.678  -3.334 -34.068  1.00  0.00    -0.055 A 
HETATM   26  C   UNL     1      -6.480  -4.544 -35.392  1.00  0.00     0.049 C 
HETATM   27  C   UNL     1      -3.866  -4.599 -33.970  1.00  0.00     0.049 C 
HETATM   28  C   UNL     1      -4.170  -2.161 -33.469  1.00  0.00     0.022 A 
HETATM   29  C   UNL     1      -4.740   0.365 -33.050  1.00  0.00    -0.009 A 
HETATM   30  C   UNL     1      -3.603   0.883 -32.246  1.00  0.00     0.052 C 
ENDBRANCH   1  19
TORSDOF 6
ENDMDL
MODEL 5
REMARK VINA RESULT:      -8.5      3.930      7.141
REMARK  6 active torsions:
REMARK  status: ('A' for Active; 'I' for Inactive)
REMARK    1  A    between atoms: C_10  and  C_11 
REMARK       I    between atoms: C_11  and  N_12 
REMARK    2  A    between atoms: N_12  and  C_13 
REMARK    3  A    between atoms: C_13  and  C_14 
REMARK    4  A    between atoms: C_14  and  N_15 
REMARK    5  A    between atoms: C_14  and  C_19 
REMARK    6  A    between atoms: C_20  and  O_21 
ROOT
HETATM    1  C   UNL     1      -7.556   1.825 -32.829  1.00  0.00     0.276 C 
HETATM    2  N   UNL     1      -8.869   1.605 -32.431  1.00  0.00    -0.353 N 
HETATM    3  O   UNL     1      -7.089   2.960 -32.843  1.00  0.00    -0.265 OA
HETATM    4  H   UNL     1      -9.249   0.697 -32.692  1.00  0.00     0.162 HD
ENDROOT
BRANCH   2   5
HETATM    5  C   UNL     1      -9.755   2.748 -32.227  1.00  0.00     0.161 C 
BRANCH   5   6
HETATM    6  C   UNL     1     -10.617   3.053 -33.494  1.00  0.00     0.240 C 
BRANCH   6   7
HETATM    7  N   UNL     1     -10.649   4.585 -33.705  1.00  0.00    -0.069 N 
HETATM    8  H   UNL     1     -11.576   4.852 -33.347  1.00  0.00     0.279 HD
HETATM    9  C   UNL     1      -9.649   5.298 -32.838  1.00  0.00     0.270 C 
HETATM   10  C   UNL     1     -10.566   5.050 -35.125  1.00  0.00     0.270 C 
ENDBRANCH   6   7
BRANCH   6  11
HETATM   11  C   UNL     1     -11.973   2.371 -33.528  1.00  0.00     0.007 A 
HETATM   12  C   UNL     1     -13.034   2.883 -32.748  1.00  0.00     0.076 A 
HETATM   13  C   UNL     1     -14.286   2.262 -32.760  1.00  0.00     0.037 A 
HETATM   14  C   UNL     1     -14.505   1.145 -33.563  1.00  0.00     0.003 A 
HETATM   15  C   UNL     1     -13.476   0.638 -34.348  1.00  0.00     0.001 A 
HETATM   16  C   UNL     1     -12.217   1.242 -34.330  1.00  0.00     0.012 A 
BRANCH  12  17
HETATM   17  O   UNL     1     -12.746   3.964 -31.954  1.00  0.00    -0.355 OA
HETATM   18  C   UNL     1     -13.604   4.150 -30.827  1.00  0.00     0.210 C 
ENDBRANCH  12  17
ENDBRANCH   6  11
ENDBRANCH   5   6
ENDBRANCH   2   5
BRANCH   1  19
HETATM   19  C   UNL     1      -6.826   0.631 -33.183  1.00  0.00     0.150 A 
HETATM   20  O   UNL     1      -7.459  -0.312 -33.950  1.00  0.00    -0.304 OA
HETATM   21  C   UNL     1      -6.610  -1.370 -34.064  1.00  0.00     0.087 A 
HETATM   22  C   UNL     1      -6.891  -2.562 -34.726  1.00  0.00     0.045 A 
HETATM   23  C   UNL     1      -5.416  -1.103 -33.413  1.00  0.00     0.007 A 
HETATM   24  C   UNL     1      -5.889  -3.552 -34.729  1.00  0.00    -0.053 A 
HETATM   25  C   UNL     1      -4.658  -3.324 -34.074  1.00  0.00    -0.055 A 
HETATM   26  C   UNL     1      -6.180  -4.867 -35.405  1.00  0.00     0.049 C 
HETATM   27  C   UNL     1      -3.567  -4.362 -34.072  1.00  0.00     0.049 C 
HETATM   28  C   UNL     1      -4.416  -2.092 -33.428  1.00  0.00     0.022 A 
HETATM   29  C   UNL     1      -5.549   0.203 -32.852  1.00  0.00    -0.009 A 
HETATM   30  C   UNL     1      -4.532   0.940 -32.058  1.00  0.00     0.052 C 
ENDBRANCH   1  19
TORSDOF 6
ENDMDL
MODEL 6
REMARK VINA RESULT:      -8.5      4.253      7.746
REMARK  6 active torsions:
REMARK  status: ('A' for Active; 'I' for Inactive)
REMARK    1  A    between atoms: C_10  and  C_11 
REMARK       I    between atoms: C_11  and  N_12 
REMARK    2  A    between atoms: N_12  and  C_13 
REMARK    3  A    between atoms: C_13  and  C_14 
REMARK    4  A    between atoms: C_14  and  N_15 
REMARK    5  A    between atoms: C_14  and  C_19 
REMARK    6  A    between atoms: C_20  and  O_21 
ROOT
HETATM    1  C   UNL     1      -7.865   1.793 -33.573  1.00  0.00     0.276 C 
HETATM    2  N   UNL     1      -9.129   1.562 -33.045  1.00  0.00    -0.353 N 
HETATM    3  O   UNL     1      -7.491   2.936 -33.821  1.00  0.00    -0.265 OA
HETATM    4  H   UNL     1      -9.451   0.598 -33.112  1.00  0.00     0.162 HD
ENDROOT
BRANCH   2   5
HETATM    5  C   UNL     1     -10.089   2.661 -32.980  1.00  0.00     0.161 C 
BRANCH   5   6
HETATM    6  C   UNL     1     -11.316   2.421 -33.918  1.00  0.00     0.240 C 
BRANCH   6   7
HETATM    7  N   UNL     1     -11.096   3.225 -35.221  1.00  0.00    -0.069 N 
HETATM    8  H   UNL     1     -10.465   2.622 -35.766  1.00  0.00     0.279 HD
HETATM    9  C   UNL     1     -12.356   3.347 -36.031  1.00  0.00     0.270 C 
HETATM   10  C   UNL     1     -10.422   4.552 -35.062  1.00  0.00     0.270 C 
ENDBRANCH   6   7
BRANCH   6  11
HETATM   11  C   UNL     1     -12.671   2.614 -33.264  1.00  0.00     0.007 A 
HETATM   12  C   UNL     1     -13.676   1.635 -33.430  1.00  0.00     0.076 A 
HETATM   13  C   UNL     1     -14.933   1.802 -32.842  1.00  0.00     0.037 A 
HETATM   14  C   UNL     1     -15.197   2.926 -32.063  1.00  0.00     0.003 A 
HETATM   15  C   UNL     1     -14.215   3.892 -31.878  1.00  0.00     0.001 A 
HETATM   16  C   UNL     1     -12.962   3.741 -32.475  1.00  0.00     0.012 A 
BRANCH  12  17
HETATM   17  O   UNL     1     -13.365   0.567 -34.234  1.00  0.00    -0.355 OA
HETATM   18  C   UNL     1     -13.309  -0.702 -33.582  1.00  0.00     0.210 C 
ENDBRANCH  12  17
ENDBRANCH   6  11
ENDBRANCH   5   6
ENDBRANCH   2   5
BRANCH   1  19
HETATM   19  C   UNL     1      -7.065   0.607 -33.764  1.00  0.00     0.150 A 
HETATM   20  O   UNL     1      -7.618  -0.444 -34.448  1.00  0.00    -0.304 OA
HETATM   21  C   UNL     1      -6.718  -1.464 -34.411  1.00  0.00     0.087 A 
HETATM   22  C   UNL     1      -6.913  -2.732 -34.950  1.00  0.00     0.045 A 
HETATM   23  C   UNL     1      -5.567  -1.068 -33.747  1.00  0.00     0.007 A 
HETATM   24  C   UNL     1      -5.867  -3.665 -34.804  1.00  0.00    -0.053 A 
HETATM   25  C   UNL     1      -4.679  -3.305 -34.130  1.00  0.00    -0.055 A 
HETATM   26  C   UNL     1      -6.066  -5.058 -35.343  1.00  0.00     0.049 C 
HETATM   27  C   UNL     1      -3.542  -4.280 -33.971  1.00  0.00     0.049 C 
HETATM   28  C   UNL     1      -4.523  -2.001 -33.613  1.00  0.00     0.022 A 
HETATM   29  C   UNL     1      -5.786   0.282 -33.337  1.00  0.00    -0.009 A 
HETATM   30  C   UNL     1      -4.841   1.151 -32.589  1.00  0.00     0.052 C 
ENDBRANCH   1  19
TORSDOF 6
ENDMDL
MODEL 7
REMARK VINA RESULT:      -8.5      1.657      3.278
REMARK  6 active torsions:
REMARK  status: ('A' for Active; 'I' for Inactive)
REMARK    1  A    between atoms: C_10  and  C_11 
REMARK       I    between atoms: C_11  and  N_12 
REMARK    2  A    between atoms: N_12  and  C_13 
REMARK    3  A    between atoms: C_13  and  C_14 
REMARK    4  A    between atoms: C_14  and  N_15 
REMARK    5  A    between atoms: C_14  and  C_19 
REMARK    6  A    between atoms: C_20  and  O_21 
ROOT
HETATM    1  C   UNL     1      -6.224   2.444 -33.054  1.00  0.00     0.276 C 
HETATM    2  N   UNL     1      -5.697   3.409 -33.903  1.00  0.00    -0.353 N 
HETATM    3  O   UNL     1      -6.998   2.759 -32.154  1.00  0.00    -0.265 OA
HETATM    4  H   UNL     1      -4.884   3.110 -34.438  1.00  0.00     0.162 HD
ENDROOT
BRANCH   2   5
HETATM    5  C   UNL     1      -5.903   4.822 -33.594  1.00  0.00     0.161 C 
BRANCH   5   6
HETATM    6  C   UNL     1      -4.563   5.543 -33.238  1.00  0.00     0.240 C 
BRANCH   6   7
HETATM    7  N   UNL     1      -3.390   4.665 -33.737  1.00  0.00    -0.069 N 
HETATM    8  H   UNL     1      -3.862   3.823 -34.094  1.00  0.00     0.279 HD
HETATM    9  C   UNL     1      -2.685   5.277 -34.915  1.00  0.00     0.270 C 
HETATM   10  C   UNL     1      -2.416   4.222 -32.690  1.00  0.00     0.270 C 
ENDBRANCH   6   7
BRANCH   6  11
HETATM   11  C   UNL     1      -4.448   6.010 -31.799  1.00  0.00     0.007 A 
HETATM   12  C   UNL     1      -3.641   7.127 -31.486  1.00  0.00     0.076 A 
HETATM   13  C   UNL     1      -3.518   7.564 -30.164  1.00  0.00     0.037 A 
HETATM   14  C   UNL     1      -4.212   6.917 -29.145  1.00  0.00     0.003 A 
HETATM   15  C   UNL     1      -5.022   5.826 -29.438  1.00  0.00     0.001 A 
HETATM   16  C   UNL     1      -5.139   5.372 -30.753  1.00  0.00     0.012 A 
BRANCH  12  17
HETATM   17  O   UNL     1      -2.958   7.701 -32.528  1.00  0.00    -0.355 OA
HETATM   18  C   UNL     1      -1.553   7.865 -32.331  1.00  0.00     0.210 C 
ENDBRANCH  12  17
ENDBRANCH   6  11
ENDBRANCH   5   6
ENDBRANCH   2   5
BRANCH   1  19
HETATM   19  C   UNL     1      -5.806   1.094 -33.344  1.00  0.00     0.150 A 
HETATM   20  O   UNL     1      -6.627   0.312 -34.115  1.00  0.00    -0.304 OA
HETATM   21  C   UNL     1      -6.070  -0.929 -34.162  1.00  0.00     0.087 A 
HETATM   22  C   UNL     1      -6.617  -2.034 -34.806  1.00  0.00     0.045 A 
HETATM   23  C   UNL     1      -4.873  -0.947 -33.464  1.00  0.00     0.007 A 
HETATM   24  C   UNL     1      -5.899  -3.244 -34.738  1.00  0.00    -0.053 A 
HETATM   25  C   UNL     1      -4.677  -3.309 -34.033  1.00  0.00    -0.055 A 
HETATM   26  C   UNL     1      -6.487  -4.467 -35.393  1.00  0.00     0.049 C 
HETATM   27  C   UNL     1      -3.884  -4.588 -33.954  1.00  0.00     0.049 C 
HETATM   28  C   UNL     1      -4.156  -2.156 -33.408  1.00  0.00     0.022 A 
HETATM   29  C   UNL     1      -4.692   0.370 -32.943  1.00  0.00    -0.009 A 
HETATM   30  C   UNL     1      -3.553   0.855 -32.122  1.00  0.00     0.052 C 
ENDBRANCH   1  19
TORSDOF 6
ENDMDL
MODEL 8
REMARK VINA RESULT:      -8.3      1.470      1.966
REMARK  6 active torsions:
REMARK  status: ('A' for Active; 'I' for Inactive)
REMARK    1  A    between atoms: C_10  and  C_11 
REMARK       I    between atoms: C_11  and  N_12 
REMARK    2  A    between atoms: N_12  and  C_13 
REMARK    3  A    between atoms: C_13  and  C_14 
REMARK    4  A    between atoms: C_14  and  N_15 
REMARK    5  A    between atoms: C_14  and  C_19 
REMARK    6  A    between atoms: C_20  and  O_21 
ROOT
HETATM    1  C   UNL     1      -6.398   2.672 -33.186  1.00  0.00     0.276 C 
HETATM    2  N   UNL     1      -5.198   3.353 -33.350  1.00  0.00    -0.353 N 
HETATM    3  O   UNL     1      -7.411   3.268 -32.831  1.00  0.00    -0.265 OA
HETATM    4  H   UNL     1      -4.371   2.760 -33.389  1.00  0.00     0.162 HD
ENDROOT
BRANCH   2   5
HETATM    5  C   UNL     1      -5.096   4.739 -32.901  1.00  0.00     0.161 C 
BRANCH   5   6
HETATM    6  C   UNL     1      -4.335   4.857 -31.540  1.00  0.00     0.240 C 
BRANCH   6   7
HETATM    7  N   UNL     1      -5.276   5.532 -30.514  1.00  0.00    -0.069 N 
HETATM    8  H   UNL     1      -4.760   6.381 -30.246  1.00  0.00     0.279 HD
HETATM    9  C   UNL     1      -6.556   6.004 -31.143  1.00  0.00     0.270 C 
HETATM   10  C   UNL     1      -5.539   4.755 -29.262  1.00  0.00     0.270 C 
ENDBRANCH   6   7
BRANCH   6  11
HETATM   11  C   UNL     1      -2.946   5.460 -31.632  1.00  0.00     0.007 A 
HETATM   12  C   UNL     1      -2.795   6.859 -31.752  1.00  0.00     0.076 A 
HETATM   13  C   UNL     1      -1.522   7.429 -31.847  1.00  0.00     0.037 A 
HETATM   14  C   UNL     1      -0.388   6.622 -31.797  1.00  0.00     0.003 A 
HETATM   15  C   UNL     1      -0.519   5.245 -31.664  1.00  0.00     0.001 A 
HETATM   16  C   UNL     1      -1.786   4.665 -31.585  1.00  0.00     0.012 A 
BRANCH  12  17
HETATM   17  O   UNL     1      -3.949   7.596 -31.829  1.00  0.00    -0.355 OA
HETATM   18  C   UNL     1      -3.959   8.810 -31.075  1.00  0.00     0.210 C 
ENDBRANCH  12  17
ENDBRANCH   6  11
ENDBRANCH   5   6
ENDBRANCH   2   5
BRANCH   1  19
HETATM   19  C   UNL     1      -6.337   1.262 -33.488  1.00  0.00     0.150 A 
HETATM   20  O   UNL     1      -5.203   0.573 -33.141  1.00  0.00    -0.304 OA
HETATM   21  C   UNL     1      -5.346  -0.696 -33.612  1.00  0.00     0.087 A 
HETATM   22  C   UNL     1      -4.393  -1.705 -33.512  1.00  0.00     0.045 A 
HETATM   23  C   UNL     1      -6.581  -0.848 -34.223  1.00  0.00     0.007 A 
HETATM   24  C   UNL     1      -4.716  -2.957 -34.071  1.00  0.00    -0.053 A 
HETATM   25  C   UNL     1      -5.962  -3.155 -34.707  1.00  0.00    -0.055 A 
HETATM   26  C   UNL     1      -3.689  -4.058 -34.012  1.00  0.00     0.049 C 
HETATM   27  C   UNL     1      -6.336  -4.487 -35.302  1.00  0.00     0.049 C 
HETATM   28  C   UNL     1      -6.901  -2.103 -34.770  1.00  0.00     0.022 A 
HETATM   29  C   UNL     1      -7.232   0.420 -34.131  1.00  0.00    -0.009 A 
HETATM   30  C   UNL     1      -8.584   0.766 -34.641  1.00  0.00     0.052 C 
ENDBRANCH   1  19
TORSDOF 6
ENDMDL
MODEL 9
REMARK VINA RESULT:      -8.3      2.039      8.272
REMARK  6 active torsions:
REMARK  status: ('A' for Active; 'I' for Inactive)
REMARK    1  A    between atoms: C_10  and  C_11 
REMARK       I    between atoms: C_11  and  N_12 
REMARK    2  A    between atoms: N_12  and  C_13 
REMARK    3  A    between atoms: C_13  and  C_14 
REMARK    4  A    between atoms: C_14  and  N_15 
REMARK    5  A    between atoms: C_14  and  C_19 
REMARK    6  A    between atoms: C_20  and  O_21 
ROOT
HETATM    1  C   UNL     1      -4.654   1.656 -31.309  1.00  0.00     0.276 C 
HETATM    2  N   UNL     1      -5.092   1.080 -32.494  1.00  0.00    -0.353 N 
HETATM    3  O   UNL     1      -4.781   1.063 -30.241  1.00  0.00    -0.265 OA
HETATM    4  H   UNL     1      -5.186   1.727 -33.275  1.00  0.00     0.162 HD
ENDROOT
BRANCH   2   5
HETATM    5  C   UNL     1      -5.889  -0.142 -32.444  1.00  0.00     0.161 C 
BRANCH   5   6
HETATM    6  C   UNL     1      -6.240  -0.671 -33.872  1.00  0.00     0.240 C 
BRANCH   6   7
HETATM    7  N   UNL     1      -7.715  -0.312 -34.175  1.00  0.00    -0.069 N 
HETATM    8  H   UNL     1      -8.080  -1.170 -34.612  1.00  0.00     0.279 HD
HETATM    9  C   UNL     1      -8.518  -0.111 -32.922  1.00  0.00     0.270 C 
HETATM   10  C   UNL     1      -7.926   0.809 -35.144  1.00  0.00     0.270 C 
ENDBRANCH   6   7
BRANCH   6  11
HETATM   11  C   UNL     1      -5.864  -2.118 -34.132  1.00  0.00     0.007 A 
HETATM   12  C   UNL     1      -4.570  -2.577 -33.799  1.00  0.00     0.076 A 
HETATM   13  C   UNL     1      -4.205  -3.904 -34.040  1.00  0.00     0.037 A 
HETATM   14  C   UNL     1      -5.125  -4.795 -34.588  1.00  0.00     0.003 A 
HETATM   15  C   UNL     1      -6.407  -4.362 -34.908  1.00  0.00     0.001 A 
HETATM   16  C   UNL     1      -6.776  -3.035 -34.685  1.00  0.00     0.012 A 
BRANCH  12  17
HETATM   17  O   UNL     1      -3.700  -1.645 -33.293  1.00  0.00    -0.355 OA
HETATM   18  C   UNL     1      -3.103  -1.973 -32.038  1.00  0.00     0.210 C 
ENDBRANCH  12  17
ENDBRANCH   6  11
ENDBRANCH   5   6
ENDBRANCH   2   5
BRANCH   1  19
HETATM   19  C   UNL     1      -4.039   2.953 -31.460  1.00  0.00     0.150 A 
HETATM   20  O   UNL     1      -2.673   3.034 -31.390  1.00  0.00    -0.304 OA
HETATM   21  C   UNL     1      -2.346   4.354 -31.461  1.00  0.00     0.087 A 
HETATM   22  C   UNL     1      -1.057   4.871 -31.377  1.00  0.00     0.045 A 
HETATM   23  C   UNL     1      -3.487   5.125 -31.620  1.00  0.00     0.007 A 
HETATM   24  C   UNL     1      -0.915   6.270 -31.461  1.00  0.00    -0.053 A 
HETATM   25  C   UNL     1      -2.051   7.095 -31.618  1.00  0.00    -0.055 A 
HETATM   26  C   UNL     1       0.465   6.862 -31.333  1.00  0.00     0.049 C 
HETATM   27  C   UNL     1      -1.925   8.593 -31.721  1.00  0.00     0.049 C 
HETATM   28  C   UNL     1      -3.337   6.521 -31.712  1.00  0.00     0.022 A 
HETATM   29  C   UNL     1      -4.587   4.216 -31.633  1.00  0.00    -0.009 A 
HETATM   30  C   UNL     1      -6.025   4.558 -31.781  1.00  0.00     0.052 C 
ENDBRANCH   1  19
TORSDOF 6
ENDMDL
MODEL 10
REMARK VINA RESULT:      -8.2      2.622      4.704
REMARK  6 active torsions:
REMARK  status: ('A' for Active; 'I' for Inactive)
REMARK    1  A    between atoms: C_10  and  C_11 
REMARK       I    between atoms: C_11  and  N_12 
REMARK    2  A    between atoms: N_12  and  C_13 
REMARK    3  A    between atoms: C_13  and  C_14 
REMARK    4  A    between atoms: C_14  and  N_15 
REMARK    5  A    between atoms: C_14  and  C_19 
REMARK    6  A    between atoms: C_20  and  O_21 
ROOT
HETATM    1  C   UNL     1      -5.557   2.542 -33.121  1.00  0.00     0.276 C 
HETATM    2  N   UNL     1      -6.124   3.409 -34.046  1.00  0.00    -0.353 N 
HETATM    3  O   UNL     1      -5.004   2.976 -32.114  1.00  0.00    -0.265 OA
HETATM    4  H   UNL     1      -6.325   2.994 -34.954  1.00  0.00     0.162 HD
ENDROOT
BRANCH   2   5
HETATM    5  C   UNL     1      -5.880   4.844 -33.924  1.00  0.00     0.161 C 
BRANCH   5   6
HETATM    6  C   UNL     1      -7.106   5.594 -33.309  1.00  0.00     0.240 C 
BRANCH   6   7
HETATM    7  N   UNL     1      -6.613   6.418 -32.095  1.00  0.00    -0.069 N 
HETATM    8  H   UNL     1      -6.880   5.833 -31.291  1.00  0.00     0.279 HD
HETATM    9  C   UNL     1      -5.114   6.522 -32.051  1.00  0.00     0.270 C 
HETATM   10  C   UNL     1      -7.257   7.755 -31.911  1.00  0.00     0.270 C 
ENDBRANCH   6   7
BRANCH   6  11
HETATM   11  C   UNL     1      -8.323   4.728 -33.045  1.00  0.00     0.007 A 
HETATM   12  C   UNL     1      -9.359   4.663 -34.004  1.00  0.00     0.076 A 
HETATM   13  C   UNL     1     -10.491   3.877 -33.773  1.00  0.00     0.037 A 
HETATM   14  C   UNL     1     -10.596   3.128 -32.603  1.00  0.00     0.003 A 
HETATM   15  C   UNL     1      -9.579   3.170 -31.656  1.00  0.00     0.001 A 
HETATM   16  C   UNL     1      -8.452   3.964 -31.871  1.00  0.00     0.012 A 
BRANCH  12  17
HETATM   17  O   UNL     1      -9.212   5.448 -35.120  1.00  0.00    -0.355 OA
HETATM   18  C   UNL     1     -10.338   6.258 -35.459  1.00  0.00     0.210 C 
ENDBRANCH  12  17
ENDBRANCH   6  11
ENDBRANCH   5   6
ENDBRANCH   2   5
BRANCH   1  19
HETATM   19  C   UNL     1      -5.703   1.142 -33.438  1.00  0.00     0.150 A 
HETATM   20  O   UNL     1      -4.670   0.296 -33.128  1.00  0.00    -0.304 OA
HETATM   21  C   UNL     1      -5.002  -0.934 -33.608  1.00  0.00     0.087 A 
HETATM   22  C   UNL     1      -4.199  -2.069 -33.542  1.00  0.00     0.045 A 
HETATM   23  C   UNL     1      -6.259  -0.902 -34.189  1.00  0.00     0.007 A 
HETATM   24  C   UNL     1      -4.708  -3.255 -34.105  1.00  0.00    -0.053 A 
HETATM   25  C   UNL     1      -5.984  -3.267 -34.712  1.00  0.00    -0.055 A 
HETATM   26  C   UNL     1      -3.845  -4.490 -34.084  1.00  0.00     0.049 C 
HETATM   27  C   UNL     1      -6.556  -4.525 -35.312  1.00  0.00     0.049 C 
HETATM   28  C   UNL     1      -6.766  -2.092 -34.741  1.00  0.00     0.022 A 
HETATM   29  C   UNL     1      -6.723   0.443 -34.068  1.00  0.00    -0.009 A 
HETATM   30  C   UNL     1      -8.024   0.983 -34.540  1.00  0.00     0.052 C 
ENDBRANCH   1  19
TORSDOF 6
ENDMDL
