MODEL 1
REMARK VINA RESULT:      -9.0      0.000      0.000
REMARK  8 active torsions:
REMARK  status: ('A' for Active; 'I' for Inactive)
REMARK    1  A    between atoms: C_4  and  O_5 
REMARK    2  A    between atoms: O_5  and  C_6 
REMARK    3  A    between atoms: C_8  and  C_9 
REMARK    4  A    between atoms: C_9  and  N_10 
REMARK    5  A    between atoms: C_9  and  C_14 
REMARK       I    between atoms: N_10  and  C_11 
REMARK       I    between atoms: C_11  and  N_12 
REMARK    6  A    between atoms: C_14  and  C_15 
REMARK       I    between atoms: C_15  and  N_16 
REMARK    7  A    between atoms: N_16  and  N_17 
REMARK       I    between atoms: N_17  and  C_18 
REMARK    8  A    between atoms: C_18  and  C_19 
ROOT
HETATM    1  C   UNL     1      -7.432   2.927 -33.193  1.00  0.00     0.128 C 
ENDROOT
BRANCH   1   2
HETATM    2  C   UNL     1      -6.772   1.645 -32.664  1.00  0.00    -0.032 A 
HETATM    3  C   UNL     1      -6.010   0.796 -33.489  1.00  0.00     0.046 A 
HETATM    4  C   UNL     1      -5.387  -0.351 -32.984  1.00  0.00     0.076 A 
HETATM    5  C   UNL     1      -5.507  -0.665 -31.632  1.00  0.00     0.037 A 
HETATM    6  C   UNL     1      -6.299   0.131 -30.807  1.00  0.00     0.003 A 
HETATM    7  C   UNL     1      -6.936   1.264 -31.321  1.00  0.00     0.009 A 
BRANCH   4   8
HETATM    8  O   UNL     1      -4.623  -1.053 -33.892  1.00  0.00    -0.311 OA
BRANCH   8   9
HETATM    9  C   UNL     1      -4.973  -2.344 -34.204  1.00  0.00     0.076 A 
HETATM   10  C   UNL     1      -4.128  -3.430 -33.964  1.00  0.00     0.037 A 
HETATM   11  C   UNL     1      -4.563  -4.722 -34.264  1.00  0.00     0.003 A 
HETATM   12  C   UNL     1      -5.845  -4.928 -34.774  1.00  0.00     0.000 A 
HETATM   13  C   UNL     1      -6.699  -3.844 -34.981  1.00  0.00     0.003 A 
HETATM   14  C   UNL     1      -6.265  -2.551 -34.688  1.00  0.00     0.037 A 
ENDBRANCH   8   9
ENDBRANCH   4   8
ENDBRANCH   1   2
BRANCH   1  15
HETATM   15  N   UNL     1      -8.466   2.620 -34.176  1.00  0.00    -0.334 N 
HETATM   16  C   UNL     1      -9.757   2.405 -33.818  1.00  0.00     0.314 C 
HETATM   17  N   UNL     1     -10.565   2.169 -34.877  1.00  0.00    -0.352 N 
HETATM   18  O   UNL     1     -10.173   2.439 -32.670  1.00  0.00    -0.248 OA
HETATM   19  H   UNL     1     -10.181   1.634 -35.642  1.00  0.00     0.160 HD
HETATM   20  H   UNL     1     -11.508   1.909 -34.614  1.00  0.00     0.160 HD
HETATM   21  H   UNL     1      -8.305   2.901 -35.134  1.00  0.00     0.165 HD
ENDBRANCH   1  15
BRANCH   1  22
HETATM   22  C   UNL     1      -6.383   3.880 -33.784  1.00  0.00     0.134 C 
BRANCH  22  23
HETATM   23  C   UNL     1      -5.229   4.303 -32.903  1.00  0.00     0.238 C 
HETATM   24  N   UNL     1      -3.982   3.802 -33.208  1.00  0.00    -0.267 N 
HETATM   25  H   UNL     1      -3.870   2.848 -33.570  1.00  0.00     0.190 HD
HETATM   26  O   UNL     1      -5.388   5.161 -32.029  1.00  0.00    -0.272 OA
BRANCH  24  27
HETATM   27  N   UNL     1      -2.928   4.238 -32.385  1.00  0.00    -0.262 N 
HETATM   28  C   UNL     1      -1.810   4.835 -32.935  1.00  0.00     0.293 C 
HETATM   29  O   UNL     1      -1.617   4.896 -34.148  1.00  0.00    -0.264 OA
HETATM   30  H   UNL     1      -3.109   4.287 -31.383  1.00  0.00     0.190 HD
BRANCH  28  31
HETATM   31  C   UNL     1      -0.904   5.384 -31.948  1.00  0.00     0.144 A 
HETATM   32  O   UNL     1      -0.473   4.594 -30.912  1.00  0.00    -0.317 OA
HETATM   33  C   UNL     1       0.339   5.357 -30.136  1.00  0.00     0.143 A 
HETATM   34  C   UNL     1       0.448   6.626 -30.652  1.00  0.00     0.027 A 
HETATM   35  C   UNL     1      -0.353   6.646 -31.819  1.00  0.00     0.045 A 
ENDBRANCH  28  31
ENDBRANCH  24  27
ENDBRANCH  22  23
ENDBRANCH   1  22
TORSDOF 8
ENDMDL
MODEL 2
REMARK VINA RESULT:      -8.9      4.182      8.255
REMARK  8 active torsions:
REMARK  status: ('A' for Active; 'I' for Inactive)
REMARK    1  A    between atoms: C_4  and  O_5 
REMARK    2  A    between atoms: O_5  and  C_6 
REMARK    3  A    between atoms: C_8  and  C_9 
REMARK    4  A    between atoms: C_9  and  N_10 
REMARK    5  A    between atoms: C_9  and  C_14 
REMARK       I    between atoms: N_10  and  C_11 
REMARK       I    between atoms: C_11  and  N_12 
REMARK    6  A    between atoms: C_14  and  C_15 
REMARK       I    between atoms: C_15  and  N_16 
REMARK    7  A    between atoms: N_16  and  N_17 
REMARK       I    between atoms: N_17  and  C_18 
REMARK    8  A    between atoms: C_18  and  C_19 
ROOT
HETATM    1  C   UNL     1      -8.431   2.013 -33.826  1.00  0.00     0.128 C 
ENDROOT
BRANCH   1   2
HETATM    2  C   UNL     1      -7.466   1.066 -33.100  1.00  0.00    -0.032 A 
HETATM    3  C   UNL     1      -6.474   0.336 -33.781  1.00  0.00     0.046 A 
HETATM    4  C   UNL     1      -5.579  -0.498 -33.100  1.00  0.00     0.076 A 
HETATM    5  C   UNL     1      -5.655  -0.608 -31.713  1.00  0.00     0.037 A 
HETATM    6  C   UNL     1      -6.661   0.064 -31.023  1.00  0.00     0.003 A 
HETATM    7  C   UNL     1      -7.565   0.879 -31.710  1.00  0.00     0.009 A 
BRANCH   4   8
HETATM    8  O   UNL     1      -4.622  -1.102 -33.888  1.00  0.00    -0.311 OA
BRANCH   8   9
HETATM    9  C   UNL     1      -4.670  -2.462 -34.074  1.00  0.00     0.076 A 
HETATM   10  C   UNL     1      -3.757  -3.335 -33.478  1.00  0.00     0.037 A 
HETATM   11  C   UNL     1      -3.888  -4.710 -33.673  1.00  0.00     0.003 A 
HETATM   12  C   UNL     1      -4.944  -5.211 -34.436  1.00  0.00     0.000 A 
HETATM   13  C   UNL     1      -5.874  -4.339 -35.002  1.00  0.00     0.003 A 
HETATM   14  C   UNL     1      -5.741  -2.963 -34.815  1.00  0.00     0.037 A 
ENDBRANCH   8   9
ENDBRANCH   4   8
ENDBRANCH   1   2
BRANCH   1  15
HETATM   15  N   UNL     1      -8.744   3.177 -33.003  1.00  0.00    -0.334 N 
HETATM   16  C   UNL     1      -8.246   4.409 -33.283  1.00  0.00     0.314 C 
HETATM   17  N   UNL     1      -8.680   5.359 -32.424  1.00  0.00    -0.352 N 
HETATM   18  O   UNL     1      -7.502   4.660 -34.219  1.00  0.00    -0.248 OA
HETATM   19  H   UNL     1      -8.792   5.093 -31.457  1.00  0.00     0.160 HD
HETATM   20  H   UNL     1      -8.237   6.260 -32.562  1.00  0.00     0.160 HD
HETATM   21  H   UNL     1      -9.586   3.148 -32.444  1.00  0.00     0.165 HD
ENDBRANCH   1  15
BRANCH   1  22
HETATM   22  C   UNL     1      -9.715   1.277 -34.238  1.00  0.00     0.134 C 
BRANCH  22  23
HETATM   23  C   UNL     1     -11.038   1.981 -34.028  1.00  0.00     0.238 C 
HETATM   24  N   UNL     1     -11.830   1.543 -32.988  1.00  0.00    -0.267 N 
HETATM   25  H   UNL     1     -11.870   0.549 -32.737  1.00  0.00     0.190 HD
HETATM   26  O   UNL     1     -11.326   2.985 -34.685  1.00  0.00    -0.272 OA
BRANCH  24  27
HETATM   27  N   UNL     1     -13.039   2.238 -32.805  1.00  0.00    -0.262 N 
HETATM   28  C   UNL     1     -14.249   1.600 -32.994  1.00  0.00     0.293 C 
HETATM   29  O   UNL     1     -14.337   0.461 -33.449  1.00  0.00    -0.264 OA
HETATM   30  H   UNL     1     -12.990   3.143 -32.338  1.00  0.00     0.190 HD
BRANCH  28  31
HETATM   31  C   UNL     1     -15.391   2.397 -32.595  1.00  0.00     0.144 A 
HETATM   32  O   UNL     1     -16.659   1.918 -32.811  1.00  0.00    -0.317 OA
HETATM   33  C   UNL     1     -17.527   2.862 -32.366  1.00  0.00     0.143 A 
HETATM   34  C   UNL     1     -16.845   3.943 -31.860  1.00  0.00     0.027 A 
HETATM   35  C   UNL     1     -15.469   3.645 -32.007  1.00  0.00     0.045 A 
ENDBRANCH  28  31
ENDBRANCH  24  27
ENDBRANCH  22  23
ENDBRANCH   1  22
TORSDOF 8
ENDMDL
MODEL 3
REMARK VINA RESULT:      -8.8      1.983      8.286
REMARK  8 active torsions:
REMARK  status: ('A' for Active; 'I' for Inactive)
REMARK    1  A    between atoms: C_4  and  O_5 
REMARK    2  A    between atoms: O_5  and  C_6 
REMARK    3  A    between atoms: C_8  and  C_9 
REMARK    4  A    between atoms: C_9  and  N_10 
REMARK    5  A    between atoms: C_9  and  C_14 
REMARK       I    between atoms: N_10  and  C_11 
REMARK       I    between atoms: C_11  and  N_12 
REMARK    6  A    between atoms: C_14  and  C_15 
REMARK       I    between atoms: C_15  and  N_16 
REMARK    7  A    between atoms: N_16  and  N_17 
REMARK       I    between atoms: N_17  and  C_18 
REMARK    8  A    between atoms: C_18  and  C_19 
ROOT
HETATM    1  C   UNL     1      -6.299   3.537 -32.233  1.00  0.00     0.128 C 
ENDROOT
BRANCH   1   2
HETATM    2  C   UNL     1      -5.024   4.078 -32.895  1.00  0.00    -0.032 A 
HETATM    3  C   UNL     1      -3.772   4.048 -32.253  1.00  0.00     0.046 A 
HETATM    4  C   UNL     1      -2.613   4.515 -32.884  1.00  0.00     0.076 A 
HETATM    5  C   UNL     1      -2.685   5.015 -34.182  1.00  0.00     0.037 A 
HETATM    6  C   UNL     1      -3.922   5.103 -34.819  1.00  0.00     0.003 A 
HETATM    7  C   UNL     1      -5.079   4.654 -34.176  1.00  0.00     0.009 A 
BRANCH   4   8
HETATM    8  O   UNL     1      -1.449   4.367 -32.160  1.00  0.00    -0.311 OA
BRANCH   8   9
HETATM    9  C   UNL     1      -1.039   5.386 -31.336  1.00  0.00     0.076 A 
HETATM   10  C   UNL     1      -1.633   6.650 -31.352  1.00  0.00     0.037 A 
HETATM   11  C   UNL     1      -1.198   7.629 -30.457  1.00  0.00     0.003 A 
HETATM   12  C   UNL     1      -0.194   7.336 -29.533  1.00  0.00     0.000 A 
HETATM   13  C   UNL     1       0.374   6.062 -29.497  1.00  0.00     0.003 A 
HETATM   14  C   UNL     1      -0.055   5.084 -30.395  1.00  0.00     0.037 A 
ENDBRANCH   8   9
ENDBRANCH   4   8
ENDBRANCH   1   2
BRANCH   1  15
HETATM   15  N   UNL     1      -5.988   2.480 -31.276  1.00  0.00    -0.334 N 
HETATM   16  C   UNL     1      -6.615   2.390 -30.076  1.00  0.00     0.314 C 
HETATM   17  N   UNL     1      -6.210   1.323 -29.350  1.00  0.00    -0.352 N 
HETATM   18  O   UNL     1      -7.473   3.165 -29.683  1.00  0.00    -0.248 OA
HETATM   19  H   UNL     1      -5.235   1.069 -29.404  1.00  0.00     0.160 HD
HETATM   20  H   UNL     1      -6.598   1.303 -28.414  1.00  0.00     0.160 HD
HETATM   21  H   UNL     1      -5.569   1.630 -31.631  1.00  0.00     0.165 HD
ENDBRANCH   1  15
BRANCH   1  22
HETATM   22  C   UNL     1      -7.296   3.038 -33.290  1.00  0.00     0.134 C 
BRANCH  22  23
HETATM   23  C   UNL     1      -7.310   1.560 -33.614  1.00  0.00     0.238 C 
HETATM   24  N   UNL     1      -6.342   1.091 -34.476  1.00  0.00    -0.267 N 
HETATM   25  H   UNL     1      -6.015   1.663 -35.264  1.00  0.00     0.190 HD
HETATM   26  O   UNL     1      -8.080   0.796 -33.025  1.00  0.00    -0.272 OA
BRANCH  24  27
HETATM   27  N   UNL     1      -6.368  -0.291 -34.732  1.00  0.00    -0.262 N 
HETATM   28  C   UNL     1      -5.388  -1.118 -34.218  1.00  0.00     0.293 C 
HETATM   29  O   UNL     1      -4.392  -0.688 -33.637  1.00  0.00    -0.264 OA
HETATM   30  H   UNL     1      -7.227  -0.677 -35.123  1.00  0.00     0.190 HD
BRANCH  28  31
HETATM   31  C   UNL     1      -5.655  -2.526 -34.422  1.00  0.00     0.144 A 
HETATM   32  O   UNL     1      -4.632  -3.433 -34.301  1.00  0.00    -0.317 OA
HETATM   33  C   UNL     1      -5.150  -4.661 -34.559  1.00  0.00     0.143 A 
HETATM   34  C   UNL     1      -6.493  -4.569 -34.839  1.00  0.00     0.027 A 
HETATM   35  C   UNL     1      -6.819  -3.194 -34.751  1.00  0.00     0.045 A 
ENDBRANCH  28  31
ENDBRANCH  24  27
ENDBRANCH  22  23
ENDBRANCH   1  22
TORSDOF 8
ENDMDL
MODEL 4
REMARK VINA RESULT:      -8.7      1.959      2.261
REMARK  8 active torsions:
REMARK  status: ('A' for Active; 'I' for Inactive)
REMARK    1  A    between atoms: C_4  and  O_5 
REMARK    2  A    between atoms: O_5  and  C_6 
REMARK    3  A    between atoms: C_8  and  C_9 
REMARK    4  A    between atoms: C_9  and  N_10 
REMARK    5  A    between atoms: C_9  and  C_14 
REMARK       I    between atoms: N_10  and  C_11 
REMARK       I    between atoms: C_11  and  N_12 
REMARK    6  A    between atoms: C_14  and  C_15 
REMARK       I    between atoms: C_15  and  N_16 
REMARK    7  A    between atoms: N_16  and  N_17 
REMARK       I    between atoms: N_17  and  C_18 
REMARK    8  A    between atoms: C_18  and  C_19 
ROOT
HETATM    1  C   UNL     1      -9.059   2.151 -32.274  1.00  0.00     0.128 C 
ENDROOT
BRANCH   1   2
HETATM    2  C   UNL     1      -7.881   1.178 -32.125  1.00  0.00    -0.032 A 
HETATM    3  C   UNL     1      -7.281   0.547 -33.231  1.00  0.00     0.046 A 
HETATM    4  C   UNL     1      -6.185  -0.312 -33.080  1.00  0.00     0.076 A 
HETATM    5  C   UNL     1      -5.660  -0.547 -31.811  1.00  0.00     0.037 A 
HETATM    6  C   UNL     1      -6.269   0.026 -30.696  1.00  0.00     0.003 A 
HETATM    7  C   UNL     1      -7.375   0.865 -30.851  1.00  0.00     0.009 A 
BRANCH   4   8
HETATM    8  O   UNL     1      -5.663  -0.810 -34.255  1.00  0.00    -0.311 OA
BRANCH   8   9
HETATM    9  C   UNL     1      -5.565  -2.169 -34.420  1.00  0.00     0.076 A 
HETATM   10  C   UNL     1      -4.372  -2.867 -34.218  1.00  0.00     0.037 A 
HETATM   11  C   UNL     1      -4.351  -4.255 -34.360  1.00  0.00     0.003 A 
HETATM   12  C   UNL     1      -5.523  -4.944 -34.674  1.00  0.00     0.000 A 
HETATM   13  C   UNL     1      -6.721  -4.248 -34.842  1.00  0.00     0.003 A 
HETATM   14  C   UNL     1      -6.743  -2.860 -34.707  1.00  0.00     0.037 A 
ENDBRANCH   8   9
ENDBRANCH   4   8
ENDBRANCH   1   2
BRANCH   1  15
HETATM   15  N   UNL     1      -9.514   2.217 -33.659  1.00  0.00    -0.334 N 
HETATM   16  C   UNL     1     -10.832   2.233 -33.982  1.00  0.00     0.314 C 
HETATM   17  N   UNL     1     -11.047   2.331 -35.313  1.00  0.00    -0.352 N 
HETATM   18  O   UNL     1     -11.745   2.187 -33.171  1.00  0.00    -0.248 OA
HETATM   19  H   UNL     1     -10.408   1.843 -35.923  1.00  0.00     0.160 HD
HETATM   20  H   UNL     1     -12.023   2.242 -35.571  1.00  0.00     0.160 HD
HETATM   21  H   UNL     1      -8.877   2.594 -34.348  1.00  0.00     0.165 HD
ENDBRANCH   1  15
BRANCH   1  22
HETATM   22  C   UNL     1      -8.685   3.548 -31.757  1.00  0.00     0.134 C 
BRANCH  22  23
HETATM   23  C   UNL     1      -7.456   4.215 -32.334  1.00  0.00     0.238 C 
HETATM   24  N   UNL     1      -6.366   4.363 -31.502  1.00  0.00    -0.267 N 
HETATM   25  H   UNL     1      -6.488   4.561 -30.502  1.00  0.00     0.190 HD
HETATM   26  O   UNL     1      -7.398   4.495 -33.534  1.00  0.00    -0.272 OA
BRANCH  24  27
HETATM   27  N   UNL     1      -5.232   4.961 -32.079  1.00  0.00    -0.262 N 
HETATM   28  C   UNL     1      -4.190   4.184 -32.545  1.00  0.00     0.293 C 
HETATM   29  O   UNL     1      -4.134   2.968 -32.365  1.00  0.00    -0.264 OA
HETATM   30  H   UNL     1      -5.300   5.949 -32.324  1.00  0.00     0.190 HD
BRANCH  28  31
HETATM   31  C   UNL     1      -3.185   4.937 -33.267  1.00  0.00     0.144 A 
HETATM   32  O   UNL     1      -3.329   6.294 -33.407  1.00  0.00    -0.317 OA
HETATM   33  C   UNL     1      -2.271   6.738 -34.133  1.00  0.00     0.143 A 
HETATM   34  C   UNL     1      -1.439   5.694 -34.461  1.00  0.00     0.027 A 
HETATM   35  C   UNL     1      -2.027   4.533 -33.904  1.00  0.00     0.045 A 
ENDBRANCH  28  31
ENDBRANCH  24  27
ENDBRANCH  22  23
ENDBRANCH   1  22
TORSDOF 8
ENDMDL
MODEL 5
REMARK VINA RESULT:      -8.7      2.747      3.981
REMARK  8 active torsions:
REMARK  status: ('A' for Active; 'I' for Inactive)
REMARK    1  A    between atoms: C_4  and  O_5 
REMARK    2  A    between atoms: O_5  and  C_6 
REMARK    3  A    between atoms: C_8  and  C_9 
REMARK    4  A    between atoms: C_9  and  N_10 
REMARK    5  A    between atoms: C_9  and  C_14 
REMARK       I    between atoms: N_10  and  C_11 
REMARK       I    between atoms: C_11  and  N_12 
REMARK    6  A    between atoms: C_14  and  C_15 
REMARK       I    between atoms: C_15  and  N_16 
REMARK    7  A    between atoms: N_16  and  N_17 
REMARK       I    between atoms: N_17  and  C_18 
REMARK    8  A    between atoms: C_18  and  C_19 
ROOT
HETATM    1  C   UNL     1      -4.086   4.006 -31.556  1.00  0.00     0.128 C 
ENDROOT
BRANCH   1   2
HETATM    2  C   UNL     1      -4.479   2.529 -31.405  1.00  0.00    -0.032 A 
HETATM    3  C   UNL     1      -4.095   1.548 -32.338  1.00  0.00     0.046 A 
HETATM    4  C   UNL     1      -4.434   0.200 -32.167  1.00  0.00     0.076 A 
HETATM    5  C   UNL     1      -5.159  -0.194 -31.045  1.00  0.00     0.037 A 
HETATM    6  C   UNL     1      -5.596   0.767 -30.134  1.00  0.00     0.003 A 
HETATM    7  C   UNL     1      -5.273   2.113 -30.321  1.00  0.00     0.009 A 
BRANCH   4   8
HETATM    8  O   UNL     1      -3.938  -0.656 -33.127  1.00  0.00    -0.311 OA
BRANCH   8   9
HETATM    9  C   UNL     1      -4.778  -1.579 -33.698  1.00  0.00     0.076 A 
HETATM   10  C   UNL     1      -6.067  -1.256 -34.128  1.00  0.00     0.037 A 
HETATM   11  C   UNL     1      -6.855  -2.232 -34.742  1.00  0.00     0.003 A 
HETATM   12  C   UNL     1      -6.346  -3.514 -34.949  1.00  0.00     0.000 A 
HETATM   13  C   UNL     1      -5.046  -3.824 -34.549  1.00  0.00     0.003 A 
HETATM   14  C   UNL     1      -4.259  -2.853 -33.929  1.00  0.00     0.037 A 
ENDBRANCH   8   9
ENDBRANCH   4   8
ENDBRANCH   1   2
BRANCH   1  15
HETATM   15  N   UNL     1      -5.082   4.739 -32.330  1.00  0.00    -0.334 N 
HETATM   16  C   UNL     1      -5.355   6.047 -32.093  1.00  0.00     0.314 C 
HETATM   17  N   UNL     1      -6.283   6.553 -32.938  1.00  0.00    -0.352 N 
HETATM   18  O   UNL     1      -4.816   6.722 -31.229  1.00  0.00    -0.248 OA
HETATM   19  H   UNL     1      -7.040   5.944 -33.212  1.00  0.00     0.160 HD
HETATM   20  H   UNL     1      -6.566   7.497 -32.706  1.00  0.00     0.160 HD
HETATM   21  H   UNL     1      -5.318   4.389 -33.249  1.00  0.00     0.165 HD
ENDBRANCH   1  15
BRANCH   1  22
HETATM   22  C   UNL     1      -2.695   4.139 -32.194  1.00  0.00     0.134 C 
BRANCH  22  23
HETATM   23  C   UNL     1      -1.630   4.892 -31.427  1.00  0.00     0.238 C 
HETATM   24  N   UNL     1      -2.044   5.678 -30.374  1.00  0.00    -0.267 N 
HETATM   25  H   UNL     1      -2.934   6.188 -30.414  1.00  0.00     0.190 HD
HETATM   26  O   UNL     1      -0.433   4.701 -31.663  1.00  0.00    -0.272 OA
BRANCH  24  27
HETATM   27  N   UNL     1      -1.026   6.341 -29.666  1.00  0.00    -0.262 N 
HETATM   28  C   UNL     1      -1.304   6.983 -28.475  1.00  0.00     0.293 C 
HETATM   29  O   UNL     1      -2.447   7.123 -28.045  1.00  0.00    -0.264 OA
HETATM   30  H   UNL     1      -0.064   6.155 -29.951  1.00  0.00     0.190 HD
BRANCH  28  31
HETATM   31  C   UNL     1      -0.122   7.460 -27.787  1.00  0.00     0.144 A 
HETATM   32  O   UNL     1       0.071   7.133 -26.468  1.00  0.00    -0.317 OA
HETATM   33  C   UNL     1       1.230   7.718 -26.073  1.00  0.00     0.143 A 
HETATM   34  C   UNL     1       1.797   8.415 -27.114  1.00  0.00     0.027 A 
HETATM   35  C   UNL     1       0.927   8.249 -28.219  1.00  0.00     0.045 A 
ENDBRANCH  28  31
ENDBRANCH  24  27
ENDBRANCH  22  23
ENDBRANCH   1  22
TORSDOF 8
ENDMDL
MODEL 6
REMARK VINA RESULT:      -8.7      3.271      7.082
REMARK  8 active torsions:
REMARK  status: ('A' for Active; 'I' for Inactive)
REMARK    1  A    between atoms: C_4  and  O_5 
REMARK    2  A    between atoms: O_5  and  C_6 
REMARK    3  A    between atoms: C_8  and  C_9 
REMARK    4  A    between atoms: C_9  and  N_10 
REMARK    5  A    between atoms: C_9  and  C_14 
REMARK       I    between atoms: N_10  and  C_11 
REMARK       I    between atoms: C_11  and  N_12 
REMARK    6  A    between atoms: C_14  and  C_15 
REMARK       I    between atoms: C_15  and  N_16 
REMARK    7  A    between atoms: N_16  and  N_17 
REMARK       I    between atoms: N_17  and  C_18 
REMARK    8  A    between atoms: C_18  and  C_19 
ROOT
HETATM    1  C   UNL     1      -6.469   3.446 -32.403  1.00  0.00     0.128 C 
ENDROOT
BRANCH   1   2
HETATM    2  C   UNL     1      -6.200   1.953 -32.164  1.00  0.00    -0.032 A 
HETATM    3  C   UNL     1      -5.594   1.133 -33.134  1.00  0.00     0.046 A 
HETATM    4  C   UNL     1      -5.325  -0.219 -32.888  1.00  0.00     0.076 A 
HETATM    5  C   UNL     1      -5.651  -0.775 -31.653  1.00  0.00     0.037 A 
HETATM    6  C   UNL     1      -6.298   0.003 -30.695  1.00  0.00     0.003 A 
HETATM    7  C   UNL     1      -6.583   1.347 -30.954  1.00  0.00     0.009 A 
BRANCH   4   8
HETATM    8  O   UNL     1      -4.673  -0.883 -33.905  1.00  0.00    -0.311 OA
BRANCH   8   9
HETATM    9  C   UNL     1      -5.044  -2.170 -34.209  1.00  0.00     0.076 A 
HETATM   10  C   UNL     1      -4.188  -3.260 -34.035  1.00  0.00     0.037 A 
HETATM   11  C   UNL     1      -4.642  -4.548 -34.322  1.00  0.00     0.003 A 
HETATM   12  C   UNL     1      -5.955  -4.747 -34.753  1.00  0.00     0.000 A 
HETATM   13  C   UNL     1      -6.818  -3.660 -34.893  1.00  0.00     0.003 A 
HETATM   14  C   UNL     1      -6.364  -2.371 -34.614  1.00  0.00     0.037 A 
ENDBRANCH   8   9
ENDBRANCH   4   8
ENDBRANCH   1   2
BRANCH   1  15
HETATM   15  N   UNL     1      -7.229   4.026 -31.300  1.00  0.00    -0.334 N 
HETATM   16  C   UNL     1      -6.883   5.211 -30.735  1.00  0.00     0.314 C 
HETATM   17  N   UNL     1      -7.732   5.593 -29.753  1.00  0.00    -0.352 N 
HETATM   18  O   UNL     1      -5.925   5.888 -31.076  1.00  0.00    -0.248 OA
HETATM   19  H   UNL     1      -8.111   4.869 -29.161  1.00  0.00     0.160 HD
HETATM   20  H   UNL     1      -7.427   6.423 -29.259  1.00  0.00     0.160 HD
HETATM   21  H   UNL     1      -8.191   3.735 -31.185  1.00  0.00     0.165 HD
ENDBRANCH   1  15
BRANCH   1  22
HETATM   22  C   UNL     1      -7.194   3.665 -33.739  1.00  0.00     0.134 C 
BRANCH  22  23
HETATM   23  C   UNL     1      -8.664   3.315 -33.817  1.00  0.00     0.238 C 
HETATM   24  N   UNL     1      -9.005   2.162 -34.491  1.00  0.00    -0.267 N 
HETATM   25  H   UNL     1      -8.486   1.865 -35.325  1.00  0.00     0.190 HD
HETATM   26  O   UNL     1      -9.500   3.972 -33.190  1.00  0.00    -0.272 OA
BRANCH  24  27
HETATM   27  N   UNL     1     -10.377   1.853 -34.520  1.00  0.00    -0.262 N 
HETATM   28  C   UNL     1     -10.910   0.946 -33.624  1.00  0.00     0.293 C 
HETATM   29  O   UNL     1     -10.215   0.276 -32.862  1.00  0.00    -0.264 OA
HETATM   30  H   UNL     1     -10.980   2.463 -35.072  1.00  0.00     0.190 HD
BRANCH  28  31
HETATM   31  C   UNL     1     -12.356   0.874 -33.668  1.00  0.00     0.144 A 
HETATM   32  O   UNL     1     -13.094   2.028 -33.584  1.00  0.00    -0.317 OA
HETATM   33  C   UNL     1     -14.403   1.672 -33.629  1.00  0.00     0.143 A 
HETATM   34  C   UNL     1     -14.529   0.309 -33.747  1.00  0.00     0.027 A 
HETATM   35  C   UNL     1     -13.210  -0.208 -33.771  1.00  0.00     0.045 A 
ENDBRANCH  28  31
ENDBRANCH  24  27
ENDBRANCH  22  23
ENDBRANCH   1  22
TORSDOF 8
ENDMDL
MODEL 7
REMARK VINA RESULT:      -8.5      3.093      4.282
REMARK  8 active torsions:
REMARK  status: ('A' for Active; 'I' for Inactive)
REMARK    1  A    between atoms: C_4  and  O_5 
REMARK    2  A    between atoms: O_5  and  C_6 
REMARK    3  A    between atoms: C_8  and  C_9 
REMARK    4  A    between atoms: C_9  and  N_10 
REMARK    5  A    between atoms: C_9  and  C_14 
REMARK       I    between atoms: N_10  and  C_11 
REMARK       I    between atoms: C_11  and  N_12 
REMARK    6  A    between atoms: C_14  and  C_15 
REMARK       I    between atoms: C_15  and  N_16 
REMARK    7  A    between atoms: N_16  and  N_17 
REMARK       I    between atoms: N_17  and  C_18 
REMARK    8  A    between atoms: C_18  and  C_19 
ROOT
HETATM    1  C   UNL     1      -4.460   4.617 -32.753  1.00  0.00     0.128 C 
ENDROOT
BRANCH   1   2
HETATM    2  C   UNL     1      -4.705   3.301 -32.001  1.00  0.00    -0.032 A 
HETATM    3  C   UNL     1      -4.314   2.053 -32.521  1.00  0.00     0.046 A 
HETATM    4  C   UNL     1      -4.516   0.865 -31.807  1.00  0.00     0.076 A 
HETATM    5  C   UNL     1      -5.106   0.908 -30.546  1.00  0.00     0.037 A 
HETATM    6  C   UNL     1      -5.548   2.125 -30.033  1.00  0.00     0.003 A 
HETATM    7  C   UNL     1      -5.364   3.305 -30.759  1.00  0.00     0.009 A 
BRANCH   4   8
HETATM    8  O   UNL     1      -4.027  -0.274 -32.412  1.00  0.00    -0.311 OA
BRANCH   8   9
HETATM    9  C   UNL     1      -4.862  -1.019 -33.207  1.00  0.00     0.076 A 
HETATM   10  C   UNL     1      -4.410  -2.104 -33.961  1.00  0.00     0.037 A 
HETATM   11  C   UNL     1      -5.319  -2.848 -34.715  1.00  0.00     0.003 A 
HETATM   12  C   UNL     1      -6.677  -2.526 -34.691  1.00  0.00     0.000 A 
HETATM   13  C   UNL     1      -7.130  -1.463 -33.909  1.00  0.00     0.003 A 
HETATM   14  C   UNL     1      -6.222  -0.713 -33.161  1.00  0.00     0.037 A 
ENDBRANCH   8   9
ENDBRANCH   4   8
ENDBRANCH   1   2
BRANCH   1  15
HETATM   15  N   UNL     1      -3.132   4.638 -33.357  1.00  0.00    -0.334 N 
HETATM   16  C   UNL     1      -2.923   5.101 -34.616  1.00  0.00     0.314 C 
HETATM   17  N   UNL     1      -1.621   5.069 -34.979  1.00  0.00    -0.352 N 
HETATM   18  O   UNL     1      -3.800   5.529 -35.351  1.00  0.00    -0.248 OA
HETATM   19  H   UNL     1      -1.069   4.288 -34.655  1.00  0.00     0.160 HD
HETATM   20  H   UNL     1      -1.467   5.318 -35.949  1.00  0.00     0.160 HD
HETATM   21  H   UNL     1      -2.332   4.636 -32.739  1.00  0.00     0.165 HD
ENDBRANCH   1  15
BRANCH   1  22
HETATM   22  C   UNL     1      -4.654   5.824 -31.822  1.00  0.00     0.134 C 
BRANCH  22  23
HETATM   23  C   UNL     1      -3.422   6.461 -31.217  1.00  0.00     0.238 C 
HETATM   24  N   UNL     1      -2.980   5.963 -30.011  1.00  0.00    -0.267 N 
HETATM   25  H   UNL     1      -3.643   5.636 -29.299  1.00  0.00     0.190 HD
HETATM   26  O   UNL     1      -2.777   7.303 -31.848  1.00  0.00    -0.272 OA
BRANCH  24  27
HETATM   27  N   UNL     1      -1.817   6.560 -29.492  1.00  0.00    -0.262 N 
HETATM   28  C   UNL     1      -1.817   7.106 -28.223  1.00  0.00     0.293 C 
HETATM   29  O   UNL     1      -2.838   7.219 -27.546  1.00  0.00    -0.264 OA
HETATM   30  H   UNL     1      -0.944   6.391 -29.991  1.00  0.00     0.190 HD
BRANCH  28  31
HETATM   31  C   UNL     1      -0.504   7.518 -27.772  1.00  0.00     0.144 A 
HETATM   32  O   UNL     1      -0.163   7.365 -26.451  1.00  0.00    -0.317 OA
HETATM   33  C   UNL     1       1.098   7.843 -26.303  1.00  0.00     0.143 A 
HETATM   34  C   UNL     1       1.586   8.299 -27.504  1.00  0.00     0.027 A 
HETATM   35  C   UNL     1       0.555   8.091 -28.452  1.00  0.00     0.045 A 
ENDBRANCH  28  31
ENDBRANCH  24  27
ENDBRANCH  22  23
ENDBRANCH   1  22
TORSDOF 8
ENDMDL
MODEL 8
REMARK VINA RESULT:      -8.4      2.551      6.835
REMARK  8 active torsions:
REMARK  status: ('A' for Active; 'I' for Inactive)
REMARK    1  A    between atoms: C_4  and  O_5 
REMARK    2  A    between atoms: O_5  and  C_6 
REMARK    3  A    between atoms: C_8  and  C_9 
REMARK    4  A    between atoms: C_9  and  N_10 
REMARK    5  A    between atoms: C_9  and  C_14 
REMARK       I    between atoms: N_10  and  C_11 
REMARK       I    between atoms: C_11  and  N_12 
REMARK    6  A    between atoms: C_14  and  C_15 
REMARK       I    between atoms: C_15  and  N_16 
REMARK    7  A    between atoms: N_16  and  N_17 
REMARK       I    between atoms: N_17  and  C_18 
REMARK    8  A    between atoms: C_18  and  C_19 
ROOT
HETATM    1  C   UNL     1      -5.632   3.275 -32.853  1.00  0.00     0.128 C 
ENDROOT
BRANCH   1   2
HETATM    2  C   UNL     1      -5.253   1.858 -32.398  1.00  0.00    -0.032 A 
HETATM    3  C   UNL     1      -4.814   0.870 -33.299  1.00  0.00     0.046 A 
HETATM    4  C   UNL     1      -4.441  -0.407 -32.863  1.00  0.00     0.076 A 
HETATM    5  C   UNL     1      -4.490  -0.716 -31.505  1.00  0.00     0.037 A 
HETATM    6  C   UNL     1      -4.971   0.228 -30.600  1.00  0.00     0.003 A 
HETATM    7  C   UNL     1      -5.362   1.494 -31.044  1.00  0.00     0.009 A 
BRANCH   4   8
HETATM    8  O   UNL     1      -3.972  -1.250 -33.847  1.00  0.00    -0.311 OA
BRANCH   8   9
HETATM    9  C   UNL     1      -4.704  -2.365 -34.177  1.00  0.00     0.076 A 
HETATM   10  C   UNL     1      -4.176  -3.656 -34.111  1.00  0.00     0.037 A 
HETATM   11  C   UNL     1      -4.987  -4.750 -34.417  1.00  0.00     0.003 A 
HETATM   12  C   UNL     1      -6.326  -4.555 -34.759  1.00  0.00     0.000 A 
HETATM   13  C   UNL     1      -6.859  -3.266 -34.791  1.00  0.00     0.003 A 
HETATM   14  C   UNL     1      -6.049  -2.170 -34.492  1.00  0.00     0.037 A 
ENDBRANCH   8   9
ENDBRANCH   4   8
ENDBRANCH   1   2
BRANCH   1  15
HETATM   15  N   UNL     1      -4.471   4.158 -32.843  1.00  0.00    -0.334 N 
HETATM   16  C   UNL     1      -4.235   5.046 -33.842  1.00  0.00     0.314 C 
HETATM   17  N   UNL     1      -3.129   5.795 -33.632  1.00  0.00    -0.352 N 
HETATM   18  O   UNL     1      -4.946   5.187 -34.826  1.00  0.00    -0.248 OA
HETATM   19  H   UNL     1      -2.341   5.343 -33.193  1.00  0.00     0.160 HD
HETATM   20  H   UNL     1      -2.889   6.389 -34.417  1.00  0.00     0.160 HD
HETATM   21  H   UNL     1      -4.036   4.358 -31.952  1.00  0.00     0.165 HD
ENDBRANCH   1  15
BRANCH   1  22
HETATM   22  C   UNL     1      -6.759   3.848 -31.981  1.00  0.00     0.134 C 
BRANCH  22  23
HETATM   23  C   UNL     1      -8.185   3.477 -32.327  1.00  0.00     0.238 C 
HETATM   24  N   UNL     1      -8.429   3.029 -33.607  1.00  0.00    -0.267 N 
HETATM   25  H   UNL     1      -7.918   3.415 -34.409  1.00  0.00     0.190 HD
HETATM   26  O   UNL     1      -9.059   3.461 -31.455  1.00  0.00    -0.272 OA
BRANCH  24  27
HETATM   27  N   UNL     1      -9.759   2.667 -33.885  1.00  0.00    -0.262 N 
HETATM   28  C   UNL     1     -10.114   1.337 -34.004  1.00  0.00     0.293 C 
HETATM   29  O   UNL     1      -9.288   0.426 -34.007  1.00  0.00    -0.264 OA
HETATM   30  H   UNL     1     -10.469   3.393 -33.791  1.00  0.00     0.190 HD
BRANCH  28  31
HETATM   31  C   UNL     1     -11.543   1.128 -34.114  1.00  0.00     0.144 A 
HETATM   32  O   UNL     1     -12.133   0.107 -33.412  1.00  0.00    -0.317 OA
HETATM   33  C   UNL     1     -13.457   0.126 -33.710  1.00  0.00     0.143 A 
HETATM   34  C   UNL     1     -13.739   1.147 -34.587  1.00  0.00     0.027 A 
HETATM   35  C   UNL     1     -12.507   1.793 -34.849  1.00  0.00     0.045 A 
ENDBRANCH  28  31
ENDBRANCH  24  27
ENDBRANCH  22  23
ENDBRANCH   1  22
TORSDOF 8
ENDMDL
MODEL 9
REMARK VINA RESULT:      -8.4      1.968      2.721
REMARK  8 active torsions:
REMARK  status: ('A' for Active; 'I' for Inactive)
REMARK    1  A    between atoms: C_4  and  O_5 
REMARK    2  A    between atoms: O_5  and  C_6 
REMARK    3  A    between atoms: C_8  and  C_9 
REMARK    4  A    between atoms: C_9  and  N_10 
REMARK    5  A    between atoms: C_9  and  C_14 
REMARK       I    between atoms: N_10  and  C_11 
REMARK       I    between atoms: C_11  and  N_12 
REMARK    6  A    between atoms: C_14  and  C_15 
REMARK       I    between atoms: C_15  and  N_16 
REMARK    7  A    between atoms: N_16  and  N_17 
REMARK       I    between atoms: N_17  and  C_18 
REMARK    8  A    between atoms: C_18  and  C_19 
ROOT
HETATM    1  C   UNL     1      -5.372   3.588 -32.458  1.00  0.00     0.128 C 
ENDROOT
BRANCH   1   2
HETATM    2  C   UNL     1      -5.746   2.103 -32.347  1.00  0.00    -0.032 A 
HETATM    3  C   UNL     1      -5.812   1.258 -33.470  1.00  0.00     0.046 A 
HETATM    4  C   UNL     1      -6.122  -0.102 -33.347  1.00  0.00     0.076 A 
HETATM    5  C   UNL     1      -6.362  -0.646 -32.087  1.00  0.00     0.037 A 
HETATM    6  C   UNL     1      -6.353   0.182 -30.966  1.00  0.00     0.003 A 
HETATM    7  C   UNL     1      -6.064   1.543 -31.097  1.00  0.00     0.009 A 
BRANCH   4   8
HETATM    8  O   UNL     1      -6.090  -0.821 -34.523  1.00  0.00    -0.311 OA
BRANCH   8   9
HETATM    9  C   UNL     1      -5.810  -2.164 -34.478  1.00  0.00     0.076 A 
HETATM   10  C   UNL     1      -6.764  -3.141 -34.775  1.00  0.00     0.037 A 
HETATM   11  C   UNL     1      -6.402  -4.489 -34.753  1.00  0.00     0.003 A 
HETATM   12  C   UNL     1      -5.087  -4.856 -34.465  1.00  0.00     0.000 A 
HETATM   13  C   UNL     1      -4.129  -3.876 -34.202  1.00  0.00     0.003 A 
HETATM   14  C   UNL     1      -4.489  -2.529 -34.216  1.00  0.00     0.037 A 
ENDBRANCH   8   9
ENDBRANCH   4   8
ENDBRANCH   1   2
BRANCH   1  15
HETATM   15  N   UNL     1      -6.262   4.288 -33.379  1.00  0.00    -0.334 N 
HETATM   16  C   UNL     1      -7.355   4.966 -32.945  1.00  0.00     0.314 C 
HETATM   17  N   UNL     1      -8.030   5.573 -33.947  1.00  0.00    -0.352 N 
HETATM   18  O   UNL     1      -7.698   5.052 -31.775  1.00  0.00    -0.248 OA
HETATM   19  H   UNL     1      -8.084   5.086 -34.830  1.00  0.00     0.160 HD
HETATM   20  H   UNL     1      -8.900   5.997 -33.648  1.00  0.00     0.160 HD
HETATM   21  H   UNL     1      -5.892   4.559 -34.280  1.00  0.00     0.165 HD
ENDBRANCH   1  15
BRANCH   1  22
HETATM   22  C   UNL     1      -3.906   3.754 -32.887  1.00  0.00     0.134 C 
BRANCH  22  23
HETATM   23  C   UNL     1      -2.887   4.093 -31.822  1.00  0.00     0.238 C 
HETATM   24  N   UNL     1      -2.782   5.415 -31.445  1.00  0.00    -0.267 N 
HETATM   25  H   UNL     1      -2.902   6.170 -32.129  1.00  0.00     0.190 HD
HETATM   26  O   UNL     1      -2.272   3.199 -31.233  1.00  0.00    -0.272 OA
BRANCH  24  27
HETATM   27  N   UNL     1      -1.844   5.690 -30.433  1.00  0.00    -0.262 N 
HETATM   28  C   UNL     1      -1.061   6.827 -30.494  1.00  0.00     0.293 C 
HETATM   29  O   UNL     1      -1.044   7.571 -31.473  1.00  0.00    -0.264 OA
HETATM   30  H   UNL     1      -1.912   5.145 -29.575  1.00  0.00     0.190 HD
BRANCH  28  31
HETATM   31  C   UNL     1      -0.281   7.055 -29.296  1.00  0.00     0.144 A 
HETATM   32  O   UNL     1      -0.231   8.313 -28.750  1.00  0.00    -0.317 OA
HETATM   33  C   UNL     1       0.576   8.247 -27.661  1.00  0.00     0.143 A 
HETATM   34  C   UNL     1       1.047   6.968 -27.485  1.00  0.00     0.027 A 
HETATM   35  C   UNL     1       0.496   6.198 -28.539  1.00  0.00     0.045 A 
ENDBRANCH  28  31
ENDBRANCH  24  27
ENDBRANCH  22  23
ENDBRANCH   1  22
TORSDOF 8
ENDMDL
MODEL 10
REMARK VINA RESULT:      -8.1      2.616      9.014
REMARK  8 active torsions:
REMARK  status: ('A' for Active; 'I' for Inactive)
REMARK    1  A    between atoms: C_4  and  O_5 
REMARK    2  A    between atoms: O_5  and  C_6 
REMARK    3  A    between atoms: C_8  and  C_9 
REMARK    4  A    between atoms: C_9  and  N_10 
REMARK    5  A    between atoms: C_9  and  C_14 
REMARK       I    between atoms: N_10  and  C_11 
REMARK       I    between atoms: C_11  and  N_12 
REMARK    6  A    between atoms: C_14  and  C_15 
REMARK       I    between atoms: C_15  and  N_16 
REMARK    7  A    between atoms: N_16  and  N_17 
REMARK       I    between atoms: N_17  and  C_18 
REMARK    8  A    between atoms: C_18  and  C_19 
ROOT
HETATM    1  C   UNL     1      -5.030   2.384 -32.050  1.00  0.00     0.128 C 
ENDROOT
BRANCH   1   2
HETATM    2  C   UNL     1      -4.140   3.472 -32.666  1.00  0.00    -0.032 A 
HETATM    3  C   UNL     1      -2.823   3.705 -32.226  1.00  0.00     0.046 A 
HETATM    4  C   UNL     1      -2.012   4.679 -32.821  1.00  0.00     0.076 A 
HETATM    5  C   UNL     1      -2.506   5.435 -33.883  1.00  0.00     0.037 A 
HETATM    6  C   UNL     1      -3.823   5.258 -34.301  1.00  0.00     0.003 A 
HETATM    7  C   UNL     1      -4.634   4.299 -33.690  1.00  0.00     0.009 A 
BRANCH   4   8
HETATM    8  O   UNL     1      -0.727   4.755 -32.329  1.00  0.00    -0.311 OA
BRANCH   8   9
HETATM    9  C   UNL     1      -0.497   5.437 -31.161  1.00  0.00     0.076 A 
HETATM   10  C   UNL     1       0.222   4.885 -30.097  1.00  0.00     0.037 A 
HETATM   11  C   UNL     1       0.458   5.648 -28.953  1.00  0.00     0.003 A 
HETATM   12  C   UNL     1       0.003   6.966 -28.885  1.00  0.00     0.000 A 
HETATM   13  C   UNL     1      -0.685   7.526 -29.962  1.00  0.00     0.003 A 
HETATM   14  C   UNL     1      -0.928   6.762 -31.104  1.00  0.00     0.037 A 
ENDBRANCH   8   9
ENDBRANCH   4   8
ENDBRANCH   1   2
BRANCH   1  15
HETATM   15  N   UNL     1      -5.408   1.387 -33.046  1.00  0.00    -0.334 N 
HETATM   16  C   UNL     1      -5.459   0.062 -32.753  1.00  0.00     0.314 C 
HETATM   17  N   UNL     1      -5.863  -0.693 -33.800  1.00  0.00    -0.352 N 
HETATM   18  O   UNL     1      -5.195  -0.416 -31.661  1.00  0.00    -0.248 OA
HETATM   19  H   UNL     1      -5.552  -0.414 -34.719  1.00  0.00     0.160 HD
HETATM   20  H   UNL     1      -5.808  -1.689 -33.623  1.00  0.00     0.160 HD
HETATM   21  H   UNL     1      -5.957   1.694 -33.838  1.00  0.00     0.165 HD
ENDBRANCH   1  15
BRANCH   1  22
HETATM   22  C   UNL     1      -6.277   3.000 -31.397  1.00  0.00     0.134 C 
BRANCH  22  23
HETATM   23  C   UNL     1      -7.617   2.762 -32.057  1.00  0.00     0.238 C 
HETATM   24  N   UNL     1      -8.458   1.843 -31.468  1.00  0.00    -0.267 N 
HETATM   25  H   UNL     1      -8.086   0.998 -31.019  1.00  0.00     0.190 HD
HETATM   26  O   UNL     1      -7.982   3.460 -33.007  1.00  0.00    -0.272 OA
BRANCH  24  27
HETATM   27  N   UNL     1      -9.706   1.667 -32.092  1.00  0.00    -0.262 N 
HETATM   28  C   UNL     1      -9.911   0.616 -32.965  1.00  0.00     0.293 C 
HETATM   29  O   UNL     1      -9.004  -0.125 -33.340  1.00  0.00    -0.264 OA
HETATM   30  H   UNL     1     -10.491   2.205 -31.725  1.00  0.00     0.190 HD
BRANCH  28  31
HETATM   31  C   UNL     1     -11.291   0.472 -33.381  1.00  0.00     0.144 A 
HETATM   32  O   UNL     1     -11.978  -0.672 -33.060  1.00  0.00    -0.317 OA
HETATM   33  C   UNL     1     -13.225  -0.552 -33.583  1.00  0.00     0.143 A 
HETATM   34  C   UNL     1     -13.363   0.652 -34.231  1.00  0.00     0.027 A 
HETATM   35  C   UNL     1     -12.117   1.313 -34.103  1.00  0.00     0.045 A 
ENDBRANCH  28  31
ENDBRANCH  24  27
ENDBRANCH  22  23
ENDBRANCH   1  22
TORSDOF 8
ENDMDL
