MODEL 1
REMARK VINA RESULT:      -8.6      0.000      0.000
REMARK  5 active torsions:
REMARK  status: ('A' for Active; 'I' for Inactive)
REMARK    1  A    between atoms: O_2  and  C_3 
REMARK    2  A    between atoms: C_4  and  N_5 
REMARK       I    between atoms: N_5  and  C_6 
REMARK    3  A    between atoms: C_6  and  C_7 
REMARK    4  A    between atoms: C_7  and  N_8 
REMARK    5  A    between atoms: N_8  and  C_9 
ROOT
HETATM    1  C   UNL     1      -3.676   1.416 -32.198  1.00  0.00     0.195 C 
ENDROOT
BRANCH   1   2
HETATM    2  C   UNL     1      -4.153   2.559 -31.291  1.00  0.00     0.235 C 
HETATM    3  N   UNL     1      -4.078   3.859 -31.699  1.00  0.00    -0.324 N 
HETATM    4  H   UNL     1      -4.794   4.444 -31.281  1.00  0.00     0.169 HD
HETATM    5  O   UNL     1      -4.797   2.304 -30.265  1.00  0.00    -0.272 OA
BRANCH   3   6
HETATM    6  C   UNL     1      -3.315   4.486 -32.696  1.00  0.00     0.068 A 
HETATM    7  C   UNL     1      -1.959   4.730 -32.418  1.00  0.00     0.095 A 
HETATM    8  C   UNL     1      -1.116   5.264 -33.394  1.00  0.00     0.039 A 
HETATM    9  C   UNL     1      -1.627   5.570 -34.654  1.00  0.00     0.003 A 
HETATM   10  C   UNL     1      -2.970   5.325 -34.939  1.00  0.00     0.002 A 
HETATM   11  C   UNL     1      -3.813   4.777 -33.967  1.00  0.00     0.032 A 
BRANCH   7  12
HETATM   12  O   UNL     1      -1.496   4.403 -31.165  1.00  0.00    -0.354 OA
HETATM   13  C   UNL     1      -0.373   5.203 -30.786  1.00  0.00     0.210 C 
ENDBRANCH   7  12
ENDBRANCH   3   6
ENDBRANCH   1   2
BRANCH   1  14
HETATM   14  N   UNL     1      -4.521   0.247 -31.923  1.00  0.00    -0.283 NA
HETATM   15  H   UNL     1      -4.127  -0.315 -31.166  1.00  0.00     0.128 HD
BRANCH  14  16
HETATM   16  C   UNL     1      -4.995  -0.594 -32.943  1.00  0.00     0.019 A 
HETATM   17  C   UNL     1      -4.467  -1.919 -33.054  1.00  0.00    -0.005 A 
HETATM   18  C   UNL     1      -4.930  -2.772 -34.089  1.00  0.00    -0.024 A 
HETATM   19  C   UNL     1      -3.498  -2.446 -32.166  1.00  0.00     0.014 A 
HETATM   20  C   UNL     1      -4.406  -4.069 -34.222  1.00  0.00     0.012 A 
HETATM   21  C   UNL     1      -5.920  -2.319 -34.969  1.00  0.00     0.012 A 
HETATM   22  C   UNL     1      -3.442  -4.551 -33.337  1.00  0.00     0.001 A 
HETATM   23  C   UNL     1      -2.991  -3.741 -32.305  1.00  0.00     0.001 A 
HETATM   24  C   UNL     1      -6.471  -1.051 -34.825  1.00  0.00     0.003 A 
HETATM   25  C   UNL     1      -6.023  -0.204 -33.813  1.00  0.00     0.024 A 
ENDBRANCH  14  16
ENDBRANCH   1  14
TORSDOF 5
ENDMDL
MODEL 2
REMARK VINA RESULT:      -8.5      3.824      5.053
REMARK  5 active torsions:
REMARK  status: ('A' for Active; 'I' for Inactive)
REMARK    1  A    between atoms: O_2  and  C_3 
REMARK    2  A    between atoms: C_4  and  N_5 
REMARK       I    between atoms: N_5  and  C_6 
REMARK    3  A    between atoms: C_6  and  C_7 
REMARK    4  A    between atoms: C_7  and  N_8 
REMARK    5  A    between atoms: N_8  and  C_9 
ROOT
HETATM    1  C   UNL     1      -8.530   0.672 -34.198  1.00  0.00     0.195 C 
ENDROOT
BRANCH   1   2
HETATM    2  C   UNL     1      -9.388   0.348 -32.966  1.00  0.00     0.235 C 
HETATM    3  N   UNL     1      -8.989   0.715 -31.715  1.00  0.00    -0.324 N 
HETATM    4  H   UNL     1      -9.769   0.880 -31.086  1.00  0.00     0.169 HD
HETATM    5  O   UNL     1     -10.545  -0.068 -33.114  1.00  0.00    -0.272 OA
BRANCH   3   6
HETATM    6  C   UNL     1      -7.732   1.063 -31.195  1.00  0.00     0.068 A 
HETATM    7  C   UNL     1      -7.382   2.424 -31.200  1.00  0.00     0.095 A 
HETATM    8  C   UNL     1      -6.191   2.856 -30.615  1.00  0.00     0.039 A 
HETATM    9  C   UNL     1      -5.333   1.925 -30.029  1.00  0.00     0.003 A 
HETATM   10  C   UNL     1      -5.677   0.574 -30.015  1.00  0.00     0.002 A 
HETATM   11  C   UNL     1      -6.877   0.142 -30.588  1.00  0.00     0.032 A 
BRANCH   7  12
HETATM   12  O   UNL     1      -8.263   3.307 -31.779  1.00  0.00    -0.354 OA
HETATM   13  C   UNL     1      -7.643   4.081 -32.809  1.00  0.00     0.210 C 
ENDBRANCH   7  12
ENDBRANCH   3   6
ENDBRANCH   1   2
BRANCH   1  14
HETATM   14  N   UNL     1      -7.846  -0.562 -34.601  1.00  0.00    -0.283 NA
HETATM   15  H   UNL     1      -8.443  -1.376 -34.443  1.00  0.00     0.128 HD
BRANCH  14  16
HETATM   16  C   UNL     1      -6.529  -0.853 -34.208  1.00  0.00     0.019 A 
HETATM   17  C   UNL     1      -6.050  -2.197 -34.321  1.00  0.00    -0.005 A 
HETATM   18  C   UNL     1      -4.727  -2.504 -33.915  1.00  0.00    -0.024 A 
HETATM   19  C   UNL     1      -6.832  -3.260 -34.835  1.00  0.00     0.014 A 
HETATM   20  C   UNL     1      -4.250  -3.824 -34.001  1.00  0.00     0.012 A 
HETATM   21  C   UNL     1      -3.893  -1.485 -33.439  1.00  0.00     0.012 A 
HETATM   22  C   UNL     1      -5.052  -4.848 -34.501  1.00  0.00     0.001 A 
HETATM   23  C   UNL     1      -6.343  -4.566 -34.923  1.00  0.00     0.001 A 
HETATM   24  C   UNL     1      -4.342  -0.170 -33.384  1.00  0.00     0.003 A 
HETATM   25  C   UNL     1      -5.641   0.143 -33.779  1.00  0.00     0.024 A 
ENDBRANCH  14  16
ENDBRANCH   1  14
TORSDOF 5
ENDMDL
MODEL 3
REMARK VINA RESULT:      -8.3      3.008      4.821
REMARK  5 active torsions:
REMARK  status: ('A' for Active; 'I' for Inactive)
REMARK    1  A    between atoms: O_2  and  C_3 
REMARK    2  A    between atoms: C_4  and  N_5 
REMARK       I    between atoms: N_5  and  C_6 
REMARK    3  A    between atoms: C_6  and  C_7 
REMARK    4  A    between atoms: C_7  and  N_8 
REMARK    5  A    between atoms: N_8  and  C_9 
ROOT
HETATM    1  C   UNL     1      -5.304   1.838 -32.371  1.00  0.00     0.195 C 
ENDROOT
BRANCH   1   2
HETATM    2  C   UNL     1      -5.994   2.345 -31.096  1.00  0.00     0.235 C 
HETATM    3  N   UNL     1      -7.309   2.075 -30.854  1.00  0.00    -0.324 N 
HETATM    4  H   UNL     1      -7.525   2.031 -29.862  1.00  0.00     0.169 HD
HETATM    5  O   UNL     1      -5.316   2.827 -30.180  1.00  0.00    -0.272 OA
BRANCH   3   6
HETATM    6  C   UNL     1      -8.359   1.690 -31.700  1.00  0.00     0.068 A 
HETATM    7  C   UNL     1      -8.894   2.668 -32.556  1.00  0.00     0.095 A 
HETATM    8  C   UNL     1      -9.876   2.337 -33.493  1.00  0.00     0.039 A 
HETATM    9  C   UNL     1     -10.339   1.024 -33.571  1.00  0.00     0.003 A 
HETATM   10  C   UNL     1      -9.808   0.047 -32.729  1.00  0.00     0.002 A 
HETATM   11  C   UNL     1      -8.815   0.374 -31.801  1.00  0.00     0.032 A 
BRANCH   7  12
HETATM   12  O   UNL     1      -8.400   3.947 -32.451  1.00  0.00    -0.354 OA
HETATM   13  C   UNL     1      -7.799   4.388 -33.671  1.00  0.00     0.210 C 
ENDBRANCH   7  12
ENDBRANCH   3   6
ENDBRANCH   1   2
BRANCH   1  14
HETATM   14  N   UNL     1      -4.992   0.418 -32.174  1.00  0.00    -0.283 NA
HETATM   15  H   UNL     1      -4.028   0.298 -31.857  1.00  0.00     0.128 HD
BRANCH  14  16
HETATM   16  C   UNL     1      -5.302  -0.560 -33.135  1.00  0.00     0.019 A 
HETATM   17  C   UNL     1      -4.628  -1.822 -33.086  1.00  0.00    -0.005 A 
HETATM   18  C   UNL     1      -4.925  -2.810 -34.059  1.00  0.00    -0.024 A 
HETATM   19  C   UNL     1      -3.671  -2.154 -32.096  1.00  0.00     0.014 A 
HETATM   20  C   UNL     1      -4.257  -4.047 -34.035  1.00  0.00     0.012 A 
HETATM   21  C   UNL     1      -5.895  -2.554 -35.036  1.00  0.00     0.012 A 
HETATM   22  C   UNL     1      -3.310  -4.335 -33.053  1.00  0.00     0.001 A 
HETATM   23  C   UNL     1      -3.021  -3.390 -32.079  1.00  0.00     0.001 A 
HETATM   24  C   UNL     1      -6.587  -1.348 -35.047  1.00  0.00     0.003 A 
HETATM   25  C   UNL     1      -6.303  -0.369 -34.097  1.00  0.00     0.024 A 
ENDBRANCH  14  16
ENDBRANCH   1  14
TORSDOF 5
ENDMDL
MODEL 4
REMARK VINA RESULT:      -8.3      4.834      7.096
REMARK  5 active torsions:
REMARK  status: ('A' for Active; 'I' for Inactive)
REMARK    1  A    between atoms: O_2  and  C_3 
REMARK    2  A    between atoms: C_4  and  N_5 
REMARK       I    between atoms: N_5  and  C_6 
REMARK    3  A    between atoms: C_6  and  C_7 
REMARK    4  A    between atoms: C_7  and  N_8 
REMARK    5  A    between atoms: N_8  and  C_9 
ROOT
HETATM    1  C   UNL     1      -8.536   0.745 -33.840  1.00  0.00     0.195 C 
ENDROOT
BRANCH   1   2
HETATM    2  C   UNL     1      -9.356   1.004 -32.567  1.00  0.00     0.235 C 
HETATM    3  N   UNL     1     -10.573   1.615 -32.627  1.00  0.00    -0.324 N 
HETATM    4  H   UNL     1     -11.194   1.330 -31.876  1.00  0.00     0.169 HD
HETATM    5  O   UNL     1      -9.015   0.480 -31.499  1.00  0.00    -0.272 OA
BRANCH   3   6
HETATM    6  C   UNL     1     -11.171   2.421 -33.608  1.00  0.00     0.068 A 
HETATM    7  C   UNL     1     -12.277   1.892 -34.296  1.00  0.00     0.095 A 
HETATM    8  C   UNL     1     -12.982   2.668 -35.218  1.00  0.00     0.039 A 
HETATM    9  C   UNL     1     -12.577   3.979 -35.467  1.00  0.00     0.003 A 
HETATM   10  C   UNL     1     -11.485   4.513 -34.783  1.00  0.00     0.002 A 
HETATM   11  C   UNL     1     -10.787   3.741 -33.849  1.00  0.00     0.032 A 
BRANCH   7  12
HETATM   12  O   UNL     1     -12.647   0.598 -34.011  1.00  0.00    -0.354 OA
HETATM   13  C   UNL     1     -14.042   0.495 -33.719  1.00  0.00     0.210 C 
ENDBRANCH   7  12
ENDBRANCH   3   6
ENDBRANCH   1   2
BRANCH   1  14
HETATM   14  N   UNL     1      -8.015  -0.625 -33.763  1.00  0.00    -0.283 NA
HETATM   15  H   UNL     1      -8.543  -1.176 -33.084  1.00  0.00     0.128 HD
BRANCH  14  16
HETATM   16  C   UNL     1      -6.643  -0.901 -33.637  1.00  0.00     0.019 A 
HETATM   17  C   UNL     1      -6.149  -2.177 -34.055  1.00  0.00    -0.005 A 
HETATM   18  C   UNL     1      -4.768  -2.470 -33.920  1.00  0.00    -0.024 A 
HETATM   19  C   UNL     1      -6.972  -3.183 -34.617  1.00  0.00     0.014 A 
HETATM   20  C   UNL     1      -4.272  -3.727 -34.308  1.00  0.00     0.012 A 
HETATM   21  C   UNL     1      -3.898  -1.497 -33.411  1.00  0.00     0.012 A 
HETATM   22  C   UNL     1      -5.113  -4.699 -34.846  1.00  0.00     0.001 A 
HETATM   23  C   UNL     1      -6.464  -4.425 -35.006  1.00  0.00     0.001 A 
HETATM   24  C   UNL     1      -4.372  -0.239 -33.058  1.00  0.00     0.003 A 
HETATM   25  C   UNL     1      -5.727   0.060 -33.185  1.00  0.00     0.024 A 
ENDBRANCH  14  16
ENDBRANCH   1  14
TORSDOF 5
ENDMDL
MODEL 5
REMARK VINA RESULT:      -8.3      4.453      6.963
REMARK  5 active torsions:
REMARK  status: ('A' for Active; 'I' for Inactive)
REMARK    1  A    between atoms: O_2  and  C_3 
REMARK    2  A    between atoms: C_4  and  N_5 
REMARK       I    between atoms: N_5  and  C_6 
REMARK    3  A    between atoms: C_6  and  C_7 
REMARK    4  A    between atoms: C_7  and  N_8 
REMARK    5  A    between atoms: N_8  and  C_9 
ROOT
HETATM    1  C   UNL     1      -8.038   0.686 -34.889  1.00  0.00     0.195 C 
ENDROOT
BRANCH   1   2
HETATM    2  C   UNL     1      -8.240   2.033 -34.180  1.00  0.00     0.235 C 
HETATM    3  N   UNL     1      -9.450   2.374 -33.650  1.00  0.00    -0.324 N 
HETATM    4  H   UNL     1      -9.368   3.000 -32.854  1.00  0.00     0.169 HD
HETATM    5  O   UNL     1      -7.260   2.735 -33.902  1.00  0.00    -0.272 OA
BRANCH   3   6
HETATM    6  C   UNL     1     -10.748   1.898 -33.890  1.00  0.00     0.068 A 
HETATM    7  C   UNL     1     -11.541   2.610 -34.807  1.00  0.00     0.095 A 
HETATM    8  C   UNL     1     -12.806   2.145 -35.168  1.00  0.00     0.039 A 
HETATM    9  C   UNL     1     -13.294   0.966 -34.605  1.00  0.00     0.003 A 
HETATM   10  C   UNL     1     -12.511   0.251 -33.700  1.00  0.00     0.002 A 
HETATM   11  C   UNL     1     -11.237   0.709 -33.348  1.00  0.00     0.032 A 
BRANCH   7  12
HETATM   12  O   UNL     1     -11.014   3.762 -35.345  1.00  0.00    -0.354 OA
HETATM   13  C   UNL     1     -11.930   4.856 -35.262  1.00  0.00     0.210 C 
ENDBRANCH   7  12
ENDBRANCH   3   6
ENDBRANCH   1   2
BRANCH   1  14
HETATM   14  N   UNL     1      -7.690  -0.308 -33.867  1.00  0.00    -0.283 NA
HETATM   15  H   UNL     1      -8.097  -0.058 -32.964  1.00  0.00     0.128 HD
BRANCH  14  16
HETATM   16  C   UNL     1      -6.375  -0.770 -33.686  1.00  0.00     0.019 A 
HETATM   17  C   UNL     1      -6.048  -2.108 -34.073  1.00  0.00    -0.005 A 
HETATM   18  C   UNL     1      -4.727  -2.588 -33.882  1.00  0.00    -0.024 A 
HETATM   19  C   UNL     1      -6.981  -2.998 -34.659  1.00  0.00     0.014 A 
HETATM   20  C   UNL     1      -4.397  -3.906 -34.239  1.00  0.00     0.012 A 
HETATM   21  C   UNL     1      -3.751  -1.738 -33.347  1.00  0.00     0.012 A 
HETATM   22  C   UNL     1      -5.345  -4.760 -34.801  1.00  0.00     0.001 A 
HETATM   23  C   UNL     1      -6.637  -4.303 -35.016  1.00  0.00     0.001 A 
HETATM   24  C   UNL     1      -4.058  -0.422 -33.024  1.00  0.00     0.003 A 
HETATM   25  C   UNL     1      -5.353   0.061 -33.206  1.00  0.00     0.024 A 
ENDBRANCH  14  16
ENDBRANCH   1  14
TORSDOF 5
ENDMDL
MODEL 6
REMARK VINA RESULT:      -8.2      1.146      2.030
REMARK  5 active torsions:
REMARK  status: ('A' for Active; 'I' for Inactive)
REMARK    1  A    between atoms: O_2  and  C_3 
REMARK    2  A    between atoms: C_4  and  N_5 
REMARK       I    between atoms: N_5  and  C_6 
REMARK    3  A    between atoms: C_6  and  C_7 
REMARK    4  A    between atoms: C_7  and  N_8 
REMARK    5  A    between atoms: N_8  and  C_9 
ROOT
HETATM    1  C   UNL     1      -3.402   1.116 -32.464  1.00  0.00     0.195 C 
ENDROOT
BRANCH   1   2
HETATM    2  C   UNL     1      -3.957   2.145 -31.469  1.00  0.00     0.235 C 
HETATM    3  N   UNL     1      -3.931   3.480 -31.749  1.00  0.00    -0.324 N 
HETATM    4  H   UNL     1      -4.685   3.991 -31.300  1.00  0.00     0.169 HD
HETATM    5  O   UNL     1      -4.617   1.764 -30.493  1.00  0.00    -0.272 OA
BRANCH   3   6
HETATM    6  C   UNL     1      -3.171   4.234 -32.656  1.00  0.00     0.068 A 
HETATM    7  C   UNL     1      -3.806   4.665 -33.833  1.00  0.00     0.095 A 
HETATM    8  C   UNL     1      -3.144   5.497 -34.738  1.00  0.00     0.039 A 
HETATM    9  C   UNL     1      -1.834   5.894 -34.476  1.00  0.00     0.003 A 
HETATM   10  C   UNL     1      -1.199   5.475 -33.308  1.00  0.00     0.002 A 
HETATM   11  C   UNL     1      -1.866   4.654 -32.394  1.00  0.00     0.032 A 
BRANCH   7  12
HETATM   12  O   UNL     1      -5.103   4.257 -34.045  1.00  0.00    -0.354 OA
HETATM   13  C   UNL     1      -6.042   5.293 -33.748  1.00  0.00     0.210 C 
ENDBRANCH   7  12
ENDBRANCH   3   6
ENDBRANCH   1   2
BRANCH   1  14
HETATM   14  N   UNL     1      -4.066  -0.165 -32.197  1.00  0.00    -0.283 NA
HETATM   15  H   UNL     1      -3.397  -0.855 -31.849  1.00  0.00     0.128 HD
BRANCH  14  16
HETATM   16  C   UNL     1      -4.935  -0.767 -33.122  1.00  0.00     0.019 A 
HETATM   17  C   UNL     1      -4.741  -2.143 -33.465  1.00  0.00    -0.005 A 
HETATM   18  C   UNL     1      -5.605  -2.757 -34.407  1.00  0.00    -0.024 A 
HETATM   19  C   UNL     1      -3.723  -2.949 -32.899  1.00  0.00     0.014 A 
HETATM   20  C   UNL     1      -5.414  -4.102 -34.768  1.00  0.00     0.012 A 
HETATM   21  C   UNL     1      -6.657  -2.022 -34.967  1.00  0.00     0.012 A 
HETATM   22  C   UNL     1      -4.392  -4.863 -34.201  1.00  0.00     0.001 A 
HETATM   23  C   UNL     1      -3.549  -4.287 -33.261  1.00  0.00     0.001 A 
HETATM   24  C   UNL     1      -6.877  -0.702 -34.589  1.00  0.00     0.003 A 
HETATM   25  C   UNL     1      -6.034  -0.088 -33.666  1.00  0.00     0.024 A 
ENDBRANCH  14  16
ENDBRANCH   1  14
TORSDOF 5
ENDMDL
MODEL 7
REMARK VINA RESULT:      -8.2      2.172      6.674
REMARK  5 active torsions:
REMARK  status: ('A' for Active; 'I' for Inactive)
REMARK    1  A    between atoms: O_2  and  C_3 
REMARK    2  A    between atoms: C_4  and  N_5 
REMARK       I    between atoms: N_5  and  C_6 
REMARK    3  A    between atoms: C_6  and  C_7 
REMARK    4  A    between atoms: C_7  and  N_8 
REMARK    5  A    between atoms: N_8  and  C_9 
ROOT
HETATM    1  C   UNL     1      -4.736   0.302 -30.756  1.00  0.00     0.195 C 
ENDROOT
BRANCH   1   2
HETATM    2  C   UNL     1      -3.453  -0.161 -31.460  1.00  0.00     0.235 C 
HETATM    3  N   UNL     1      -3.484  -0.635 -32.739  1.00  0.00    -0.324 N 
HETATM    4  H   UNL     1      -2.616  -0.471 -33.240  1.00  0.00     0.169 HD
HETATM    5  O   UNL     1      -2.350   0.079 -30.951  1.00  0.00    -0.272 OA
BRANCH   3   6
HETATM    6  C   UNL     1      -4.528  -1.145 -33.525  1.00  0.00     0.068 A 
HETATM    7  C   UNL     1      -4.550  -2.532 -33.754  1.00  0.00     0.095 A 
HETATM    8  C   UNL     1      -5.607  -3.125 -34.446  1.00  0.00     0.039 A 
HETATM    9  C   UNL     1      -6.648  -2.330 -34.926  1.00  0.00     0.003 A 
HETATM   10  C   UNL     1      -6.637  -0.955 -34.698  1.00  0.00     0.002 A 
HETATM   11  C   UNL     1      -5.585  -0.362 -33.992  1.00  0.00     0.032 A 
BRANCH   7  12
HETATM   12  O   UNL     1      -3.508  -3.277 -33.253  1.00  0.00    -0.354 OA
HETATM   13  C   UNL     1      -3.644  -4.664 -33.570  1.00  0.00     0.210 C 
ENDBRANCH   7  12
ENDBRANCH   3   6
ENDBRANCH   1   2
BRANCH   1  14
HETATM   14  N   UNL     1      -4.743   1.770 -30.764  1.00  0.00    -0.283 NA
HETATM   15  H   UNL     1      -5.025   2.136 -29.853  1.00  0.00     0.128 HD
BRANCH  14  16
HETATM   16  C   UNL     1      -5.356   2.513 -31.786  1.00  0.00     0.019 A 
HETATM   17  C   UNL     1      -4.546   3.345 -32.622  1.00  0.00    -0.005 A 
HETATM   18  C   UNL     1      -5.157   4.109 -33.649  1.00  0.00    -0.024 A 
HETATM   19  C   UNL     1      -3.140   3.446 -32.491  1.00  0.00     0.014 A 
HETATM   20  C   UNL     1      -4.377   4.947 -34.465  1.00  0.00     0.012 A 
HETATM   21  C   UNL     1      -6.539   4.017 -33.855  1.00  0.00     0.012 A 
HETATM   22  C   UNL     1      -2.995   5.031 -34.299  1.00  0.00     0.001 A 
HETATM   23  C   UNL     1      -2.375   4.276 -33.314  1.00  0.00     0.001 A 
HETATM   24  C   UNL     1      -7.315   3.164 -33.077  1.00  0.00     0.003 A 
HETATM   25  C   UNL     1      -6.726   2.410 -32.065  1.00  0.00     0.024 A 
ENDBRANCH  14  16
ENDBRANCH   1  14
TORSDOF 5
ENDMDL
MODEL 8
REMARK VINA RESULT:      -8.1      4.269      5.475
REMARK  5 active torsions:
REMARK  status: ('A' for Active; 'I' for Inactive)
REMARK    1  A    between atoms: O_2  and  C_3 
REMARK    2  A    between atoms: C_4  and  N_5 
REMARK       I    between atoms: N_5  and  C_6 
REMARK    3  A    between atoms: C_6  and  C_7 
REMARK    4  A    between atoms: C_7  and  N_8 
REMARK    5  A    between atoms: N_8  and  C_9 
ROOT
HETATM    1  C   UNL     1      -8.589   0.802 -33.729  1.00  0.00     0.195 C 
ENDROOT
BRANCH   1   2
HETATM    2  C   UNL     1      -9.420   0.406 -32.501  1.00  0.00     0.235 C 
HETATM    3  N   UNL     1      -9.417   1.171 -31.372  1.00  0.00    -0.324 N 
HETATM    4  H   UNL     1     -10.285   1.104 -30.849  1.00  0.00     0.169 HD
HETATM    5  O   UNL     1     -10.259  -0.500 -32.592  1.00  0.00    -0.272 OA
BRANCH   3   6
HETATM    6  C   UNL     1      -8.521   2.141 -30.899  1.00  0.00     0.068 A 
HETATM    7  C   UNL     1      -9.048   3.398 -30.552  1.00  0.00     0.095 A 
HETATM    8  C   UNL     1      -8.235   4.381 -29.986  1.00  0.00     0.039 A 
HETATM    9  C   UNL     1      -6.882   4.118 -29.773  1.00  0.00     0.003 A 
HETATM   10  C   UNL     1      -6.353   2.872 -30.108  1.00  0.00     0.002 A 
HETATM   11  C   UNL     1      -7.170   1.881 -30.662  1.00  0.00     0.032 A 
BRANCH   7  12
HETATM   12  O   UNL     1     -10.390   3.608 -30.770  1.00  0.00    -0.354 OA
HETATM   13  C   UNL     1     -10.617   4.602 -31.772  1.00  0.00     0.210 C 
ENDBRANCH   7  12
ENDBRANCH   3   6
ENDBRANCH   1   2
BRANCH   1  14
HETATM   14  N   UNL     1      -7.939  -0.411 -34.238  1.00  0.00    -0.283 NA
HETATM   15  H   UNL     1      -8.533  -1.229 -34.092  1.00  0.00     0.128 HD
BRANCH  14  16
HETATM   16  C   UNL     1      -6.605  -0.732 -33.936  1.00  0.00     0.019 A 
HETATM   17  C   UNL     1      -6.136  -2.062 -34.183  1.00  0.00    -0.005 A 
HETATM   18  C   UNL     1      -4.795  -2.399 -33.870  1.00  0.00    -0.024 A 
HETATM   19  C   UNL     1      -6.945  -3.079 -34.744  1.00  0.00     0.014 A 
HETATM   20  C   UNL     1      -4.326  -3.706 -34.089  1.00  0.00     0.012 A 
HETATM   21  C   UNL     1      -3.935  -1.422 -33.353  1.00  0.00     0.012 A 
HETATM   22  C   UNL     1      -5.155  -4.687 -34.631  1.00  0.00     0.001 A 
HETATM   23  C   UNL     1      -6.464  -4.372 -34.964  1.00  0.00     0.001 A 
HETATM   24  C   UNL     1      -4.378  -0.117 -33.167  1.00  0.00     0.003 A 
HETATM   25  C   UNL     1      -5.694   0.226 -33.470  1.00  0.00     0.024 A 
ENDBRANCH  14  16
ENDBRANCH   1  14
TORSDOF 5
ENDMDL
MODEL 9
REMARK VINA RESULT:      -8.0      4.589      6.971
REMARK  5 active torsions:
REMARK  status: ('A' for Active; 'I' for Inactive)
REMARK    1  A    between atoms: O_2  and  C_3 
REMARK    2  A    between atoms: C_4  and  N_5 
REMARK       I    between atoms: N_5  and  C_6 
REMARK    3  A    between atoms: C_6  and  C_7 
REMARK    4  A    between atoms: C_7  and  N_8 
REMARK    5  A    between atoms: N_8  and  C_9 
ROOT
HETATM    1  C   UNL     1      -8.166   1.138 -33.341  1.00  0.00     0.195 C 
ENDROOT
BRANCH   1   2
HETATM    2  C   UNL     1      -9.051   1.720 -32.229  1.00  0.00     0.235 C 
HETATM    3  N   UNL     1     -10.324   2.136 -32.488  1.00  0.00    -0.324 N 
HETATM    4  H   UNL     1     -10.936   2.055 -31.682  1.00  0.00     0.169 HD
HETATM    5  O   UNL     1      -8.693   1.630 -31.047  1.00  0.00    -0.272 OA
BRANCH   3   6
HETATM    6  C   UNL     1     -10.970   2.491 -33.682  1.00  0.00     0.068 A 
HETATM    7  C   UNL     1     -11.920   1.592 -34.197  1.00  0.00     0.095 A 
HETATM    8  C   UNL     1     -12.671   1.917 -35.327  1.00  0.00     0.039 A 
HETATM    9  C   UNL     1     -12.468   3.143 -35.960  1.00  0.00     0.003 A 
HETATM   10  C   UNL     1     -11.532   4.043 -35.451  1.00  0.00     0.002 A 
HETATM   11  C   UNL     1     -10.789   3.724 -34.310  1.00  0.00     0.032 A 
BRANCH   7  12
HETATM   12  O   UNL     1     -12.094   0.399 -33.534  1.00  0.00    -0.354 OA
HETATM   13  C   UNL     1     -13.424  -0.103 -33.682  1.00  0.00     0.210 C 
ENDBRANCH   7  12
ENDBRANCH   3   6
ENDBRANCH   1   2
BRANCH   1  14
HETATM   14  N   UNL     1      -8.007  -0.297 -33.078  1.00  0.00    -0.283 NA
HETATM   15  H   UNL     1      -8.250  -0.518 -32.111  1.00  0.00     0.128 HD
BRANCH  14  16
HETATM   16  C   UNL     1      -6.854  -1.006 -33.453  1.00  0.00     0.019 A 
HETATM   17  C   UNL     1      -5.648  -0.819 -32.705  1.00  0.00    -0.005 A 
HETATM   18  C   UNL     1      -4.475  -1.521 -33.083  1.00  0.00    -0.024 A 
HETATM   19  C   UNL     1      -5.557   0.034 -31.578  1.00  0.00     0.014 A 
HETATM   20  C   UNL     1      -3.279  -1.332 -32.370  1.00  0.00     0.012 A 
HETATM   21  C   UNL     1      -4.516  -2.411 -34.163  1.00  0.00     0.012 A 
HETATM   22  C   UNL     1      -3.222  -0.474 -31.273  1.00  0.00     0.001 A 
HETATM   23  C   UNL     1      -4.363   0.206 -30.873  1.00  0.00     0.001 A 
HETATM   24  C   UNL     1      -5.703  -2.633 -34.853  1.00  0.00     0.003 A 
HETATM   25  C   UNL     1      -6.862  -1.949 -34.491  1.00  0.00     0.024 A 
ENDBRANCH  14  16
ENDBRANCH   1  14
TORSDOF 5
ENDMDL
MODEL 10
REMARK VINA RESULT:      -8.0      1.899      7.782
REMARK  5 active torsions:
REMARK  status: ('A' for Active; 'I' for Inactive)
REMARK    1  A    between atoms: O_2  and  C_3 
REMARK    2  A    between atoms: C_4  and  N_5 
REMARK       I    between atoms: N_5  and  C_6 
REMARK    3  A    between atoms: C_6  and  C_7 
REMARK    4  A    between atoms: C_7  and  N_8 
REMARK    5  A    between atoms: N_8  and  C_9 
ROOT
HETATM    1  C   UNL     1      -3.705   2.117 -32.328  1.00  0.00     0.195 C 
ENDROOT
BRANCH   1   2
HETATM    2  C   UNL     1      -3.605   0.794 -31.555  1.00  0.00     0.235 C 
HETATM    3  N   UNL     1      -4.528  -0.195 -31.732  1.00  0.00    -0.324 N 
HETATM    4  H   UNL     1      -4.147  -1.122 -31.568  1.00  0.00     0.169 HD
HETATM    5  O   UNL     1      -2.578   0.530 -30.918  1.00  0.00    -0.272 OA
BRANCH   3   6
HETATM    6  C   UNL     1      -5.832  -0.180 -32.249  1.00  0.00     0.068 A 
HETATM    7  C   UNL     1      -6.103  -1.011 -33.350  1.00  0.00     0.095 A 
HETATM    8  C   UNL     1      -7.398  -1.121 -33.859  1.00  0.00     0.039 A 
HETATM    9  C   UNL     1      -8.432  -0.388 -33.277  1.00  0.00     0.003 A 
HETATM   10  C   UNL     1      -8.172   0.433 -32.181  1.00  0.00     0.002 A 
HETATM   11  C   UNL     1      -6.878   0.533 -31.660  1.00  0.00     0.032 A 
BRANCH   7  12
HETATM   12  O   UNL     1      -5.055  -1.723 -33.885  1.00  0.00    -0.354 OA
HETATM   13  C   UNL     1      -5.498  -2.682 -34.847  1.00  0.00     0.210 C 
ENDBRANCH   7  12
ENDBRANCH   3   6
ENDBRANCH   1   2
BRANCH   1  14
HETATM   14  N   UNL     1      -2.653   3.008 -31.824  1.00  0.00    -0.283 NA
HETATM   15  H   UNL     1      -2.798   3.217 -30.835  1.00  0.00     0.128 HD
BRANCH  14  16
HETATM   16  C   UNL     1      -2.265   4.173 -32.505  1.00  0.00     0.019 A 
HETATM   17  C   UNL     1      -1.343   5.071 -31.879  1.00  0.00    -0.005 A 
HETATM   18  C   UNL     1      -0.955   6.257 -32.554  1.00  0.00    -0.024 A 
HETATM   19  C   UNL     1      -0.774   4.836 -30.604  1.00  0.00     0.014 A 
HETATM   20  C   UNL     1      -0.066   7.158 -31.942  1.00  0.00     0.012 A 
HETATM   21  C   UNL     1      -1.452   6.521 -33.836  1.00  0.00     0.012 A 
HETATM   22  C   UNL     1       0.465   6.901 -30.679  1.00  0.00     0.001 A 
HETATM   23  C   UNL     1       0.115   5.736 -30.012  1.00  0.00     0.001 A 
HETATM   24  C   UNL     1      -2.304   5.619 -34.464  1.00  0.00     0.003 A 
HETATM   25  C   UNL     1      -2.692   4.451 -33.811  1.00  0.00     0.024 A 
ENDBRANCH  14  16
ENDBRANCH   1  14
TORSDOF 5
ENDMDL
