MODEL 1
REMARK VINA RESULT:      -8.0      0.000      0.000
REMARK  5 active torsions:
REMARK  status: ('A' for Active; 'I' for Inactive)
REMARK    1  A    between atoms: C_2  and  C_3 
REMARK    2  A    between atoms: C_2  and  C_20 
REMARK       I    between atoms: C_3  and  N_4 
REMARK    3  A    between atoms: N_4  and  C_5 
REMARK    4  A    between atoms: C_8  and  O_9 
REMARK    5  A    between atoms: O_9  and  C_10 
ROOT
HETATM    1  C   UNL     1      -8.683   0.332 -33.690  1.00  0.00     0.052 A 
HETATM    2  C   UNL     1      -7.943   0.189 -32.518  1.00  0.00     0.149 A 
HETATM    3  N   UNL     1      -6.616  -0.104 -32.483  1.00  0.00    -0.235 NA
HETATM    4  C   UNL     1      -5.992  -0.255 -33.670  1.00  0.00     0.169 A 
HETATM    5  C   UNL     1      -6.635  -0.125 -34.891  1.00  0.00     0.060 A 
HETATM    6  C   UNL     1      -7.999   0.162 -34.897  1.00  0.00     0.035 A 
ENDROOT
BRANCH   1   7
HETATM    7  N   UNL     1     -10.062   0.626 -33.756  1.00  0.00    -0.325 N 
HETATM    8  C   UNL     1     -10.633   1.865 -34.001  1.00  0.00     0.231 C 
HETATM    9  O   UNL     1      -9.994   2.879 -34.259  1.00  0.00    -0.272 OA
HETATM   10  H   UNL     1     -10.683  -0.167 -33.662  1.00  0.00     0.169 HD
BRANCH   8  11
HETATM   11  C   UNL     1     -12.179   1.859 -34.009  1.00  0.00     0.046 C 
HETATM   12  C   UNL     1     -12.652   2.291 -35.412  1.00  0.00     0.026 C 
HETATM   13  C   UNL     1     -12.734   0.457 -33.701  1.00  0.00     0.026 C 
BRANCH  11  14
HETATM   14  C   UNL     1     -12.712   2.901 -32.997  1.00  0.00     0.133 C 
HETATM   15 CL   UNL     1     -14.314   2.504 -32.314  1.00  0.00    -0.129 Cl
ENDBRANCH  11  14
ENDBRANCH   8  11
ENDBRANCH   1   7
BRANCH   4  16
HETATM   16  O   UNL     1      -4.630  -0.535 -33.724  1.00  0.00    -0.289 OA
BRANCH  16  17
HETATM   17  C   UNL     1      -4.259  -1.826 -33.448  1.00  0.00     0.116 A 
HETATM   18  C   UNL     1      -3.565  -2.091 -32.271  1.00  0.00     0.150 A 
HETATM   19  F   UNL     1      -3.310  -1.105 -31.397  1.00  0.00    -0.203 F 
HETATM   20  C   UNL     1      -3.116  -3.378 -31.987  1.00  0.00     0.045 A 
HETATM   21  C   UNL     1      -3.352  -4.408 -32.900  1.00  0.00     0.003 A 
HETATM   22  C   UNL     1      -4.030  -4.144 -34.092  1.00  0.00     0.003 A 
HETATM   23  C   UNL     1      -4.477  -2.850 -34.373  1.00  0.00     0.040 A 
ENDBRANCH  16  17
ENDBRANCH   4  16
TORSDOF 5
ENDMDL
MODEL 2
REMARK VINA RESULT:      -7.4      5.794      7.516
REMARK  5 active torsions:
REMARK  status: ('A' for Active; 'I' for Inactive)
REMARK    1  A    between atoms: C_2  and  C_3 
REMARK    2  A    between atoms: C_2  and  C_20 
REMARK       I    between atoms: C_3  and  N_4 
REMARK    3  A    between atoms: N_4  and  C_5 
REMARK    4  A    between atoms: C_8  and  O_9 
REMARK    5  A    between atoms: O_9  and  C_10 
ROOT
HETATM    1  C   UNL     1      -4.229   3.807 -32.151  1.00  0.00     0.052 A 
HETATM    2  C   UNL     1      -4.216   3.002 -31.014  1.00  0.00     0.149 A 
HETATM    3  N   UNL     1      -4.922   1.847 -30.888  1.00  0.00    -0.235 NA
HETATM    4  C   UNL     1      -5.671   1.470 -31.945  1.00  0.00     0.169 A 
HETATM    5  C   UNL     1      -5.746   2.195 -33.123  1.00  0.00     0.060 A 
HETATM    6  C   UNL     1      -5.023   3.383 -33.220  1.00  0.00     0.035 A 
ENDROOT
BRANCH   1   7
HETATM    7  N   UNL     1      -3.515   5.015 -32.307  1.00  0.00    -0.325 N 
HETATM    8  C   UNL     1      -2.165   5.215 -32.062  1.00  0.00     0.231 C 
HETATM    9  O   UNL     1      -1.387   4.328 -31.729  1.00  0.00    -0.272 OA
HETATM   10  H   UNL     1      -4.044   5.790 -32.682  1.00  0.00     0.169 HD
BRANCH   8  11
HETATM   11  C   UNL     1      -1.681   6.658 -32.328  1.00  0.00     0.046 C 
HETATM   12  C   UNL     1      -2.678   7.630 -31.664  1.00  0.00     0.026 C 
HETATM   13  C   UNL     1      -0.279   6.895 -31.737  1.00  0.00     0.026 C 
BRANCH  11  14
HETATM   14  C   UNL     1      -1.697   6.944 -33.849  1.00  0.00     0.133 C 
HETATM   15 CL   UNL     1      -1.181   5.563 -34.858  1.00  0.00    -0.129 Cl
ENDBRANCH  11  14
ENDBRANCH   8  11
ENDBRANCH   1   7
BRANCH   4  16
HETATM   16  O   UNL     1      -6.409   0.291 -31.906  1.00  0.00    -0.289 OA
BRANCH  16  17
HETATM   17  C   UNL     1      -6.086  -0.665 -32.836  1.00  0.00     0.116 A 
HETATM   18  C   UNL     1      -7.086  -1.165 -33.665  1.00  0.00     0.150 A 
HETATM   19  F   UNL     1      -8.335  -0.681 -33.588  1.00  0.00    -0.203 F 
HETATM   20  C   UNL     1      -6.810  -2.180 -34.576  1.00  0.00     0.045 A 
HETATM   21  C   UNL     1      -5.520  -2.711 -34.648  1.00  0.00     0.003 A 
HETATM   22  C   UNL     1      -4.517  -2.227 -33.804  1.00  0.00     0.003 A 
HETATM   23  C   UNL     1      -4.800  -1.209 -32.890  1.00  0.00     0.040 A 
ENDBRANCH  16  17
ENDBRANCH   4  16
TORSDOF 5
ENDMDL
MODEL 3
REMARK VINA RESULT:      -7.2      6.000      7.600
REMARK  5 active torsions:
REMARK  status: ('A' for Active; 'I' for Inactive)
REMARK    1  A    between atoms: C_2  and  C_3 
REMARK    2  A    between atoms: C_2  and  C_20 
REMARK       I    between atoms: C_3  and  N_4 
REMARK    3  A    between atoms: N_4  and  C_5 
REMARK    4  A    between atoms: C_8  and  O_9 
REMARK    5  A    between atoms: O_9  and  C_10 
ROOT
HETATM    1  C   UNL     1      -4.441   3.788 -31.833  1.00  0.00     0.052 A 
HETATM    2  C   UNL     1      -4.481   2.940 -30.727  1.00  0.00     0.149 A 
HETATM    3  N   UNL     1      -5.160   1.763 -30.692  1.00  0.00    -0.235 NA
HETATM    4  C   UNL     1      -5.825   1.408 -31.811  1.00  0.00     0.169 A 
HETATM    5  C   UNL     1      -5.841   2.174 -32.964  1.00  0.00     0.060 A 
HETATM    6  C   UNL     1      -5.148   3.384 -32.968  1.00  0.00     0.035 A 
ENDROOT
BRANCH   1   7
HETATM    7  N   UNL     1      -3.753   5.019 -31.895  1.00  0.00    -0.325 N 
HETATM    8  C   UNL     1      -2.379   5.202 -31.871  1.00  0.00     0.231 C 
HETATM    9  O   UNL     1      -1.563   4.286 -31.855  1.00  0.00    -0.272 OA
HETATM   10  H   UNL     1      -4.333   5.838 -32.019  1.00  0.00     0.169 HD
BRANCH   8  11
HETATM   11  C   UNL     1      -1.935   6.679 -31.955  1.00  0.00     0.046 C 
HETATM   12  C   UNL     1      -1.148   6.870 -33.268  1.00  0.00     0.026 C 
HETATM   13  C   UNL     1      -3.147   7.628 -31.953  1.00  0.00     0.026 C 
BRANCH  11  14
HETATM   14  C   UNL     1      -0.974   7.004 -30.787  1.00  0.00     0.133 C 
HETATM   15 CL   UNL     1       0.757   6.823 -31.190  1.00  0.00    -0.129 Cl
ENDBRANCH  11  14
ENDBRANCH   8  11
ENDBRANCH   1   7
BRANCH   4  16
HETATM   16  O   UNL     1      -6.529   0.208 -31.865  1.00  0.00    -0.289 OA
BRANCH  16  17
HETATM   17  C   UNL     1      -6.118  -0.701 -32.807  1.00  0.00     0.116 A 
HETATM   18  C   UNL     1      -7.051  -1.204 -33.710  1.00  0.00     0.150 A 
HETATM   19  F   UNL     1      -8.319  -0.766 -33.690  1.00  0.00    -0.203 F 
HETATM   20  C   UNL     1      -6.686  -2.175 -34.639  1.00  0.00     0.045 A 
HETATM   21  C   UNL     1      -5.376  -2.658 -34.653  1.00  0.00     0.003 A 
HETATM   22  C   UNL     1      -4.441  -2.172 -33.736  1.00  0.00     0.003 A 
HETATM   23  C   UNL     1      -4.813  -1.199 -32.805  1.00  0.00     0.040 A 
ENDBRANCH  16  17
ENDBRANCH   4  16
TORSDOF 5
ENDMDL
MODEL 4
REMARK VINA RESULT:      -7.2      6.285      8.241
REMARK  5 active torsions:
REMARK  status: ('A' for Active; 'I' for Inactive)
REMARK    1  A    between atoms: C_2  and  C_3 
REMARK    2  A    between atoms: C_2  and  C_20 
REMARK       I    between atoms: C_3  and  N_4 
REMARK    3  A    between atoms: N_4  and  C_5 
REMARK    4  A    between atoms: C_8  and  O_9 
REMARK    5  A    between atoms: O_9  and  C_10 
ROOT
HETATM    1  C   UNL     1      -3.546   3.916 -31.609  1.00  0.00     0.052 A 
HETATM    2  C   UNL     1      -4.660   3.754 -30.788  1.00  0.00     0.149 A 
HETATM    3  N   UNL     1      -5.366   2.598 -30.679  1.00  0.00    -0.235 NA
HETATM    4  C   UNL     1      -4.941   1.550 -31.416  1.00  0.00     0.169 A 
HETATM    5  C   UNL     1      -3.840   1.605 -32.255  1.00  0.00     0.060 A 
HETATM    6  C   UNL     1      -3.142   2.808 -32.358  1.00  0.00     0.035 A 
ENDROOT
BRANCH   1   7
HETATM    7  N   UNL     1      -2.799   5.106 -31.749  1.00  0.00    -0.325 N 
HETATM    8  C   UNL     1      -1.496   5.320 -31.328  1.00  0.00     0.231 C 
HETATM    9  O   UNL     1      -0.786   4.458 -30.821  1.00  0.00    -0.272 OA
HETATM   10  H   UNL     1      -3.258   5.853 -32.254  1.00  0.00     0.169 HD
BRANCH   8  11
HETATM   11  C   UNL     1      -0.957   6.737 -31.628  1.00  0.00     0.046 C 
HETATM   12  C   UNL     1      -0.923   6.923 -33.159  1.00  0.00     0.026 C 
HETATM   13  C   UNL     1      -1.860   7.820 -31.011  1.00  0.00     0.026 C 
BRANCH  11  14
HETATM   14  C   UNL     1       0.495   6.866 -31.112  1.00  0.00     0.133 C 
HETATM   15 CL   UNL     1       0.623   7.379 -29.405  1.00  0.00    -0.129 Cl
ENDBRANCH  11  14
ENDBRANCH   8  11
ENDBRANCH   1   7
BRANCH   4  16
HETATM   16  O   UNL     1      -5.595   0.324 -31.347  1.00  0.00    -0.289 OA
BRANCH  16  17
HETATM   17  C   UNL     1      -6.137  -0.148 -32.515  1.00  0.00     0.116 A 
HETATM   18  C   UNL     1      -5.544  -1.243 -33.139  1.00  0.00     0.150 A 
HETATM   19  F   UNL     1      -4.491  -1.856 -32.576  1.00  0.00    -0.203 F 
HETATM   20  C   UNL     1      -6.027  -1.711 -34.358  1.00  0.00     0.045 A 
HETATM   21  C   UNL     1      -7.106  -1.067 -34.966  1.00  0.00     0.003 A 
HETATM   22  C   UNL     1      -7.691   0.045 -34.355  1.00  0.00     0.003 A 
HETATM   23  C   UNL     1      -7.202   0.512 -33.133  1.00  0.00     0.040 A 
ENDBRANCH  16  17
ENDBRANCH   4  16
TORSDOF 5
ENDMDL
MODEL 5
REMARK VINA RESULT:      -7.1      6.105      8.146
REMARK  5 active torsions:
REMARK  status: ('A' for Active; 'I' for Inactive)
REMARK    1  A    between atoms: C_2  and  C_3 
REMARK    2  A    between atoms: C_2  and  C_20 
REMARK       I    between atoms: C_3  and  N_4 
REMARK    3  A    between atoms: N_4  and  C_5 
REMARK    4  A    between atoms: C_8  and  O_9 
REMARK    5  A    between atoms: O_9  and  C_10 
ROOT
HETATM    1  C   UNL     1      -3.638   4.040 -31.612  1.00  0.00     0.052 A 
HETATM    2  C   UNL     1      -3.389   2.904 -32.379  1.00  0.00     0.149 A 
HETATM    3  N   UNL     1      -4.126   1.763 -32.316  1.00  0.00    -0.235 NA
HETATM    4  C   UNL     1      -5.163   1.754 -31.453  1.00  0.00     0.169 A 
HETATM    5  C   UNL     1      -5.499   2.833 -30.652  1.00  0.00     0.060 A 
HETATM    6  C   UNL     1      -4.718   3.986 -30.728  1.00  0.00     0.035 A 
ENDROOT
BRANCH   1   7
HETATM    7  N   UNL     1      -2.885   5.234 -31.651  1.00  0.00    -0.325 N 
HETATM    8  C   UNL     1      -1.534   5.370 -31.375  1.00  0.00     0.231 C 
HETATM    9  O   UNL     1      -0.786   4.432 -31.117  1.00  0.00    -0.272 OA
HETATM   10  H   UNL     1      -3.386   6.057 -31.959  1.00  0.00     0.169 HD
BRANCH   8  11
HETATM   11  C   UNL     1      -1.002   6.815 -31.504  1.00  0.00     0.046 C 
HETATM   12  C   UNL     1      -1.727   7.688 -30.459  1.00  0.00     0.026 C 
HETATM   13  C   UNL     1       0.514   6.877 -31.247  1.00  0.00     0.026 C 
BRANCH  11  14
HETATM   14  C   UNL     1      -1.351   7.378 -32.903  1.00  0.00     0.133 C 
HETATM   15 CL   UNL     1      -1.021   6.251 -34.249  1.00  0.00    -0.129 Cl
ENDBRANCH  11  14
ENDBRANCH   8  11
ENDBRANCH   1   7
BRANCH   4  16
HETATM   16  O   UNL     1      -5.980   0.633 -31.341  1.00  0.00    -0.289 OA
BRANCH  16  17
HETATM   17  C   UNL     1      -6.394   0.056 -32.515  1.00  0.00     0.116 A 
HETATM   18  C   UNL     1      -5.716  -1.062 -32.993  1.00  0.00     0.150 A 
HETATM   19  F   UNL     1      -4.706  -1.595 -32.289  1.00  0.00    -0.203 F 
HETATM   20  C   UNL     1      -6.067  -1.636 -34.212  1.00  0.00     0.045 A 
HETATM   21  C   UNL     1      -7.099  -1.076 -34.967  1.00  0.00     0.003 A 
HETATM   22  C   UNL     1      -7.770   0.058 -34.502  1.00  0.00     0.003 A 
HETATM   23  C   UNL     1      -7.413   0.632 -33.279  1.00  0.00     0.040 A 
ENDBRANCH  16  17
ENDBRANCH   4  16
TORSDOF 5
ENDMDL
MODEL 6
REMARK VINA RESULT:      -6.9      6.679      8.172
REMARK  5 active torsions:
REMARK  status: ('A' for Active; 'I' for Inactive)
REMARK    1  A    between atoms: C_2  and  C_3 
REMARK    2  A    between atoms: C_2  and  C_20 
REMARK       I    between atoms: C_3  and  N_4 
REMARK    3  A    between atoms: N_4  and  C_5 
REMARK    4  A    between atoms: C_8  and  O_9 
REMARK    5  A    between atoms: O_9  and  C_10 
ROOT
HETATM    1  C   UNL     1      -4.080   3.121 -32.450  1.00  0.00     0.052 A 
HETATM    2  C   UNL     1      -3.052   3.115 -31.510  1.00  0.00     0.149 A 
HETATM    3  N   UNL     1      -2.012   3.990 -31.509  1.00  0.00    -0.235 NA
HETATM    4  C   UNL     1      -1.996   4.920 -32.486  1.00  0.00     0.169 A 
HETATM    5  C   UNL     1      -2.973   5.017 -33.463  1.00  0.00     0.060 A 
HETATM    6  C   UNL     1      -4.022   4.098 -33.448  1.00  0.00     0.035 A 
ENDROOT
BRANCH   1   7
HETATM    7  N   UNL     1      -5.166   2.220 -32.482  1.00  0.00    -0.325 N 
HETATM    8  C   UNL     1      -5.116   0.874 -32.811  1.00  0.00     0.231 C 
HETATM    9  O   UNL     1      -4.082   0.265 -33.063  1.00  0.00    -0.272 OA
HETATM   10  H   UNL     1      -6.056   2.597 -32.184  1.00  0.00     0.169 HD
BRANCH   8  11
HETATM   11  C   UNL     1      -6.483   0.156 -32.752  1.00  0.00     0.046 C 
HETATM   12  C   UNL     1      -6.284  -1.295 -33.237  1.00  0.00     0.026 C 
HETATM   13  C   UNL     1      -7.041   0.134 -31.317  1.00  0.00     0.026 C 
BRANCH  11  14
HETATM   14  C   UNL     1      -7.475   0.839 -33.723  1.00  0.00     0.133 C 
HETATM   15 CL   UNL     1      -7.134   0.538 -35.450  1.00  0.00    -0.129 Cl
ENDBRANCH  11  14
ENDBRANCH   8  11
ENDBRANCH   1   7
BRANCH   4  16
HETATM   16  O   UNL     1      -0.978   5.867 -32.545  1.00  0.00    -0.289 OA
BRANCH  16  17
HETATM   17  C   UNL     1      -0.784   6.631 -31.422  1.00  0.00     0.116 A 
HETATM   18  C   UNL     1       0.335   6.394 -30.630  1.00  0.00     0.150 A 
HETATM   19  F   UNL     1       1.236   5.467 -30.989  1.00  0.00    -0.203 F 
HETATM   20  C   UNL     1       0.531   7.107 -29.450  1.00  0.00     0.045 A 
HETATM   21  C   UNL     1      -0.412   8.056 -29.052  1.00  0.00     0.003 A 
HETATM   22  C   UNL     1      -1.548   8.283 -29.833  1.00  0.00     0.003 A 
HETATM   23  C   UNL     1      -1.741   7.565 -31.016  1.00  0.00     0.040 A 
ENDBRANCH  16  17
ENDBRANCH   4  16
TORSDOF 5
ENDMDL
MODEL 7
REMARK VINA RESULT:      -6.8      5.966      8.093
REMARK  5 active torsions:
REMARK  status: ('A' for Active; 'I' for Inactive)
REMARK    1  A    between atoms: C_2  and  C_3 
REMARK    2  A    between atoms: C_2  and  C_20 
REMARK       I    between atoms: C_3  and  N_4 
REMARK    3  A    between atoms: N_4  and  C_5 
REMARK    4  A    between atoms: C_8  and  O_9 
REMARK    5  A    between atoms: O_9  and  C_10 
ROOT
HETATM    1  C   UNL     1      -4.429   4.198 -31.172  1.00  0.00     0.052 A 
HETATM    2  C   UNL     1      -4.878   3.211 -30.296  1.00  0.00     0.149 A 
HETATM    3  N   UNL     1      -5.949   2.409 -30.534  1.00  0.00    -0.235 NA
HETATM    4  C   UNL     1      -6.601   2.591 -31.701  1.00  0.00     0.169 A 
HETATM    5  C   UNL     1      -6.231   3.538 -32.642  1.00  0.00     0.060 A 
HETATM    6  C   UNL     1      -5.136   4.357 -32.366  1.00  0.00     0.035 A 
ENDROOT
BRANCH   1   7
HETATM    7  N   UNL     1      -3.327   5.052 -30.947  1.00  0.00    -0.325 N 
HETATM    8  C   UNL     1      -2.063   4.936 -31.504  1.00  0.00     0.231 C 
HETATM    9  O   UNL     1      -1.752   4.089 -32.335  1.00  0.00    -0.272 OA
HETATM   10  H   UNL     1      -3.508   5.852 -30.356  1.00  0.00     0.169 HD
BRANCH   8  11
HETATM   11  C   UNL     1      -1.070   6.032 -31.057  1.00  0.00     0.046 C 
HETATM   12  C   UNL     1       0.240   5.345 -30.621  1.00  0.00     0.026 C 
HETATM   13  C   UNL     1      -0.766   7.011 -32.206  1.00  0.00     0.026 C 
BRANCH  11  14
HETATM   14  C   UNL     1      -1.636   6.780 -29.827  1.00  0.00     0.133 C 
HETATM   15 CL   UNL     1      -0.651   6.602 -28.346  1.00  0.00    -0.129 Cl
ENDBRANCH  11  14
ENDBRANCH   8  11
ENDBRANCH   1   7
BRANCH   4  16
HETATM   16  O   UNL     1      -7.695   1.797 -32.032  1.00  0.00    -0.289 OA
BRANCH  16  17
HETATM   17  C   UNL     1      -7.493   0.845 -32.999  1.00  0.00     0.116 A 
HETATM   18  C   UNL     1      -6.862  -0.346 -32.650  1.00  0.00     0.150 A 
HETATM   19  F   UNL     1      -6.504  -0.577 -31.378  1.00  0.00    -0.203 F 
HETATM   20  C   UNL     1      -6.583  -1.309 -33.616  1.00  0.00     0.045 A 
HETATM   21  C   UNL     1      -6.927  -1.069 -34.949  1.00  0.00     0.003 A 
HETATM   22  C   UNL     1      -7.541   0.133 -35.307  1.00  0.00     0.003 A 
HETATM   23  C   UNL     1      -7.818   1.096 -34.334  1.00  0.00     0.040 A 
ENDBRANCH  16  17
ENDBRANCH   4  16
TORSDOF 5
ENDMDL
MODEL 8
REMARK VINA RESULT:      -6.8      6.106      8.217
REMARK  5 active torsions:
REMARK  status: ('A' for Active; 'I' for Inactive)
REMARK    1  A    between atoms: C_2  and  C_3 
REMARK    2  A    between atoms: C_2  and  C_20 
REMARK       I    between atoms: C_3  and  N_4 
REMARK    3  A    between atoms: N_4  and  C_5 
REMARK    4  A    between atoms: C_8  and  O_9 
REMARK    5  A    between atoms: O_9  and  C_10 
ROOT
HETATM    1  C   UNL     1      -4.427   4.370 -31.139  1.00  0.00     0.052 A 
HETATM    2  C   UNL     1      -4.968   3.436 -30.257  1.00  0.00     0.149 A 
HETATM    3  N   UNL     1      -6.015   2.622 -30.555  1.00  0.00    -0.235 NA
HETATM    4  C   UNL     1      -6.546   2.737 -31.790  1.00  0.00     0.169 A 
HETATM    5  C   UNL     1      -6.077   3.627 -32.742  1.00  0.00     0.060 A 
HETATM    6  C   UNL     1      -5.011   4.460 -32.405  1.00  0.00     0.035 A 
ENDROOT
BRANCH   1   7
HETATM    7  N   UNL     1      -3.347   5.234 -30.854  1.00  0.00    -0.325 N 
HETATM    8  C   UNL     1      -2.028   5.067 -31.246  1.00  0.00     0.231 C 
HETATM    9  O   UNL     1      -1.633   4.153 -31.963  1.00  0.00    -0.272 OA
HETATM   10  H   UNL     1      -3.585   6.081 -30.355  1.00  0.00     0.169 HD
BRANCH   8  11
HETATM   11  C   UNL     1      -1.080   6.192 -30.775  1.00  0.00     0.046 C 
HETATM   12  C   UNL     1      -0.016   5.566 -29.849  1.00  0.00     0.026 C 
HETATM   13  C   UNL     1      -0.375   6.865 -31.967  1.00  0.00     0.026 C 
BRANCH  11  14
HETATM   14  C   UNL     1      -1.870   7.228 -29.941  1.00  0.00     0.133 C 
HETATM   15 CL   UNL     1      -2.148   8.782 -30.777  1.00  0.00    -0.129 Cl
ENDBRANCH  11  14
ENDBRANCH   8  11
ENDBRANCH   1   7
BRANCH   4  16
HETATM   16  O   UNL     1      -7.607   1.927 -32.182  1.00  0.00    -0.289 OA
BRANCH  16  17
HETATM   17  C   UNL     1      -7.317   0.924 -33.072  1.00  0.00     0.116 A 
HETATM   18  C   UNL     1      -7.932   0.931 -34.321  1.00  0.00     0.150 A 
HETATM   19  F   UNL     1      -8.755   1.933 -34.665  1.00  0.00    -0.203 F 
HETATM   20  C   UNL     1      -7.710  -0.104 -35.225  1.00  0.00     0.045 A 
HETATM   21  C   UNL     1      -6.876  -1.165 -34.869  1.00  0.00     0.003 A 
HETATM   22  C   UNL     1      -6.273  -1.188 -33.609  1.00  0.00     0.003 A 
HETATM   23  C   UNL     1      -6.499  -0.148 -32.704  1.00  0.00     0.040 A 
ENDBRANCH  16  17
ENDBRANCH   4  16
TORSDOF 5
ENDMDL
MODEL 9
REMARK VINA RESULT:      -6.7      6.467      7.704
REMARK  5 active torsions:
REMARK  status: ('A' for Active; 'I' for Inactive)
REMARK    1  A    between atoms: C_2  and  C_3 
REMARK    2  A    between atoms: C_2  and  C_20 
REMARK       I    between atoms: C_3  and  N_4 
REMARK    3  A    between atoms: N_4  and  C_5 
REMARK    4  A    between atoms: C_8  and  O_9 
REMARK    5  A    between atoms: O_9  and  C_10 
ROOT
HETATM    1  C   UNL     1      -4.163   3.506 -32.715  1.00  0.00     0.052 A 
HETATM    2  C   UNL     1      -3.409   3.199 -31.584  1.00  0.00     0.149 A 
HETATM    3  N   UNL     1      -2.186   3.730 -31.315  1.00  0.00    -0.235 NA
HETATM    4  C   UNL     1      -1.693   4.612 -32.209  1.00  0.00     0.169 A 
HETATM    5  C   UNL     1      -2.366   4.989 -33.359  1.00  0.00     0.060 A 
HETATM    6  C   UNL     1      -3.613   4.419 -33.617  1.00  0.00     0.035 A 
ENDROOT
BRANCH   1   7
HETATM    7  N   UNL     1      -5.430   2.964 -33.025  1.00  0.00    -0.325 N 
HETATM    8  C   UNL     1      -5.731   1.626 -33.225  1.00  0.00     0.231 C 
HETATM    9  O   UNL     1      -4.925   0.711 -33.092  1.00  0.00    -0.272 OA
HETATM   10  H   UNL     1      -6.193   3.627 -33.053  1.00  0.00     0.169 HD
BRANCH   8  11
HETATM   11  C   UNL     1      -7.217   1.353 -33.552  1.00  0.00     0.046 C 
HETATM   12  C   UNL     1      -7.959   2.705 -33.577  1.00  0.00     0.026 C 
HETATM   13  C   UNL     1      -7.370   0.669 -34.922  1.00  0.00     0.026 C 
BRANCH  11  14
HETATM   14  C   UNL     1      -7.851   0.496 -32.430  1.00  0.00     0.133 C 
HETATM   15 CL   UNL     1      -9.542   0.013 -32.746  1.00  0.00    -0.129 Cl
ENDBRANCH  11  14
ENDBRANCH   8  11
ENDBRANCH   1   7
BRANCH   4  16
HETATM   16  O   UNL     1      -0.457   5.217 -31.999  1.00  0.00    -0.289 OA
BRANCH  16  17
HETATM   17  C   UNL     1      -0.333   5.980 -30.865  1.00  0.00     0.116 A 
HETATM   18  C   UNL     1       0.430   5.495 -29.807  1.00  0.00     0.150 A 
HETATM   19  F   UNL     1       1.074   4.323 -29.916  1.00  0.00    -0.203 F 
HETATM   20  C   UNL     1       0.528   6.212 -28.617  1.00  0.00     0.045 A 
HETATM   21  C   UNL     1      -0.159   7.421 -28.482  1.00  0.00     0.003 A 
HETATM   22  C   UNL     1      -0.942   7.901 -29.534  1.00  0.00     0.003 A 
HETATM   23  C   UNL     1      -1.038   7.178 -30.725  1.00  0.00     0.040 A 
ENDBRANCH  16  17
ENDBRANCH   4  16
TORSDOF 5
ENDMDL
MODEL 10
REMARK VINA RESULT:      -6.6      6.485      7.638
REMARK  5 active torsions:
REMARK  status: ('A' for Active; 'I' for Inactive)
REMARK    1  A    between atoms: C_2  and  C_3 
REMARK    2  A    between atoms: C_2  and  C_20 
REMARK       I    between atoms: C_3  and  N_4 
REMARK    3  A    between atoms: N_4  and  C_5 
REMARK    4  A    between atoms: C_8  and  O_9 
REMARK    5  A    between atoms: O_9  and  C_10 
ROOT
HETATM    1  C   UNL     1      -4.533   3.391 -32.385  1.00  0.00     0.052 A 
HETATM    2  C   UNL     1      -3.624   2.966 -31.418  1.00  0.00     0.149 A 
HETATM    3  N   UNL     1      -2.352   3.432 -31.308  1.00  0.00    -0.235 NA
HETATM    4  C   UNL     1      -1.967   4.371 -32.199  1.00  0.00     0.169 A 
HETATM    5  C   UNL     1      -2.795   4.865 -33.192  1.00  0.00     0.060 A 
HETATM    6  C   UNL     1      -4.091   4.359 -33.290  1.00  0.00     0.035 A 
ENDROOT
BRANCH   1   7
HETATM    7  N   UNL     1      -5.856   2.919 -32.528  1.00  0.00    -0.325 N 
HETATM    8  C   UNL     1      -6.243   1.667 -32.982  1.00  0.00     0.231 C 
HETATM    9  O   UNL     1      -5.462   0.765 -33.265  1.00  0.00    -0.272 OA
HETATM   10  H   UNL     1      -6.582   3.551 -32.219  1.00  0.00     0.169 HD
BRANCH   8  11
HETATM   11  C   UNL     1      -7.773   1.454 -33.025  1.00  0.00     0.046 C 
HETATM   12  C   UNL     1      -8.306   1.502 -31.579  1.00  0.00     0.026 C 
HETATM   13  C   UNL     1      -8.466   2.552 -33.852  1.00  0.00     0.026 C 
BRANCH  11  14
HETATM   14  C   UNL     1      -8.091   0.050 -33.592  1.00  0.00     0.133 C 
HETATM   15 CL   UNL     1      -7.846  -0.101 -35.355  1.00  0.00    -0.129 Cl
ENDBRANCH  11  14
ENDBRANCH   8  11
ENDBRANCH   1   7
BRANCH   4  16
HETATM   16  O   UNL     1      -0.687   4.915 -32.143  1.00  0.00    -0.289 OA
BRANCH  16  17
HETATM   17  C   UNL     1      -0.349   5.572 -30.987  1.00  0.00     0.116 A 
HETATM   18  C   UNL     1      -0.586   6.941 -30.895  1.00  0.00     0.150 A 
HETATM   19  F   UNL     1      -1.182   7.595 -31.904  1.00  0.00    -0.203 F 
HETATM   20  C   UNL     1      -0.199   7.652 -29.763  1.00  0.00     0.045 A 
HETATM   21  C   UNL     1       0.445   6.987 -28.717  1.00  0.00     0.003 A 
HETATM   22  C   UNL     1       0.704   5.618 -28.813  1.00  0.00     0.003 A 
HETATM   23  C   UNL     1       0.314   4.909 -29.952  1.00  0.00     0.040 A 
ENDBRANCH  16  17
ENDBRANCH   4  16
TORSDOF 5
ENDMDL
