MODEL 1
REMARK VINA RESULT:      -8.5      0.000      0.000
REMARK  9 active torsions:
REMARK  status: ('A' for Active; 'I' for Inactive)
REMARK    1  A    between atoms: S_2  and  C_3 
REMARK    2  A    between atoms: C_3  and  C_4 
REMARK    3  A    between atoms: C_4  and  C_5 
REMARK    4  A    between atoms: C_5  and  N_6 
REMARK    5  A    between atoms: C_5  and  C_16 
REMARK       I    between atoms: N_6  and  C_7 
REMARK    6  A    between atoms: C_7  and  C_8 
REMARK       I    between atoms: C_16  and  N_17 
REMARK    7  A    between atoms: N_17  and  N_18 
REMARK       I    between atoms: N_18  and  C_19 
REMARK    8  A    between atoms: C_19  and  C_20 
REMARK    9  A    between atoms: C_23  and  O_24 
ROOT
HETATM    1  C   UNL     1      -6.936   1.078 -31.643  1.00  0.00     0.179 C 
ENDROOT
BRANCH   1   2
HETATM    2  C   UNL     1      -6.469   1.389 -30.211  1.00  0.00     0.045 C 
BRANCH   2   3
HETATM    3  C   UNL     1      -5.513   2.575 -30.076  1.00  0.00     0.076 C 
BRANCH   3   4
HETATM    4  S   UNL     1      -4.930   3.188 -31.690  1.00  0.00    -0.173 SA
HETATM    5  C   UNL     1      -3.397   2.233 -31.806  1.00  0.00     0.089 C 
ENDBRANCH   3   4
ENDBRANCH   2   3
ENDBRANCH   1   2
BRANCH   1   6
HETATM    6  N   UNL     1      -6.457  -0.204 -32.178  1.00  0.00    -0.344 N 
HETATM    7  C   UNL     1      -6.190  -0.462 -33.499  1.00  0.00     0.254 C 
HETATM    8  O   UNL     1      -6.305   0.405 -34.360  1.00  0.00    -0.268 OA
HETATM    9  H   UNL     1      -6.284  -0.934 -31.496  1.00  0.00     0.163 HD
BRANCH   7  10
HETATM   10  C   UNL     1      -5.781  -1.844 -33.882  1.00  0.00     0.053 A 
HETATM   11  C   UNL     1      -4.543  -2.440 -33.600  1.00  0.00     0.049 A 
HETATM   12 CL   UNL     1      -3.247  -1.632 -32.789  1.00  0.00    -0.083 Cl
HETATM   13  C   UNL     1      -4.289  -3.757 -34.010  1.00  0.00     0.025 A 
HETATM   14  C   UNL     1      -5.254  -4.485 -34.704  1.00  0.00     0.002 A 
HETATM   15  C   UNL     1      -6.480  -3.899 -35.002  1.00  0.00     0.001 A 
HETATM   16  C   UNL     1      -6.739  -2.589 -34.597  1.00  0.00     0.019 A 
ENDBRANCH   7  10
ENDBRANCH   1   6
BRANCH   1  17
HETATM   17  C   UNL     1      -8.466   1.252 -31.744  1.00  0.00     0.259 C 
HETATM   18  N   UNL     1      -9.122   0.378 -32.582  1.00  0.00    -0.265 N 
HETATM   19  H   UNL     1      -8.645  -0.368 -33.099  1.00  0.00     0.190 HD
HETATM   20  O   UNL     1      -9.086   2.030 -31.013  1.00  0.00    -0.269 OA
BRANCH  18  21
HETATM   21  N   UNL     1     -10.517   0.426 -32.639  1.00  0.00    -0.263 N 
HETATM   22  C   UNL     1     -11.111   1.143 -33.659  1.00  0.00     0.270 C 
HETATM   23  O   UNL     1     -10.474   1.673 -34.565  1.00  0.00    -0.266 OA
HETATM   24  H   UNL     1     -10.994   0.192 -31.771  1.00  0.00     0.190 HD
BRANCH  22  25
HETATM   25  C   UNL     1     -12.598   1.267 -33.609  1.00  0.00     0.033 A 
HETATM   26  C   UNL     1     -13.453   0.375 -34.274  1.00  0.00     0.020 A 
HETATM   27  C   UNL     1     -14.841   0.550 -34.210  1.00  0.00     0.037 A 
HETATM   28  C   UNL     1     -15.366   1.619 -33.491  1.00  0.00     0.065 A 
HETATM   29  C   UNL     1     -14.532   2.515 -32.835  1.00  0.00     0.037 A 
HETATM   30  C   UNL     1     -13.148   2.342 -32.896  1.00  0.00     0.020 A 
BRANCH  28  31
HETATM   31  O   UNL     1     -16.711   1.827 -33.411  1.00  0.00    -0.361 OA
HETATM   32  H   UNL     1     -17.132   1.474 -34.211  1.00  0.00     0.217 HD
ENDBRANCH  28  31
ENDBRANCH  22  25
ENDBRANCH  18  21
ENDBRANCH   1  17
TORSDOF 9
ENDMDL
MODEL 2
REMARK VINA RESULT:      -8.2      4.179      8.188
REMARK  9 active torsions:
REMARK  status: ('A' for Active; 'I' for Inactive)
REMARK    1  A    between atoms: S_2  and  C_3 
REMARK    2  A    between atoms: C_3  and  C_4 
REMARK    3  A    between atoms: C_4  and  C_5 
REMARK    4  A    between atoms: C_5  and  N_6 
REMARK    5  A    between atoms: C_5  and  C_16 
REMARK       I    between atoms: N_6  and  C_7 
REMARK    6  A    between atoms: C_7  and  C_8 
REMARK       I    between atoms: C_16  and  N_17 
REMARK    7  A    between atoms: N_17  and  N_18 
REMARK       I    between atoms: N_18  and  C_19 
REMARK    8  A    between atoms: C_19  and  C_20 
REMARK    9  A    between atoms: C_23  and  O_24 
ROOT
HETATM    1  C   UNL     1      -5.151   3.659 -31.245  1.00  0.00     0.179 C 
ENDROOT
BRANCH   1   2
HETATM    2  C   UNL     1      -6.135   3.833 -30.076  1.00  0.00     0.045 C 
BRANCH   2   3
HETATM    3  C   UNL     1      -7.225   2.767 -29.972  1.00  0.00     0.076 C 
BRANCH   3   4
HETATM    4  S   UNL     1      -8.844   3.363 -30.562  1.00  0.00    -0.173 SA
HETATM    5  C   UNL     1      -8.872   2.529 -32.168  1.00  0.00     0.089 C 
ENDBRANCH   3   4
ENDBRANCH   2   3
ENDBRANCH   1   2
BRANCH   1   6
HETATM    6  N   UNL     1      -3.889   4.397 -31.099  1.00  0.00    -0.344 N 
HETATM    7  C   UNL     1      -2.984   4.628 -32.103  1.00  0.00     0.254 C 
HETATM    8  O   UNL     1      -3.188   4.248 -33.252  1.00  0.00    -0.268 OA
HETATM    9  H   UNL     1      -3.705   4.787 -30.181  1.00  0.00     0.163 HD
BRANCH   7  10
HETATM   10  C   UNL     1      -1.714   5.332 -31.765  1.00  0.00     0.053 A 
HETATM   11  C   UNL     1      -1.248   6.512 -32.363  1.00  0.00     0.049 A 
HETATM   12 CL   UNL     1      -2.064   7.329 -33.650  1.00  0.00    -0.083 Cl
HETATM   13  C   UNL     1      -0.036   7.080 -31.942  1.00  0.00     0.025 A 
HETATM   14  C   UNL     1       0.720   6.480 -30.935  1.00  0.00     0.002 A 
HETATM   15  C   UNL     1       0.274   5.302 -30.346  1.00  0.00     0.001 A 
HETATM   16  C   UNL     1      -0.931   4.732 -30.759  1.00  0.00     0.019 A 
ENDBRANCH   7  10
ENDBRANCH   1   6
BRANCH   1  17
HETATM   17  C   UNL     1      -4.955   2.158 -31.544  1.00  0.00     0.259 C 
HETATM   18  N   UNL     1      -5.301   1.742 -32.810  1.00  0.00    -0.265 N 
HETATM   19  H   UNL     1      -5.649   2.378 -33.534  1.00  0.00     0.190 HD
HETATM   20  O   UNL     1      -4.386   1.401 -30.751  1.00  0.00    -0.269 OA
BRANCH  18  21
HETATM   21  N   UNL     1      -5.053   0.414 -33.168  1.00  0.00    -0.263 N 
HETATM   22  C   UNL     1      -6.004  -0.256 -33.913  1.00  0.00     0.270 C 
HETATM   23  O   UNL     1      -7.020   0.282 -34.344  1.00  0.00    -0.266 OA
HETATM   24  H   UNL     1      -4.345  -0.060 -32.612  1.00  0.00     0.190 HD
BRANCH  22  25
HETATM   25  C   UNL     1      -5.752  -1.705 -34.167  1.00  0.00     0.033 A 
HETATM   26  C   UNL     1      -6.740  -2.567 -34.668  1.00  0.00     0.020 A 
HETATM   27  C   UNL     1      -6.455  -3.923 -34.869  1.00  0.00     0.037 A 
HETATM   28  C   UNL     1      -5.191  -4.413 -34.560  1.00  0.00     0.065 A 
HETATM   29  C   UNL     1      -4.206  -3.574 -34.056  1.00  0.00     0.037 A 
HETATM   30  C   UNL     1      -4.485  -2.221 -33.856  1.00  0.00     0.020 A 
BRANCH  28  31
HETATM   31  O   UNL     1      -4.877  -5.728 -34.735  1.00  0.00    -0.361 OA
HETATM   32  H   UNL     1      -5.182  -6.230 -33.962  1.00  0.00     0.217 HD
ENDBRANCH  28  31
ENDBRANCH  22  25
ENDBRANCH  18  21
ENDBRANCH   1  17
TORSDOF 9
ENDMDL
MODEL 3
REMARK VINA RESULT:      -8.1      1.226      1.578
REMARK  9 active torsions:
REMARK  status: ('A' for Active; 'I' for Inactive)
REMARK    1  A    between atoms: S_2  and  C_3 
REMARK    2  A    between atoms: C_3  and  C_4 
REMARK    3  A    between atoms: C_4  and  C_5 
REMARK    4  A    between atoms: C_5  and  N_6 
REMARK    5  A    between atoms: C_5  and  C_16 
REMARK       I    between atoms: N_6  and  C_7 
REMARK    6  A    between atoms: C_7  and  C_8 
REMARK       I    between atoms: C_16  and  N_17 
REMARK    7  A    between atoms: N_17  and  N_18 
REMARK       I    between atoms: N_18  and  C_19 
REMARK    8  A    between atoms: C_19  and  C_20 
REMARK    9  A    between atoms: C_23  and  O_24 
ROOT
HETATM    1  C   UNL     1      -7.191   1.352 -32.909  1.00  0.00     0.179 C 
ENDROOT
BRANCH   1   2
HETATM    2  C   UNL     1      -6.386   2.267 -31.971  1.00  0.00     0.045 C 
BRANCH   2   3
HETATM    3  C   UNL     1      -5.203   2.989 -32.616  1.00  0.00     0.076 C 
BRANCH   3   4
HETATM    4  S   UNL     1      -3.653   2.760 -31.685  1.00  0.00    -0.173 SA
HETATM    5  C   UNL     1      -2.612   3.922 -32.601  1.00  0.00     0.089 C 
ENDBRANCH   3   4
ENDBRANCH   2   3
ENDBRANCH   1   2
BRANCH   1   6
HETATM    6  N   UNL     1      -6.598   0.025 -33.128  1.00  0.00    -0.344 N 
HETATM    7  C   UNL     1      -6.575  -0.646 -34.324  1.00  0.00     0.254 C 
HETATM    8  O   UNL     1      -7.037  -0.152 -35.348  1.00  0.00    -0.268 OA
HETATM    9  H   UNL     1      -6.146  -0.398 -32.325  1.00  0.00     0.163 HD
BRANCH   7  10
HETATM   10  C   UNL     1      -5.998  -2.021 -34.354  1.00  0.00     0.053 A 
HETATM   11  C   UNL     1      -4.694  -2.370 -33.975  1.00  0.00     0.049 A 
HETATM   12 CL   UNL     1      -3.505  -1.230 -33.449  1.00  0.00    -0.083 Cl
HETATM   13  C   UNL     1      -4.279  -3.708 -34.042  1.00  0.00     0.025 A 
HETATM   14  C   UNL     1      -5.149  -4.702 -34.488  1.00  0.00     0.002 A 
HETATM   15  C   UNL     1      -6.440  -4.365 -34.880  1.00  0.00     0.001 A 
HETATM   16  C   UNL     1      -6.860  -3.035 -34.816  1.00  0.00     0.019 A 
ENDBRANCH   7  10
ENDBRANCH   1   6
BRANCH   1  17
HETATM   17  C   UNL     1      -8.664   1.299 -32.452  1.00  0.00     0.259 C 
HETATM   18  N   UNL     1      -9.464   2.341 -32.864  1.00  0.00    -0.265 N 
HETATM   19  H   UNL     1      -9.128   3.105 -33.460  1.00  0.00     0.190 HD
HETATM   20  O   UNL     1      -9.136   0.314 -31.876  1.00  0.00    -0.269 OA
BRANCH  18  21
HETATM   21  N   UNL     1     -10.828   2.296 -32.563  1.00  0.00    -0.263 N 
HETATM   22  C   UNL     1     -11.722   2.047 -33.587  1.00  0.00     0.270 C 
HETATM   23  O   UNL     1     -11.371   1.784 -34.734  1.00  0.00    -0.266 OA
HETATM   24  H   UNL     1     -11.093   2.743 -31.688  1.00  0.00     0.190 HD
BRANCH  22  25
HETATM   25  C   UNL     1     -13.171   2.131 -33.241  1.00  0.00     0.033 A 
HETATM   26  C   UNL     1     -13.667   3.020 -32.275  1.00  0.00     0.020 A 
HETATM   27  C   UNL     1     -15.035   3.043 -31.975  1.00  0.00     0.037 A 
HETATM   28  C   UNL     1     -15.897   2.172 -32.634  1.00  0.00     0.065 A 
HETATM   29  C   UNL     1     -15.419   1.281 -33.585  1.00  0.00     0.037 A 
HETATM   30  C   UNL     1     -14.057   1.256 -33.888  1.00  0.00     0.020 A 
BRANCH  28  31
HETATM   31  O   UNL     1     -17.233   2.159 -32.364  1.00  0.00    -0.361 OA
HETATM   32  H   UNL     1     -17.723   2.127 -33.201  1.00  0.00     0.217 HD
ENDBRANCH  28  31
ENDBRANCH  22  25
ENDBRANCH  18  21
ENDBRANCH   1  17
TORSDOF 9
ENDMDL
MODEL 4
REMARK VINA RESULT:      -8.1      3.259      7.611
REMARK  9 active torsions:
REMARK  status: ('A' for Active; 'I' for Inactive)
REMARK    1  A    between atoms: S_2  and  C_3 
REMARK    2  A    between atoms: C_3  and  C_4 
REMARK    3  A    between atoms: C_4  and  C_5 
REMARK    4  A    between atoms: C_5  and  N_6 
REMARK    5  A    between atoms: C_5  and  C_16 
REMARK       I    between atoms: N_6  and  C_7 
REMARK    6  A    between atoms: C_7  and  C_8 
REMARK       I    between atoms: C_16  and  N_17 
REMARK    7  A    between atoms: N_17  and  N_18 
REMARK       I    between atoms: N_18  and  C_19 
REMARK    8  A    between atoms: C_19  and  C_20 
REMARK    9  A    between atoms: C_23  and  O_24 
ROOT
HETATM    1  C   UNL     1      -8.166   0.635 -33.001  1.00  0.00     0.179 C 
ENDROOT
BRANCH   1   2
HETATM    2  C   UNL     1      -9.451   0.662 -33.845  1.00  0.00     0.045 C 
BRANCH   2   3
HETATM    3  C   UNL     1     -10.740   0.349 -33.086  1.00  0.00     0.076 C 
BRANCH   3   4
HETATM    4  S   UNL     1     -12.193   1.183 -33.803  1.00  0.00    -0.173 SA
HETATM    5  C   UNL     1     -13.377  -0.179 -33.680  1.00  0.00     0.089 C 
ENDBRANCH   3   4
ENDBRANCH   2   3
ENDBRANCH   1   2
BRANCH   1   6
HETATM    6  N   UNL     1      -7.349  -0.575 -33.167  1.00  0.00    -0.344 N 
HETATM    7  C   UNL     1      -6.757  -0.979 -34.336  1.00  0.00     0.254 C 
HETATM    8  O   UNL     1      -6.841  -0.312 -35.363  1.00  0.00    -0.268 OA
HETATM    9  H   UNL     1      -7.197  -1.127 -32.330  1.00  0.00     0.163 HD
BRANCH   7  10
HETATM   10  C   UNL     1      -6.022  -2.276 -34.347  1.00  0.00     0.053 A 
HETATM   11  C   UNL     1      -4.697  -2.471 -33.930  1.00  0.00     0.049 A 
HETATM   12 CL   UNL     1      -3.666  -1.200 -33.372  1.00  0.00    -0.083 Cl
HETATM   13  C   UNL     1      -4.126  -3.751 -33.982  1.00  0.00     0.025 A 
HETATM   14  C   UNL     1      -4.861  -4.839 -34.452  1.00  0.00     0.002 A 
HETATM   15  C   UNL     1      -6.170  -4.655 -34.882  1.00  0.00     0.001 A 
HETATM   16  C   UNL     1      -6.745  -3.384 -34.832  1.00  0.00     0.019 A 
ENDBRANCH   7  10
ENDBRANCH   1   6
BRANCH   1  17
HETATM   17  C   UNL     1      -7.375   1.943 -33.210  1.00  0.00     0.259 C 
HETATM   18  N   UNL     1      -6.045   1.912 -32.854  1.00  0.00    -0.265 N 
HETATM   19  H   UNL     1      -5.582   1.072 -32.490  1.00  0.00     0.190 HD
HETATM   20  O   UNL     1      -7.860   2.916 -33.796  1.00  0.00    -0.269 OA
BRANCH  18  21
HETATM   21  N   UNL     1      -5.256   3.036 -33.111  1.00  0.00    -0.263 N 
HETATM   22  C   UNL     1      -3.944   3.034 -32.679  1.00  0.00     0.270 C 
HETATM   23  O   UNL     1      -3.414   2.061 -32.151  1.00  0.00    -0.266 OA
HETATM   24  H   UNL     1      -5.772   3.887 -33.325  1.00  0.00     0.190 HD
BRANCH  22  25
HETATM   25  C   UNL     1      -3.178   4.301 -32.868  1.00  0.00     0.033 A 
HETATM   26  C   UNL     1      -2.341   4.833 -31.875  1.00  0.00     0.020 A 
HETATM   27  C   UNL     1      -1.661   6.036 -32.097  1.00  0.00     0.037 A 
HETATM   28  C   UNL     1      -1.828   6.707 -33.304  1.00  0.00     0.065 A 
HETATM   29  C   UNL     1      -2.660   6.198 -34.293  1.00  0.00     0.037 A 
HETATM   30  C   UNL     1      -3.338   4.998 -34.075  1.00  0.00     0.020 A 
BRANCH  28  31
HETATM   31  O   UNL     1      -1.189   7.885 -33.555  1.00  0.00    -0.361 OA
HETATM   32  H   UNL     1      -1.018   7.954 -34.508  1.00  0.00     0.217 HD
ENDBRANCH  28  31
ENDBRANCH  22  25
ENDBRANCH  18  21
ENDBRANCH   1  17
TORSDOF 9
ENDMDL
MODEL 5
REMARK VINA RESULT:      -8.0      3.968      8.005
REMARK  9 active torsions:
REMARK  status: ('A' for Active; 'I' for Inactive)
REMARK    1  A    between atoms: S_2  and  C_3 
REMARK    2  A    between atoms: C_3  and  C_4 
REMARK    3  A    between atoms: C_4  and  C_5 
REMARK    4  A    between atoms: C_5  and  N_6 
REMARK    5  A    between atoms: C_5  and  C_16 
REMARK       I    between atoms: N_6  and  C_7 
REMARK    6  A    between atoms: C_7  and  C_8 
REMARK       I    between atoms: C_16  and  N_17 
REMARK    7  A    between atoms: N_17  and  N_18 
REMARK       I    between atoms: N_18  and  C_19 
REMARK    8  A    between atoms: C_19  and  C_20 
REMARK    9  A    between atoms: C_23  and  O_24 
ROOT
HETATM    1  C   UNL     1      -6.557   3.535 -32.082  1.00  0.00     0.179 C 
ENDROOT
BRANCH   1   2
HETATM    2  C   UNL     1      -7.343   3.771 -30.782  1.00  0.00     0.045 C 
BRANCH   2   3
HETATM    3  C   UNL     1      -8.745   4.353 -30.960  1.00  0.00     0.076 C 
BRANCH   3   4
HETATM    4  S   UNL     1      -9.885   3.190 -31.779  1.00  0.00    -0.173 SA
HETATM    5  C   UNL     1     -10.602   4.322 -32.995  1.00  0.00     0.089 C 
ENDBRANCH   3   4
ENDBRANCH   2   3
ENDBRANCH   1   2
BRANCH   1   6
HETATM    6  N   UNL     1      -5.370   4.386 -32.243  1.00  0.00    -0.344 N 
HETATM    7  C   UNL     1      -4.953   4.952 -33.421  1.00  0.00     0.254 C 
HETATM    8  O   UNL     1      -5.587   4.810 -34.463  1.00  0.00    -0.268 OA
HETATM    9  H   UNL     1      -4.847   4.585 -31.397  1.00  0.00     0.163 HD
BRANCH   7  10
HETATM   10  C   UNL     1      -3.680   5.729 -33.423  1.00  0.00     0.053 A 
HETATM   11  C   UNL     1      -3.396   6.837 -32.611  1.00  0.00     0.049 A 
HETATM   12 CL   UNL     1      -4.519   7.525 -31.491  1.00  0.00    -0.083 Cl
HETATM   13  C   UNL     1      -2.150   7.474 -32.705  1.00  0.00     0.025 A 
HETATM   14  C   UNL     1      -1.185   7.021 -33.604  1.00  0.00     0.002 A 
HETATM   15  C   UNL     1      -1.462   5.932 -34.424  1.00  0.00     0.001 A 
HETATM   16  C   UNL     1      -2.699   5.294 -34.336  1.00  0.00     0.019 A 
ENDBRANCH   7  10
ENDBRANCH   1   6
BRANCH   1  17
HETATM   17  C   UNL     1      -6.261   2.030 -32.250  1.00  0.00     0.259 C 
HETATM   18  N   UNL     1      -5.870   1.625 -33.506  1.00  0.00    -0.265 N 
HETATM   19  H   UNL     1      -5.752   2.272 -34.293  1.00  0.00     0.190 HD
HETATM   20  O   UNL     1      -6.235   1.256 -31.288  1.00  0.00    -0.269 OA
BRANCH  18  21
HETATM   21  N   UNL     1      -5.495   0.291 -33.693  1.00  0.00    -0.263 N 
HETATM   22  C   UNL     1      -6.325  -0.529 -34.431  1.00  0.00     0.270 C 
HETATM   23  O   UNL     1      -7.337  -0.125 -34.998  1.00  0.00    -0.266 OA
HETATM   24  H   UNL     1      -4.806  -0.061 -33.033  1.00  0.00     0.190 HD
BRANCH  22  25
HETATM   25  C   UNL     1      -5.947  -1.971 -34.500  1.00  0.00     0.033 A 
HETATM   26  C   UNL     1      -6.868  -2.978 -34.829  1.00  0.00     0.020 A 
HETATM   27  C   UNL     1      -6.464  -4.319 -34.860  1.00  0.00     0.037 A 
HETATM   28  C   UNL     1      -5.147  -4.647 -34.553  1.00  0.00     0.065 A 
HETATM   29  C   UNL     1      -4.228  -3.662 -34.216  1.00  0.00     0.037 A 
HETATM   30  C   UNL     1      -4.626  -2.325 -34.186  1.00  0.00     0.020 A 
BRANCH  28  31
HETATM   31  O   UNL     1      -4.718  -5.941 -34.564  1.00  0.00    -0.361 OA
HETATM   32  H   UNL     1      -4.109  -6.077 -33.820  1.00  0.00     0.217 HD
ENDBRANCH  28  31
ENDBRANCH  22  25
ENDBRANCH  18  21
ENDBRANCH   1  17
TORSDOF 9
ENDMDL
MODEL 6
REMARK VINA RESULT:      -8.0      4.699      8.743
REMARK  9 active torsions:
REMARK  status: ('A' for Active; 'I' for Inactive)
REMARK    1  A    between atoms: S_2  and  C_3 
REMARK    2  A    between atoms: C_3  and  C_4 
REMARK    3  A    between atoms: C_4  and  C_5 
REMARK    4  A    between atoms: C_5  and  N_6 
REMARK    5  A    between atoms: C_5  and  C_16 
REMARK       I    between atoms: N_6  and  C_7 
REMARK    6  A    between atoms: C_7  and  C_8 
REMARK       I    between atoms: C_16  and  N_17 
REMARK    7  A    between atoms: N_17  and  N_18 
REMARK       I    between atoms: N_18  and  C_19 
REMARK    8  A    between atoms: C_19  and  C_20 
REMARK    9  A    between atoms: C_23  and  O_24 
ROOT
HETATM    1  C   UNL     1      -4.532   3.883 -31.459  1.00  0.00     0.179 C 
ENDROOT
BRANCH   1   2
HETATM    2  C   UNL     1      -5.852   4.008 -30.680  1.00  0.00     0.045 C 
BRANCH   2   3
HETATM    3  C   UNL     1      -6.922   4.879 -31.340  1.00  0.00     0.076 C 
BRANCH   3   4
HETATM    4  S   UNL     1      -6.641   5.098 -33.127  1.00  0.00    -0.173 SA
HETATM    5  C   UNL     1      -7.831   3.881 -33.740  1.00  0.00     0.089 C 
ENDBRANCH   3   4
ENDBRANCH   2   3
ENDBRANCH   1   2
BRANCH   1   6
HETATM    6  N   UNL     1      -3.399   4.605 -30.866  1.00  0.00    -0.344 N 
HETATM    7  C   UNL     1      -2.972   5.855 -31.238  1.00  0.00     0.254 C 
HETATM    8  O   UNL     1      -3.551   6.500 -32.107  1.00  0.00    -0.268 OA
HETATM    9  H   UNL     1      -2.927   4.140 -30.099  1.00  0.00     0.163 HD
BRANCH   7  10
HETATM   10  C   UNL     1      -1.755   6.413 -30.581  1.00  0.00     0.053 A 
HETATM   11  C   UNL     1      -1.708   6.998 -29.307  1.00  0.00     0.049 A 
HETATM   12 CL   UNL     1      -3.092   7.215 -28.294  1.00  0.00    -0.083 Cl
HETATM   13  C   UNL     1      -0.491   7.476 -28.800  1.00  0.00     0.025 A 
HETATM   14  C   UNL     1       0.680   7.383 -29.552  1.00  0.00     0.002 A 
HETATM   15  C   UNL     1       0.641   6.818 -30.822  1.00  0.00     0.001 A 
HETATM   16  C   UNL     1      -0.566   6.340 -31.333  1.00  0.00     0.019 A 
ENDBRANCH   7  10
ENDBRANCH   1   6
BRANCH   1  17
HETATM   17  C   UNL     1      -4.232   2.396 -31.744  1.00  0.00     0.259 C 
HETATM   18  N   UNL     1      -5.207   1.699 -32.421  1.00  0.00    -0.265 N 
HETATM   19  H   UNL     1      -6.079   2.128 -32.748  1.00  0.00     0.190 HD
HETATM   20  O   UNL     1      -3.128   1.894 -31.510  1.00  0.00    -0.269 OA
BRANCH  18  21
HETATM   21  N   UNL     1      -4.949   0.376 -32.792  1.00  0.00    -0.263 N 
HETATM   22  C   UNL     1      -5.794  -0.231 -33.700  1.00  0.00     0.270 C 
HETATM   23  O   UNL     1      -6.714   0.360 -34.258  1.00  0.00    -0.266 OA
HETATM   24  H   UNL     1      -4.350  -0.143 -32.154  1.00  0.00     0.190 HD
BRANCH  22  25
HETATM   25  C   UNL     1      -5.552  -1.678 -33.971  1.00  0.00     0.033 A 
HETATM   26  C   UNL     1      -4.333  -2.308 -33.675  1.00  0.00     0.020 A 
HETATM   27  C   UNL     1      -4.152  -3.665 -33.969  1.00  0.00     0.037 A 
HETATM   28  C   UNL     1      -5.184  -4.383 -34.566  1.00  0.00     0.065 A 
HETATM   29  C   UNL     1      -6.392  -3.770 -34.873  1.00  0.00     0.037 A 
HETATM   30  C   UNL     1      -6.576  -2.418 -34.580  1.00  0.00     0.020 A 
BRANCH  28  31
HETATM   31  O   UNL     1      -5.044  -5.703 -34.875  1.00  0.00    -0.361 OA
HETATM   32  H   UNL     1      -4.103  -5.939 -34.830  1.00  0.00     0.217 HD
ENDBRANCH  28  31
ENDBRANCH  22  25
ENDBRANCH  18  21
ENDBRANCH   1  17
TORSDOF 9
ENDMDL
MODEL 7
REMARK VINA RESULT:      -7.9      2.658      4.666
REMARK  9 active torsions:
REMARK  status: ('A' for Active; 'I' for Inactive)
REMARK    1  A    between atoms: S_2  and  C_3 
REMARK    2  A    between atoms: C_3  and  C_4 
REMARK    3  A    between atoms: C_4  and  C_5 
REMARK    4  A    between atoms: C_5  and  N_6 
REMARK    5  A    between atoms: C_5  and  C_16 
REMARK       I    between atoms: N_6  and  C_7 
REMARK    6  A    between atoms: C_7  and  C_8 
REMARK       I    between atoms: C_16  and  N_17 
REMARK    7  A    between atoms: N_17  and  N_18 
REMARK       I    between atoms: N_18  and  C_19 
REMARK    8  A    between atoms: C_19  and  C_20 
REMARK    9  A    between atoms: C_23  and  O_24 
ROOT
HETATM    1  C   UNL     1      -6.309   1.002 -31.472  1.00  0.00     0.179 C 
ENDROOT
BRANCH   1   2
HETATM    2  C   UNL     1      -5.959  -0.489 -31.601  1.00  0.00     0.045 C 
BRANCH   2   3
HETATM    3  C   UNL     1      -4.552  -0.790 -32.118  1.00  0.00     0.076 C 
BRANCH   3   4
HETATM    4  S   UNL     1      -4.557  -1.950 -33.523  1.00  0.00    -0.173 SA
HETATM    5  C   UNL     1      -5.996  -1.300 -34.407  1.00  0.00     0.089 C 
ENDBRANCH   3   4
ENDBRANCH   2   3
ENDBRANCH   1   2
BRANCH   1   6
HETATM    6  N   UNL     1      -5.530   1.892 -32.343  1.00  0.00    -0.344 N 
HETATM    7  C   UNL     1      -4.817   2.987 -31.926  1.00  0.00     0.254 C 
HETATM    8  O   UNL     1      -4.748   3.296 -30.739  1.00  0.00    -0.268 OA
HETATM    9  H   UNL     1      -5.504   1.642 -33.326  1.00  0.00     0.163 HD
BRANCH   7  10
HETATM   10  C   UNL     1      -4.141   3.828 -32.955  1.00  0.00     0.053 A 
HETATM   11  C   UNL     1      -4.785   4.602 -33.932  1.00  0.00     0.049 A 
HETATM   12 CL   UNL     1      -6.501   4.666 -34.134  1.00  0.00    -0.083 Cl
HETATM   13  C   UNL     1      -4.028   5.360 -34.837  1.00  0.00     0.025 A 
HETATM   14  C   UNL     1      -2.635   5.350 -34.784  1.00  0.00     0.002 A 
HETATM   15  C   UNL     1      -1.986   4.574 -33.829  1.00  0.00     0.001 A 
HETATM   16  C   UNL     1      -2.733   3.818 -32.925  1.00  0.00     0.019 A 
ENDBRANCH   7  10
ENDBRANCH   1   6
BRANCH   1  17
HETATM   17  C   UNL     1      -7.834   1.195 -31.603  1.00  0.00     0.259 C 
HETATM   18  N   UNL     1      -8.511   0.222 -32.305  1.00  0.00    -0.265 N 
HETATM   19  H   UNL     1      -8.051  -0.602 -32.705  1.00  0.00     0.190 HD
HETATM   20  O   UNL     1      -8.437   2.085 -30.995  1.00  0.00    -0.269 OA
BRANCH  18  21
HETATM   21  N   UNL     1      -9.905   0.292 -32.372  1.00  0.00    -0.263 N 
HETATM   22  C   UNL     1     -10.484   0.805 -33.517  1.00  0.00     0.270 C 
HETATM   23  O   UNL     1      -9.837   1.127 -34.510  1.00  0.00    -0.266 OA
HETATM   24  H   UNL     1     -10.384   0.249 -31.476  1.00  0.00     0.190 HD
BRANCH  22  25
HETATM   25  C   UNL     1     -11.967   0.974 -33.495  1.00  0.00     0.033 A 
HETATM   26  C   UNL     1     -12.852  -0.099 -33.684  1.00  0.00     0.020 A 
HETATM   27  C   UNL     1     -14.235   0.119 -33.674  1.00  0.00     0.037 A 
HETATM   28  C   UNL     1     -14.726   1.407 -33.484  1.00  0.00     0.065 A 
HETATM   29  C   UNL     1     -13.862   2.479 -33.304  1.00  0.00     0.037 A 
HETATM   30  C   UNL     1     -12.483   2.265 -33.312  1.00  0.00     0.020 A 
BRANCH  28  31
HETATM   31  O   UNL     1     -16.065   1.661 -33.475  1.00  0.00    -0.361 OA
HETATM   32  H   UNL     1     -16.239   2.414 -32.887  1.00  0.00     0.217 HD
ENDBRANCH  28  31
ENDBRANCH  22  25
ENDBRANCH  18  21
ENDBRANCH   1  17
TORSDOF 9
ENDMDL
MODEL 8
REMARK VINA RESULT:      -7.7      1.565      1.948
REMARK  9 active torsions:
REMARK  status: ('A' for Active; 'I' for Inactive)
REMARK    1  A    between atoms: S_2  and  C_3 
REMARK    2  A    between atoms: C_3  and  C_4 
REMARK    3  A    between atoms: C_4  and  C_5 
REMARK    4  A    between atoms: C_5  and  N_6 
REMARK    5  A    between atoms: C_5  and  C_16 
REMARK       I    between atoms: N_6  and  C_7 
REMARK    6  A    between atoms: C_7  and  C_8 
REMARK       I    between atoms: C_16  and  N_17 
REMARK    7  A    between atoms: N_17  and  N_18 
REMARK       I    between atoms: N_18  and  C_19 
REMARK    8  A    between atoms: C_19  and  C_20 
REMARK    9  A    between atoms: C_23  and  O_24 
ROOT
HETATM    1  C   UNL     1      -6.151   0.932 -32.932  1.00  0.00     0.179 C 
ENDROOT
BRANCH   1   2
HETATM    2  C   UNL     1      -5.528   1.887 -31.900  1.00  0.00     0.045 C 
BRANCH   2   3
HETATM    3  C   UNL     1      -4.119   2.380 -32.231  1.00  0.00     0.076 C 
BRANCH   3   4
HETATM    4  S   UNL     1      -4.089   4.140 -32.705  1.00  0.00    -0.173 SA
HETATM    5  C   UNL     1      -2.395   4.222 -33.338  1.00  0.00     0.089 C 
ENDBRANCH   3   4
ENDBRANCH   2   3
ENDBRANCH   1   2
BRANCH   1   6
HETATM    6  N   UNL     1      -5.542  -0.404 -32.977  1.00  0.00    -0.344 N 
HETATM    7  C   UNL     1      -5.639  -1.286 -34.023  1.00  0.00     0.254 C 
HETATM    8  O   UNL     1      -6.238  -0.996 -35.055  1.00  0.00    -0.268 OA
HETATM    9  H   UNL     1      -4.983  -0.665 -32.172  1.00  0.00     0.163 HD
BRANCH   7  10
HETATM   10  C   UNL     1      -5.021  -2.635 -33.873  1.00  0.00     0.053 A 
HETATM   11  C   UNL     1      -5.454  -3.809 -34.506  1.00  0.00     0.049 A 
HETATM   12 CL   UNL     1      -6.835  -3.891 -35.544  1.00  0.00    -0.083 Cl
HETATM   13  C   UNL     1      -4.774  -5.016 -34.288  1.00  0.00     0.025 A 
HETATM   14  C   UNL     1      -3.669  -5.066 -33.438  1.00  0.00     0.002 A 
HETATM   15  C   UNL     1      -3.240  -3.911 -32.794  1.00  0.00     0.001 A 
HETATM   16  C   UNL     1      -3.911  -2.706 -33.008  1.00  0.00     0.019 A 
ENDBRANCH   7  10
ENDBRANCH   1   6
BRANCH   1  17
HETATM   17  C   UNL     1      -7.684   0.904 -32.759  1.00  0.00     0.259 C 
HETATM   18  N   UNL     1      -8.427   0.975 -33.916  1.00  0.00    -0.265 N 
HETATM   19  H   UNL     1      -8.006   1.022 -34.850  1.00  0.00     0.190 HD
HETATM   20  O   UNL     1      -8.216   0.683 -31.667  1.00  0.00    -0.269 OA
BRANCH  18  21
HETATM   21  N   UNL     1      -9.816   0.855 -33.828  1.00  0.00    -0.263 N 
HETATM   22  C   UNL     1     -10.595   1.945 -34.166  1.00  0.00     0.270 C 
HETATM   23  O   UNL     1     -10.129   2.988 -34.617  1.00  0.00    -0.266 OA
HETATM   24  H   UNL     1     -10.149   0.093 -33.242  1.00  0.00     0.190 HD
BRANCH  22  25
HETATM   25  C   UNL     1     -12.064   1.811 -33.940  1.00  0.00     0.033 A 
HETATM   26  C   UNL     1     -12.834   0.813 -34.557  1.00  0.00     0.020 A 
HETATM   27  C   UNL     1     -14.214   0.744 -34.325  1.00  0.00     0.037 A 
HETATM   28  C   UNL     1     -14.817   1.677 -33.488  1.00  0.00     0.065 A 
HETATM   29  C   UNL     1     -14.069   2.676 -32.878  1.00  0.00     0.037 A 
HETATM   30  C   UNL     1     -12.693   2.746 -33.105  1.00  0.00     0.020 A 
BRANCH  28  31
HETATM   31  O   UNL     1     -16.157   1.648 -33.244  1.00  0.00    -0.361 OA
HETATM   32  H   UNL     1     -16.618   2.117 -33.958  1.00  0.00     0.217 HD
ENDBRANCH  28  31
ENDBRANCH  22  25
ENDBRANCH  18  21
ENDBRANCH   1  17
TORSDOF 9
ENDMDL
MODEL 9
REMARK VINA RESULT:      -7.7      3.067      8.307
REMARK  9 active torsions:
REMARK  status: ('A' for Active; 'I' for Inactive)
REMARK    1  A    between atoms: S_2  and  C_3 
REMARK    2  A    between atoms: C_3  and  C_4 
REMARK    3  A    between atoms: C_4  and  C_5 
REMARK    4  A    between atoms: C_5  and  N_6 
REMARK    5  A    between atoms: C_5  and  C_16 
REMARK       I    between atoms: N_6  and  C_7 
REMARK    6  A    between atoms: C_7  and  C_8 
REMARK       I    between atoms: C_16  and  N_17 
REMARK    7  A    between atoms: N_17  and  N_18 
REMARK       I    between atoms: N_18  and  C_19 
REMARK    8  A    between atoms: C_19  and  C_20 
REMARK    9  A    between atoms: C_23  and  O_24 
ROOT
HETATM    1  C   UNL     1      -9.397   2.573 -32.197  1.00  0.00     0.179 C 
ENDROOT
BRANCH   1   2
HETATM    2  C   UNL     1      -8.830   3.546 -33.244  1.00  0.00     0.045 C 
BRANCH   2   3
HETATM    3  C   UNL     1      -8.079   4.752 -32.680  1.00  0.00     0.076 C 
BRANCH   3   4
HETATM    4  S   UNL     1      -9.181   5.919 -31.817  1.00  0.00    -0.173 SA
HETATM    5  C   UNL     1      -8.182   6.191 -30.333  1.00  0.00     0.089 C 
ENDBRANCH   3   4
ENDBRANCH   2   3
ENDBRANCH   1   2
BRANCH   1   6
HETATM    6  N   UNL     1     -10.861   2.589 -32.076  1.00  0.00    -0.344 N 
HETATM    7  C   UNL     1     -11.745   2.489 -33.121  1.00  0.00     0.254 C 
HETATM    8  O   UNL     1     -11.360   2.340 -34.277  1.00  0.00    -0.268 OA
HETATM    9  H   UNL     1     -11.229   2.646 -31.133  1.00  0.00     0.163 HD
BRANCH   7  10
HETATM   10  C   UNL     1     -13.203   2.597 -32.829  1.00  0.00     0.053 A 
HETATM   11  C   UNL     1     -14.163   1.604 -33.071  1.00  0.00     0.049 A 
HETATM   12 CL   UNL     1     -13.809   0.081 -33.809  1.00  0.00    -0.083 Cl
HETATM   13  C   UNL     1     -15.506   1.830 -32.738  1.00  0.00     0.025 A 
HETATM   14  C   UNL     1     -15.905   3.041 -32.171  1.00  0.00     0.002 A 
HETATM   15  C   UNL     1     -14.964   4.038 -31.940  1.00  0.00     0.001 A 
HETATM   16  C   UNL     1     -13.625   3.819 -32.269  1.00  0.00     0.019 A 
ENDBRANCH   7  10
ENDBRANCH   1   6
BRANCH   1  17
HETATM   17  C   UNL     1      -8.814   1.163 -32.422  1.00  0.00     0.259 C 
HETATM   18  N   UNL     1      -7.544   1.109 -32.951  1.00  0.00    -0.265 N 
HETATM   19  H   UNL     1      -6.991   1.944 -33.169  1.00  0.00     0.190 HD
HETATM   20  O   UNL     1      -9.387   0.145 -32.020  1.00  0.00    -0.269 OA
BRANCH  18  21
HETATM   21  N   UNL     1      -6.928  -0.138 -33.086  1.00  0.00    -0.263 N 
HETATM   22  C   UNL     1      -6.770  -0.663 -34.354  1.00  0.00     0.270 C 
HETATM   23  O   UNL     1      -7.072  -0.050 -35.375  1.00  0.00    -0.266 OA
HETATM   24  H   UNL     1      -6.911  -0.707 -32.242  1.00  0.00     0.190 HD
BRANCH  22  25
HETATM   25  C   UNL     1      -6.219  -2.047 -34.439  1.00  0.00     0.033 A 
HETATM   26  C   UNL     1      -7.008  -3.153 -34.790  1.00  0.00     0.020 A 
HETATM   27  C   UNL     1      -6.445  -4.434 -34.835  1.00  0.00     0.037 A 
HETATM   28  C   UNL     1      -5.100  -4.605 -34.521  1.00  0.00     0.065 A 
HETATM   29  C   UNL     1      -4.309  -3.521 -34.164  1.00  0.00     0.037 A 
HETATM   30  C   UNL     1      -4.867  -2.242 -34.120  1.00  0.00     0.020 A 
BRANCH  28  31
HETATM   31  O   UNL     1      -4.517  -5.837 -34.547  1.00  0.00    -0.361 OA
HETATM   32  H   UNL     1      -3.553  -5.728 -34.578  1.00  0.00     0.217 HD
ENDBRANCH  28  31
ENDBRANCH  22  25
ENDBRANCH  18  21
ENDBRANCH   1  17
TORSDOF 9
ENDMDL
MODEL 10
REMARK VINA RESULT:      -7.6      3.095      7.675
REMARK  9 active torsions:
REMARK  status: ('A' for Active; 'I' for Inactive)
REMARK    1  A    between atoms: S_2  and  C_3 
REMARK    2  A    between atoms: C_3  and  C_4 
REMARK    3  A    between atoms: C_4  and  C_5 
REMARK    4  A    between atoms: C_5  and  N_6 
REMARK    5  A    between atoms: C_5  and  C_16 
REMARK       I    between atoms: N_6  and  C_7 
REMARK    6  A    between atoms: C_7  and  C_8 
REMARK       I    between atoms: C_16  and  N_17 
REMARK    7  A    between atoms: N_17  and  N_18 
REMARK       I    between atoms: N_18  and  C_19 
REMARK    8  A    between atoms: C_19  and  C_20 
REMARK    9  A    between atoms: C_23  and  O_24 
ROOT
HETATM    1  C   UNL     1      -7.426   3.440 -31.899  1.00  0.00     0.179 C 
ENDROOT
BRANCH   1   2
HETATM    2  C   UNL     1      -6.305   4.491 -31.962  1.00  0.00     0.045 C 
BRANCH   2   3
HETATM    3  C   UNL     1      -6.247   5.310 -33.252  1.00  0.00     0.076 C 
BRANCH   3   4
HETATM    4  S   UNL     1      -4.938   4.738 -34.384  1.00  0.00    -0.173 SA
HETATM    5  C   UNL     1      -3.561   4.702 -33.211  1.00  0.00     0.089 C 
ENDBRANCH   3   4
ENDBRANCH   2   3
ENDBRANCH   1   2
BRANCH   1   6
HETATM    6  N   UNL     1      -8.510   3.641 -32.869  1.00  0.00    -0.344 N 
HETATM    7  C   UNL     1      -9.851   3.593 -32.582  1.00  0.00     0.254 C 
HETATM    8  O   UNL     1     -10.258   3.402 -31.439  1.00  0.00    -0.268 OA
HETATM    9  H   UNL     1      -8.225   3.865 -33.816  1.00  0.00     0.163 HD
BRANCH   7  10
HETATM   10  C   UNL     1     -10.822   3.746 -33.703  1.00  0.00     0.053 A 
HETATM   11  C   UNL     1     -11.577   2.714 -34.280  1.00  0.00     0.049 A 
HETATM   12 CL   UNL     1     -11.461   1.055 -33.807  1.00  0.00    -0.083 Cl
HETATM   13  C   UNL     1     -12.467   2.997 -35.326  1.00  0.00     0.025 A 
HETATM   14  C   UNL     1     -12.609   4.297 -35.809  1.00  0.00     0.002 A 
HETATM   15  C   UNL     1     -11.855   5.326 -35.254  1.00  0.00     0.001 A 
HETATM   16  C   UNL     1     -10.967   5.052 -34.212  1.00  0.00     0.019 A 
ENDBRANCH   7  10
ENDBRANCH   1   6
BRANCH   1  17
HETATM   17  C   UNL     1      -6.817   2.023 -31.944  1.00  0.00     0.259 C 
HETATM   18  N   UNL     1      -7.388   1.145 -32.837  1.00  0.00    -0.265 N 
HETATM   19  H   UNL     1      -8.159   1.403 -33.462  1.00  0.00     0.190 HD
HETATM   20  O   UNL     1      -5.788   1.732 -31.325  1.00  0.00    -0.269 OA
BRANCH  18  21
HETATM   21  N   UNL     1      -6.816  -0.121 -32.991  1.00  0.00    -0.263 N 
HETATM   22  C   UNL     1      -6.613  -0.602 -34.270  1.00  0.00     0.270 C 
HETATM   23  O   UNL     1      -6.836   0.062 -35.279  1.00  0.00    -0.266 OA
HETATM   24  H   UNL     1      -6.867  -0.721 -32.171  1.00  0.00     0.190 HD
BRANCH  22  25
HETATM   25  C   UNL     1      -6.114  -2.004 -34.383  1.00  0.00     0.033 A 
HETATM   26  C   UNL     1      -6.951  -3.078 -34.722  1.00  0.00     0.020 A 
HETATM   27  C   UNL     1      -6.435  -4.377 -34.795  1.00  0.00     0.037 A 
HETATM   28  C   UNL     1      -5.090  -4.599 -34.520  1.00  0.00     0.065 A 
HETATM   29  C   UNL     1      -4.251  -3.547 -34.175  1.00  0.00     0.037 A 
HETATM   30  C   UNL     1      -4.762  -2.250 -34.103  1.00  0.00     0.020 A 
BRANCH  28  31
HETATM   31  O   UNL     1      -4.552  -5.850 -34.573  1.00  0.00    -0.361 OA
HETATM   32  H   UNL     1      -5.262  -6.503 -34.464  1.00  0.00     0.217 HD
ENDBRANCH  28  31
ENDBRANCH  22  25
ENDBRANCH  18  21
ENDBRANCH   1  17
TORSDOF 9
ENDMDL
