MODEL 1
REMARK VINA RESULT:      -8.3      0.000      0.000
REMARK  7 active torsions:
REMARK  status: ('A' for Active; 'I' for Inactive)
REMARK    1  A    between atoms: C_3  and  C_4 
REMARK    2  A    between atoms: C_4  and  N_5 
REMARK       I    between atoms: N_5  and  C_6 
REMARK    3  A    between atoms: C_6  and  C_7 
REMARK    4  A    between atoms: C_7  and  N_8 
REMARK    5  A    between atoms: C_10  and  C_11 
REMARK    6  A    between atoms: C_11  and  N_12 
REMARK       I    between atoms: N_12  and  C_13 
REMARK       I    between atoms: C_13  and  N_14 
REMARK    7  A    between atoms: N_14  and  C_15 
ROOT
HETATM    1  N   UNL     1      -5.995   3.685 -31.643  1.00  0.00    -0.057 N 
HETATM    2  H   UNL     1      -5.274   4.428 -31.727  1.00  0.00     0.281 HD
HETATM    3  C   UNL     1      -6.336   3.352 -33.102  1.00  0.00     0.206 C 
HETATM    4  C   UNL     1      -6.856   4.645 -33.752  1.00  0.00     0.035 C 
HETATM    5  C   UNL     1      -8.031   5.252 -32.991  1.00  0.00     0.004 C 
HETATM    6  C   UNL     1      -7.667   5.506 -31.533  1.00  0.00     0.028 C 
HETATM    7  C   UNL     1      -7.123   4.264 -30.842  1.00  0.00     0.236 C 
ENDROOT
BRANCH   1   8
HETATM    8  C   UNL     1      -5.214   2.588 -30.911  1.00  0.00     0.337 C 
BRANCH   8   9
HETATM    9  C   UNL     1      -3.713   2.739 -31.157  1.00  0.00     0.243 C 
HETATM   10  N   UNL     1      -3.244   4.022 -31.185  1.00  0.00    -0.355 N 
HETATM   11  H   UNL     1      -3.833   4.813 -30.951  1.00  0.00     0.162 HD
HETATM   12  O   UNL     1      -3.030   1.733 -31.348  1.00  0.00    -0.272 OA
BRANCH  10  13
HETATM   13  C   UNL     1      -1.859   4.324 -31.496  1.00  0.00     0.169 C 
BRANCH  13  14
HETATM   14  C   UNL     1      -1.815   5.716 -32.049  1.00  0.00     0.006 A 
HETATM   15  C   UNL     1      -1.641   6.141 -33.359  1.00  0.00    -0.047 A 
HETATM   16  C   UNL     1      -1.482   5.266 -34.561  1.00  0.00     0.049 C 
HETATM   17  C   UNL     1      -1.652   7.575 -33.439  1.00  0.00     0.015 A 
HETATM   18  C   UNL     1      -1.824   8.177 -32.215  1.00  0.00     0.051 A 
HETATM   19  S   UNL     1      -1.979   7.037 -30.961  1.00  0.00    -0.104 SA
ENDBRANCH  13  14
ENDBRANCH  10  13
ENDBRANCH   8   9
ENDBRANCH   1   8
BRANCH   3  20
HETATM   20  C   UNL     1      -7.339   2.162 -33.217  1.00  0.00     0.157 C 
BRANCH  20  21
HETATM   21  N   UNL     1      -6.940   1.115 -34.141  1.00  0.00    -0.341 N 
HETATM   22  C   UNL     1      -6.577  -0.129 -33.653  1.00  0.00     0.320 C 
HETATM   23  N   UNL     1      -6.238  -0.980 -34.676  1.00  0.00    -0.309 N 
HETATM   24  O   UNL     1      -6.543  -0.341 -32.450  1.00  0.00    -0.247 OA
HETATM   25  H   UNL     1      -6.244  -0.591 -35.607  1.00  0.00     0.170 HD
HETATM   26  H   UNL     1      -7.403   1.092 -35.041  1.00  0.00     0.164 HD
BRANCH  23  27
HETATM   27  C   UNL     1      -5.771  -2.307 -34.576  1.00  0.00     0.036 A 
HETATM   28  C   UNL     1      -4.478  -2.652 -34.179  1.00  0.00     0.029 A 
HETATM   29  C   UNL     1      -4.092  -3.996 -34.123  1.00  0.00     0.002 A 
HETATM   30  C   UNL     1      -4.994  -5.002 -34.461  1.00  0.00     0.000 A 
HETATM   31  C   UNL     1      -6.287  -4.668 -34.852  1.00  0.00     0.002 A 
HETATM   32  C   UNL     1      -6.673  -3.326 -34.910  1.00  0.00     0.029 A 
ENDBRANCH  23  27
ENDBRANCH  20  21
ENDBRANCH   3  20
TORSDOF 7
ENDMDL
MODEL 2
REMARK VINA RESULT:      -8.0      1.211      1.773
REMARK  7 active torsions:
REMARK  status: ('A' for Active; 'I' for Inactive)
REMARK    1  A    between atoms: C_3  and  C_4 
REMARK    2  A    between atoms: C_4  and  N_5 
REMARK       I    between atoms: N_5  and  C_6 
REMARK    3  A    between atoms: C_6  and  C_7 
REMARK    4  A    between atoms: C_7  and  N_8 
REMARK    5  A    between atoms: C_10  and  C_11 
REMARK    6  A    between atoms: C_11  and  N_12 
REMARK       I    between atoms: N_12  and  C_13 
REMARK       I    between atoms: C_13  and  N_14 
REMARK    7  A    between atoms: N_14  and  C_15 
ROOT
HETATM    1  N   UNL     1      -5.997   3.624 -31.188  1.00  0.00    -0.057 N 
HETATM    2  H   UNL     1      -5.367   4.447 -31.259  1.00  0.00     0.281 HD
HETATM    3  C   UNL     1      -6.474   3.413 -32.631  1.00  0.00     0.206 C 
HETATM    4  C   UNL     1      -7.191   4.703 -33.063  1.00  0.00     0.035 C 
HETATM    5  C   UNL     1      -8.322   5.092 -32.115  1.00  0.00     0.004 C 
HETATM    6  C   UNL     1      -7.814   5.227 -30.685  1.00  0.00     0.028 C 
HETATM    7  C   UNL     1      -7.074   3.985 -30.208  1.00  0.00     0.236 C 
ENDROOT
BRANCH   1   8
HETATM    8  C   UNL     1      -5.031   2.548 -30.678  1.00  0.00     0.337 C 
BRANCH   8   9
HETATM    9  C   UNL     1      -3.622   2.789 -31.220  1.00  0.00     0.243 C 
HETATM   10  N   UNL     1      -3.196   4.087 -31.205  1.00  0.00    -0.355 N 
HETATM   11  H   UNL     1      -3.737   4.823 -30.767  1.00  0.00     0.162 HD
HETATM   12  O   UNL     1      -2.976   1.839 -31.660  1.00  0.00    -0.272 OA
BRANCH  10  13
HETATM   13  C   UNL     1      -1.918   4.479 -31.768  1.00  0.00     0.169 C 
BRANCH  13  14
HETATM   14  C   UNL     1      -1.357   5.563 -30.899  1.00  0.00     0.006 A 
HETATM   15  C   UNL     1      -0.055   5.761 -30.460  1.00  0.00    -0.047 A 
HETATM   16  C   UNL     1       1.131   4.916 -30.798  1.00  0.00     0.049 C 
HETATM   17  C   UNL     1       0.035   6.928 -29.629  1.00  0.00     0.015 A 
HETATM   18  C   UNL     1      -1.173   7.560 -29.461  1.00  0.00     0.051 A 
HETATM   19  S   UNL     1      -2.426   6.769 -30.300  1.00  0.00    -0.104 SA
ENDBRANCH  13  14
ENDBRANCH  10  13
ENDBRANCH   8   9
ENDBRANCH   1   8
BRANCH   3  20
HETATM   20  C   UNL     1      -7.363   2.139 -32.780  1.00  0.00     0.157 C 
BRANCH  20  21
HETATM   21  N   UNL     1      -6.901   1.185 -33.773  1.00  0.00    -0.341 N 
HETATM   22  C   UNL     1      -6.659  -0.127 -33.404  1.00  0.00     0.320 C 
HETATM   23  N   UNL     1      -6.236  -0.871 -34.476  1.00  0.00    -0.309 N 
HETATM   24  O   UNL     1      -6.784  -0.481 -32.240  1.00  0.00    -0.247 OA
HETATM   25  H   UNL     1      -6.107  -0.376 -35.346  1.00  0.00     0.170 HD
HETATM   26  H   UNL     1      -7.249   1.296 -34.717  1.00  0.00     0.164 HD
BRANCH  23  27
HETATM   27  C   UNL     1      -5.846  -2.227 -34.488  1.00  0.00     0.036 A 
HETATM   28  C   UNL     1      -6.684  -3.277 -34.868  1.00  0.00     0.029 A 
HETATM   29  C   UNL     1      -6.221  -4.597 -34.835  1.00  0.00     0.002 A 
HETATM   30  C   UNL     1      -4.919  -4.876 -34.425  1.00  0.00     0.000 A 
HETATM   31  C   UNL     1      -4.075  -3.834 -34.050  1.00  0.00     0.002 A 
HETATM   32  C   UNL     1      -4.537  -2.516 -34.081  1.00  0.00     0.029 A 
ENDBRANCH  23  27
ENDBRANCH  20  21
ENDBRANCH   3  20
TORSDOF 7
ENDMDL
MODEL 3
REMARK VINA RESULT:      -8.0      4.285     10.092
REMARK  7 active torsions:
REMARK  status: ('A' for Active; 'I' for Inactive)
REMARK    1  A    between atoms: C_3  and  C_4 
REMARK    2  A    between atoms: C_4  and  N_5 
REMARK       I    between atoms: N_5  and  C_6 
REMARK    3  A    between atoms: C_6  and  C_7 
REMARK    4  A    between atoms: C_7  and  N_8 
REMARK    5  A    between atoms: C_10  and  C_11 
REMARK    6  A    between atoms: C_11  and  N_12 
REMARK       I    between atoms: N_12  and  C_13 
REMARK       I    between atoms: C_13  and  N_14 
REMARK    7  A    between atoms: N_14  and  C_15 
ROOT
HETATM    1  N   UNL     1      -2.858   4.885 -32.430  1.00  0.00    -0.057 N 
HETATM    2  H   UNL     1      -3.725   5.375 -32.725  1.00  0.00     0.281 HD
HETATM    3  C   UNL     1      -2.112   5.945 -31.607  1.00  0.00     0.206 C 
HETATM    4  C   UNL     1      -1.858   7.143 -32.536  1.00  0.00     0.035 C 
HETATM    5  C   UNL     1      -1.116   6.751 -33.810  1.00  0.00     0.004 C 
HETATM    6  C   UNL     1      -1.859   5.652 -34.560  1.00  0.00     0.028 C 
HETATM    7  C   UNL     1      -2.160   4.445 -33.683  1.00  0.00     0.236 C 
ENDROOT
BRANCH   1   8
HETATM    8  C   UNL     1      -3.430   3.730 -31.601  1.00  0.00     0.337 C 
BRANCH   8   9
HETATM    9  C   UNL     1      -4.767   3.264 -32.179  1.00  0.00     0.243 C 
HETATM   10  N   UNL     1      -4.976   1.914 -32.174  1.00  0.00    -0.355 N 
HETATM   11  H   UNL     1      -4.334   1.274 -31.721  1.00  0.00     0.162 HD
HETATM   12  O   UNL     1      -5.548   4.098 -32.636  1.00  0.00    -0.272 OA
BRANCH  10  13
HETATM   13  C   UNL     1      -6.160   1.321 -32.769  1.00  0.00     0.169 C 
BRANCH  13  14
HETATM   14  C   UNL     1      -5.756   0.002 -33.353  1.00  0.00     0.006 A 
HETATM   15  C   UNL     1      -6.361  -0.743 -34.356  1.00  0.00    -0.047 A 
HETATM   16  C   UNL     1      -7.582  -0.361 -35.129  1.00  0.00     0.049 C 
HETATM   17  C   UNL     1      -5.641  -1.962 -34.596  1.00  0.00     0.015 A 
HETATM   18  C   UNL     1      -4.543  -2.104 -33.781  1.00  0.00     0.051 A 
HETATM   19  S   UNL     1      -4.358  -0.780 -32.727  1.00  0.00    -0.104 SA
ENDBRANCH  13  14
ENDBRANCH  10  13
ENDBRANCH   8   9
ENDBRANCH   1   8
BRANCH   3  20
HETATM   20  C   UNL     1      -0.807   5.382 -30.962  1.00  0.00     0.157 C 
BRANCH  20  21
HETATM   21  N   UNL     1      -0.724   5.536 -29.520  1.00  0.00    -0.341 N 
HETATM   22  C   UNL     1      -0.116   6.658 -28.984  1.00  0.00     0.320 C 
HETATM   23  N   UNL     1      -0.140   6.624 -27.612  1.00  0.00    -0.309 N 
HETATM   24  O   UNL     1       0.393   7.499 -29.711  1.00  0.00    -0.247 OA
HETATM   25  H   UNL     1      -0.530   5.796 -27.188  1.00  0.00     0.170 HD
HETATM   26  H   UNL     1      -1.495   5.176 -28.972  1.00  0.00     0.164 HD
BRANCH  23  27
HETATM   27  C   UNL     1       0.419   7.557 -26.715  1.00  0.00     0.036 A 
HETATM   28  C   UNL     1       1.788   7.689 -26.477  1.00  0.00     0.029 A 
HETATM   29  C   UNL     1       2.257   8.632 -25.556  1.00  0.00     0.002 A 
HETATM   30  C   UNL     1       1.364   9.451 -24.870  1.00  0.00     0.000 A 
HETATM   31  C   UNL     1      -0.003   9.331 -25.105  1.00  0.00     0.002 A 
HETATM   32  C   UNL     1      -0.473   8.388 -26.023  1.00  0.00     0.029 A 
ENDBRANCH  23  27
ENDBRANCH  20  21
ENDBRANCH   3  20
TORSDOF 7
ENDMDL
MODEL 4
REMARK VINA RESULT:      -7.9      2.492      3.211
REMARK  7 active torsions:
REMARK  status: ('A' for Active; 'I' for Inactive)
REMARK    1  A    between atoms: C_3  and  C_4 
REMARK    2  A    between atoms: C_4  and  N_5 
REMARK       I    between atoms: N_5  and  C_6 
REMARK    3  A    between atoms: C_6  and  C_7 
REMARK    4  A    between atoms: C_7  and  N_8 
REMARK    5  A    between atoms: C_10  and  C_11 
REMARK    6  A    between atoms: C_11  and  N_12 
REMARK       I    between atoms: N_12  and  C_13 
REMARK       I    between atoms: C_13  and  N_14 
REMARK    7  A    between atoms: N_14  and  C_15 
ROOT
HETATM    1  N   UNL     1      -9.410   3.594 -33.154  1.00  0.00    -0.057 N 
HETATM    2  H   UNL     1      -9.394   4.598 -33.417  1.00  0.00     0.281 HD
HETATM    3  C   UNL     1      -9.896   2.899 -34.434  1.00  0.00     0.206 C 
HETATM    4  C   UNL     1     -11.284   3.474 -34.763  1.00  0.00     0.035 C 
HETATM    5  C   UNL     1     -12.266   3.335 -33.603  1.00  0.00     0.004 C 
HETATM    6  C   UNL     1     -11.715   3.983 -32.339  1.00  0.00     0.028 C 
HETATM    7  C   UNL     1     -10.329   3.469 -31.975  1.00  0.00     0.236 C 
ENDROOT
BRANCH   1   8
HETATM    8  C   UNL     1      -7.936   3.344 -32.820  1.00  0.00     0.337 C 
BRANCH   8   9
HETATM    9  C   UNL     1      -7.039   4.317 -33.585  1.00  0.00     0.243 C 
HETATM   10  N   UNL     1      -5.709   4.002 -33.610  1.00  0.00    -0.355 N 
HETATM   11  H   UNL     1      -5.359   3.127 -33.238  1.00  0.00     0.162 HD
HETATM   12  O   UNL     1      -7.536   5.322 -34.093  1.00  0.00    -0.272 OA
BRANCH  10  13
HETATM   13  C   UNL     1      -4.727   4.878 -34.222  1.00  0.00     0.169 C 
BRANCH  13  14
HETATM   14  C   UNL     1      -3.526   4.902 -33.325  1.00  0.00     0.006 A 
HETATM   15  C   UNL     1      -2.179   4.984 -33.653  1.00  0.00    -0.047 A 
HETATM   16  C   UNL     1      -1.609   5.102 -35.030  1.00  0.00     0.049 C 
HETATM   17  C   UNL     1      -1.362   4.964 -32.473  1.00  0.00     0.015 A 
HETATM   18  C   UNL     1      -2.096   4.863 -31.315  1.00  0.00     0.051 A 
HETATM   19  S   UNL     1      -3.768   4.797 -31.626  1.00  0.00    -0.104 SA
ENDBRANCH  13  14
ENDBRANCH  10  13
ENDBRANCH   8   9
ENDBRANCH   1   8
BRANCH   3  20
HETATM   20  C   UNL     1      -9.893   1.343 -34.299  1.00  0.00     0.157 C 
BRANCH  20  21
HETATM   21  N   UNL     1      -8.768   0.679 -34.933  1.00  0.00    -0.341 N 
HETATM   22  C   UNL     1      -8.066  -0.292 -34.239  1.00  0.00     0.320 C 
HETATM   23  N   UNL     1      -7.047  -0.804 -35.003  1.00  0.00    -0.309 N 
HETATM   24  O   UNL     1      -8.353  -0.563 -33.082  1.00  0.00    -0.247 OA
HETATM   25  H   UNL     1      -6.911  -0.387 -35.912  1.00  0.00     0.170 HD
HETATM   26  H   UNL     1      -8.828   0.518 -35.930  1.00  0.00     0.164 HD
BRANCH  23  27
HETATM   27  C   UNL     1      -6.088  -1.769 -34.631  1.00  0.00     0.036 A 
HETATM   28  C   UNL     1      -6.152  -3.115 -34.995  1.00  0.00     0.029 A 
HETATM   29  C   UNL     1      -5.165  -4.010 -34.567  1.00  0.00     0.002 A 
HETATM   30  C   UNL     1      -4.107  -3.566 -33.777  1.00  0.00     0.000 A 
HETATM   31  C   UNL     1      -4.032  -2.224 -33.414  1.00  0.00     0.002 A 
HETATM   32  C   UNL     1      -5.018  -1.331 -33.838  1.00  0.00     0.029 A 
ENDBRANCH  23  27
ENDBRANCH  20  21
ENDBRANCH   3  20
TORSDOF 7
ENDMDL
MODEL 5
REMARK VINA RESULT:      -7.9      2.925      8.119
REMARK  7 active torsions:
REMARK  status: ('A' for Active; 'I' for Inactive)
REMARK    1  A    between atoms: C_3  and  C_4 
REMARK    2  A    between atoms: C_4  and  N_5 
REMARK       I    between atoms: N_5  and  C_6 
REMARK    3  A    between atoms: C_6  and  C_7 
REMARK    4  A    between atoms: C_7  and  N_8 
REMARK    5  A    between atoms: C_10  and  C_11 
REMARK    6  A    between atoms: C_11  and  N_12 
REMARK       I    between atoms: N_12  and  C_13 
REMARK       I    between atoms: C_13  and  N_14 
REMARK    7  A    between atoms: N_14  and  C_15 
ROOT
HETATM    1  N   UNL     1      -7.453   0.915 -30.932  1.00  0.00    -0.057 N 
HETATM    2  H   UNL     1      -8.039   0.409 -30.240  1.00  0.00     0.281 HD
HETATM    3  C   UNL     1      -7.724   2.392 -30.616  1.00  0.00     0.206 C 
HETATM    4  C   UNL     1      -9.233   2.625 -30.797  1.00  0.00     0.035 C 
HETATM    5  C   UNL     1      -9.728   2.214 -32.181  1.00  0.00     0.004 C 
HETATM    6  C   UNL     1      -9.381   0.760 -32.477  1.00  0.00     0.028 C 
HETATM    7  C   UNL     1      -7.900   0.463 -32.292  1.00  0.00     0.236 C 
ENDROOT
BRANCH   1   8
HETATM    8  C   UNL     1      -6.049   0.433 -30.550  1.00  0.00     0.337 C 
BRANCH   8   9
HETATM    9  C   UNL     1      -5.201   0.200 -31.800  1.00  0.00     0.243 C 
HETATM   10  N   UNL     1      -4.937  -1.106 -32.100  1.00  0.00    -0.355 N 
HETATM   11  H   UNL     1      -5.363  -1.871 -31.590  1.00  0.00     0.162 HD
HETATM   12  O   UNL     1      -4.783   1.169 -32.433  1.00  0.00    -0.272 OA
BRANCH  10  13
HETATM   13  C   UNL     1      -4.072  -1.478 -33.206  1.00  0.00     0.169 C 
BRANCH  13  14
HETATM   14  C   UNL     1      -4.697  -2.656 -33.889  1.00  0.00     0.006 A 
HETATM   15  C   UNL     1      -5.861  -2.726 -34.643  1.00  0.00    -0.047 A 
HETATM   16  C   UNL     1      -6.769  -1.587 -34.978  1.00  0.00     0.049 C 
HETATM   17  C   UNL     1      -6.094  -4.066 -35.102  1.00  0.00     0.015 A 
HETATM   18  C   UNL     1      -5.128  -4.951 -34.687  1.00  0.00     0.051 A 
HETATM   19  S   UNL     1      -3.929  -4.188 -33.749  1.00  0.00    -0.104 SA
ENDBRANCH  13  14
ENDBRANCH  10  13
ENDBRANCH   8   9
ENDBRANCH   1   8
BRANCH   3  20
HETATM   20  C   UNL     1      -6.847   3.351 -31.481  1.00  0.00     0.157 C 
BRANCH  20  21
HETATM   21  N   UNL     1      -5.721   3.945 -30.782  1.00  0.00    -0.341 N 
HETATM   22  C   UNL     1      -4.719   4.572 -31.503  1.00  0.00     0.320 C 
HETATM   23  N   UNL     1      -3.749   5.071 -30.670  1.00  0.00    -0.309 N 
HETATM   24  O   UNL     1      -4.748   4.589 -32.725  1.00  0.00    -0.247 OA
HETATM   25  H   UNL     1      -3.858   4.877 -29.685  1.00  0.00     0.170 HD
HETATM   26  H   UNL     1      -5.905   4.358 -29.877  1.00  0.00     0.164 HD
BRANCH  23  27
HETATM   27  C   UNL     1      -2.554   5.727 -31.030  1.00  0.00     0.036 A 
HETATM   28  C   UNL     1      -2.456   7.100 -31.262  1.00  0.00     0.029 A 
HETATM   29  C   UNL     1      -1.232   7.668 -31.632  1.00  0.00     0.002 A 
HETATM   30  C   UNL     1      -0.099   6.869 -31.769  1.00  0.00     0.000 A 
HETATM   31  C   UNL     1      -0.186   5.500 -31.534  1.00  0.00     0.002 A 
HETATM   32  C   UNL     1      -1.408   4.932 -31.167  1.00  0.00     0.029 A 
ENDBRANCH  23  27
ENDBRANCH  20  21
ENDBRANCH   3  20
TORSDOF 7
ENDMDL
MODEL 6
REMARK VINA RESULT:      -7.7      1.981      2.530
REMARK  7 active torsions:
REMARK  status: ('A' for Active; 'I' for Inactive)
REMARK    1  A    between atoms: C_3  and  C_4 
REMARK    2  A    between atoms: C_4  and  N_5 
REMARK       I    between atoms: N_5  and  C_6 
REMARK    3  A    between atoms: C_6  and  C_7 
REMARK    4  A    between atoms: C_7  and  N_8 
REMARK    5  A    between atoms: C_10  and  C_11 
REMARK    6  A    between atoms: C_11  and  N_12 
REMARK       I    between atoms: N_12  and  C_13 
REMARK       I    between atoms: C_13  and  N_14 
REMARK    7  A    between atoms: N_14  and  C_15 
ROOT
HETATM    1  N   UNL     1      -7.885   4.104 -31.679  1.00  0.00    -0.057 N 
HETATM    2  H   UNL     1      -8.309   4.915 -32.169  1.00  0.00     0.281 HD
HETATM    3  C   UNL     1      -7.251   3.292 -32.817  1.00  0.00     0.206 C 
HETATM    4  C   UNL     1      -8.384   2.906 -33.783  1.00  0.00     0.035 C 
HETATM    5  C   UNL     1      -9.522   2.165 -33.087  1.00  0.00     0.004 C 
HETATM    6  C   UNL     1     -10.076   2.980 -31.925  1.00  0.00     0.028 C 
HETATM    7  C   UNL     1      -8.995   3.411 -30.945  1.00  0.00     0.236 C 
ENDROOT
BRANCH   1   8
HETATM    8  C   UNL     1      -6.874   4.799 -30.761  1.00  0.00     0.337 C 
BRANCH   8   9
HETATM    9  C   UNL     1      -6.185   5.950 -31.493  1.00  0.00     0.243 C 
HETATM   10  N   UNL     1      -4.819   5.934 -31.470  1.00  0.00    -0.355 N 
HETATM   11  H   UNL     1      -4.299   5.154 -31.085  1.00  0.00     0.162 HD
HETATM   12  O   UNL     1      -6.871   6.825 -32.020  1.00  0.00    -0.272 OA
BRANCH  10  13
HETATM   13  C   UNL     1      -4.031   7.007 -32.046  1.00  0.00     0.169 C 
BRANCH  13  14
HETATM   14  C   UNL     1      -3.087   6.392 -33.034  1.00  0.00     0.006 A 
HETATM   15  C   UNL     1      -1.707   6.511 -33.131  1.00  0.00    -0.047 A 
HETATM   16  C   UNL     1      -0.818   7.287 -32.213  1.00  0.00     0.049 C 
HETATM   17  C   UNL     1      -1.204   5.756 -34.244  1.00  0.00     0.015 A 
HETATM   18  C   UNL     1      -2.194   5.109 -34.943  1.00  0.00     0.051 A 
HETATM   19  S   UNL     1      -3.734   5.392 -34.274  1.00  0.00    -0.104 SA
ENDBRANCH  13  14
ENDBRANCH  10  13
ENDBRANCH   8   9
ENDBRANCH   1   8
BRANCH   3  20
HETATM   20  C   UNL     1      -6.450   2.060 -32.290  1.00  0.00     0.157 C 
BRANCH  20  21
HETATM   21  N   UNL     1      -6.012   1.132 -33.317  1.00  0.00    -0.341 N 
HETATM   22  C   UNL     1      -6.013  -0.228 -33.059  1.00  0.00     0.320 C 
HETATM   23  N   UNL     1      -5.572  -0.937 -34.148  1.00  0.00    -0.309 N 
HETATM   24  O   UNL     1      -6.333  -0.653 -31.958  1.00  0.00    -0.247 OA
HETATM   25  H   UNL     1      -5.265  -0.398 -34.944  1.00  0.00     0.170 HD
HETATM   26  H   UNL     1      -6.219   1.375 -34.278  1.00  0.00     0.164 HD
BRANCH  23  27
HETATM   27  C   UNL     1      -5.387  -2.331 -34.254  1.00  0.00     0.036 A 
HETATM   28  C   UNL     1      -4.221  -2.996 -33.871  1.00  0.00     0.029 A 
HETATM   29  C   UNL     1      -4.115  -4.382 -34.026  1.00  0.00     0.002 A 
HETATM   30  C   UNL     1      -5.173  -5.114 -34.561  1.00  0.00     0.000 A 
HETATM   31  C   UNL     1      -6.342  -4.460 -34.940  1.00  0.00     0.002 A 
HETATM   32  C   UNL     1      -6.448  -3.076 -34.788  1.00  0.00     0.029 A 
ENDBRANCH  23  27
ENDBRANCH  20  21
ENDBRANCH   3  20
TORSDOF 7
ENDMDL
MODEL 7
REMARK VINA RESULT:      -7.7      3.713      9.142
REMARK  7 active torsions:
REMARK  status: ('A' for Active; 'I' for Inactive)
REMARK    1  A    between atoms: C_3  and  C_4 
REMARK    2  A    between atoms: C_4  and  N_5 
REMARK       I    between atoms: N_5  and  C_6 
REMARK    3  A    between atoms: C_6  and  C_7 
REMARK    4  A    between atoms: C_7  and  N_8 
REMARK    5  A    between atoms: C_10  and  C_11 
REMARK    6  A    between atoms: C_11  and  N_12 
REMARK       I    between atoms: N_12  and  C_13 
REMARK       I    between atoms: C_13  and  N_14 
REMARK    7  A    between atoms: N_14  and  C_15 
ROOT
HETATM    1  N   UNL     1      -5.084   4.199 -32.448  1.00  0.00    -0.057 N 
HETATM    2  H   UNL     1      -5.764   3.437 -32.262  1.00  0.00     0.281 HD
HETATM    3  C   UNL     1      -5.085   5.006 -31.142  1.00  0.00     0.206 C 
HETATM    4  C   UNL     1      -6.523   5.502 -30.918  1.00  0.00     0.035 C 
HETATM    5  C   UNL     1      -7.062   6.295 -32.105  1.00  0.00     0.004 C 
HETATM    6  C   UNL     1      -6.982   5.479 -33.390  1.00  0.00     0.028 C 
HETATM    7  C   UNL     1      -5.583   4.940 -33.654  1.00  0.00     0.236 C 
ENDROOT
BRANCH   1   8
HETATM    8  C   UNL     1      -3.798   3.404 -32.698  1.00  0.00     0.337 C 
BRANCH   8   9
HETATM    9  C   UNL     1      -3.901   2.008 -32.085  1.00  0.00     0.243 C 
HETATM   10  N   UNL     1      -5.031   1.306 -32.394  1.00  0.00    -0.355 N 
HETATM   11  H   UNL     1      -5.705   1.647 -33.071  1.00  0.00     0.162 HD
HETATM   12  O   UNL     1      -3.007   1.611 -31.338  1.00  0.00    -0.272 OA
BRANCH  10  13
HETATM   13  C   UNL     1      -5.308   0.005 -31.815  1.00  0.00     0.169 C 
BRANCH  13  14
HETATM   14  C   UNL     1      -5.635  -0.928 -32.940  1.00  0.00     0.006 A 
HETATM   15  C   UNL     1      -6.834  -1.113 -33.616  1.00  0.00    -0.047 A 
HETATM   16  C   UNL     1      -8.107  -0.367 -33.380  1.00  0.00     0.049 C 
HETATM   17  C   UNL     1      -6.703  -2.126 -34.625  1.00  0.00     0.015 A 
HETATM   18  C   UNL     1      -5.443  -2.671 -34.677  1.00  0.00     0.051 A 
HETATM   19  S   UNL     1      -4.401  -1.973 -33.526  1.00  0.00    -0.104 SA
ENDBRANCH  13  14
ENDBRANCH  10  13
ENDBRANCH   8   9
ENDBRANCH   1   8
BRANCH   3  20
HETATM   20  C   UNL     1      -4.034   6.159 -31.159  1.00  0.00     0.157 C 
BRANCH  20  21
HETATM   21  N   UNL     1      -2.768   5.841 -30.522  1.00  0.00    -0.341 N 
HETATM   22  C   UNL     1      -2.202   6.740 -29.634  1.00  0.00     0.320 C 
HETATM   23  N   UNL     1      -1.016   6.260 -29.136  1.00  0.00    -0.309 N 
HETATM   24  O   UNL     1      -2.732   7.820 -29.418  1.00  0.00    -0.247 OA
HETATM   25  H   UNL     1      -0.696   5.377 -29.505  1.00  0.00     0.170 HD
HETATM   26  H   UNL     1      -2.595   4.868 -30.299  1.00  0.00     0.164 HD
BRANCH  23  27
HETATM   27  C   UNL     1      -0.128   6.904 -28.250  1.00  0.00     0.036 A 
HETATM   28  C   UNL     1      -0.042   6.620 -26.886  1.00  0.00     0.029 A 
HETATM   29  C   UNL     1       0.858   7.319 -26.074  1.00  0.00     0.002 A 
HETATM   30  C   UNL     1       1.679   8.303 -26.619  1.00  0.00     0.000 A 
HETATM   31  C   UNL     1       1.605   8.589 -27.980  1.00  0.00     0.002 A 
HETATM   32  C   UNL     1       0.705   7.893 -28.790  1.00  0.00     0.029 A 
ENDBRANCH  23  27
ENDBRANCH  20  21
ENDBRANCH   3  20
TORSDOF 7
ENDMDL
MODEL 8
REMARK VINA RESULT:      -7.7      3.999      7.605
REMARK  7 active torsions:
REMARK  status: ('A' for Active; 'I' for Inactive)
REMARK    1  A    between atoms: C_3  and  C_4 
REMARK    2  A    between atoms: C_4  and  N_5 
REMARK       I    between atoms: N_5  and  C_6 
REMARK    3  A    between atoms: C_6  and  C_7 
REMARK    4  A    between atoms: C_7  and  N_8 
REMARK    5  A    between atoms: C_10  and  C_11 
REMARK    6  A    between atoms: C_11  and  N_12 
REMARK       I    between atoms: N_12  and  C_13 
REMARK       I    between atoms: C_13  and  N_14 
REMARK    7  A    between atoms: N_14  and  C_15 
ROOT
HETATM    1  N   UNL     1      -5.705   2.446 -33.074  1.00  0.00    -0.057 N 
HETATM    2  H   UNL     1      -4.969   2.055 -33.694  1.00  0.00     0.281 HD
HETATM    3  C   UNL     1      -6.397   3.492 -33.958  1.00  0.00     0.206 C 
HETATM    4  C   UNL     1      -5.327   4.517 -34.369  1.00  0.00     0.035 C 
HETATM    5  C   UNL     1      -4.613   5.133 -33.169  1.00  0.00     0.004 C 
HETATM    6  C   UNL     1      -3.996   4.054 -32.287  1.00  0.00     0.028 C 
HETATM    7  C   UNL     1      -5.005   2.995 -31.866  1.00  0.00     0.236 C 
ENDROOT
BRANCH   1   8
HETATM    8  C   UNL     1      -6.552   1.201 -32.787  1.00  0.00     0.337 C 
BRANCH   8   9
HETATM    9  C   UNL     1      -5.657  -0.008 -32.514  1.00  0.00     0.243 C 
HETATM   10  N   UNL     1      -4.967  -0.489 -33.591  1.00  0.00    -0.355 N 
HETATM   11  H   UNL     1      -4.968  -0.011 -34.484  1.00  0.00     0.162 HD
HETATM   12  O   UNL     1      -5.630  -0.494 -31.384  1.00  0.00    -0.272 OA
BRANCH  10  13
HETATM   13  C   UNL     1      -4.148  -1.684 -33.504  1.00  0.00     0.169 C 
BRANCH  13  14
HETATM   14  C   UNL     1      -4.942  -2.816 -34.081  1.00  0.00     0.006 A 
HETATM   15  C   UNL     1      -4.603  -4.156 -34.212  1.00  0.00    -0.047 A 
HETATM   16  C   UNL     1      -3.331  -4.797 -33.759  1.00  0.00     0.049 C 
HETATM   17  C   UNL     1      -5.664  -4.895 -34.838  1.00  0.00     0.015 A 
HETATM   18  C   UNL     1      -6.745  -4.109 -35.161  1.00  0.00     0.051 A 
HETATM   19  S   UNL     1      -6.505  -2.484 -34.714  1.00  0.00    -0.104 SA
ENDBRANCH  13  14
ENDBRANCH  10  13
ENDBRANCH   8   9
ENDBRANCH   1   8
BRANCH   3  20
HETATM   20  C   UNL     1      -7.628   4.141 -33.250  1.00  0.00     0.157 C 
BRANCH  20  21
HETATM   21  N   UNL     1      -8.896   3.945 -33.931  1.00  0.00    -0.341 N 
HETATM   22  C   UNL     1      -9.904   3.227 -33.310  1.00  0.00     0.320 C 
HETATM   23  N   UNL     1     -11.020   3.156 -34.105  1.00  0.00    -0.309 N 
HETATM   24  O   UNL     1      -9.721   2.715 -32.215  1.00  0.00    -0.247 OA
HETATM   25  H   UNL     1     -10.948   3.570 -35.023  1.00  0.00     0.170 HD
HETATM   26  H   UNL     1      -9.223   4.698 -34.523  1.00  0.00     0.164 HD
BRANCH  23  27
HETATM   27  C   UNL     1     -12.226   2.472 -33.843  1.00  0.00     0.036 A 
HETATM   28  C   UNL     1     -13.189   2.909 -32.932  1.00  0.00     0.029 A 
HETATM   29  C   UNL     1     -14.352   2.160 -32.720  1.00  0.00     0.002 A 
HETATM   30  C   UNL     1     -14.561   0.973 -33.418  1.00  0.00     0.000 A 
HETATM   31  C   UNL     1     -13.609   0.533 -34.333  1.00  0.00     0.002 A 
HETATM   32  C   UNL     1     -12.447   1.279 -34.544  1.00  0.00     0.029 A 
ENDBRANCH  23  27
ENDBRANCH  20  21
ENDBRANCH   3  20
TORSDOF 7
ENDMDL
MODEL 9
REMARK VINA RESULT:      -7.5      4.111      6.952
REMARK  7 active torsions:
REMARK  status: ('A' for Active; 'I' for Inactive)
REMARK    1  A    between atoms: C_3  and  C_4 
REMARK    2  A    between atoms: C_4  and  N_5 
REMARK       I    between atoms: N_5  and  C_6 
REMARK    3  A    between atoms: C_6  and  C_7 
REMARK    4  A    between atoms: C_7  and  N_8 
REMARK    5  A    between atoms: C_10  and  C_11 
REMARK    6  A    between atoms: C_11  and  N_12 
REMARK       I    between atoms: N_12  and  C_13 
REMARK       I    between atoms: C_13  and  N_14 
REMARK    7  A    between atoms: N_14  and  C_15 
ROOT
HETATM    1  N   UNL     1      -8.307   3.998 -32.572  1.00  0.00    -0.057 N 
HETATM    2  H   UNL     1      -9.337   4.070 -32.453  1.00  0.00     0.281 HD
HETATM    3  C   UNL     1      -7.998   2.557 -32.145  1.00  0.00     0.206 C 
HETATM    4  C   UNL     1      -8.463   2.407 -30.687  1.00  0.00     0.035 C 
HETATM    5  C   UNL     1      -7.836   3.447 -29.762  1.00  0.00     0.004 C 
HETATM    6  C   UNL     1      -8.114   4.860 -30.260  1.00  0.00     0.028 C 
HETATM    7  C   UNL     1      -7.696   5.063 -31.709  1.00  0.00     0.236 C 
ENDROOT
BRANCH   1   8
HETATM    8  C   UNL     1      -8.158   4.258 -34.075  1.00  0.00     0.337 C 
BRANCH   8   9
HETATM    9  C   UNL     1      -9.523   4.513 -34.715  1.00  0.00     0.243 C 
HETATM   10  N   UNL     1     -10.375   3.445 -34.738  1.00  0.00    -0.355 N 
HETATM   11  H   UNL     1     -10.156   2.575 -34.267  1.00  0.00     0.162 HD
HETATM   12  O   UNL     1      -9.765   5.620 -35.195  1.00  0.00    -0.272 OA
BRANCH  10  13
HETATM   13  C   UNL     1     -11.669   3.513 -35.391  1.00  0.00     0.169 C 
BRANCH  13  14
HETATM   14  C   UNL     1     -12.694   3.035 -34.408  1.00  0.00     0.006 A 
HETATM   15  C   UNL     1     -13.229   3.684 -33.303  1.00  0.00    -0.047 A 
HETATM   16  C   UNL     1     -12.908   5.072 -32.850  1.00  0.00     0.049 C 
HETATM   17  C   UNL     1     -14.181   2.847 -32.628  1.00  0.00     0.015 A 
HETATM   18  C   UNL     1     -14.329   1.618 -33.223  1.00  0.00     0.051 A 
HETATM   19  S   UNL     1     -13.338   1.452 -34.598  1.00  0.00    -0.104 SA
ENDBRANCH  13  14
ENDBRANCH  10  13
ENDBRANCH   8   9
ENDBRANCH   1   8
BRANCH   3  20
HETATM   20  C   UNL     1      -6.495   2.189 -32.351  1.00  0.00     0.157 C 
BRANCH  20  21
HETATM   21  N   UNL     1      -6.240   1.244 -33.424  1.00  0.00    -0.341 N 
HETATM   22  C   UNL     1      -6.159  -0.108 -33.143  1.00  0.00     0.320 C 
HETATM   23  N   UNL     1      -5.919  -0.836 -34.281  1.00  0.00    -0.309 N 
HETATM   24  O   UNL     1      -6.253  -0.513 -31.992  1.00  0.00    -0.247 OA
HETATM   25  H   UNL     1      -5.782  -0.310 -35.132  1.00  0.00     0.170 HD
HETATM   26  H   UNL     1      -6.633   1.460 -34.332  1.00  0.00     0.164 HD
BRANCH  23  27
HETATM   27  C   UNL     1      -5.724  -2.228 -34.392  1.00  0.00     0.036 A 
HETATM   28  C   UNL     1      -6.725  -3.130 -34.759  1.00  0.00     0.029 A 
HETATM   29  C   UNL     1      -6.450  -4.500 -34.829  1.00  0.00     0.002 A 
HETATM   30  C   UNL     1      -5.174  -4.978 -34.536  1.00  0.00     0.000 A 
HETATM   31  C   UNL     1      -4.169  -4.085 -34.176  1.00  0.00     0.002 A 
HETATM   32  C   UNL     1      -4.443  -2.717 -34.104  1.00  0.00     0.029 A 
ENDBRANCH  23  27
ENDBRANCH  20  21
ENDBRANCH   3  20
TORSDOF 7
ENDMDL
MODEL 10
REMARK VINA RESULT:      -7.5      2.086      2.548
REMARK  7 active torsions:
REMARK  status: ('A' for Active; 'I' for Inactive)
REMARK    1  A    between atoms: C_3  and  C_4 
REMARK    2  A    between atoms: C_4  and  N_5 
REMARK       I    between atoms: N_5  and  C_6 
REMARK    3  A    between atoms: C_6  and  C_7 
REMARK    4  A    between atoms: C_7  and  N_8 
REMARK    5  A    between atoms: C_10  and  C_11 
REMARK    6  A    between atoms: C_11  and  N_12 
REMARK       I    between atoms: N_12  and  C_13 
REMARK       I    between atoms: C_13  and  N_14 
REMARK    7  A    between atoms: N_14  and  C_15 
ROOT
HETATM    1  N   UNL     1      -6.658   4.668 -31.409  1.00  0.00    -0.057 N 
HETATM    2  H   UNL     1      -6.596   5.629 -31.796  1.00  0.00     0.281 HD
HETATM    3  C   UNL     1      -6.042   3.797 -32.513  1.00  0.00     0.206 C 
HETATM    4  C   UNL     1      -6.888   4.009 -33.780  1.00  0.00     0.035 C 
HETATM    5  C   UNL     1      -8.369   3.718 -33.552  1.00  0.00     0.004 C 
HETATM    6  C   UNL     1      -8.921   4.557 -32.406  1.00  0.00     0.028 C 
HETATM    7  C   UNL     1      -8.108   4.407 -31.127  1.00  0.00     0.236 C 
ENDROOT
BRANCH   1   8
HETATM    8  C   UNL     1      -5.795   4.793 -30.148  1.00  0.00     0.337 C 
BRANCH   8   9
HETATM    9  C   UNL     1      -4.885   6.017 -30.239  1.00  0.00     0.243 C 
HETATM   10  N   UNL     1      -3.693   5.920 -29.578  1.00  0.00    -0.355 N 
HETATM   11  H   UNL     1      -3.389   5.054 -29.147  1.00  0.00     0.162 HD
HETATM   12  O   UNL     1      -5.272   7.011 -30.852  1.00  0.00    -0.272 OA
BRANCH  10  13
HETATM   13  C   UNL     1      -2.766   7.034 -29.502  1.00  0.00     0.169 C 
BRANCH  13  14
HETATM   14  C   UNL     1      -1.489   6.602 -30.155  1.00  0.00     0.006 A 
HETATM   15  C   UNL     1      -0.178   6.932 -29.838  1.00  0.00    -0.047 A 
HETATM   16  C   UNL     1       0.267   7.804 -28.709  1.00  0.00     0.049 C 
HETATM   17  C   UNL     1       0.743   6.299 -30.740  1.00  0.00     0.015 A 
HETATM   18  C   UNL     1       0.117   5.533 -31.694  1.00  0.00     0.051 A 
HETATM   19  S   UNL     1      -1.577   5.557 -31.518  1.00  0.00    -0.104 SA
ENDBRANCH  13  14
ENDBRANCH  10  13
ENDBRANCH   8   9
ENDBRANCH   1   8
BRANCH   3  20
HETATM   20  C   UNL     1      -5.933   2.298 -32.092  1.00  0.00     0.157 C 
BRANCH  20  21
HETATM   21  N   UNL     1      -5.734   1.369 -33.190  1.00  0.00    -0.341 N 
HETATM   22  C   UNL     1      -5.793   0.006 -32.955  1.00  0.00     0.320 C 
HETATM   23  N   UNL     1      -5.586  -0.703 -34.112  1.00  0.00    -0.309 N 
HETATM   24  O   UNL     1      -5.964  -0.424 -31.824  1.00  0.00    -0.247 OA
HETATM   25  H   UNL     1      -5.371  -0.166 -34.938  1.00  0.00     0.170 HD
HETATM   26  H   UNL     1      -6.074   1.651 -34.101  1.00  0.00     0.164 HD
BRANCH  23  27
HETATM   27  C   UNL     1      -5.523  -2.103 -34.267  1.00  0.00     0.036 A 
HETATM   28  C   UNL     1      -4.372  -2.863 -34.046  1.00  0.00     0.029 A 
HETATM   29  C   UNL     1      -4.393  -4.249 -34.239  1.00  0.00     0.002 A 
HETATM   30  C   UNL     1      -5.562  -4.884 -34.651  1.00  0.00     0.000 A 
HETATM   31  C   UNL     1      -6.716  -4.136 -34.868  1.00  0.00     0.002 A 
HETATM   32  C   UNL     1      -6.695  -2.752 -34.677  1.00  0.00     0.029 A 
ENDBRANCH  23  27
ENDBRANCH  20  21
ENDBRANCH   3  20
TORSDOF 7
ENDMDL
