MODEL 1
REMARK VINA RESULT:      -9.8      0.000      0.000
REMARK  6 active torsions:
REMARK  status: ('A' for Active; 'I' for Inactive)
REMARK    1  A    between atoms: N_9  and  C_10 
REMARK    2  A    between atoms: C_10  and  C_11 
REMARK       I    between atoms: C_11  and  N_12 
REMARK    3  A    between atoms: N_12  and  C_13 
REMARK    4  A    between atoms: C_16  and  C_17 
REMARK       I    between atoms: C_17  and  N_18 
REMARK    5  A    between atoms: N_18  and  C_19 
REMARK    6  A    between atoms: C_20  and  O_21 
ROOT
HETATM    1  C   UNL     1      -3.404   5.680 -31.005  1.00  0.00     0.240 C 
HETATM    2  N   UNL     1      -3.023   4.635 -31.834  1.00  0.00    -0.326 N 
HETATM    3  O   UNL     1      -4.332   5.644 -30.199  1.00  0.00    -0.271 OA
HETATM    4  H   UNL     1      -2.102   4.704 -32.261  1.00  0.00     0.169 HD
ENDROOT
BRANCH   2   5
HETATM    5  C   UNL     1      -3.737   3.448 -32.094  1.00  0.00     0.034 A 
HETATM    6  C   UNL     1      -4.842   3.373 -32.945  1.00  0.00     0.030 A 
HETATM    7  C   UNL     1      -5.476   2.148 -33.190  1.00  0.00     0.019 A 
HETATM    8  C   UNL     1      -5.005   0.979 -32.585  1.00  0.00     0.032 A 
HETATM    9  C   UNL     1      -3.894   1.046 -31.738  1.00  0.00     0.019 A 
HETATM   10  C   UNL     1      -3.269   2.274 -31.490  1.00  0.00     0.030 A 
BRANCH   8  11
HETATM   11  C   UNL     1      -5.620  -0.349 -32.872  1.00  0.00     0.256 C 
HETATM   12  N   UNL     1      -4.991  -1.076 -33.870  1.00  0.00    -0.321 N 
HETATM   13  H   UNL     1      -4.485  -0.540 -34.562  1.00  0.00     0.169 HD
HETATM   14  O   UNL     1      -6.656  -0.654 -32.292  1.00  0.00    -0.267 OA
BRANCH  12  15
HETATM   15  C   UNL     1      -5.255  -2.429 -34.183  1.00  0.00     0.068 A 
HETATM   16  C   UNL     1      -4.417  -3.497 -33.820  1.00  0.00     0.095 A 
HETATM   17  C   UNL     1      -4.767  -4.808 -34.173  1.00  0.00     0.039 A 
HETATM   18  C   UNL     1      -5.939  -5.058 -34.888  1.00  0.00     0.003 A 
HETATM   19  C   UNL     1      -6.751  -4.000 -35.283  1.00  0.00     0.002 A 
HETATM   20  C   UNL     1      -6.403  -2.689 -34.946  1.00  0.00     0.032 A 
BRANCH  16  21
HETATM   21  O   UNL     1      -3.181  -3.217 -33.292  1.00  0.00    -0.354 OA
HETATM   22  C   UNL     1      -3.094  -3.396 -31.882  1.00  0.00     0.210 C 
ENDBRANCH  16  21
ENDBRANCH  12  15
ENDBRANCH   8  11
ENDBRANCH   2   5
BRANCH   1  23
HETATM   23  C   UNL     1      -2.450   6.876 -31.018  1.00  0.00     0.240 C 
BRANCH  23  24
HETATM   24  N   UNL     1      -1.365   6.758 -30.064  1.00  0.00    -0.259 N 
HETATM   25  C   UNL     1      -0.417   5.791 -30.089  1.00  0.00     0.326 A 
HETATM   26  N   UNL     1       0.386   5.928 -28.988  1.00  0.00    -0.324 N 
HETATM   27  O   UNL     1      -0.246   4.974 -30.979  1.00  0.00    -0.247 OA
HETATM   28  C   UNL     1       0.093   7.131 -28.229  1.00  0.00     0.116 A 
HETATM   29  H   UNL     1       1.201   5.340 -28.863  1.00  0.00     0.165 HD
HETATM   30  C   UNL     1       1.262   8.115 -28.350  1.00  0.00     0.041 C 
HETATM   31  C   UNL     1      -1.141   7.617 -29.026  1.00  0.00     0.256 A 
HETATM   32  C   UNL     1      -0.277   6.786 -26.785  1.00  0.00     0.041 C 
HETATM   33  C   UNL     1       1.136   9.321 -27.419  1.00  0.00     0.007 C 
HETATM   34  C   UNL     1       0.842   8.936 -25.964  1.00  0.00    -0.019 C 
HETATM   35  C   UNL     1       2.061   8.312 -25.280  1.00  0.00     0.010 C 
HETATM   36  C   UNL     1      -0.385   8.019 -25.884  1.00  0.00     0.007 C 
HETATM   37  O   UNL     1      -1.802   8.615 -28.774  1.00  0.00    -0.270 OA
ENDBRANCH  23  24
ENDBRANCH   1  23
TORSDOF 6
ENDMDL
MODEL 2
REMARK VINA RESULT:      -9.5      1.360      2.281
REMARK  6 active torsions:
REMARK  status: ('A' for Active; 'I' for Inactive)
REMARK    1  A    between atoms: N_9  and  C_10 
REMARK    2  A    between atoms: C_10  and  C_11 
REMARK       I    between atoms: C_11  and  N_12 
REMARK    3  A    between atoms: N_12  and  C_13 
REMARK    4  A    between atoms: C_16  and  C_17 
REMARK       I    between atoms: C_17  and  N_18 
REMARK    5  A    between atoms: N_18  and  C_19 
REMARK    6  A    between atoms: C_20  and  O_21 
ROOT
HETATM    1  C   UNL     1      -4.580   5.960 -30.585  1.00  0.00     0.240 C 
HETATM    2  N   UNL     1      -3.951   5.135 -31.504  1.00  0.00    -0.326 N 
HETATM    3  O   UNL     1      -5.344   5.583 -29.698  1.00  0.00    -0.271 OA
HETATM    4  H   UNL     1      -3.164   5.533 -32.011  1.00  0.00     0.169 HD
ENDROOT
BRANCH   2   5
HETATM    5  C   UNL     1      -4.227   3.777 -31.762  1.00  0.00     0.034 A 
HETATM    6  C   UNL     1      -3.418   2.722 -31.336  1.00  0.00     0.030 A 
HETATM    7  C   UNL     1      -3.779   1.393 -31.592  1.00  0.00     0.019 A 
HETATM    8  C   UNL     1      -4.962   1.106 -32.280  1.00  0.00     0.032 A 
HETATM    9  C   UNL     1      -5.780   2.158 -32.704  1.00  0.00     0.019 A 
HETATM   10  C   UNL     1      -5.411   3.484 -32.452  1.00  0.00     0.030 A 
BRANCH   8  11
HETATM   11  C   UNL     1      -5.404  -0.299 -32.517  1.00  0.00     0.256 C 
HETATM   12  N   UNL     1      -4.887  -0.885 -33.660  1.00  0.00    -0.321 N 
HETATM   13  H   UNL     1      -4.627  -0.254 -34.406  1.00  0.00     0.169 HD
HETATM   14  O   UNL     1      -6.237  -0.788 -31.760  1.00  0.00    -0.267 OA
BRANCH  12  15
HETATM   15  C   UNL     1      -4.992  -2.255 -33.993  1.00  0.00     0.068 A 
HETATM   16  C   UNL     1      -4.166  -3.259 -33.457  1.00  0.00     0.095 A 
HETATM   17  C   UNL     1      -4.350  -4.593 -33.847  1.00  0.00     0.039 A 
HETATM   18  C   UNL     1      -5.343  -4.929 -34.768  1.00  0.00     0.003 A 
HETATM   19  C   UNL     1      -6.135  -3.934 -35.331  1.00  0.00     0.002 A 
HETATM   20  C   UNL     1      -5.950  -2.600 -34.957  1.00  0.00     0.032 A 
BRANCH  16  21
HETATM   21  O   UNL     1      -3.078  -2.888 -32.707  1.00  0.00    -0.354 OA
HETATM   22  C   UNL     1      -2.833  -3.723 -31.580  1.00  0.00     0.210 C 
ENDBRANCH  16  21
ENDBRANCH  12  15
ENDBRANCH   8  11
ENDBRANCH   2   5
BRANCH   1  23
HETATM   23  C   UNL     1      -4.112   7.416 -30.620  1.00  0.00     0.240 C 
BRANCH  23  24
HETATM   24  N   UNL     1      -3.319   7.794 -29.467  1.00  0.00    -0.259 N 
HETATM   25  C   UNL     1      -3.753   8.582 -28.455  1.00  0.00     0.326 A 
HETATM   26  N   UNL     1      -2.716   8.810 -27.591  1.00  0.00    -0.324 N 
HETATM   27  O   UNL     1      -4.899   8.968 -28.285  1.00  0.00    -0.247 OA
HETATM   28  C   UNL     1      -1.534   8.030 -27.919  1.00  0.00     0.116 A 
HETATM   29  H   UNL     1      -2.859   9.322 -26.729  1.00  0.00     0.165 HD
HETATM   30  C   UNL     1      -1.297   6.973 -26.836  1.00  0.00     0.041 C 
HETATM   31  C   UNL     1      -2.034   7.390 -29.236  1.00  0.00     0.256 A 
HETATM   32  C   UNL     1      -0.331   8.943 -28.164  1.00  0.00     0.041 C 
HETATM   33  C   UNL     1       0.037   6.242 -26.986  1.00  0.00     0.007 C 
HETATM   34  C   UNL     1       1.232   7.188 -27.152  1.00  0.00    -0.019 C 
HETATM   35  C   UNL     1       1.573   7.912 -25.848  1.00  0.00     0.010 C 
HETATM   36  C   UNL     1       0.985   8.174 -28.300  1.00  0.00     0.007 C 
HETATM   37  O   UNL     1      -1.388   6.636 -29.950  1.00  0.00    -0.270 OA
ENDBRANCH  23  24
ENDBRANCH   1  23
TORSDOF 6
ENDMDL
MODEL 3
REMARK VINA RESULT:      -9.5      4.401      5.875
REMARK  6 active torsions:
REMARK  status: ('A' for Active; 'I' for Inactive)
REMARK    1  A    between atoms: N_9  and  C_10 
REMARK    2  A    between atoms: C_10  and  C_11 
REMARK       I    between atoms: C_11  and  N_12 
REMARK    3  A    between atoms: N_12  and  C_13 
REMARK    4  A    between atoms: C_16  and  C_17 
REMARK       I    between atoms: C_17  and  N_18 
REMARK    5  A    between atoms: N_18  and  C_19 
REMARK    6  A    between atoms: C_20  and  O_21 
ROOT
HETATM    1  C   UNL     1      -3.717   4.775 -33.850  1.00  0.00     0.240 C 
HETATM    2  N   UNL     1      -4.272   3.814 -33.018  1.00  0.00    -0.326 N 
HETATM    3  O   UNL     1      -4.341   5.676 -34.408  1.00  0.00    -0.271 OA
HETATM    4  H   UNL     1      -3.625   3.292 -32.431  1.00  0.00     0.169 HD
ENDROOT
BRANCH   2   5
HETATM    5  C   UNL     1      -5.640   3.530 -32.835  1.00  0.00     0.034 A 
HETATM    6  C   UNL     1      -6.386   3.966 -31.737  1.00  0.00     0.030 A 
HETATM    7  C   UNL     1      -7.754   3.682 -31.643  1.00  0.00     0.019 A 
HETATM    8  C   UNL     1      -8.393   2.956 -32.653  1.00  0.00     0.032 A 
HETATM    9  C   UNL     1      -7.654   2.523 -33.757  1.00  0.00     0.019 A 
HETATM   10  C   UNL     1      -6.285   2.803 -33.843  1.00  0.00     0.030 A 
BRANCH   8  11
HETATM   11  C   UNL     1      -9.860   2.689 -32.610  1.00  0.00     0.256 C 
HETATM   12  N   UNL     1     -10.367   2.056 -33.734  1.00  0.00    -0.321 N 
HETATM   13  H   UNL     1      -9.855   2.197 -34.594  1.00  0.00     0.169 HD
HETATM   14  O   UNL     1     -10.508   3.114 -31.660  1.00  0.00    -0.267 OA
BRANCH  12  15
HETATM   15  C   UNL     1     -11.669   1.519 -33.850  1.00  0.00     0.068 A 
HETATM   16  C   UNL     1     -12.786   2.253 -34.288  1.00  0.00     0.095 A 
HETATM   17  C   UNL     1     -14.039   1.630 -34.374  1.00  0.00     0.039 A 
HETATM   18  C   UNL     1     -14.185   0.287 -34.023  1.00  0.00     0.003 A 
HETATM   19  C   UNL     1     -13.091  -0.431 -33.551  1.00  0.00     0.002 A 
HETATM   20  C   UNL     1     -11.842   0.186 -33.451  1.00  0.00     0.032 A 
BRANCH  16  21
HETATM   21  O   UNL     1     -12.663   3.612 -34.441  1.00  0.00    -0.354 OA
HETATM   22  C   UNL     1     -13.297   4.375 -33.419  1.00  0.00     0.210 C 
ENDBRANCH  16  21
ENDBRANCH  12  15
ENDBRANCH   8  11
ENDBRANCH   2   5
BRANCH   1  23
HETATM   23  C   UNL     1      -2.189   4.762 -33.899  1.00  0.00     0.240 C 
BRANCH  23  24
HETATM   24  N   UNL     1      -1.575   5.682 -32.962  1.00  0.00    -0.259 N 
HETATM   25  C   UNL     1      -1.242   6.964 -33.243  1.00  0.00     0.326 A 
HETATM   26  N   UNL     1      -0.597   7.503 -32.163  1.00  0.00    -0.324 N 
HETATM   27  O   UNL     1      -1.533   7.575 -34.258  1.00  0.00    -0.247 OA
HETATM   28  C   UNL     1      -0.604   6.620 -31.009  1.00  0.00     0.116 A 
HETATM   29  H   UNL     1      -0.329   8.480 -32.151  1.00  0.00     0.165 HD
HETATM   30  C   UNL     1      -1.488   7.216 -29.909  1.00  0.00     0.041 C 
HETATM   31  C   UNL     1      -1.269   5.385 -31.663  1.00  0.00     0.256 A 
HETATM   32  C   UNL     1       0.824   6.308 -30.554  1.00  0.00     0.041 C 
HETATM   33  C   UNL     1      -1.392   6.462 -28.582  1.00  0.00     0.007 C 
HETATM   34  C   UNL     1       0.050   6.235 -28.116  1.00  0.00    -0.019 C 
HETATM   35  C   UNL     1       0.705   7.530 -27.630  1.00  0.00     0.010 C 
HETATM   36  C   UNL     1       0.876   5.561 -29.219  1.00  0.00     0.007 C 
HETATM   37  O   UNL     1      -1.494   4.320 -31.106  1.00  0.00    -0.270 OA
ENDBRANCH  23  24
ENDBRANCH   1  23
TORSDOF 6
ENDMDL
MODEL 4
REMARK VINA RESULT:      -9.4      1.722      2.444
REMARK  6 active torsions:
REMARK  status: ('A' for Active; 'I' for Inactive)
REMARK    1  A    between atoms: N_9  and  C_10 
REMARK    2  A    between atoms: C_10  and  C_11 
REMARK       I    between atoms: C_11  and  N_12 
REMARK    3  A    between atoms: N_12  and  C_13 
REMARK    4  A    between atoms: C_16  and  C_17 
REMARK       I    between atoms: C_17  and  N_18 
REMARK    5  A    between atoms: N_18  and  C_19 
REMARK    6  A    between atoms: C_20  and  O_21 
ROOT
HETATM    1  C   UNL     1      -4.699   6.498 -31.238  1.00  0.00     0.240 C 
HETATM    2  N   UNL     1      -4.500   5.361 -30.469  1.00  0.00    -0.326 N 
HETATM    3  O   UNL     1      -5.223   6.519 -32.351  1.00  0.00    -0.271 OA
HETATM    4  H   UNL     1      -4.293   5.508 -29.484  1.00  0.00     0.169 HD
ENDROOT
BRANCH   2   5
HETATM    5  C   UNL     1      -4.627   4.019 -30.880  1.00  0.00     0.034 A 
HETATM    6  C   UNL     1      -3.767   3.397 -31.788  1.00  0.00     0.030 A 
HETATM    7  C   UNL     1      -3.929   2.045 -32.117  1.00  0.00     0.019 A 
HETATM    8  C   UNL     1      -4.957   1.298 -31.534  1.00  0.00     0.032 A 
HETATM    9  C   UNL     1      -5.816   1.912 -30.619  1.00  0.00     0.019 A 
HETATM   10  C   UNL     1      -5.656   3.266 -30.299  1.00  0.00     0.030 A 
BRANCH   8  11
HETATM   11  C   UNL     1      -5.119  -0.158 -31.818  1.00  0.00     0.256 C 
HETATM   12  N   UNL     1      -4.199  -0.680 -32.713  1.00  0.00    -0.321 N 
HETATM   13  H   UNL     1      -3.802  -0.028 -33.376  1.00  0.00     0.169 HD
HETATM   14  O   UNL     1      -6.075  -0.749 -31.329  1.00  0.00    -0.267 OA
BRANCH  12  15
HETATM   15  C   UNL     1      -4.017  -2.055 -32.987  1.00  0.00     0.068 A 
HETATM   16  C   UNL     1      -4.616  -2.727 -34.067  1.00  0.00     0.095 A 
HETATM   17  C   UNL     1      -4.371  -4.094 -34.259  1.00  0.00     0.039 A 
HETATM   18  C   UNL     1      -3.541  -4.792 -33.381  1.00  0.00     0.003 A 
HETATM   19  C   UNL     1      -2.979  -4.140 -32.288  1.00  0.00     0.002 A 
HETATM   20  C   UNL     1      -3.228  -2.780 -32.083  1.00  0.00     0.032 A 
BRANCH  16  21
HETATM   21  O   UNL     1      -5.576  -2.074 -34.800  1.00  0.00    -0.354 OA
HETATM   22  C   UNL     1      -6.912  -2.357 -34.397  1.00  0.00     0.210 C 
ENDBRANCH  16  21
ENDBRANCH  12  15
ENDBRANCH   8  11
ENDBRANCH   2   5
BRANCH   1  23
HETATM   23  C   UNL     1      -4.380   7.810 -30.520  1.00  0.00     0.240 C 
BRANCH  23  24
HETATM   24  N   UNL     1      -2.988   7.932 -30.134  1.00  0.00    -0.259 N 
HETATM   25  C   UNL     1      -1.996   8.368 -30.945  1.00  0.00     0.326 A 
HETATM   26  N   UNL     1      -0.801   8.260 -30.286  1.00  0.00    -0.324 N 
HETATM   27  O   UNL     1      -2.138   8.853 -32.056  1.00  0.00    -0.247 OA
HETATM   28  C   UNL     1      -0.964   7.875 -28.894  1.00  0.00     0.116 A 
HETATM   29  H   UNL     1       0.056   8.604 -30.702  1.00  0.00     0.165 HD
HETATM   30  C   UNL     1      -0.574   9.045 -27.986  1.00  0.00     0.041 C 
HETATM   31  C   UNL     1      -2.494   7.642 -28.893  1.00  0.00     0.256 A 
HETATM   32  C   UNL     1      -0.204   6.581 -28.596  1.00  0.00     0.041 C 
HETATM   33  C   UNL     1      -0.514   8.668 -26.506  1.00  0.00     0.007 C 
HETATM   34  C   UNL     1       0.319   7.411 -26.232  1.00  0.00    -0.019 C 
HETATM   35  C   UNL     1       1.818   7.670 -26.409  1.00  0.00     0.010 C 
HETATM   36  C   UNL     1      -0.161   6.244 -27.104  1.00  0.00     0.007 C 
HETATM   37  O   UNL     1      -3.156   7.271 -27.934  1.00  0.00    -0.270 OA
ENDBRANCH  23  24
ENDBRANCH   1  23
TORSDOF 6
ENDMDL
MODEL 5
REMARK VINA RESULT:      -9.2      2.136      2.653
REMARK  6 active torsions:
REMARK  status: ('A' for Active; 'I' for Inactive)
REMARK    1  A    between atoms: N_9  and  C_10 
REMARK    2  A    between atoms: C_10  and  C_11 
REMARK       I    between atoms: C_11  and  N_12 
REMARK    3  A    between atoms: N_12  and  C_13 
REMARK    4  A    between atoms: C_16  and  C_17 
REMARK       I    between atoms: C_17  and  N_18 
REMARK    5  A    between atoms: N_18  and  C_19 
REMARK    6  A    between atoms: C_20  and  O_21 
ROOT
HETATM    1  C   UNL     1      -4.961   6.787 -30.078  1.00  0.00     0.240 C 
HETATM    2  N   UNL     1      -5.344   5.613 -29.448  1.00  0.00    -0.326 N 
HETATM    3  O   UNL     1      -4.886   6.947 -31.295  1.00  0.00    -0.271 OA
HETATM    4  H   UNL     1      -5.604   5.687 -28.467  1.00  0.00     0.169 HD
ENDROOT
BRANCH   2   5
HETATM    5  C   UNL     1      -5.490   4.338 -30.031  1.00  0.00     0.034 A 
HETATM    6  C   UNL     1      -4.515   3.728 -30.825  1.00  0.00     0.030 A 
HETATM    7  C   UNL     1      -4.712   2.439 -31.336  1.00  0.00     0.019 A 
HETATM    8  C   UNL     1      -5.891   1.743 -31.054  1.00  0.00     0.032 A 
HETATM    9  C   UNL     1      -6.867   2.344 -30.254  1.00  0.00     0.019 A 
HETATM   10  C   UNL     1      -6.669   3.636 -29.751  1.00  0.00     0.030 A 
BRANCH   8  11
HETATM   11  C   UNL     1      -6.105   0.346 -31.533  1.00  0.00     0.256 C 
HETATM   12  N   UNL     1      -5.781   0.134 -32.863  1.00  0.00    -0.321 N 
HETATM   13  H   UNL     1      -5.834   0.941 -33.470  1.00  0.00     0.169 HD
HETATM   14  O   UNL     1      -6.620  -0.464 -30.771  1.00  0.00    -0.267 OA
BRANCH  12  15
HETATM   15  C   UNL     1      -5.704  -1.129 -33.492  1.00  0.00     0.068 A 
HETATM   16  C   UNL     1      -4.525  -1.891 -33.582  1.00  0.00     0.095 A 
HETATM   17  C   UNL     1      -4.549  -3.138 -34.224  1.00  0.00     0.039 A 
HETATM   18  C   UNL     1      -5.734  -3.624 -34.778  1.00  0.00     0.003 A 
HETATM   19  C   UNL     1      -6.893  -2.856 -34.725  1.00  0.00     0.002 A 
HETATM   20  C   UNL     1      -6.874  -1.607 -34.099  1.00  0.00     0.032 A 
BRANCH  16  21
HETATM   21  O   UNL     1      -3.336  -1.315 -33.207  1.00  0.00    -0.354 OA
HETATM   22  C   UNL     1      -2.894  -1.685 -31.905  1.00  0.00     0.210 C 
ENDBRANCH  16  21
ENDBRANCH  12  15
ENDBRANCH   8  11
ENDBRANCH   2   5
BRANCH   1  23
HETATM   23  C   UNL     1      -4.799   7.984 -29.140  1.00  0.00     0.240 C 
BRANCH  23  24
HETATM   24  N   UNL     1      -3.720   7.825 -28.185  1.00  0.00    -0.259 N 
HETATM   25  C   UNL     1      -3.860   7.310 -26.941  1.00  0.00     0.326 A 
HETATM   26  N   UNL     1      -2.662   7.402 -26.284  1.00  0.00    -0.324 N 
HETATM   27  O   UNL     1      -4.862   6.777 -26.492  1.00  0.00    -0.247 OA
HETATM   28  C   UNL     1      -1.586   7.861 -27.145  1.00  0.00     0.116 A 
HETATM   29  H   UNL     1      -2.544   7.004 -25.360  1.00  0.00     0.165 HD
HETATM   30  C   UNL     1      -0.588   6.722 -27.376  1.00  0.00     0.041 C 
HETATM   31  C   UNL     1      -2.415   8.155 -28.419  1.00  0.00     0.256 A 
HETATM   32  C   UNL     1      -0.950   9.137 -26.588  1.00  0.00     0.041 C 
HETATM   33  C   UNL     1       0.683   7.168 -28.099  1.00  0.00     0.007 C 
HETATM   34  C   UNL     1       1.338   8.403 -27.468  1.00  0.00    -0.019 C 
HETATM   35  C   UNL     1       2.002   8.075 -26.129  1.00  0.00     0.010 C 
HETATM   36  C   UNL     1       0.323   9.544 -27.333  1.00  0.00     0.007 C 
HETATM   37  O   UNL     1      -1.972   8.600 -29.468  1.00  0.00    -0.270 OA
ENDBRANCH  23  24
ENDBRANCH   1  23
TORSDOF 6
ENDMDL
MODEL 6
REMARK VINA RESULT:      -9.1      1.943     11.274
REMARK  6 active torsions:
REMARK  status: ('A' for Active; 'I' for Inactive)
REMARK    1  A    between atoms: N_9  and  C_10 
REMARK    2  A    between atoms: C_10  and  C_11 
REMARK       I    between atoms: C_11  and  N_12 
REMARK    3  A    between atoms: N_12  and  C_13 
REMARK    4  A    between atoms: C_16  and  C_17 
REMARK       I    between atoms: C_17  and  N_18 
REMARK    5  A    between atoms: N_18  and  C_19 
REMARK    6  A    between atoms: C_20  and  O_21 
ROOT
HETATM    1  C   UNL     1      -6.437   3.333 -33.679  1.00  0.00     0.240 C 
HETATM    2  N   UNL     1      -5.373   2.914 -32.895  1.00  0.00    -0.326 N 
HETATM    3  O   UNL     1      -6.533   4.435 -34.216  1.00  0.00    -0.271 OA
HETATM    4  H   UNL     1      -5.299   1.913 -32.724  1.00  0.00     0.169 HD
ENDROOT
BRANCH   2   5
HETATM    5  C   UNL     1      -4.333   3.708 -32.371  1.00  0.00     0.034 A 
HETATM    6  C   UNL     1      -3.039   3.744 -32.895  1.00  0.00     0.030 A 
HETATM    7  C   UNL     1      -2.068   4.592 -32.348  1.00  0.00     0.019 A 
HETATM    8  C   UNL     1      -2.384   5.418 -31.266  1.00  0.00     0.032 A 
HETATM    9  C   UNL     1      -3.680   5.392 -30.740  1.00  0.00     0.019 A 
HETATM   10  C   UNL     1      -4.645   4.537 -31.286  1.00  0.00     0.030 A 
BRANCH   8  11
HETATM   11  C   UNL     1      -1.390   6.374 -30.699  1.00  0.00     0.256 C 
HETATM   12  N   UNL     1      -1.528   6.618 -29.342  1.00  0.00    -0.321 N 
HETATM   13  H   UNL     1      -2.454   6.491 -28.957  1.00  0.00     0.169 HD
HETATM   14  O   UNL     1      -0.607   6.929 -31.462  1.00  0.00    -0.267 OA
BRANCH  12  15
HETATM   15  C   UNL     1      -0.598   7.318 -28.540  1.00  0.00     0.068 A 
HETATM   16  C   UNL     1      -0.643   8.706 -28.315  1.00  0.00     0.095 A 
HETATM   17  C   UNL     1       0.324   9.310 -27.499  1.00  0.00     0.039 A 
HETATM   18  C   UNL     1       1.334   8.544 -26.914  1.00  0.00     0.003 A 
HETATM   19  C   UNL     1       1.405   7.178 -27.168  1.00  0.00     0.002 A 
HETATM   20  C   UNL     1       0.453   6.570 -27.989  1.00  0.00     0.032 A 
BRANCH  16  21
HETATM   21  O   UNL     1      -1.520   9.466 -29.048  1.00  0.00    -0.354 OA
HETATM   22  C   UNL     1      -2.693   9.852 -28.339  1.00  0.00     0.210 C 
ENDBRANCH  16  21
ENDBRANCH  12  15
ENDBRANCH   8  11
ENDBRANCH   2   5
BRANCH   1  23
HETATM   23  C   UNL     1      -7.454   2.237 -34.002  1.00  0.00     0.240 C 
BRANCH  23  24
HETATM   24  N   UNL     1      -7.036   0.918 -33.569  1.00  0.00    -0.259 N 
HETATM   25  C   UNL     1      -7.016   0.497 -32.282  1.00  0.00     0.326 A 
HETATM   26  N   UNL     1      -6.475  -0.759 -32.233  1.00  0.00    -0.324 N 
HETATM   27  O   UNL     1      -7.474   1.098 -31.323  1.00  0.00    -0.247 OA
HETATM   28  C   UNL     1      -6.240  -1.319 -33.553  1.00  0.00     0.116 A 
HETATM   29  H   UNL     1      -6.439  -1.277 -31.362  1.00  0.00     0.165 HD
HETATM   30  C   UNL     1      -7.199  -2.489 -33.796  1.00  0.00     0.041 C 
HETATM   31  C   UNL     1      -6.626  -0.084 -34.403  1.00  0.00     0.256 A 
HETATM   32  C   UNL     1      -4.764  -1.681 -33.735  1.00  0.00     0.041 C 
HETATM   33  C   UNL     1      -6.888  -3.271 -35.072  1.00  0.00     0.007 C 
HETATM   34  C   UNL     1      -5.416  -3.686 -35.186  1.00  0.00    -0.019 C 
HETATM   35  C   UNL     1      -5.060  -4.804 -34.202  1.00  0.00     0.010 C 
HETATM   36  C   UNL     1      -4.497  -2.470 -35.019  1.00  0.00     0.007 C 
HETATM   37  O   UNL     1      -6.581  -0.019 -35.623  1.00  0.00    -0.270 OA
ENDBRANCH  23  24
ENDBRANCH   1  23
TORSDOF 6
ENDMDL
MODEL 7
REMARK VINA RESULT:      -8.7      6.558     12.977
REMARK  6 active torsions:
REMARK  status: ('A' for Active; 'I' for Inactive)
REMARK    1  A    between atoms: N_9  and  C_10 
REMARK    2  A    between atoms: C_10  and  C_11 
REMARK       I    between atoms: C_11  and  N_12 
REMARK    3  A    between atoms: N_12  and  C_13 
REMARK    4  A    between atoms: C_16  and  C_17 
REMARK       I    between atoms: C_17  and  N_18 
REMARK    5  A    between atoms: N_18  and  C_19 
REMARK    6  A    between atoms: C_20  and  O_21 
ROOT
HETATM    1  C   UNL     1      -1.908   9.015 -25.526  1.00  0.00     0.240 C 
HETATM    2  N   UNL     1      -0.708   9.650 -25.805  1.00  0.00    -0.326 N 
HETATM    3  O   UNL     1      -2.173   8.424 -24.481  1.00  0.00    -0.271 OA
HETATM    4  H   UNL     1      -0.708  10.304 -26.584  1.00  0.00     0.169 HD
ENDROOT
BRANCH   2   5
HETATM    5  C   UNL     1       0.498   9.552 -25.082  1.00  0.00     0.034 A 
HETATM    6  C   UNL     1       0.662  10.013 -23.773  1.00  0.00     0.030 A 
HETATM    7  C   UNL     1       1.879   9.842 -23.101  1.00  0.00     0.019 A 
HETATM    8  C   UNL     1       2.949   9.202 -23.734  1.00  0.00     0.032 A 
HETATM    9  C   UNL     1       2.789   8.732 -25.041  1.00  0.00     0.019 A 
HETATM   10  C   UNL     1       1.573   8.912 -25.712  1.00  0.00     0.030 A 
BRANCH   8  11
HETATM   11  C   UNL     1       4.237   8.952 -23.025  1.00  0.00     0.256 C 
HETATM   12  N   UNL     1       4.338   7.706 -22.428  1.00  0.00    -0.321 N 
HETATM   13  H   UNL     1       3.467   7.266 -22.164  1.00  0.00     0.169 HD
HETATM   14  O   UNL     1       5.050   9.866 -22.944  1.00  0.00    -0.267 OA
BRANCH  12  15
HETATM   15  C   UNL     1       5.519   7.159 -21.877  1.00  0.00     0.068 A 
HETATM   16  C   UNL     1       5.922   7.344 -20.543  1.00  0.00     0.095 A 
HETATM   17  C   UNL     1       7.111   6.756 -20.087  1.00  0.00     0.039 A 
HETATM   18  C   UNL     1       7.898   5.992 -20.950  1.00  0.00     0.003 A 
HETATM   19  C   UNL     1       7.522   5.840 -22.281  1.00  0.00     0.002 A 
HETATM   20  C   UNL     1       6.345   6.433 -22.746  1.00  0.00     0.032 A 
BRANCH  16  21
HETATM   21  O   UNL     1       5.243   8.251 -19.767  1.00  0.00    -0.354 OA
HETATM   22  C   UNL     1       5.948   9.467 -19.539  1.00  0.00     0.210 C 
ENDBRANCH  16  21
ENDBRANCH  12  15
ENDBRANCH   8  11
ENDBRANCH   2   5
BRANCH   1  23
HETATM   23  C   UNL     1      -3.004   9.252 -26.567  1.00  0.00     0.240 C 
BRANCH  23  24
HETATM   24  N   UNL     1      -2.965   8.311 -27.669  1.00  0.00    -0.259 N 
HETATM   25  C   UNL     1      -3.751   7.214 -27.776  1.00  0.00     0.326 A 
HETATM   26  N   UNL     1      -3.378   6.505 -28.886  1.00  0.00    -0.324 N 
HETATM   27  O   UNL     1      -4.693   6.931 -27.053  1.00  0.00    -0.247 OA
HETATM   28  C   UNL     1      -2.388   7.204 -29.688  1.00  0.00     0.116 A 
HETATM   29  H   UNL     1      -3.895   5.685 -29.179  1.00  0.00     0.165 HD
HETATM   30  C   UNL     1      -3.012   7.635 -31.019  1.00  0.00     0.041 C 
HETATM   31  C   UNL     1      -2.145   8.416 -28.757  1.00  0.00     0.256 A 
HETATM   32  C   UNL     1      -1.121   6.360 -29.845  1.00  0.00     0.041 C 
HETATM   33  C   UNL     1      -1.993   8.193 -32.012  1.00  0.00     0.007 C 
HETATM   34  C   UNL     1      -0.773   7.285 -32.205  1.00  0.00    -0.019 C 
HETATM   35  C   UNL     1      -1.119   6.023 -32.998  1.00  0.00     0.010 C 
HETATM   36  C   UNL     1      -0.131   6.948 -30.853  1.00  0.00     0.007 C 
HETATM   37  O   UNL     1      -1.356   9.326 -28.966  1.00  0.00    -0.270 OA
ENDBRANCH  23  24
ENDBRANCH   1  23
TORSDOF 6
ENDMDL
MODEL 8
REMARK VINA RESULT:      -8.7      6.247      8.675
REMARK  6 active torsions:
REMARK  status: ('A' for Active; 'I' for Inactive)
REMARK    1  A    between atoms: N_9  and  C_10 
REMARK    2  A    between atoms: C_10  and  C_11 
REMARK       I    between atoms: C_11  and  N_12 
REMARK    3  A    between atoms: N_12  and  C_13 
REMARK    4  A    between atoms: C_16  and  C_17 
REMARK       I    between atoms: C_17  and  N_18 
REMARK    5  A    between atoms: N_18  and  C_19 
REMARK    6  A    between atoms: C_20  and  O_21 
ROOT
HETATM    1  C   UNL     1      -6.528   1.662 -32.678  1.00  0.00     0.240 C 
HETATM    2  N   UNL     1      -7.404   1.123 -33.608  1.00  0.00    -0.326 N 
HETATM    3  O   UNL     1      -6.857   2.222 -31.634  1.00  0.00    -0.271 OA
HETATM    4  H   UNL     1      -7.007   0.477 -34.287  1.00  0.00     0.169 HD
ENDROOT
BRANCH   2   5
HETATM    5  C   UNL     1      -8.799   1.308 -33.673  1.00  0.00     0.034 A 
HETATM    6  C   UNL     1      -9.732   0.337 -33.301  1.00  0.00     0.030 A 
HETATM    7  C   UNL     1     -11.106   0.607 -33.352  1.00  0.00     0.019 A 
HETATM    8  C   UNL     1     -11.561   1.859 -33.777  1.00  0.00     0.032 A 
HETATM    9  C   UNL     1     -10.633   2.837 -34.144  1.00  0.00     0.019 A 
HETATM   10  C   UNL     1      -9.261   2.560 -34.099  1.00  0.00     0.030 A 
BRANCH   8  11
HETATM   11  C   UNL     1     -13.014   2.197 -33.785  1.00  0.00     0.256 C 
HETATM   12  N   UNL     1     -13.546   2.504 -32.544  1.00  0.00    -0.321 N 
HETATM   13  H   UNL     1     -13.077   2.098 -31.745  1.00  0.00     0.169 HD
HETATM   14  O   UNL     1     -13.635   2.093 -34.838  1.00  0.00    -0.267 OA
BRANCH  12  15
HETATM   15  C   UNL     1     -14.831   3.047 -32.318  1.00  0.00     0.068 A 
HETATM   16  C   UNL     1     -15.091   4.422 -32.185  1.00  0.00     0.095 A 
HETATM   17  C   UNL     1     -16.404   4.865 -31.967  1.00  0.00     0.039 A 
HETATM   18  C   UNL     1     -17.452   3.948 -31.876  1.00  0.00     0.003 A 
HETATM   19  C   UNL     1     -17.193   2.585 -31.967  1.00  0.00     0.002 A 
HETATM   20  C   UNL     1     -15.886   2.134 -32.172  1.00  0.00     0.032 A 
BRANCH  16  21
HETATM   21  O   UNL     1     -14.030   5.288 -32.084  1.00  0.00    -0.354 OA
HETATM   22  C   UNL     1     -13.720   5.975 -33.292  1.00  0.00     0.210 C 
ENDBRANCH  16  21
ENDBRANCH  12  15
ENDBRANCH   8  11
ENDBRANCH   2   5
BRANCH   1  23
HETATM   23  C   UNL     1      -5.054   1.350 -32.943  1.00  0.00     0.240 C 
BRANCH  23  24
HETATM   24  N   UNL     1      -4.150   2.364 -32.437  1.00  0.00    -0.259 N 
HETATM   25  C   UNL     1      -3.253   2.172 -31.442  1.00  0.00     0.326 A 
HETATM   26  N   UNL     1      -2.641   3.363 -31.158  1.00  0.00    -0.324 N 
HETATM   27  O   UNL     1      -2.969   1.102 -30.927  1.00  0.00    -0.247 OA
HETATM   28  C   UNL     1      -3.007   4.415 -32.090  1.00  0.00     0.116 A 
HETATM   29  H   UNL     1      -1.884   3.413 -30.486  1.00  0.00     0.165 HD
HETATM   30  C   UNL     1      -1.794   4.787 -32.950  1.00  0.00     0.041 C 
HETATM   31  C   UNL     1      -4.068   3.644 -32.910  1.00  0.00     0.256 A 
HETATM   32  C   UNL     1      -3.629   5.604 -31.353  1.00  0.00     0.041 C 
HETATM   33  C   UNL     1      -2.024   6.025 -33.817  1.00  0.00     0.007 C 
HETATM   34  C   UNL     1      -2.575   7.222 -33.032  1.00  0.00    -0.019 C 
HETATM   35  C   UNL     1      -1.515   7.841 -32.117  1.00  0.00     0.010 C 
HETATM   36  C   UNL     1      -3.834   6.824 -32.253  1.00  0.00     0.007 C 
HETATM   37  O   UNL     1      -4.720   4.101 -33.839  1.00  0.00    -0.270 OA
ENDBRANCH  23  24
ENDBRANCH   1  23
TORSDOF 6
ENDMDL
MODEL 9
REMARK VINA RESULT:      -8.6      4.044     11.616
REMARK  6 active torsions:
REMARK  status: ('A' for Active; 'I' for Inactive)
REMARK    1  A    between atoms: N_9  and  C_10 
REMARK    2  A    between atoms: C_10  and  C_11 
REMARK       I    between atoms: C_11  and  N_12 
REMARK    3  A    between atoms: N_12  and  C_13 
REMARK    4  A    between atoms: C_16  and  C_17 
REMARK       I    between atoms: C_17  and  N_18 
REMARK    5  A    between atoms: N_18  and  C_19 
REMARK    6  A    between atoms: C_20  and  O_21 
ROOT
HETATM    1  C   UNL     1      -6.460   3.763 -33.608  1.00  0.00     0.240 C 
HETATM    2  N   UNL     1      -5.688   3.524 -32.482  1.00  0.00    -0.326 N 
HETATM    3  O   UNL     1      -6.510   4.828 -34.222  1.00  0.00    -0.271 OA
HETATM    4  H   UNL     1      -5.543   2.549 -32.226  1.00  0.00     0.169 HD
ENDROOT
BRANCH   2   5
HETATM    5  C   UNL     1      -5.013   4.475 -31.691  1.00  0.00     0.034 A 
HETATM    6  C   UNL     1      -5.601   5.163 -30.627  1.00  0.00     0.030 A 
HETATM    7  C   UNL     1      -4.855   6.064 -29.857  1.00  0.00     0.019 A 
HETATM    8  C   UNL     1      -3.505   6.286 -30.144  1.00  0.00     0.032 A 
HETATM    9  C   UNL     1      -2.908   5.596 -31.204  1.00  0.00     0.019 A 
HETATM   10  C   UNL     1      -3.660   4.702 -31.976  1.00  0.00     0.030 A 
BRANCH   8  11
HETATM   11  C   UNL     1      -2.669   7.193 -29.306  1.00  0.00     0.256 C 
HETATM   12  N   UNL     1      -1.614   6.575 -28.656  1.00  0.00    -0.321 N 
HETATM   13  H   UNL     1      -1.727   5.589 -28.460  1.00  0.00     0.169 HD
HETATM   14  O   UNL     1      -3.016   8.363 -29.182  1.00  0.00    -0.267 OA
BRANCH  12  15
HETATM   15  C   UNL     1      -0.571   7.243 -27.974  1.00  0.00     0.068 A 
HETATM   16  C   UNL     1      -0.520   7.401 -26.578  1.00  0.00     0.095 A 
HETATM   17  C   UNL     1       0.560   8.077 -25.993  1.00  0.00     0.039 A 
HETATM   18  C   UNL     1       1.581   8.598 -26.788  1.00  0.00     0.003 A 
HETATM   19  C   UNL     1       1.514   8.478 -28.172  1.00  0.00     0.002 A 
HETATM   20  C   UNL     1       0.435   7.816 -28.764  1.00  0.00     0.032 A 
BRANCH  16  21
HETATM   21  O   UNL     1      -1.621   7.055 -25.834  1.00  0.00    -0.354 OA
HETATM   22  C   UNL     1      -2.408   8.163 -25.406  1.00  0.00     0.210 C 
ENDBRANCH  16  21
ENDBRANCH  12  15
ENDBRANCH   8  11
ENDBRANCH   2   5
BRANCH   1  23
HETATM   23  C   UNL     1      -7.143   2.520 -34.182  1.00  0.00     0.240 C 
BRANCH  23  24
HETATM   24  N   UNL     1      -8.403   2.206 -33.537  1.00  0.00    -0.259 N 
HETATM   25  C   UNL     1      -8.531   1.470 -32.409  1.00  0.00     0.326 A 
HETATM   26  N   UNL     1      -9.863   1.293 -32.142  1.00  0.00    -0.324 N 
HETATM   27  O   UNL     1      -7.620   1.087 -31.693  1.00  0.00    -0.247 OA
HETATM   28  C   UNL     1     -10.717   2.061 -33.030  1.00  0.00     0.116 A 
HETATM   29  H   UNL     1     -10.166   0.825 -31.296  1.00  0.00     0.165 HD
HETATM   30  C   UNL     1     -11.413   3.175 -32.241  1.00  0.00     0.041 C 
HETATM   31  C   UNL     1      -9.628   2.630 -33.971  1.00  0.00     0.256 A 
HETATM   32  C   UNL     1     -11.682   1.144 -33.786  1.00  0.00     0.041 C 
HETATM   33  C   UNL     1     -12.489   3.905 -33.045  1.00  0.00     0.007 C 
HETATM   34  C   UNL     1     -13.485   2.958 -33.726  1.00  0.00    -0.019 C 
HETATM   35  C   UNL     1     -14.432   2.304 -32.717  1.00  0.00     0.010 C 
HETATM   36  C   UNL     1     -12.747   1.913 -34.571  1.00  0.00     0.007 C 
HETATM   37  O   UNL     1      -9.829   3.350 -34.939  1.00  0.00    -0.270 OA
ENDBRANCH  23  24
ENDBRANCH   1  23
TORSDOF 6
ENDMDL
MODEL 10
REMARK VINA RESULT:      -8.6      3.228     11.371
REMARK  6 active torsions:
REMARK  status: ('A' for Active; 'I' for Inactive)
REMARK    1  A    between atoms: N_9  and  C_10 
REMARK    2  A    between atoms: C_10  and  C_11 
REMARK       I    between atoms: C_11  and  N_12 
REMARK    3  A    between atoms: N_12  and  C_13 
REMARK    4  A    between atoms: C_16  and  C_17 
REMARK       I    between atoms: C_17  and  N_18 
REMARK    5  A    between atoms: N_18  and  C_19 
REMARK    6  A    between atoms: C_20  and  O_21 
ROOT
HETATM    1  C   UNL     1      -4.889   1.222 -32.535  1.00  0.00     0.240 C 
HETATM    2  N   UNL     1      -5.045   2.598 -32.609  1.00  0.00    -0.326 N 
HETATM    3  O   UNL     1      -4.057   0.638 -31.843  1.00  0.00    -0.271 OA
HETATM    4  H   UNL     1      -5.916   2.937 -33.013  1.00  0.00     0.169 HD
ENDROOT
BRANCH   2   5
HETATM    5  C   UNL     1      -4.168   3.585 -32.116  1.00  0.00     0.034 A 
HETATM    6  C   UNL     1      -2.831   3.704 -32.504  1.00  0.00     0.030 A 
HETATM    7  C   UNL     1      -2.030   4.738 -32.004  1.00  0.00     0.019 A 
HETATM    8  C   UNL     1      -2.562   5.670 -31.108  1.00  0.00     0.032 A 
HETATM    9  C   UNL     1      -3.901   5.561 -30.721  1.00  0.00     0.019 A 
HETATM   10  C   UNL     1      -4.696   4.521 -31.217  1.00  0.00     0.030 A 
BRANCH   8  11
HETATM   11  C   UNL     1      -1.751   6.816 -30.604  1.00  0.00     0.256 C 
HETATM   12  N   UNL     1      -1.639   6.886 -29.225  1.00  0.00    -0.321 N 
HETATM   13  H   UNL     1      -2.389   6.464 -28.695  1.00  0.00     0.169 HD
HETATM   14  O   UNL     1      -1.333   7.640 -31.412  1.00  0.00    -0.267 OA
BRANCH  12  15
HETATM   15  C   UNL     1      -0.770   7.749 -28.520  1.00  0.00     0.068 A 
HETATM   16  C   UNL     1      -1.158   8.990 -27.985  1.00  0.00     0.095 A 
HETATM   17  C   UNL     1      -0.222   9.775 -27.296  1.00  0.00     0.039 A 
HETATM   18  C   UNL     1       1.093   9.334 -27.144  1.00  0.00     0.003 A 
HETATM   19  C   UNL     1       1.491   8.125 -27.706  1.00  0.00     0.002 A 
HETATM   20  C   UNL     1       0.568   7.343 -28.405  1.00  0.00     0.032 A 
BRANCH  16  21
HETATM   21  O   UNL     1      -2.394   9.492 -28.310  1.00  0.00    -0.354 OA
HETATM   22  C   UNL     1      -2.366  10.516 -29.299  1.00  0.00     0.210 C 
ENDBRANCH  16  21
ENDBRANCH  12  15
ENDBRANCH   8  11
ENDBRANCH   2   5
BRANCH   1  23
HETATM   23  C   UNL     1      -5.974   0.424 -33.260  1.00  0.00     0.240 C 
BRANCH  23  24
HETATM   24  N   UNL     1      -7.310   0.683 -32.760  1.00  0.00    -0.259 N 
HETATM   25  C   UNL     1      -7.745   0.365 -31.518  1.00  0.00     0.326 A 
HETATM   26  N   UNL     1      -9.078   0.662 -31.424  1.00  0.00    -0.324 N 
HETATM   27  O   UNL     1      -7.056  -0.046 -30.599  1.00  0.00    -0.247 OA
HETATM   28  C   UNL     1      -9.579   1.361 -32.595  1.00  0.00     0.116 A 
HETATM   29  H   UNL     1      -9.574   0.561 -30.546  1.00  0.00     0.165 HD
HETATM   30  C   UNL     1      -9.936   2.804 -32.222  1.00  0.00     0.041 C 
HETATM   31  C   UNL     1      -8.302   1.301 -33.468  1.00  0.00     0.256 A 
HETATM   32  C   UNL     1     -10.731   0.587 -33.240  1.00  0.00     0.041 C 
HETATM   33  C   UNL     1     -10.663   3.554 -33.337  1.00  0.00     0.007 C 
HETATM   34  C   UNL     1     -11.860   2.784 -33.908  1.00  0.00    -0.019 C 
HETATM   35  C   UNL     1     -13.034   2.744 -32.927  1.00  0.00     0.010 C 
HETATM   36  C   UNL     1     -11.438   1.375 -34.344  1.00  0.00     0.007 C 
HETATM   37  O   UNL     1      -8.195   1.744 -34.603  1.00  0.00    -0.270 OA
ENDBRANCH  23  24
ENDBRANCH   1  23
TORSDOF 6
ENDMDL
