MODEL 1
REMARK VINA RESULT:      -9.0      0.000      0.000
REMARK  6 active torsions:
REMARK  status: ('A' for Active; 'I' for Inactive)
REMARK    1  A    between atoms: C_4  and  C_5 
REMARK    2  A    between atoms: C_5  and  O_6 
REMARK    3  A    between atoms: O_6  and  C_7 
REMARK    4  A    between atoms: C_10  and  C_11 
REMARK    5  A    between atoms: C_17  and  C_18 
REMARK    6  A    between atoms: C_26  and  N_27 
ROOT
HETATM    1  C   UNL     1     -10.491   1.364 -33.565  1.00  0.00     0.072 A 
HETATM    2  N   UNL     1     -11.670   0.672 -33.369  1.00  0.00    -0.274 N 
HETATM    3  H   UNL     1     -11.779  -0.280 -33.037  1.00  0.00     0.189 HD
HETATM    4  N   UNL     1     -12.780   1.371 -33.678  1.00  0.00    -0.148 NA
HETATM    5  C   UNL     1     -12.281   2.527 -34.091  1.00  0.00     0.199 A 
HETATM    6  C   UNL     1     -10.889   2.602 -34.041  1.00  0.00     0.040 A 
HETATM    7  C   UNL     1     -10.177   3.852 -34.433  1.00  0.00     0.108 A 
HETATM    8  C   UNL     1     -11.164   4.873 -35.000  1.00  0.00     0.081 A 
HETATM    9  C   UNL     1     -10.602   6.049 -35.582  1.00  0.00     0.100 C 
HETATM   10  N   UNL     1     -10.140   7.002 -36.052  1.00  0.00    -0.191 NA
HETATM   11  C   UNL     1     -12.509   4.676 -35.013  1.00  0.00     0.140 A 
HETATM   12  O   UNL     1     -13.099   3.509 -34.508  1.00  0.00    -0.277 OA
ENDROOT
BRANCH   7  13
HETATM   13  C   UNL     1      -9.394   4.424 -33.279  1.00  0.00    -0.020 A 
HETATM   14  C   UNL     1      -9.884   4.991 -32.117  1.00  0.00     0.149 A 
HETATM   15  O   UNL     1      -8.871   5.402 -31.312  1.00  0.00    -0.334 OA
HETATM   16  C   UNL     1      -7.714   5.099 -31.950  1.00  0.00     0.142 A 
HETATM   17  C   UNL     1      -7.975   4.498 -33.158  1.00  0.00     0.034 A 
ENDBRANCH   7  13
BRANCH  11  18
HETATM   18  N   UNL     1     -13.437   5.563 -35.515  1.00  0.00    -0.282 NA
HETATM   19  H   UNL     1     -14.404   5.245 -35.510  1.00  0.00     0.126 HD
HETATM   20  H   UNL     1     -13.148   5.951 -36.411  1.00  0.00     0.126 HD
ENDBRANCH  11  18
BRANCH   1  21
HETATM   21  C   UNL     1      -9.179   0.800 -33.275  1.00  0.00    -0.007 A 
HETATM   22  C   UNL     1      -8.276   0.532 -34.309  1.00  0.00     0.016 A 
HETATM   23  C   UNL     1      -7.003   0.029 -34.025  1.00  0.00     0.037 A 
HETATM   24  C   UNL     1      -6.610  -0.215 -32.709  1.00  0.00     0.069 A 
HETATM   25  C   UNL     1      -7.516   0.018 -31.675  1.00  0.00     0.037 A 
HETATM   26  C   UNL     1      -8.790   0.528 -31.958  1.00  0.00     0.016 A 
BRANCH  24  27
HETATM   27  O   UNL     1      -5.331  -0.676 -32.571  1.00  0.00    -0.347 OA
BRANCH  27  28
HETATM   28  C   UNL     1      -4.634  -1.027 -33.767  1.00  0.00     0.214 C 
BRANCH  28  29
HETATM   29  C   UNL     1      -4.610  -2.530 -33.925  1.00  0.00    -0.034 A 
HETATM   30  C   UNL     1      -3.642  -3.292 -33.253  1.00  0.00     0.009 A 
HETATM   31  C   UNL     1      -3.620  -4.682 -33.376  1.00  0.00     0.001 A 
HETATM   32  C   UNL     1      -4.571  -5.328 -34.161  1.00  0.00     0.000 A 
HETATM   33  C   UNL     1      -5.548  -4.586 -34.821  1.00  0.00     0.001 A 
HETATM   34  C   UNL     1      -5.572  -3.196 -34.700  1.00  0.00     0.009 A 
ENDBRANCH  28  29
ENDBRANCH  27  28
ENDBRANCH  24  27
ENDBRANCH   1  21
TORSDOF 6
ENDMDL
MODEL 2
REMARK VINA RESULT:      -8.8      4.221      6.867
REMARK  6 active torsions:
REMARK  status: ('A' for Active; 'I' for Inactive)
REMARK    1  A    between atoms: C_4  and  C_5 
REMARK    2  A    between atoms: C_5  and  O_6 
REMARK    3  A    between atoms: O_6  and  C_7 
REMARK    4  A    between atoms: C_10  and  C_11 
REMARK    5  A    between atoms: C_17  and  C_18 
REMARK    6  A    between atoms: C_26  and  N_27 
ROOT
HETATM    1  C   UNL     1      -6.360   5.982 -31.621  1.00  0.00     0.072 A 
HETATM    2  N   UNL     1      -6.613   7.059 -30.795  1.00  0.00    -0.274 N 
HETATM    3  H   UNL     1      -7.456   7.244 -30.262  1.00  0.00     0.189 HD
HETATM    4  N   UNL     1      -5.605   7.951 -30.723  1.00  0.00    -0.148 NA
HETATM    5  C   UNL     1      -4.702   7.423 -31.539  1.00  0.00     0.199 A 
HETATM    6  C   UNL     1      -5.088   6.213 -32.116  1.00  0.00     0.040 A 
HETATM    7  C   UNL     1      -4.167   5.473 -33.025  1.00  0.00     0.108 A 
HETATM    8  C   UNL     1      -2.910   6.300 -33.300  1.00  0.00     0.081 A 
HETATM    9  C   UNL     1      -2.019   5.795 -34.293  1.00  0.00     0.100 C 
HETATM   10  N   UNL     1      -1.298   5.380 -35.101  1.00  0.00    -0.191 NA
HETATM   11  C   UNL     1      -2.652   7.485 -32.684  1.00  0.00     0.140 A 
HETATM   12  O   UNL     1      -3.530   8.047 -31.748  1.00  0.00    -0.277 OA
ENDROOT
BRANCH   7  13
HETATM   13  C   UNL     1      -3.823   4.114 -32.471  1.00  0.00    -0.020 A 
HETATM   14  C   UNL     1      -2.832   3.793 -31.561  1.00  0.00     0.149 A 
HETATM   15  O   UNL     1      -2.821   2.460 -31.307  1.00  0.00    -0.334 OA
HETATM   16  C   UNL     1      -3.810   1.908 -32.051  1.00  0.00     0.142 A 
HETATM   17  C   UNL     1      -4.456   2.875 -32.783  1.00  0.00     0.034 A 
ENDBRANCH   7  13
BRANCH  11  18
HETATM   18  N   UNL     1      -1.538   8.266 -32.900  1.00  0.00    -0.282 NA
HETATM   19  H   UNL     1      -1.423   8.624 -33.846  1.00  0.00     0.126 HD
HETATM   20  H   UNL     1      -0.693   7.836 -32.531  1.00  0.00     0.126 HD
ENDBRANCH  11  18
BRANCH   1  21
HETATM   21  C   UNL     1      -7.309   4.894 -31.824  1.00  0.00    -0.007 A 
HETATM   22  C   UNL     1      -7.859   4.657 -33.088  1.00  0.00     0.016 A 
HETATM   23  C   UNL     1      -8.737   3.589 -33.289  1.00  0.00     0.037 A 
HETATM   24  C   UNL     1      -9.082   2.741 -32.236  1.00  0.00     0.069 A 
HETATM   25  C   UNL     1      -8.564   2.990 -30.966  1.00  0.00     0.037 A 
HETATM   26  C   UNL     1      -7.678   4.057 -30.765  1.00  0.00     0.016 A 
BRANCH  24  27
HETATM   27  O   UNL     1      -9.924   1.720 -32.577  1.00  0.00    -0.347 OA
BRANCH  27  28
HETATM   28  C   UNL     1      -9.499   0.394 -32.257  1.00  0.00     0.214 C 
BRANCH  28  29
HETATM   29  C   UNL     1      -8.272   0.039 -33.066  1.00  0.00    -0.034 A 
HETATM   30  C   UNL     1      -7.104  -0.390 -32.418  1.00  0.00     0.009 A 
HETATM   31  C   UNL     1      -5.970  -0.739 -33.154  1.00  0.00     0.001 A 
HETATM   32  C   UNL     1      -5.993  -0.674 -34.544  1.00  0.00     0.000 A 
HETATM   33  C   UNL     1      -7.152  -0.266 -35.202  1.00  0.00     0.001 A 
HETATM   34  C   UNL     1      -8.287   0.083 -34.468  1.00  0.00     0.009 A 
ENDBRANCH  28  29
ENDBRANCH  27  28
ENDBRANCH  24  27
ENDBRANCH   1  21
TORSDOF 6
ENDMDL
MODEL 3
REMARK VINA RESULT:      -8.7      4.979      7.011
REMARK  6 active torsions:
REMARK  status: ('A' for Active; 'I' for Inactive)
REMARK    1  A    between atoms: C_4  and  C_5 
REMARK    2  A    between atoms: C_5  and  O_6 
REMARK    3  A    between atoms: O_6  and  C_7 
REMARK    4  A    between atoms: C_10  and  C_11 
REMARK    5  A    between atoms: C_17  and  C_18 
REMARK    6  A    between atoms: C_26  and  N_27 
ROOT
HETATM    1  C   UNL     1      -3.194   5.243 -33.085  1.00  0.00     0.072 A 
HETATM    2  N   UNL     1      -2.422   5.604 -34.172  1.00  0.00    -0.274 N 
HETATM    3  H   UNL     1      -2.171   5.029 -34.970  1.00  0.00     0.189 HD
HETATM    4  N   UNL     1      -1.956   6.868 -34.125  1.00  0.00    -0.148 NA
HETATM    5  C   UNL     1      -2.439   7.305 -32.971  1.00  0.00     0.199 A 
HETATM    6  C   UNL     1      -3.215   6.371 -32.283  1.00  0.00     0.040 A 
HETATM    7  C   UNL     1      -3.864   6.723 -30.988  1.00  0.00     0.108 A 
HETATM    8  C   UNL     1      -3.419   8.113 -30.529  1.00  0.00     0.081 A 
HETATM    9  C   UNL     1      -3.820   8.511 -29.218  1.00  0.00     0.100 C 
HETATM   10  N   UNL     1      -4.149   8.829 -28.153  1.00  0.00    -0.191 NA
HETATM   11  C   UNL     1      -2.639   8.930 -31.286  1.00  0.00     0.140 A 
HETATM   12  O   UNL     1      -2.172   8.554 -32.553  1.00  0.00    -0.277 OA
ENDROOT
BRANCH   7  13
HETATM   13  C   UNL     1      -5.364   6.627 -31.080  1.00  0.00    -0.020 A 
HETATM   14  C   UNL     1      -6.213   5.828 -30.335  1.00  0.00     0.149 A 
HETATM   15  O   UNL     1      -7.505   6.010 -30.709  1.00  0.00    -0.334 OA
HETATM   16  C   UNL     1      -7.501   6.934 -31.701  1.00  0.00     0.142 A 
HETATM   17  C   UNL     1      -6.218   7.347 -31.968  1.00  0.00     0.034 A 
ENDBRANCH   7  13
BRANCH  11  18
HETATM   18  N   UNL     1      -2.211  10.186 -30.916  1.00  0.00    -0.282 NA
HETATM   19  H   UNL     1      -2.192  10.885 -31.655  1.00  0.00     0.126 HD
HETATM   20  H   UNL     1      -1.348  10.152 -30.376  1.00  0.00     0.126 HD
ENDBRANCH  11  18
BRANCH   1  21
HETATM   21  C   UNL     1      -3.810   3.929 -32.947  1.00  0.00    -0.007 A 
HETATM   22  C   UNL     1      -5.123   3.710 -33.375  1.00  0.00     0.016 A 
HETATM   23  C   UNL     1      -5.696   2.439 -33.279  1.00  0.00     0.037 A 
HETATM   24  C   UNL     1      -4.972   1.368 -32.755  1.00  0.00     0.069 A 
HETATM   25  C   UNL     1      -3.674   1.585 -32.296  1.00  0.00     0.037 A 
HETATM   26  C   UNL     1      -3.096   2.857 -32.398  1.00  0.00     0.016 A 
BRANCH  24  27
HETATM   27  O   UNL     1      -5.640   0.176 -32.747  1.00  0.00    -0.347 OA
BRANCH  27  28
HETATM   28  C   UNL     1      -6.255  -0.233 -33.970  1.00  0.00     0.214 C 
BRANCH  28  29
HETATM   29  C   UNL     1      -5.953  -1.690 -34.234  1.00  0.00    -0.034 A 
HETATM   30  C   UNL     1      -4.646  -2.177 -34.076  1.00  0.00     0.009 A 
HETATM   31  C   UNL     1      -4.358  -3.525 -34.299  1.00  0.00     0.001 A 
HETATM   32  C   UNL     1      -5.372  -4.403 -34.670  1.00  0.00     0.000 A 
HETATM   33  C   UNL     1      -6.677  -3.937 -34.815  1.00  0.00     0.001 A 
HETATM   34  C   UNL     1      -6.968  -2.590 -34.593  1.00  0.00     0.009 A 
ENDBRANCH  28  29
ENDBRANCH  27  28
ENDBRANCH  24  27
ENDBRANCH   1  21
TORSDOF 6
ENDMDL
MODEL 4
REMARK VINA RESULT:      -8.7      3.406      4.860
REMARK  6 active torsions:
REMARK  status: ('A' for Active; 'I' for Inactive)
REMARK    1  A    between atoms: C_4  and  C_5 
REMARK    2  A    between atoms: C_5  and  O_6 
REMARK    3  A    between atoms: O_6  and  C_7 
REMARK    4  A    between atoms: C_10  and  C_11 
REMARK    5  A    between atoms: C_17  and  C_18 
REMARK    6  A    between atoms: C_26  and  N_27 
ROOT
HETATM    1  C   UNL     1      -5.929   3.649 -29.638  1.00  0.00     0.072 A 
HETATM    2  N   UNL     1      -5.206   4.415 -28.746  1.00  0.00    -0.274 N 
HETATM    3  H   UNL     1      -4.270   4.236 -28.395  1.00  0.00     0.189 HD
HETATM    4  N   UNL     1      -5.854   5.510 -28.302  1.00  0.00    -0.148 NA
HETATM    5  C   UNL     1      -7.021   5.418 -28.925  1.00  0.00     0.199 A 
HETATM    6  C   UNL     1      -7.137   4.313 -29.767  1.00  0.00     0.040 A 
HETATM    7  C   UNL     1      -8.373   4.091 -30.571  1.00  0.00     0.108 A 
HETATM    8  C   UNL     1      -9.442   5.120 -30.199  1.00  0.00     0.081 A 
HETATM    9  C   UNL     1     -10.740   4.922 -30.759  1.00  0.00     0.100 C 
HETATM   10  N   UNL     1     -11.792   4.757 -31.216  1.00  0.00    -0.191 NA
HETATM   11  C   UNL     1      -9.213   6.151 -29.343  1.00  0.00     0.140 A 
HETATM   12  O   UNL     1      -7.972   6.347 -28.724  1.00  0.00    -0.277 OA
ENDROOT
BRANCH   7  13
HETATM   13  C   UNL     1      -8.080   4.109 -32.048  1.00  0.00    -0.020 A 
HETATM   14  C   UNL     1      -7.738   5.195 -32.834  1.00  0.00     0.149 A 
HETATM   15  O   UNL     1      -7.556   4.821 -34.126  1.00  0.00    -0.334 OA
HETATM   16  C   UNL     1      -7.777   3.484 -34.184  1.00  0.00     0.142 A 
HETATM   17  C   UNL     1      -8.101   2.997 -32.941  1.00  0.00     0.034 A 
ENDBRANCH   7  13
BRANCH  11  18
HETATM   18  N   UNL     1     -10.143   7.100 -28.976  1.00  0.00    -0.282 NA
HETATM   19  H   UNL     1     -11.108   6.780 -28.924  1.00  0.00     0.126 HD
HETATM   20  H   UNL     1     -10.036   7.963 -29.504  1.00  0.00     0.126 HD
ENDBRANCH  11  18
BRANCH   1  21
HETATM   21  C   UNL     1      -5.406   2.434 -30.252  1.00  0.00    -0.007 A 
HETATM   22  C   UNL     1      -6.085   1.219 -30.114  1.00  0.00     0.016 A 
HETATM   23  C   UNL     1      -5.603   0.065 -30.738  1.00  0.00     0.037 A 
HETATM   24  C   UNL     1      -4.439   0.102 -31.506  1.00  0.00     0.069 A 
HETATM   25  C   UNL     1      -3.739   1.302 -31.621  1.00  0.00     0.037 A 
HETATM   26  C   UNL     1      -4.224   2.461 -31.003  1.00  0.00     0.016 A 
BRANCH  24  27
HETATM   27  O   UNL     1      -4.098  -1.089 -32.084  1.00  0.00    -0.347 OA
BRANCH  27  28
HETATM   28  C   UNL     1      -4.061  -1.131 -33.512  1.00  0.00     0.214 C 
BRANCH  28  29
HETATM   29  C   UNL     1      -4.826  -2.336 -34.009  1.00  0.00    -0.034 A 
HETATM   30  C   UNL     1      -4.201  -3.591 -34.069  1.00  0.00     0.009 A 
HETATM   31  C   UNL     1      -4.902  -4.715 -34.508  1.00  0.00     0.001 A 
HETATM   32  C   UNL     1      -6.238  -4.601 -34.883  1.00  0.00     0.000 A 
HETATM   33  C   UNL     1      -6.877  -3.365 -34.813  1.00  0.00     0.001 A 
HETATM   34  C   UNL     1      -6.178  -2.240 -34.373  1.00  0.00     0.009 A 
ENDBRANCH  28  29
ENDBRANCH  27  28
ENDBRANCH  24  27
ENDBRANCH   1  21
TORSDOF 6
ENDMDL
MODEL 5
REMARK VINA RESULT:      -8.6      2.805      3.959
REMARK  6 active torsions:
REMARK  status: ('A' for Active; 'I' for Inactive)
REMARK    1  A    between atoms: C_4  and  C_5 
REMARK    2  A    between atoms: C_5  and  O_6 
REMARK    3  A    between atoms: O_6  and  C_7 
REMARK    4  A    between atoms: C_10  and  C_11 
REMARK    5  A    between atoms: C_17  and  C_18 
REMARK    6  A    between atoms: C_26  and  N_27 
ROOT
HETATM    1  C   UNL     1      -6.981   3.107 -30.371  1.00  0.00     0.072 A 
HETATM    2  N   UNL     1      -7.178   3.500 -29.062  1.00  0.00    -0.274 N 
HETATM    3  H   UNL     1      -6.822   3.053 -28.223  1.00  0.00     0.189 HD
HETATM    4  N   UNL     1      -7.945   4.599 -28.922  1.00  0.00    -0.148 NA
HETATM    5  C   UNL     1      -8.248   4.893 -30.179  1.00  0.00     0.199 A 
HETATM    6  C   UNL     1      -7.686   4.032 -31.122  1.00  0.00     0.040 A 
HETATM    7  C   UNL     1      -7.899   4.254 -32.581  1.00  0.00     0.108 A 
HETATM    8  C   UNL     1      -8.889   5.397 -32.808  1.00  0.00     0.081 A 
HETATM    9  C   UNL     1      -9.326   5.605 -34.150  1.00  0.00     0.100 C 
HETATM   10  N   UNL     1      -9.676   5.771 -35.243  1.00  0.00    -0.191 NA
HETATM   11  C   UNL     1      -9.387   6.159 -31.798  1.00  0.00     0.140 A 
HETATM   12  O   UNL     1      -9.032   5.949 -30.459  1.00  0.00    -0.277 OA
ENDROOT
BRANCH   7  13
HETATM   13  C   UNL     1      -6.596   4.503 -33.295  1.00  0.00    -0.020 A 
HETATM   14  C   UNL     1      -5.964   3.692 -34.221  1.00  0.00     0.149 A 
HETATM   15  O   UNL     1      -4.801   4.249 -34.641  1.00  0.00    -0.334 OA
HETATM   16  C   UNL     1      -4.671   5.431 -33.988  1.00  0.00     0.142 A 
HETATM   17  C   UNL     1      -5.742   5.636 -33.152  1.00  0.00     0.034 A 
ENDBRANCH   7  13
BRANCH  11  18
HETATM   18  N   UNL     1     -10.282   7.196 -31.952  1.00  0.00    -0.282 NA
HETATM   19  H   UNL     1     -10.857   7.411 -31.140  1.00  0.00     0.126 HD
HETATM   20  H   UNL     1     -10.820   7.111 -32.811  1.00  0.00     0.126 HD
ENDBRANCH  11  18
BRANCH   1  21
HETATM   21  C   UNL     1      -6.169   1.955 -30.743  1.00  0.00    -0.007 A 
HETATM   22  C   UNL     1      -6.767   0.720 -31.014  1.00  0.00     0.016 A 
HETATM   23  C   UNL     1      -5.989  -0.371 -31.411  1.00  0.00     0.037 A 
HETATM   24  C   UNL     1      -4.605  -0.250 -31.544  1.00  0.00     0.069 A 
HETATM   25  C   UNL     1      -3.998   0.969 -31.244  1.00  0.00     0.037 A 
HETATM   26  C   UNL     1      -4.777   2.065 -30.852  1.00  0.00     0.016 A 
BRANCH  24  27
HETATM   27  O   UNL     1      -3.971  -1.384 -31.968  1.00  0.00    -0.347 OA
BRANCH  27  28
HETATM   28  C   UNL     1      -3.768  -1.527 -33.375  1.00  0.00     0.214 C 
BRANCH  28  29
HETATM   29  C   UNL     1      -4.645  -2.636 -33.909  1.00  0.00    -0.034 A 
HETATM   30  C   UNL     1      -5.936  -2.348 -34.377  1.00  0.00     0.009 A 
HETATM   31  C   UNL     1      -6.749  -3.360 -34.891  1.00  0.00     0.001 A 
HETATM   32  C   UNL     1      -6.279  -4.668 -34.953  1.00  0.00     0.000 A 
HETATM   33  C   UNL     1      -4.993  -4.967 -34.507  1.00  0.00     0.001 A 
HETATM   34  C   UNL     1      -4.178  -3.957 -33.994  1.00  0.00     0.009 A 
ENDBRANCH  28  29
ENDBRANCH  27  28
ENDBRANCH  24  27
ENDBRANCH   1  21
TORSDOF 6
ENDMDL
MODEL 6
REMARK VINA RESULT:      -8.5      2.459      4.075
REMARK  6 active torsions:
REMARK  status: ('A' for Active; 'I' for Inactive)
REMARK    1  A    between atoms: C_4  and  C_5 
REMARK    2  A    between atoms: C_5  and  O_6 
REMARK    3  A    between atoms: O_6  and  C_7 
REMARK    4  A    between atoms: C_10  and  C_11 
REMARK    5  A    between atoms: C_17  and  C_18 
REMARK    6  A    between atoms: C_26  and  N_27 
ROOT
HETATM    1  C   UNL     1     -10.213   3.733 -31.895  1.00  0.00     0.072 A 
HETATM    2  N   UNL     1      -9.804   4.920 -31.321  1.00  0.00    -0.274 N 
HETATM    3  H   UNL     1      -8.853   5.214 -31.121  1.00  0.00     0.189 HD
HETATM    4  N   UNL     1     -10.811   5.753 -30.992  1.00  0.00    -0.148 NA
HETATM    5  C   UNL     1     -11.880   5.061 -31.358  1.00  0.00     0.199 A 
HETATM    6  C   UNL     1     -11.595   3.820 -31.928  1.00  0.00     0.040 A 
HETATM    7  C   UNL     1     -12.688   2.939 -32.429  1.00  0.00     0.108 A 
HETATM    8  C   UNL     1     -14.053   3.533 -32.079  1.00  0.00     0.081 A 
HETATM    9  C   UNL     1     -15.191   2.712 -32.338  1.00  0.00     0.100 C 
HETATM   10  N   UNL     1     -16.112   2.041 -32.552  1.00  0.00    -0.191 NA
HETATM   11  C   UNL     1     -14.205   4.754 -31.501  1.00  0.00     0.140 A 
HETATM   12  O   UNL     1     -13.112   5.567 -31.173  1.00  0.00    -0.277 OA
ENDROOT
BRANCH   7  13
HETATM   13  C   UNL     1     -12.558   2.690 -33.910  1.00  0.00    -0.020 A 
HETATM   14  C   UNL     1     -12.534   1.473 -34.568  1.00  0.00     0.149 A 
HETATM   15  O   UNL     1     -12.398   1.649 -35.907  1.00  0.00    -0.334 OA
HETATM   16  C   UNL     1     -12.335   2.986 -36.125  1.00  0.00     0.142 A 
HETATM   17  C   UNL     1     -12.429   3.670 -34.937  1.00  0.00     0.034 A 
ENDBRANCH   7  13
BRANCH  11  18
HETATM   18  N   UNL     1     -15.412   5.329 -31.165  1.00  0.00    -0.282 NA
HETATM   19  H   UNL     1     -15.729   5.170 -30.211  1.00  0.00     0.126 HD
HETATM   20  H   UNL     1     -16.130   5.143 -31.861  1.00  0.00     0.126 HD
ENDBRANCH  11  18
BRANCH   1  21
HETATM   21  C   UNL     1      -9.284   2.702 -32.341  1.00  0.00    -0.007 A 
HETATM   22  C   UNL     1      -8.622   1.891 -31.414  1.00  0.00     0.016 A 
HETATM   23  C   UNL     1      -7.764   0.876 -31.846  1.00  0.00     0.037 A 
HETATM   24  C   UNL     1      -7.551   0.654 -33.207  1.00  0.00     0.069 A 
HETATM   25  C   UNL     1      -8.181   1.479 -34.137  1.00  0.00     0.037 A 
HETATM   26  C   UNL     1      -9.046   2.492 -33.705  1.00  0.00     0.016 A 
BRANCH  24  27
HETATM   27  O   UNL     1      -6.713  -0.388 -33.491  1.00  0.00    -0.347 OA
BRANCH  27  28
HETATM   28  C   UNL     1      -7.070  -1.227 -34.591  1.00  0.00     0.214 C 
BRANCH  28  29
HETATM   29  C   UNL     1      -6.262  -2.504 -34.546  1.00  0.00    -0.034 A 
HETATM   30  C   UNL     1      -6.824  -3.707 -34.998  1.00  0.00     0.009 A 
HETATM   31  C   UNL     1      -6.082  -4.890 -34.979  1.00  0.00     0.001 A 
HETATM   32  C   UNL     1      -4.767  -4.882 -34.520  1.00  0.00     0.000 A 
HETATM   33  C   UNL     1      -4.191  -3.691 -34.084  1.00  0.00     0.001 A 
HETATM   34  C   UNL     1      -4.931  -2.507 -34.102  1.00  0.00     0.009 A 
ENDBRANCH  28  29
ENDBRANCH  27  28
ENDBRANCH  24  27
ENDBRANCH   1  21
TORSDOF 6
ENDMDL
MODEL 7
REMARK VINA RESULT:      -8.4      5.222      7.253
REMARK  6 active torsions:
REMARK  status: ('A' for Active; 'I' for Inactive)
REMARK    1  A    between atoms: C_4  and  C_5 
REMARK    2  A    between atoms: C_5  and  O_6 
REMARK    3  A    between atoms: O_6  and  C_7 
REMARK    4  A    between atoms: C_10  and  C_11 
REMARK    5  A    between atoms: C_17  and  C_18 
REMARK    6  A    between atoms: C_26  and  N_27 
ROOT
HETATM    1  C   UNL     1      -5.257   4.736 -29.844  1.00  0.00     0.072 A 
HETATM    2  N   UNL     1      -5.763   4.525 -28.576  1.00  0.00    -0.274 N 
HETATM    3  H   UNL     1      -6.340   3.751 -28.262  1.00  0.00     0.189 HD
HETATM    4  N   UNL     1      -5.442   5.484 -27.685  1.00  0.00    -0.148 NA
HETATM    5  C   UNL     1      -4.728   6.325 -28.420  1.00  0.00     0.199 A 
HETATM    6  C   UNL     1      -4.562   5.930 -29.747  1.00  0.00     0.040 A 
HETATM    7  C   UNL     1      -3.749   6.747 -30.692  1.00  0.00     0.108 A 
HETATM    8  C   UNL     1      -3.315   8.055 -30.028  1.00  0.00     0.081 A 
HETATM    9  C   UNL     1      -2.680   9.018 -30.869  1.00  0.00     0.100 C 
HETATM   10  N   UNL     1      -2.165   9.796 -31.557  1.00  0.00    -0.191 NA
HETATM   11  C   UNL     1      -3.554   8.337 -28.719  1.00  0.00     0.140 A 
HETATM   12  O   UNL     1      -4.227   7.447 -27.873  1.00  0.00    -0.277 OA
ENDROOT
BRANCH   7  13
HETATM   13  C   UNL     1      -2.565   5.973 -31.210  1.00  0.00    -0.020 A 
HETATM   14  C   UNL     1      -1.424   5.601 -30.522  1.00  0.00     0.149 A 
HETATM   15  O   UNL     1      -0.573   4.916 -31.327  1.00  0.00    -0.334 OA
HETATM   16  C   UNL     1      -1.161   4.838 -32.547  1.00  0.00     0.142 A 
HETATM   17  C   UNL     1      -2.382   5.467 -32.532  1.00  0.00     0.034 A 
ENDBRANCH   7  13
BRANCH  11  18
HETATM   18  N   UNL     1      -3.186   9.500 -28.078  1.00  0.00    -0.282 NA
HETATM   19  H   UNL     1      -3.927  10.182 -27.935  1.00  0.00     0.126 HD
HETATM   20  H   UNL     1      -2.342   9.906 -28.477  1.00  0.00     0.126 HD
ENDBRANCH  11  18
BRANCH   1  21
HETATM   21  C   UNL     1      -5.470   3.811 -30.950  1.00  0.00    -0.007 A 
HETATM   22  C   UNL     1      -5.011   2.492 -30.874  1.00  0.00     0.016 A 
HETATM   23  C   UNL     1      -5.253   1.597 -31.919  1.00  0.00     0.037 A 
HETATM   24  C   UNL     1      -5.954   2.000 -33.056  1.00  0.00     0.069 A 
HETATM   25  C   UNL     1      -6.386   3.322 -33.154  1.00  0.00     0.037 A 
HETATM   26  C   UNL     1      -6.150   4.219 -32.105  1.00  0.00     0.016 A 
BRANCH  24  27
HETATM   27  O   UNL     1      -6.147   1.018 -33.987  1.00  0.00    -0.347 OA
BRANCH  27  28
HETATM   28  C   UNL     1      -7.017  -0.056 -33.627  1.00  0.00     0.214 C 
BRANCH  28  29
HETATM   29  C   UNL     1      -6.379  -1.378 -33.989  1.00  0.00    -0.034 A 
HETATM   30  C   UNL     1      -7.172  -2.435 -34.459  1.00  0.00     0.009 A 
HETATM   31  C   UNL     1      -6.593  -3.655 -34.815  1.00  0.00     0.001 A 
HETATM   32  C   UNL     1      -5.215  -3.828 -34.715  1.00  0.00     0.000 A 
HETATM   33  C   UNL     1      -4.413  -2.781 -34.265  1.00  0.00     0.001 A 
HETATM   34  C   UNL     1      -4.990  -1.561 -33.910  1.00  0.00     0.009 A 
ENDBRANCH  28  29
ENDBRANCH  27  28
ENDBRANCH  24  27
ENDBRANCH   1  21
TORSDOF 6
ENDMDL
MODEL 8
REMARK VINA RESULT:      -8.1      5.006      7.539
REMARK  6 active torsions:
REMARK  status: ('A' for Active; 'I' for Inactive)
REMARK    1  A    between atoms: C_4  and  C_5 
REMARK    2  A    between atoms: C_5  and  O_6 
REMARK    3  A    between atoms: O_6  and  C_7 
REMARK    4  A    between atoms: C_10  and  C_11 
REMARK    5  A    between atoms: C_17  and  C_18 
REMARK    6  A    between atoms: C_26  and  N_27 
ROOT
HETATM    1  C   UNL     1      -6.131   3.081 -32.131  1.00  0.00     0.072 A 
HETATM    2  N   UNL     1      -6.367   1.731 -32.294  1.00  0.00    -0.274 N 
HETATM    3  H   UNL     1      -5.752   1.043 -32.717  1.00  0.00     0.189 HD
HETATM    4  N   UNL     1      -7.567   1.319 -31.838  1.00  0.00    -0.148 NA
HETATM    5  C   UNL     1      -8.101   2.447 -31.391  1.00  0.00     0.199 A 
HETATM    6  C   UNL     1      -7.278   3.565 -31.526  1.00  0.00     0.040 A 
HETATM    7  C   UNL     1      -7.718   4.901 -31.032  1.00  0.00     0.108 A 
HETATM    8  C   UNL     1      -9.168   4.840 -30.549  1.00  0.00     0.081 A 
HETATM    9  C   UNL     1      -9.782   6.084 -30.214  1.00  0.00     0.100 C 
HETATM   10  N   UNL     1     -10.276   7.097 -29.943  1.00  0.00    -0.191 NA
HETATM   11  C   UNL     1      -9.879   3.683 -30.481  1.00  0.00     0.140 A 
HETATM   12  O   UNL     1      -9.335   2.448 -30.857  1.00  0.00    -0.277 OA
ENDROOT
BRANCH   7  13
HETATM   13  C   UNL     1      -6.800   5.420 -29.957  1.00  0.00    -0.020 A 
HETATM   14  C   UNL     1      -6.771   5.067 -28.619  1.00  0.00     0.149 A 
HETATM   15  O   UNL     1      -5.806   5.754 -27.957  1.00  0.00    -0.334 OA
HETATM   16  C   UNL     1      -5.200   6.558 -28.865  1.00  0.00     0.142 A 
HETATM   17  C   UNL     1      -5.768   6.394 -30.106  1.00  0.00     0.034 A 
ENDBRANCH   7  13
BRANCH  11  18
HETATM   18  N   UNL     1     -11.186   3.577 -30.055  1.00  0.00    -0.282 NA
HETATM   19  H   UNL     1     -11.337   3.017 -29.219  1.00  0.00     0.126 HD
HETATM   20  H   UNL     1     -11.817   3.337 -30.817  1.00  0.00     0.126 HD
ENDBRANCH  11  18
BRANCH   1  21
HETATM   21  C   UNL     1      -4.889   3.728 -32.539  1.00  0.00    -0.007 A 
HETATM   22  C   UNL     1      -3.703   3.497 -31.836  1.00  0.00     0.016 A 
HETATM   23  C   UNL     1      -2.506   4.086 -32.253  1.00  0.00     0.037 A 
HETATM   24  C   UNL     1      -2.472   4.913 -33.376  1.00  0.00     0.069 A 
HETATM   25  C   UNL     1      -3.657   5.175 -34.063  1.00  0.00     0.037 A 
HETATM   26  C   UNL     1      -4.855   4.580 -33.649  1.00  0.00     0.016 A 
BRANCH  24  27
HETATM   27  O   UNL     1      -1.234   5.397 -33.691  1.00  0.00    -0.347 OA
BRANCH  27  28
HETATM   28  C   UNL     1      -1.031   6.805 -33.550  1.00  0.00     0.214 C 
BRANCH  28  29
HETATM   29  C   UNL     1      -0.856   7.154 -32.090  1.00  0.00    -0.034 A 
HETATM   30  C   UNL     1      -1.841   7.898 -31.423  1.00  0.00     0.009 A 
HETATM   31  C   UNL     1      -1.700   8.212 -30.070  1.00  0.00     0.001 A 
HETATM   32  C   UNL     1      -0.581   7.777 -29.366  1.00  0.00     0.000 A 
HETATM   33  C   UNL     1       0.397   7.023 -30.011  1.00  0.00     0.001 A 
HETATM   34  C   UNL     1       0.258   6.708 -31.364  1.00  0.00     0.009 A 
ENDBRANCH  28  29
ENDBRANCH  27  28
ENDBRANCH  24  27
ENDBRANCH   1  21
TORSDOF 6
ENDMDL
MODEL 9
REMARK VINA RESULT:      -8.1      3.528      5.328
REMARK  6 active torsions:
REMARK  status: ('A' for Active; 'I' for Inactive)
REMARK    1  A    between atoms: C_4  and  C_5 
REMARK    2  A    between atoms: C_5  and  O_6 
REMARK    3  A    between atoms: O_6  and  C_7 
REMARK    4  A    between atoms: C_10  and  C_11 
REMARK    5  A    between atoms: C_17  and  C_18 
REMARK    6  A    between atoms: C_26  and  N_27 
ROOT
HETATM    1  C   UNL     1      -8.930   1.335 -32.609  1.00  0.00     0.072 A 
HETATM    2  N   UNL     1      -9.179   0.003 -32.344  1.00  0.00    -0.274 N 
HETATM    3  H   UNL     1      -8.550  -0.670 -31.917  1.00  0.00     0.189 HD
HETATM    4  N   UNL     1     -10.402  -0.419 -32.721  1.00  0.00    -0.148 NA
HETATM    5  C   UNL     1     -10.928   0.677 -33.249  1.00  0.00     0.199 A 
HETATM    6  C   UNL     1     -10.092   1.793 -33.208  1.00  0.00     0.040 A 
HETATM    7  C   UNL     1     -10.553   3.113 -33.724  1.00  0.00     0.108 A 
HETATM    8  C   UNL     1     -11.923   2.976 -34.391  1.00  0.00     0.081 A 
HETATM    9  C   UNL     1     -12.411   4.121 -35.089  1.00  0.00     0.100 C 
HETATM   10  N   UNL     1     -12.802   5.055 -35.653  1.00  0.00    -0.191 NA
HETATM   11  C   UNL     1     -12.639   1.820 -34.383  1.00  0.00     0.140 A 
HETATM   12  O   UNL     1     -12.170   0.654 -33.763  1.00  0.00    -0.277 OA
ENDROOT
BRANCH   7  13
HETATM   13  C   UNL     1     -10.572   4.154 -32.635  1.00  0.00    -0.020 A 
HETATM   14  C   UNL     1     -11.321   4.154 -31.472  1.00  0.00     0.149 A 
HETATM   15  O   UNL     1     -11.075   5.268 -30.736  1.00  0.00    -0.334 OA
HETATM   16  C   UNL     1     -10.159   5.997 -31.420  1.00  0.00     0.142 A 
HETATM   17  C   UNL     1      -9.816   5.362 -32.589  1.00  0.00     0.034 A 
ENDBRANCH   7  13
BRANCH  11  18
HETATM   18  N   UNL     1     -13.873   1.646 -34.971  1.00  0.00    -0.282 NA
HETATM   19  H   UNL     1     -13.909   0.981 -35.740  1.00  0.00     0.126 HD
HETATM   20  H   UNL     1     -14.320   2.534 -35.190  1.00  0.00     0.126 HD
ENDBRANCH  11  18
BRANCH   1  21
HETATM   21  C   UNL     1      -7.677   1.995 -32.265  1.00  0.00    -0.007 A 
HETATM   22  C   UNL     1      -7.425   2.405 -30.952  1.00  0.00     0.016 A 
HETATM   23  C   UNL     1      -6.207   3.001 -30.618  1.00  0.00     0.037 A 
HETATM   24  C   UNL     1      -5.220   3.198 -31.584  1.00  0.00     0.069 A 
HETATM   25  C   UNL     1      -5.476   2.823 -32.902  1.00  0.00     0.037 A 
HETATM   26  C   UNL     1      -6.694   2.219 -33.238  1.00  0.00     0.016 A 
BRANCH  24  27
HETATM   27  O   UNL     1      -4.066   3.762 -31.116  1.00  0.00    -0.347 OA
BRANCH  27  28
HETATM   28  C   UNL     1      -2.846   3.353 -31.735  1.00  0.00     0.214 C 
BRANCH  28  29
HETATM   29  C   UNL     1      -2.223   4.522 -32.464  1.00  0.00    -0.034 A 
HETATM   30  C   UNL     1      -2.149   4.518 -33.865  1.00  0.00     0.009 A 
HETATM   31  C   UNL     1      -1.593   5.599 -34.551  1.00  0.00     0.001 A 
HETATM   32  C   UNL     1      -1.116   6.701 -33.847  1.00  0.00     0.000 A 
HETATM   33  C   UNL     1      -1.197   6.726 -32.456  1.00  0.00     0.001 A 
HETATM   34  C   UNL     1      -1.753   5.646 -31.768  1.00  0.00     0.009 A 
ENDBRANCH  28  29
ENDBRANCH  27  28
ENDBRANCH  24  27
ENDBRANCH   1  21
TORSDOF 6
ENDMDL
MODEL 10
REMARK VINA RESULT:      -8.1      4.731      7.479
REMARK  6 active torsions:
REMARK  status: ('A' for Active; 'I' for Inactive)
REMARK    1  A    between atoms: C_4  and  C_5 
REMARK    2  A    between atoms: C_5  and  O_6 
REMARK    3  A    between atoms: O_6  and  C_7 
REMARK    4  A    between atoms: C_10  and  C_11 
REMARK    5  A    between atoms: C_17  and  C_18 
REMARK    6  A    between atoms: C_26  and  N_27 
ROOT
HETATM    1  C   UNL     1      -5.584   1.992 -33.052  1.00  0.00     0.072 A 
HETATM    2  N   UNL     1      -5.079   0.707 -33.086  1.00  0.00    -0.274 N 
HETATM    3  H   UNL     1      -4.110   0.427 -33.200  1.00  0.00     0.189 HD
HETATM    4  N   UNL     1      -6.012  -0.258 -32.961  1.00  0.00    -0.148 NA
HETATM    5  C   UNL     1      -7.132   0.443 -32.861  1.00  0.00     0.199 A 
HETATM    6  C   UNL     1      -6.950   1.826 -32.898  1.00  0.00     0.040 A 
HETATM    7  C   UNL     1      -8.108   2.753 -32.755  1.00  0.00     0.108 A 
HETATM    8  C   UNL     1      -9.420   1.967 -32.730  1.00  0.00     0.081 A 
HETATM    9  C   UNL     1     -10.623   2.733 -32.776  1.00  0.00     0.100 C 
HETATM   10  N   UNL     1     -11.598   3.360 -32.813  1.00  0.00    -0.191 NA
HETATM   11  C   UNL     1      -9.471   0.609 -32.716  1.00  0.00     0.140 A 
HETATM   12  O   UNL     1      -8.315  -0.183 -32.732  1.00  0.00    -0.277 OA
ENDROOT
BRANCH   7  13
HETATM   13  C   UNL     1      -7.965   3.628 -31.537  1.00  0.00    -0.020 A 
HETATM   14  C   UNL     1      -8.016   5.009 -31.471  1.00  0.00     0.149 A 
HETATM   15  O   UNL     1      -7.839   5.441 -30.196  1.00  0.00    -0.334 OA
HETATM   16  C   UNL     1      -7.674   4.337 -29.426  1.00  0.00     0.142 A 
HETATM   17  C   UNL     1      -7.743   3.201 -30.194  1.00  0.00     0.034 A 
ENDBRANCH   7  13
BRANCH  11  18
HETATM   18  N   UNL     1     -10.626  -0.143 -32.696  1.00  0.00    -0.282 NA
HETATM   19  H   UNL     1     -11.249   0.022 -31.909  1.00  0.00     0.126 HD
HETATM   20  H   UNL     1     -10.442  -1.130 -32.861  1.00  0.00     0.126 HD
ENDBRANCH  11  18
BRANCH   1  21
HETATM   21  C   UNL     1      -4.745   3.180 -33.152  1.00  0.00    -0.007 A 
HETATM   22  C   UNL     1      -5.167   4.289 -33.891  1.00  0.00     0.016 A 
HETATM   23  C   UNL     1      -4.379   5.442 -33.951  1.00  0.00     0.037 A 
HETATM   24  C   UNL     1      -3.160   5.508 -33.277  1.00  0.00     0.069 A 
HETATM   25  C   UNL     1      -2.716   4.395 -32.564  1.00  0.00     0.037 A 
HETATM   26  C   UNL     1      -3.508   3.241 -32.498  1.00  0.00     0.016 A 
BRANCH  24  27
HETATM   27  O   UNL     1      -2.506   6.703 -33.394  1.00  0.00    -0.347 OA
BRANCH  27  28
HETATM   28  C   UNL     1      -1.102   6.703 -33.133  1.00  0.00     0.214 C 
BRANCH  28  29
HETATM   29  C   UNL     1      -0.843   7.157 -31.715  1.00  0.00    -0.034 A 
HETATM   30  C   UNL     1      -1.769   7.984 -31.062  1.00  0.00     0.009 A 
HETATM   31  C   UNL     1      -1.551   8.395 -29.745  1.00  0.00     0.001 A 
HETATM   32  C   UNL     1      -0.412   7.975 -29.063  1.00  0.00     0.000 A 
HETATM   33  C   UNL     1       0.508   7.140 -29.693  1.00  0.00     0.001 A 
HETATM   34  C   UNL     1       0.291   6.727 -31.009  1.00  0.00     0.009 A 
ENDBRANCH  28  29
ENDBRANCH  27  28
ENDBRANCH  24  27
ENDBRANCH   1  21
TORSDOF 6
ENDMDL
