MODEL 1
REMARK VINA RESULT:      -8.5      0.000      0.000
REMARK  6 active torsions:
REMARK  status: ('A' for Active; 'I' for Inactive)
REMARK    1  A    between atoms: CG_8  and  CB_9 
REMARK    2  A    between atoms: CB_9  and  CA_10 
REMARK    3  A    between atoms: CA_10  and  N_11 
REMARK    4  A    between atoms: CA_10  and  C_12 
REMARK       I    between atoms: N_11  and  C_18 
REMARK    5  A    between atoms: C_12  and  O_13 
REMARK       I    between atoms: C_18  and  N_19 
REMARK    6  A    between atoms: N_19  and  C_20 
ROOT
ATOM      1  CA  TRP A   1      -9.322   2.777 -32.229  1.00  0.00     0.114 C 
ENDROOT
BRANCH   1   2
ATOM      2  CB  TRP A   1     -10.325   3.777 -32.848  1.00  0.00     0.068 C 
BRANCH   2   3
ATOM      3  CG  TRP A   1     -11.754   3.455 -32.508  1.00  0.00    -0.028 A 
ATOM      4  CD2 TRP A   1     -12.592   2.500 -33.169  1.00  0.00    -0.002 A 
ATOM      5  CE3 TRP A   1     -12.409   1.621 -34.256  1.00  0.00     0.014 A 
ATOM      6  CE2 TRP A   1     -13.828   2.509 -32.520  1.00  0.00     0.042 A 
ATOM      7  CZ3 TRP A   1     -13.458   0.782 -34.648  1.00  0.00     0.001 A 
ATOM      8  CH2 TRP A   1     -14.679   0.811 -33.978  1.00  0.00     0.002 A 
ATOM      9  CZ2 TRP A   1     -14.889   1.678 -32.902  1.00  0.00     0.030 A 
ATOM     10  NE1 TRP A   1     -13.746   3.432 -31.505  1.00  0.00    -0.365 N 
ATOM     11  HE1 TRP A   1     -14.494   3.638 -30.859  1.00  0.00     0.165 HD
ATOM     12  CD1 TRP A   1     -12.504   4.006 -31.486  1.00  0.00     0.096 A 
ENDBRANCH   2   3
ENDBRANCH   1   2
BRANCH   1  13
ATOM     13  N   TRP A   1      -8.545   2.055 -33.246  1.00  0.00    -0.336 N 
HETATM   14  C   UNK A   0      -8.072   0.777 -33.024  1.00  0.00     0.321 C 
HETATM   15  N   UNK A   0      -7.263   0.369 -34.063  1.00  0.00    -0.309 N 
HETATM   16  O   UNK A   0      -8.369   0.124 -32.034  1.00  0.00    -0.247 OA
HETATM   17  H   UNK A   0      -7.349   0.909 -34.910  1.00  0.00     0.170 HD
ATOM     18  H   TRP A   1      -7.920   2.646 -33.775  1.00  0.00     0.164 HD
BRANCH  15  19
HETATM   19  C   UNK A   0      -6.491  -0.808 -34.131  1.00  0.00     0.036 A 
HETATM   20  C   UNK A   0      -6.976  -2.018 -34.637  1.00  0.00     0.039 A 
HETATM   21  C   UNK A   0      -6.139  -3.124 -34.638  1.00  0.00    -0.024 A 
HETATM   22  C   UNK A   0      -4.844  -3.051 -34.153  1.00  0.00    -0.026 A 
HETATM   23  C   UNK A   0      -6.404  -4.497 -35.132  1.00  0.00     0.207 C 
HETATM   24  C   UNK A   0      -4.189  -4.373 -34.308  1.00  0.00     0.207 C 
HETATM   25  C   UNK A   0      -4.339  -1.868 -33.648  1.00  0.00     0.012 A 
HETATM   26  O   UNK A   0      -5.255  -5.268 -34.701  1.00  0.00    -0.382 OA
HETATM   27  C   UNK A   0      -5.175  -0.745 -33.632  1.00  0.00     0.030 A 
ENDBRANCH  15  19
ENDBRANCH   1  13
BRANCH   1  28
ATOM     28  C   TRP A   1      -8.433   3.471 -31.180  1.00  0.00     0.189 C 
BRANCH  28  29
ATOM     29  O   TRP A   1      -8.183   2.588 -30.085  1.00  0.00    -0.399 OA
ATOM     30  H   TRP A   1      -8.803   2.842 -29.379  1.00  0.00     0.209 HD
ENDBRANCH  28  29
ENDBRANCH   1  28
TORSDOF 6
ENDMDL
MODEL 2
REMARK VINA RESULT:      -8.4      4.387      8.498
REMARK  6 active torsions:
REMARK  status: ('A' for Active; 'I' for Inactive)
REMARK    1  A    between atoms: CG_8  and  CB_9 
REMARK    2  A    between atoms: CB_9  and  CA_10 
REMARK    3  A    between atoms: CA_10  and  N_11 
REMARK    4  A    between atoms: CA_10  and  C_12 
REMARK       I    between atoms: N_11  and  C_18 
REMARK    5  A    between atoms: C_12  and  O_13 
REMARK       I    between atoms: C_18  and  N_19 
REMARK    6  A    between atoms: N_19  and  C_20 
ROOT
ATOM      1  CA  TRP A   1      -7.157   0.719 -32.120  1.00  0.00     0.114 C 
ENDROOT
BRANCH   1   2
ATOM      2  CB  TRP A   1      -6.789   0.304 -33.562  1.00  0.00     0.068 C 
BRANCH   2   3
ATOM      3  CG  TRP A   1      -5.720  -0.752 -33.611  1.00  0.00    -0.028 A 
ATOM      4  CD2 TRP A   1      -5.874  -2.100 -34.068  1.00  0.00    -0.002 A 
ATOM      5  CE3 TRP A   1      -6.958  -2.846 -34.573  1.00  0.00     0.014 A 
ATOM      6  CE2 TRP A   1      -4.630  -2.723 -33.961  1.00  0.00     0.042 A 
ATOM      7  CZ3 TRP A   1      -6.760  -4.177 -34.958  1.00  0.00     0.001 A 
ATOM      8  CH2 TRP A   1      -5.505  -4.770 -34.842  1.00  0.00     0.002 A 
ATOM      9  CZ2 TRP A   1      -4.415  -4.055 -34.337  1.00  0.00     0.030 A 
ATOM     10  NE1 TRP A   1      -3.753  -1.792 -33.458  1.00  0.00    -0.365 N 
ATOM     11  HE1 TRP A   1      -2.772  -1.963 -33.289  1.00  0.00     0.165 HD
ATOM     12  CD1 TRP A   1      -4.395  -0.602 -33.245  1.00  0.00     0.096 A 
ENDBRANCH   2   3
ENDBRANCH   1   2
BRANCH   1  13
ATOM     13  N   TRP A   1      -6.142   1.588 -31.506  1.00  0.00    -0.336 N 
HETATM   14  C   UNK A   0      -5.611   2.669 -32.180  1.00  0.00     0.321 C 
HETATM   15  N   UNK A   0      -4.590   3.242 -31.454  1.00  0.00    -0.309 N 
HETATM   16  O   UNK A   0      -6.032   3.045 -33.265  1.00  0.00    -0.247 OA
HETATM   17  H   UNK A   0      -4.561   2.986 -30.479  1.00  0.00     0.170 HD
ATOM     18  H   TRP A   1      -5.482   1.093 -30.924  1.00  0.00     0.164 HD
BRANCH  15  19
HETATM   19  C   UNK A   0      -3.720   4.270 -31.870  1.00  0.00     0.036 A 
HETATM   20  C   UNK A   0      -3.885   5.611 -31.510  1.00  0.00     0.039 A 
HETATM   21  C   UNK A   0      -2.984   6.548 -31.993  1.00  0.00    -0.024 A 
HETATM   22  C   UNK A   0      -1.933   6.182 -32.816  1.00  0.00    -0.026 A 
HETATM   23  C   UNK A   0      -2.930   8.009 -31.744  1.00  0.00     0.207 C 
HETATM   24  C   UNK A   0      -1.130   7.385 -33.147  1.00  0.00     0.207 C 
HETATM   25  C   UNK A   0      -1.745   4.865 -33.188  1.00  0.00     0.012 A 
HETATM   26  O   UNK A   0      -1.911   8.497 -32.651  1.00  0.00    -0.382 OA
HETATM   27  C   UNK A   0      -2.652   3.908 -32.715  1.00  0.00     0.030 A 
ENDBRANCH  15  19
ENDBRANCH   1  13
BRANCH   1  28
ATOM     28  C   TRP A   1      -8.572   1.324 -32.067  1.00  0.00     0.189 C 
BRANCH  28  29
ATOM     29  O   TRP A   1      -9.383   0.600 -31.141  1.00  0.00    -0.399 OA
ATOM     30  H   TRP A   1     -10.059   0.139 -31.668  1.00  0.00     0.209 HD
ENDBRANCH  28  29
ENDBRANCH   1  28
TORSDOF 6
ENDMDL
MODEL 3
REMARK VINA RESULT:      -8.2      4.644      6.919
REMARK  6 active torsions:
REMARK  status: ('A' for Active; 'I' for Inactive)
REMARK    1  A    between atoms: CG_8  and  CB_9 
REMARK    2  A    between atoms: CB_9  and  CA_10 
REMARK    3  A    between atoms: CA_10  and  N_11 
REMARK    4  A    between atoms: CA_10  and  C_12 
REMARK       I    between atoms: N_11  and  C_18 
REMARK    5  A    between atoms: C_12  and  O_13 
REMARK       I    between atoms: C_18  and  N_19 
REMARK    6  A    between atoms: N_19  and  C_20 
ROOT
ATOM      1  CA  TRP A   1      -5.977   3.406 -31.254  1.00  0.00     0.114 C 
ENDROOT
BRANCH   1   2
ATOM      2  CB  TRP A   1      -5.476   4.841 -31.531  1.00  0.00     0.068 C 
BRANCH   2   3
ATOM      3  CG  TRP A   1      -4.772   4.968 -32.853  1.00  0.00    -0.028 A 
ATOM      4  CD2 TRP A   1      -3.369   5.175 -33.056  1.00  0.00    -0.002 A 
ATOM      5  CE3 TRP A   1      -2.265   5.325 -32.191  1.00  0.00     0.014 A 
ATOM      6  CE2 TRP A   1      -3.146   5.212 -34.433  1.00  0.00     0.042 A 
ATOM      7  CZ3 TRP A   1      -0.986   5.497 -32.730  1.00  0.00     0.001 A 
ATOM      8  CH2 TRP A   1      -0.794   5.527 -34.109  1.00  0.00     0.002 A 
ATOM      9  CZ2 TRP A   1      -1.872   5.389 -34.989  1.00  0.00     0.030 A 
ATOM     10  NE1 TRP A   1      -4.364   5.035 -35.045  1.00  0.00    -0.365 N 
ATOM     11  HE1 TRP A   1      -4.501   5.004 -36.045  1.00  0.00     0.165 HD
ATOM     12  CD1 TRP A   1      -5.349   4.886 -34.107  1.00  0.00     0.096 A 
ENDBRANCH   2   3
ENDBRANCH   1   2
BRANCH   1  13
ATOM     13  N   TRP A   1      -5.328   2.406 -32.114  1.00  0.00    -0.336 N 
HETATM   14  C   UNK A   0      -5.997   1.279 -32.547  1.00  0.00     0.321 C 
HETATM   15  N   UNK A   0      -5.143   0.433 -33.221  1.00  0.00    -0.309 N 
HETATM   16  O   UNK A   0      -7.192   1.103 -32.353  1.00  0.00    -0.247 OA
HETATM   17  H   UNK A   0      -4.278   0.852 -33.527  1.00  0.00     0.170 HD
ATOM     18  H   TRP A   1      -4.353   2.255 -31.896  1.00  0.00     0.164 HD
BRANCH  15  19
HETATM   19  C   UNK A   0      -5.422  -0.867 -33.686  1.00  0.00     0.036 A 
HETATM   20  C   UNK A   0      -4.525  -1.934 -33.575  1.00  0.00     0.039 A 
HETATM   21  C   UNK A   0      -4.891  -3.170 -34.087  1.00  0.00    -0.024 A 
HETATM   22  C   UNK A   0      -6.117  -3.365 -34.698  1.00  0.00    -0.026 A 
HETATM   23  C   UNK A   0      -4.136  -4.447 -34.077  1.00  0.00     0.207 C 
HETATM   24  C   UNK A   0      -6.234  -4.783 -35.118  1.00  0.00     0.207 C 
HETATM   25  C   UNK A   0      -7.023  -2.329 -34.822  1.00  0.00     0.012 A 
HETATM   26  O   UNK A   0      -4.914  -5.337 -34.914  1.00  0.00    -0.382 OA
HETATM   27  C   UNK A   0      -6.665  -1.073 -34.318  1.00  0.00     0.030 A 
ENDBRANCH  15  19
ENDBRANCH   1  13
BRANCH   1  28
ATOM     28  C   TRP A   1      -5.867   3.066 -29.755  1.00  0.00     0.189 C 
BRANCH  28  29
ATOM     29  O   TRP A   1      -6.958   2.234 -29.358  1.00  0.00    -0.399 OA
ATOM     30  H   TRP A   1      -7.504   2.765 -28.754  1.00  0.00     0.209 HD
ENDBRANCH  28  29
ENDBRANCH   1  28
TORSDOF 6
ENDMDL
MODEL 4
REMARK VINA RESULT:      -8.1      7.206     10.205
REMARK  6 active torsions:
REMARK  status: ('A' for Active; 'I' for Inactive)
REMARK    1  A    between atoms: CG_8  and  CB_9 
REMARK    2  A    between atoms: CB_9  and  CA_10 
REMARK    3  A    between atoms: CA_10  and  N_11 
REMARK    4  A    between atoms: CA_10  and  C_12 
REMARK       I    between atoms: N_11  and  C_18 
REMARK    5  A    between atoms: C_12  and  O_13 
REMARK       I    between atoms: C_18  and  N_19 
REMARK    6  A    between atoms: N_19  and  C_20 
ROOT
ATOM      1  CA  TRP A   1      -1.447   6.434 -32.220  1.00  0.00     0.114 C 
ENDROOT
BRANCH   1   2
ATOM      2  CB  TRP A   1      -0.022   6.691 -31.683  1.00  0.00     0.068 C 
BRANCH   2   3
ATOM      3  CG  TRP A   1       0.157   6.235 -30.262  1.00  0.00    -0.028 A 
ATOM      4  CD2 TRP A   1      -0.120   6.997 -29.081  1.00  0.00    -0.002 A 
ATOM      5  CE3 TRP A   1      -0.600   8.302 -28.846  1.00  0.00     0.014 A 
ATOM      6  CE2 TRP A   1       0.167   6.186 -27.982  1.00  0.00     0.042 A 
ATOM      7  CZ3 TRP A   1      -0.781   8.744 -27.531  1.00  0.00     0.001 A 
ATOM      8  CH2 TRP A   1      -0.488   7.910 -26.455  1.00  0.00     0.002 A 
ATOM      9  CZ2 TRP A   1      -0.005   6.614 -26.660  1.00  0.00     0.030 A 
ATOM     10  NE1 TRP A   1       0.602   4.978 -28.474  1.00  0.00    -0.365 N 
ATOM     11  HE1 TRP A   1       0.867   4.191 -27.900  1.00  0.00     0.165 HD
ATOM     12  CD1 TRP A   1       0.599   4.994 -29.842  1.00  0.00     0.096 A 
ENDBRANCH   2   3
ENDBRANCH   1   2
BRANCH   1  13
ATOM     13  N   TRP A   1      -2.041   5.203 -31.678  1.00  0.00    -0.336 N 
HETATM   14  C   UNK A   0      -2.524   4.208 -32.503  1.00  0.00     0.321 C 
HETATM   15  N   UNK A   0      -3.150   3.225 -31.767  1.00  0.00    -0.309 N 
HETATM   16  O   UNK A   0      -2.379   4.226 -33.717  1.00  0.00    -0.247 OA
HETATM   17  H   UNK A   0      -2.939   3.228 -30.781  1.00  0.00     0.170 HD
ATOM     18  H   TRP A   1      -2.583   5.350 -30.838  1.00  0.00     0.164 HD
BRANCH  15  19
HETATM   19  C   UNK A   0      -3.884   2.127 -32.260  1.00  0.00     0.036 A 
HETATM   20  C   UNK A   0      -3.385   0.821 -32.293  1.00  0.00     0.039 A 
HETATM   21  C   UNK A   0      -4.182  -0.184 -32.820  1.00  0.00    -0.024 A 
HETATM   22  C   UNK A   0      -5.451   0.079 -33.307  1.00  0.00    -0.026 A 
HETATM   23  C   UNK A   0      -3.896  -1.634 -32.948  1.00  0.00     0.207 C 
HETATM   24  C   UNK A   0      -6.067  -1.186 -33.776  1.00  0.00     0.207 C 
HETATM   25  C   UNK A   0      -5.969   1.360 -33.286  1.00  0.00     0.012 A 
HETATM   26  O   UNK A   0      -4.993  -2.154 -33.739  1.00  0.00    -0.382 OA
HETATM   27  C   UNK A   0      -5.173   2.388 -32.765  1.00  0.00     0.030 A 
ENDBRANCH  15  19
ENDBRANCH   1  13
BRANCH   1  28
ATOM     28  C   TRP A   1      -2.343   7.670 -32.013  1.00  0.00     0.189 C 
BRANCH  28  29
ATOM     29  O   TRP A   1      -1.739   8.822 -32.602  1.00  0.00    -0.399 OA
ATOM     30  H   TRP A   1      -0.877   8.934 -32.165  1.00  0.00     0.209 HD
ENDBRANCH  28  29
ENDBRANCH   1  28
TORSDOF 6
ENDMDL
MODEL 5
REMARK VINA RESULT:      -8.1      4.130      6.722
REMARK  6 active torsions:
REMARK  status: ('A' for Active; 'I' for Inactive)
REMARK    1  A    between atoms: CG_8  and  CB_9 
REMARK    2  A    between atoms: CB_9  and  CA_10 
REMARK    3  A    between atoms: CA_10  and  N_11 
REMARK    4  A    between atoms: CA_10  and  C_12 
REMARK       I    between atoms: N_11  and  C_18 
REMARK    5  A    between atoms: C_12  and  O_13 
REMARK       I    between atoms: C_18  and  N_19 
REMARK    6  A    between atoms: N_19  and  C_20 
ROOT
ATOM      1  CA  TRP A   1      -6.463   3.523 -31.555  1.00  0.00     0.114 C 
ENDROOT
BRANCH   1   2
ATOM      2  CB  TRP A   1      -5.096   3.643 -30.847  1.00  0.00     0.068 C 
BRANCH   2   3
ATOM      3  CG  TRP A   1      -4.386   4.930 -31.164  1.00  0.00    -0.028 A 
ATOM      4  CD2 TRP A   1      -3.403   5.133 -32.186  1.00  0.00    -0.002 A 
ATOM      5  CE3 TRP A   1      -2.807   4.296 -33.152  1.00  0.00     0.014 A 
ATOM      6  CE2 TRP A   1      -3.026   6.475 -32.144  1.00  0.00     0.042 A 
ATOM      7  CZ3 TRP A   1      -1.867   4.830 -34.040  1.00  0.00     0.001 A 
ATOM      8  CH2 TRP A   1      -1.512   6.175 -33.975  1.00  0.00     0.002 A 
ATOM      9  CZ2 TRP A   1      -2.083   7.025 -33.023  1.00  0.00     0.030 A 
ATOM     10  NE1 TRP A   1      -3.749   7.068 -31.136  1.00  0.00    -0.365 N 
ATOM     11  HE1 TRP A   1      -3.690   8.045 -30.889  1.00  0.00     0.165 HD
ATOM     12  CD1 TRP A   1      -4.572   6.150 -30.541  1.00  0.00     0.096 A 
ENDBRANCH   2   3
ENDBRANCH   1   2
BRANCH   1  13
ATOM     13  N   TRP A   1      -6.436   2.576 -32.680  1.00  0.00    -0.336 N 
HETATM   14  C   UNK A   0      -6.199   1.230 -32.487  1.00  0.00     0.321 C 
HETATM   15  N   UNK A   0      -6.089   0.577 -33.696  1.00  0.00    -0.309 N 
HETATM   16  O   UNK A   0      -6.122   0.723 -31.377  1.00  0.00    -0.247 OA
HETATM   17  H   UNK A   0      -6.450   1.082 -34.491  1.00  0.00     0.170 HD
ATOM     18  H   TRP A   1      -6.027   2.957 -33.521  1.00  0.00     0.164 HD
BRANCH  15  19
HETATM   19  C   UNK A   0      -5.713  -0.764 -33.909  1.00  0.00     0.036 A 
HETATM   20  C   UNK A   0      -6.536  -1.703 -34.540  1.00  0.00     0.039 A 
HETATM   21  C   UNK A   0      -6.077  -3.005 -34.679  1.00  0.00    -0.024 A 
HETATM   22  C   UNK A   0      -4.832  -3.387 -34.212  1.00  0.00    -0.026 A 
HETATM   23  C   UNK A   0      -6.741  -4.166 -35.320  1.00  0.00     0.207 C 
HETATM   24  C   UNK A   0      -4.610  -4.820 -34.526  1.00  0.00     0.207 C 
HETATM   25  C   UNK A   0      -3.998  -2.480 -33.585  1.00  0.00     0.012 A 
HETATM   26  O   UNK A   0      -5.891  -5.295 -34.999  1.00  0.00    -0.382 OA
HETATM   27  C   UNK A   0      -4.450  -1.164 -33.429  1.00  0.00     0.030 A 
ENDBRANCH  15  19
ENDBRANCH   1  13
BRANCH   1  28
ATOM     28  C   TRP A   1      -7.581   3.213 -30.542  1.00  0.00     0.189 C 
BRANCH  28  29
ATOM     29  O   TRP A   1      -7.034   2.588 -29.380  1.00  0.00    -0.399 OA
ATOM     30  H   TRP A   1      -7.544   1.771 -29.241  1.00  0.00     0.209 HD
ENDBRANCH  28  29
ENDBRANCH   1  28
TORSDOF 6
ENDMDL
MODEL 6
REMARK VINA RESULT:      -8.0      7.198     10.276
REMARK  6 active torsions:
REMARK  status: ('A' for Active; 'I' for Inactive)
REMARK    1  A    between atoms: CG_8  and  CB_9 
REMARK    2  A    between atoms: CB_9  and  CA_10 
REMARK    3  A    between atoms: CA_10  and  N_11 
REMARK    4  A    between atoms: CA_10  and  C_12 
REMARK       I    between atoms: N_11  and  C_18 
REMARK    5  A    between atoms: C_12  and  O_13 
REMARK       I    between atoms: C_18  and  N_19 
REMARK    6  A    between atoms: N_19  and  C_20 
ROOT
ATOM      1  CA  TRP A   1      -0.972   6.380 -32.582  1.00  0.00     0.114 C 
ENDROOT
BRANCH   1   2
ATOM      2  CB  TRP A   1       0.154   6.984 -31.715  1.00  0.00     0.068 C 
BRANCH   2   3
ATOM      3  CG  TRP A   1       0.219   6.379 -30.340  1.00  0.00    -0.028 A 
ATOM      4  CD2 TRP A   1      -0.180   7.004 -29.114  1.00  0.00    -0.002 A 
ATOM      5  CE3 TRP A   1      -0.712   8.267 -28.786  1.00  0.00     0.014 A 
ATOM      6  CE2 TRP A   1       0.030   6.083 -28.087  1.00  0.00     0.042 A 
ATOM      7  CZ3 TRP A   1      -1.020   8.561 -27.453  1.00  0.00     0.001 A 
ATOM      8  CH2 TRP A   1      -0.801   7.619 -26.450  1.00  0.00     0.002 A 
ATOM      9  CZ2 TRP A   1      -0.269   6.361 -26.747  1.00  0.00     0.030 A 
ATOM     10  NE1 TRP A   1       0.538   4.943 -28.664  1.00  0.00    -0.365 N 
ATOM     11  HE1 TRP A   1       0.772   4.102 -28.156  1.00  0.00     0.165 HD
ATOM     12  CD1 TRP A   1       0.655   5.107 -30.017  1.00  0.00     0.096 A 
ENDBRANCH   2   3
ENDBRANCH   1   2
BRANCH   1  13
ATOM     13  N   TRP A   1      -1.711   5.315 -31.888  1.00  0.00    -0.336 N 
HETATM   14  C   UNK A   0      -2.301   4.275 -32.577  1.00  0.00     0.321 C 
HETATM   15  N   UNK A   0      -3.044   3.486 -31.725  1.00  0.00    -0.309 N 
HETATM   16  O   UNK A   0      -2.145   4.104 -33.778  1.00  0.00    -0.247 OA
HETATM   17  H   UNK A   0      -2.841   3.604 -30.745  1.00  0.00     0.170 HD
ATOM     18  H   TRP A   1      -2.238   5.641 -31.090  1.00  0.00     0.164 HD
BRANCH  15  19
HETATM   19  C   UNK A   0      -3.897   2.421 -32.077  1.00  0.00     0.036 A 
HETATM   20  C   UNK A   0      -5.162   2.603 -32.645  1.00  0.00     0.039 A 
HETATM   21  C   UNK A   0      -5.932   1.486 -32.932  1.00  0.00    -0.024 A 
HETATM   22  C   UNK A   0      -5.474   0.206 -32.672  1.00  0.00    -0.026 A 
HETATM   23  C   UNK A   0      -7.280   1.411 -33.547  1.00  0.00     0.207 C 
HETATM   24  C   UNK A   0      -6.496  -0.778 -33.106  1.00  0.00     0.207 C 
HETATM   25  C   UNK A   0      -4.228  -0.004 -32.111  1.00  0.00     0.012 A 
HETATM   26  O   UNK A   0      -7.661   0.019 -33.424  1.00  0.00    -0.382 OA
HETATM   27  C   UNK A   0      -3.442   1.115 -31.808  1.00  0.00     0.030 A 
ENDBRANCH  15  19
ENDBRANCH   1  13
BRANCH   1  28
ATOM     28  C   TRP A   1      -1.895   7.485 -33.132  1.00  0.00     0.189 C 
BRANCH  28  29
ATOM     29  O   TRP A   1      -2.201   7.234 -34.504  1.00  0.00    -0.399 OA
ATOM     30  H   TRP A   1      -1.711   7.896 -35.022  1.00  0.00     0.209 HD
ENDBRANCH  28  29
ENDBRANCH   1  28
TORSDOF 6
ENDMDL
MODEL 7
REMARK VINA RESULT:      -7.9      2.329      7.947
REMARK  6 active torsions:
REMARK  status: ('A' for Active; 'I' for Inactive)
REMARK    1  A    between atoms: CG_8  and  CB_9 
REMARK    2  A    between atoms: CB_9  and  CA_10 
REMARK    3  A    between atoms: CA_10  and  N_11 
REMARK    4  A    between atoms: CA_10  and  C_12 
REMARK       I    between atoms: N_11  and  C_18 
REMARK    5  A    between atoms: C_12  and  O_13 
REMARK       I    between atoms: C_18  and  N_19 
REMARK    6  A    between atoms: N_19  and  C_20 
ROOT
ATOM      1  CA  TRP A   1      -5.761   2.101 -31.626  1.00  0.00     0.114 C 
ENDROOT
BRANCH   1   2
ATOM      2  CB  TRP A   1      -5.842   0.697 -30.987  1.00  0.00     0.068 C 
BRANCH   2   3
ATOM      3  CG  TRP A   1      -5.037  -0.330 -31.734  1.00  0.00    -0.028 A 
ATOM      4  CD2 TRP A   1      -5.479  -1.114 -32.848  1.00  0.00    -0.002 A 
ATOM      5  CE3 TRP A   1      -6.689  -1.203 -33.565  1.00  0.00     0.014 A 
ATOM      6  CE2 TRP A   1      -4.410  -1.920 -33.243  1.00  0.00     0.042 A 
ATOM      7  CZ3 TRP A   1      -6.786  -2.084 -34.648  1.00  0.00     0.001 A 
ATOM      8  CH2 TRP A   1      -5.700  -2.874 -35.019  1.00  0.00     0.002 A 
ATOM      9  CZ2 TRP A   1      -4.491  -2.810 -34.321  1.00  0.00     0.030 A 
ATOM     10  NE1 TRP A   1      -3.360  -1.640 -32.402  1.00  0.00    -0.365 N 
ATOM     11  HE1 TRP A   1      -2.448  -2.069 -32.464  1.00  0.00     0.165 HD
ATOM     12  CD1 TRP A   1      -3.723  -0.684 -31.491  1.00  0.00     0.096 A 
ENDBRANCH   2   3
ENDBRANCH   1   2
BRANCH   1  13
ATOM     13  N   TRP A   1      -6.879   2.370 -32.543  1.00  0.00    -0.336 N 
HETATM   14  C   UNK A   0      -8.191   2.179 -32.161  1.00  0.00     0.321 C 
HETATM   15  N   UNK A   0      -9.042   2.367 -33.229  1.00  0.00    -0.309 N 
HETATM   16  O   UNK A   0      -8.513   1.898 -31.015  1.00  0.00    -0.247 OA
HETATM   17  H   UNK A   0      -8.642   2.857 -34.014  1.00  0.00     0.170 HD
ATOM     18  H   TRP A   1      -6.683   2.127 -33.504  1.00  0.00     0.164 HD
BRANCH  15  19
HETATM   19  C   UNK A   0     -10.430   2.125 -33.266  1.00  0.00     0.036 A 
HETATM   20  C   UNK A   0     -11.388   3.095 -32.954  1.00  0.00     0.039 A 
HETATM   21  C   UNK A   0     -12.730   2.746 -33.000  1.00  0.00    -0.024 A 
HETATM   22  C   UNK A   0     -13.133   1.468 -33.349  1.00  0.00    -0.026 A 
HETATM   23  C   UNK A   0     -13.924   3.585 -32.737  1.00  0.00     0.207 C 
HETATM   24  C   UNK A   0     -14.615   1.403 -33.337  1.00  0.00     0.207 C 
HETATM   25  C   UNK A   0     -12.208   0.491 -33.662  1.00  0.00     0.012 A 
HETATM   26  O   UNK A   0     -15.034   2.653 -32.742  1.00  0.00    -0.382 OA
HETATM   27  C   UNK A   0     -10.849   0.825 -33.612  1.00  0.00     0.030 A 
ENDBRANCH  15  19
ENDBRANCH   1  13
BRANCH   1  28
ATOM     28  C   TRP A   1      -5.602   3.188 -30.546  1.00  0.00     0.189 C 
BRANCH  28  29
ATOM     29  O   TRP A   1      -6.225   2.770 -29.331  1.00  0.00    -0.399 OA
ATOM     30  H   TRP A   1      -6.352   3.573 -28.795  1.00  0.00     0.209 HD
ENDBRANCH  28  29
ENDBRANCH   1  28
TORSDOF 6
ENDMDL
MODEL 8
REMARK VINA RESULT:      -7.7     14.693     16.307
REMARK  6 active torsions:
REMARK  status: ('A' for Active; 'I' for Inactive)
REMARK    1  A    between atoms: CG_8  and  CB_9 
REMARK    2  A    between atoms: CB_9  and  CA_10 
REMARK    3  A    between atoms: CA_10  and  N_11 
REMARK    4  A    between atoms: CA_10  and  C_12 
REMARK       I    between atoms: N_11  and  C_18 
REMARK    5  A    between atoms: C_12  and  O_13 
REMARK       I    between atoms: C_18  and  N_19 
REMARK    6  A    between atoms: N_19  and  C_20 
ROOT
ATOM      1  CA  TRP A   1      -6.622 -13.744 -36.032  1.00  0.00     0.114 C 
ENDROOT
BRANCH   1   2
ATOM      2  CB  TRP A   1      -7.645 -13.169 -37.035  1.00  0.00     0.068 C 
BRANCH   2   3
ATOM      3  CG  TRP A   1      -8.276 -14.228 -37.897  1.00  0.00    -0.028 A 
ATOM      4  CD2 TRP A   1      -9.275 -14.024 -38.902  1.00  0.00    -0.002 A 
ATOM      5  CE3 TRP A   1      -9.958 -12.892 -39.391  1.00  0.00     0.014 A 
ATOM      6  CE2 TRP A   1      -9.559 -15.268 -39.468  1.00  0.00     0.042 A 
ATOM      7  CZ3 TRP A   1     -10.889 -13.040 -40.425  1.00  0.00     0.001 A 
ATOM      8  CH2 TRP A   1     -11.149 -14.295 -40.971  1.00  0.00     0.002 A 
ATOM      9  CZ2 TRP A   1     -10.491 -15.435 -40.500  1.00  0.00     0.030 A 
ATOM     10  NE1 TRP A   1      -8.765 -16.192 -38.832  1.00  0.00    -0.365 N 
ATOM     11  HE1 TRP A   1      -8.751 -17.179 -39.049  1.00  0.00     0.165 HD
ATOM     12  CD1 TRP A   1      -7.988 -15.580 -37.887  1.00  0.00     0.096 A 
ENDBRANCH   2   3
ENDBRANCH   1   2
BRANCH   1  13
ATOM     13  N   TRP A   1      -5.267 -13.212 -36.238  1.00  0.00    -0.336 N 
HETATM   14  C   UNK A   0      -4.343 -13.868 -37.027  1.00  0.00     0.321 C 
HETATM   15  N   UNK A   0      -3.114 -13.248 -36.956  1.00  0.00    -0.309 N 
HETATM   16  O   UNK A   0      -4.625 -14.852 -37.696  1.00  0.00    -0.247 OA
HETATM   17  H   UNK A   0      -3.128 -12.310 -36.589  1.00  0.00     0.170 HD
ATOM     18  H   TRP A   1      -4.877 -12.766 -35.420  1.00  0.00     0.164 HD
BRANCH  15  19
HETATM   19  C   UNK A   0      -1.898 -13.701 -37.506  1.00  0.00     0.036 A 
HETATM   20  C   UNK A   0      -1.058 -14.618 -36.867  1.00  0.00     0.039 A 
HETATM   21  C   UNK A   0       0.129 -14.980 -37.487  1.00  0.00    -0.024 A 
HETATM   22  C   UNK A   0       0.492 -14.456 -38.716  1.00  0.00    -0.026 A 
HETATM   23  C   UNK A   0       1.167 -15.936 -37.032  1.00  0.00     0.207 C 
HETATM   24  C   UNK A   0       1.788 -15.045 -39.134  1.00  0.00     0.207 C 
HETATM   25  C   UNK A   0      -0.319 -13.548 -39.370  1.00  0.00     0.012 A 
HETATM   26  O   UNK A   0       2.257 -15.766 -37.972  1.00  0.00    -0.382 OA
HETATM   27  C   UNK A   0      -1.517 -13.166 -38.753  1.00  0.00     0.030 A 
ENDBRANCH  15  19
ENDBRANCH   1  13
BRANCH   1  28
ATOM     28  C   TRP A   1      -7.116 -13.570 -34.583  1.00  0.00     0.189 C 
BRANCH  28  29
ATOM     29  O   TRP A   1      -6.511 -12.420 -33.991  1.00  0.00    -0.399 OA
ATOM     30  H   TRP A   1      -6.504 -12.576 -33.030  1.00  0.00     0.209 HD
ENDBRANCH  28  29
ENDBRANCH   1  28
TORSDOF 6
ENDMDL
MODEL 9
REMARK VINA RESULT:      -7.7      1.651      2.119
REMARK  6 active torsions:
REMARK  status: ('A' for Active; 'I' for Inactive)
REMARK    1  A    between atoms: CG_8  and  CB_9 
REMARK    2  A    between atoms: CB_9  and  CA_10 
REMARK    3  A    between atoms: CA_10  and  N_11 
REMARK    4  A    between atoms: CA_10  and  C_12 
REMARK       I    between atoms: N_11  and  C_18 
REMARK    5  A    between atoms: C_12  and  O_13 
REMARK       I    between atoms: C_18  and  N_19 
REMARK    6  A    between atoms: N_19  and  C_20 
ROOT
ATOM      1  CA  TRP A   1     -10.392   3.874 -30.549  1.00  0.00     0.114 C 
ENDROOT
BRANCH   1   2
ATOM      2  CB  TRP A   1     -11.052   4.100 -31.927  1.00  0.00     0.068 C 
BRANCH   2   3
ATOM      3  CG  TRP A   1     -12.467   3.594 -31.985  1.00  0.00    -0.028 A 
ATOM      4  CD2 TRP A   1     -12.982   2.604 -32.883  1.00  0.00    -0.002 A 
ATOM      5  CE3 TRP A   1     -12.419   1.836 -33.922  1.00  0.00     0.014 A 
ATOM      6  CE2 TRP A   1     -14.331   2.423 -32.578  1.00  0.00     0.042 A 
ATOM      7  CZ3 TRP A   1     -13.218   0.916 -34.611  1.00  0.00     0.001 A 
ATOM      8  CH2 TRP A   1     -14.562   0.757 -34.281  1.00  0.00     0.002 A 
ATOM      9  CZ2 TRP A   1     -15.146   1.510 -33.259  1.00  0.00     0.030 A 
ATOM     10  NE1 TRP A   1     -14.628   3.270 -31.536  1.00  0.00    -0.365 N 
ATOM     11  HE1 TRP A   1     -15.535   3.341 -31.098  1.00  0.00     0.165 HD
ATOM     12  CD1 TRP A   1     -13.515   3.978 -31.169  1.00  0.00     0.096 A 
ENDBRANCH   2   3
ENDBRANCH   1   2
BRANCH   1  13
ATOM     13  N   TRP A   1      -9.742   2.560 -30.442  1.00  0.00    -0.336 N 
HETATM   14  C   UNK A   0      -8.650   2.227 -31.218  1.00  0.00     0.321 C 
HETATM   15  N   UNK A   0      -8.308   0.904 -31.035  1.00  0.00    -0.309 N 
HETATM   16  O   UNK A   0      -8.082   3.032 -31.942  1.00  0.00    -0.247 OA
HETATM   17  H   UNK A   0      -8.696   0.471 -30.212  1.00  0.00     0.170 HD
ATOM     18  H   TRP A   1     -10.387   1.800 -30.280  1.00  0.00     0.164 HD
BRANCH  15  19
HETATM   19  C   UNK A   0      -7.344   0.166 -31.751  1.00  0.00     0.036 A 
HETATM   20  C   UNK A   0      -7.602  -0.451 -32.979  1.00  0.00     0.039 A 
HETATM   21  C   UNK A   0      -6.587  -1.173 -33.589  1.00  0.00    -0.024 A 
HETATM   22  C   UNK A   0      -5.336  -1.292 -33.011  1.00  0.00    -0.026 A 
HETATM   23  C   UNK A   0      -6.602  -1.894 -34.886  1.00  0.00     0.207 C 
HETATM   24  C   UNK A   0      -4.460  -2.094 -33.901  1.00  0.00     0.207 C 
HETATM   25  C   UNK A   0      -5.052  -0.693 -31.798  1.00  0.00     0.012 A 
HETATM   26  O   UNK A   0      -5.348  -2.618 -34.915  1.00  0.00    -0.382 OA
HETATM   27  C   UNK A   0      -6.068   0.033 -31.165  1.00  0.00     0.030 A 
ENDBRANCH  15  19
ENDBRANCH   1  13
BRANCH   1  28
ATOM     28  C   TRP A   1      -9.445   5.038 -30.197  1.00  0.00     0.189 C 
BRANCH  28  29
ATOM     29  O   TRP A   1      -9.099   5.765 -31.376  1.00  0.00    -0.399 OA
ATOM     30  H   TRP A   1      -8.242   5.413 -31.676  1.00  0.00     0.209 HD
ENDBRANCH  28  29
ENDBRANCH   1  28
TORSDOF 6
ENDMDL
MODEL 10
REMARK VINA RESULT:      -7.6     14.740     16.795
REMARK  6 active torsions:
REMARK  status: ('A' for Active; 'I' for Inactive)
REMARK    1  A    between atoms: CG_8  and  CB_9 
REMARK    2  A    between atoms: CB_9  and  CA_10 
REMARK    3  A    between atoms: CA_10  and  N_11 
REMARK    4  A    between atoms: CA_10  and  C_12 
REMARK       I    between atoms: N_11  and  C_18 
REMARK    5  A    between atoms: C_12  and  O_13 
REMARK       I    between atoms: C_18  and  N_19 
REMARK    6  A    between atoms: N_19  and  C_20 
ROOT
ATOM      1  CA  TRP A   1      -7.511 -13.009 -39.074  1.00  0.00     0.114 C 
ENDROOT
BRANCH   1   2
ATOM      2  CB  TRP A   1      -6.550 -12.092 -39.864  1.00  0.00     0.068 C 
BRANCH   2   3
ATOM      3  CG  TRP A   1      -5.205 -12.722 -40.100  1.00  0.00    -0.028 A 
ATOM      4  CD2 TRP A   1      -4.821 -13.513 -41.230  1.00  0.00    -0.002 A 
ATOM      5  CE3 TRP A   1      -5.487 -13.945 -42.396  1.00  0.00     0.014 A 
ATOM      6  CE2 TRP A   1      -3.485 -13.875 -41.053  1.00  0.00     0.042 A 
ATOM      7  CZ3 TRP A   1      -4.796 -14.714 -43.339  1.00  0.00     0.001 A 
ATOM      8  CH2 TRP A   1      -3.461 -15.058 -43.135  1.00  0.00     0.002 A 
ATOM      9  CZ2 TRP A   1      -2.780 -14.648 -41.985  1.00  0.00     0.030 A 
ATOM     10  NE1 TRP A   1      -3.072 -13.328 -39.862  1.00  0.00    -0.365 N 
ATOM     11  HE1 TRP A   1      -2.140 -13.417 -39.485  1.00  0.00     0.165 HD
ATOM     12  CD1 TRP A   1      -4.096 -12.631 -39.280  1.00  0.00     0.096 A 
ENDBRANCH   2   3
ENDBRANCH   1   2
BRANCH   1  13
ATOM     13  N   TRP A   1      -7.500 -12.729 -37.631  1.00  0.00    -0.336 N 
HETATM   14  C   UNK A   0      -6.797 -13.520 -36.745  1.00  0.00     0.321 C 
HETATM   15  N   UNK A   0      -7.051 -13.140 -35.445  1.00  0.00    -0.309 N 
HETATM   16  O   UNK A   0      -6.049 -14.417 -37.108  1.00  0.00    -0.247 OA
HETATM   17  H   UNK A   0      -7.462 -12.225 -35.338  1.00  0.00     0.170 HD
ATOM     18  H   TRP A   1      -8.382 -12.386 -37.277  1.00  0.00     0.164 HD
BRANCH  15  19
HETATM   19  C   UNK A   0      -6.631 -13.792 -34.268  1.00  0.00     0.036 A 
HETATM   20  C   UNK A   0      -7.056 -15.074 -33.905  1.00  0.00     0.039 A 
HETATM   21  C   UNK A   0      -6.600 -15.616 -32.713  1.00  0.00    -0.024 A 
HETATM   22  C   UNK A   0      -5.738 -14.918 -31.885  1.00  0.00    -0.026 A 
HETATM   23  C   UNK A   0      -6.882 -16.946 -32.121  1.00  0.00     0.207 C 
HETATM   24  C   UNK A   0      -5.406 -15.756 -30.706  1.00  0.00     0.207 C 
HETATM   25  C   UNK A   0      -5.302 -13.649 -32.218  1.00  0.00     0.012 A 
HETATM   26  O   UNK A   0      -6.304 -16.886 -30.794  1.00  0.00    -0.382 OA
HETATM   27  C   UNK A   0      -5.760 -13.085 -33.415  1.00  0.00     0.030 A 
ENDBRANCH  15  19
ENDBRANCH   1  13
BRANCH   1  28
ATOM     28  C   TRP A   1      -8.927 -12.970 -39.678  1.00  0.00     0.189 C 
BRANCH  28  29
ATOM     29  O   TRP A   1      -9.041 -11.884 -40.599  1.00  0.00    -0.399 OA
ATOM     30  H   TRP A   1      -9.993 -11.713 -40.707  1.00  0.00     0.209 HD
ENDBRANCH  28  29
ENDBRANCH   1  28
TORSDOF 6
ENDMDL
