MODEL 1
REMARK VINA RESULT:      -7.9      0.000      0.000
REMARK  6 active torsions:
REMARK  status: ('A' for Active; 'I' for Inactive)
REMARK    1  A    between atoms: C_2  and  N_3 
REMARK    2  A    between atoms: N_3  and  C_5 
REMARK    3  A    between atoms: N_3  and  C_26 
REMARK    4  A    between atoms: C_8  and  N_9 
REMARK       I    between atoms: N_9  and  C_10 
REMARK    5  A    between atoms: C_10  and  C_11 
REMARK    6  A    between atoms: C_19  and  O_20 
ROOT
HETATM    1  N   UNL     1     -10.097   0.636 -32.862  1.00  0.00    -0.321 N 
HETATM    2  C   UNL     1     -10.665   1.626 -33.652  1.00  0.00     0.280 C 
HETATM    3  O   UNL     1     -10.056   2.270 -34.500  1.00  0.00    -0.265 OA
HETATM    4  H   UNL     1     -10.706   0.299 -32.124  1.00  0.00     0.169 HD
ENDROOT
BRANCH   1   5
HETATM    5  C   UNL     1      -8.753   0.230 -32.852  1.00  0.00     0.035 A 
HETATM    6  C   UNL     1      -7.895   0.414 -31.769  1.00  0.00     0.032 A 
HETATM    7  C   UNL     1      -6.583  -0.076 -31.809  1.00  0.00     0.039 A 
HETATM    8  C   UNL     1      -6.127  -0.799 -32.915  1.00  0.00     0.134 A 
HETATM    9  C   UNL     1      -6.970  -0.942 -34.017  1.00  0.00     0.039 A 
HETATM   10  C   UNL     1      -8.266  -0.410 -33.994  1.00  0.00     0.032 A 
BRANCH   8  11
HETATM   11  N   UNL     1      -4.757  -1.386 -32.858  1.00  0.00    -0.042 N 
HETATM   12  H   UNL     1      -4.727  -1.857 -31.944  1.00  0.00     0.286 HD
BRANCH  11  13
HETATM   13  C   UNL     1      -4.552  -2.462 -33.907  1.00  0.00     0.237 C 
HETATM   14  C   UNL     1      -3.782  -3.650 -33.356  1.00  0.00     0.035 C 
ENDBRANCH  11  13
BRANCH  11  15
HETATM   15  C   UNL     1      -3.644  -0.361 -32.760  1.00  0.00     0.237 C 
HETATM   16  C   UNL     1      -2.860  -0.420 -31.454  1.00  0.00     0.035 C 
ENDBRANCH  11  15
ENDBRANCH   8  11
ENDBRANCH   1   5
BRANCH   2  17
HETATM   17  C   UNL     1     -12.053   1.881 -33.309  1.00  0.00     0.150 A 
HETATM   18  O   UNL     1     -12.392   3.128 -32.848  1.00  0.00    -0.304 OA
HETATM   19  C   UNL     1     -13.727   3.115 -32.597  1.00  0.00     0.087 A 
HETATM   20  C   UNL     1     -14.270   1.881 -32.922  1.00  0.00     0.009 A 
HETATM   21  C   UNL     1     -14.462   4.184 -32.090  1.00  0.00     0.041 A 
HETATM   22  C   UNL     1     -13.183   1.078 -33.384  1.00  0.00    -0.009 A 
HETATM   23  C   UNL     1     -15.654   1.701 -32.746  1.00  0.00     0.051 A 
HETATM   24  C   UNL     1     -13.242  -0.326 -33.870  1.00  0.00     0.052 C 
HETATM   25  C   UNL     1     -16.433   2.755 -32.240  1.00  0.00     0.069 A 
HETATM   26  C   UNL     1     -15.837   3.976 -31.914  1.00  0.00     0.039 A 
BRANCH  25  27
HETATM   27  O   UNL     1     -17.763   2.455 -32.116  1.00  0.00    -0.356 OA
HETATM   28  C   UNL     1     -18.692   3.494 -32.401  1.00  0.00     0.210 C 
ENDBRANCH  25  27
ENDBRANCH   2  17
TORSDOF 6
ENDMDL
MODEL 2
REMARK VINA RESULT:      -7.8      7.075     11.707
REMARK  6 active torsions:
REMARK  status: ('A' for Active; 'I' for Inactive)
REMARK    1  A    between atoms: C_2  and  N_3 
REMARK    2  A    between atoms: N_3  and  C_5 
REMARK    3  A    between atoms: N_3  and  C_26 
REMARK    4  A    between atoms: C_8  and  N_9 
REMARK       I    between atoms: N_9  and  C_10 
REMARK    5  A    between atoms: C_10  and  C_11 
REMARK    6  A    between atoms: C_19  and  O_20 
ROOT
HETATM    1  N   UNL     1      -3.087   4.038 -31.193  1.00  0.00    -0.321 N 
HETATM    2  C   UNL     1      -2.078   4.792 -31.775  1.00  0.00     0.280 C 
HETATM    3  O   UNL     1      -1.695   4.661 -32.933  1.00  0.00    -0.265 OA
HETATM    4  H   UNL     1      -3.185   4.184 -30.193  1.00  0.00     0.169 HD
ENDROOT
BRANCH   1   5
HETATM    5  C   UNL     1      -3.806   2.988 -31.785  1.00  0.00     0.035 A 
HETATM    6  C   UNL     1      -4.959   3.169 -32.548  1.00  0.00     0.032 A 
HETATM    7  C   UNL     1      -5.586   2.077 -33.161  1.00  0.00     0.039 A 
HETATM    8  C   UNL     1      -5.040   0.794 -33.058  1.00  0.00     0.134 A 
HETATM    9  C   UNL     1      -3.914   0.605 -32.258  1.00  0.00     0.039 A 
HETATM   10  C   UNL     1      -3.316   1.693 -31.606  1.00  0.00     0.032 A 
BRANCH   8  11
HETATM   11  N   UNL     1      -5.692  -0.312 -33.818  1.00  0.00    -0.042 N 
HETATM   12  H   UNL     1      -5.486  -0.092 -34.802  1.00  0.00     0.286 HD
BRANCH  11  13
HETATM   13  C   UNL     1      -5.051  -1.656 -33.532  1.00  0.00     0.237 C 
HETATM   14  C   UNL     1      -5.381  -2.680 -34.605  1.00  0.00     0.035 C 
ENDBRANCH  11  13
BRANCH  11  15
HETATM   15  C   UNL     1      -7.207  -0.296 -33.765  1.00  0.00     0.237 C 
HETATM   16  C   UNL     1      -7.871   0.033 -35.097  1.00  0.00     0.035 C 
ENDBRANCH  11  15
ENDBRANCH   8  11
ENDBRANCH   1   5
BRANCH   2  17
HETATM   17  C   UNL     1      -1.456   5.708 -30.834  1.00  0.00     0.150 A 
HETATM   18  O   UNL     1      -2.240   6.659 -30.234  1.00  0.00    -0.304 OA
HETATM   19  C   UNL     1      -1.438   7.383 -29.411  1.00  0.00     0.087 A 
HETATM   20  C   UNL     1      -0.141   6.892 -29.444  1.00  0.00     0.009 A 
HETATM   21  C   UNL     1      -1.845   8.465 -28.635  1.00  0.00     0.041 A 
HETATM   22  C   UNL     1      -0.151   5.804 -30.369  1.00  0.00    -0.009 A 
HETATM   23  C   UNL     1       0.822   7.513 -28.627  1.00  0.00     0.051 A 
HETATM   24  C   UNL     1       0.992   4.930 -30.746  1.00  0.00     0.052 C 
HETATM   25  C   UNL     1       0.452   8.606 -27.826  1.00  0.00     0.069 A 
HETATM   26  C   UNL     1      -0.865   9.073 -27.838  1.00  0.00     0.039 A 
BRANCH  25  27
HETATM   27  O   UNL     1       1.477   9.122 -27.079  1.00  0.00    -0.356 OA
HETATM   28  C   UNL     1       2.016   8.294 -26.056  1.00  0.00     0.210 C 
ENDBRANCH  25  27
ENDBRANCH   2  17
TORSDOF 6
ENDMDL
MODEL 3
REMARK VINA RESULT:      -7.8      6.593     10.043
REMARK  6 active torsions:
REMARK  status: ('A' for Active; 'I' for Inactive)
REMARK    1  A    between atoms: C_2  and  N_3 
REMARK    2  A    between atoms: N_3  and  C_5 
REMARK    3  A    between atoms: N_3  and  C_26 
REMARK    4  A    between atoms: C_8  and  N_9 
REMARK       I    between atoms: N_9  and  C_10 
REMARK    5  A    between atoms: C_10  and  C_11 
REMARK    6  A    between atoms: C_19  and  O_20 
ROOT
HETATM    1  N   UNL     1      -3.350   3.472 -31.959  1.00  0.00    -0.321 N 
HETATM    2  C   UNL     1      -4.343   2.712 -31.358  1.00  0.00     0.280 C 
HETATM    3  O   UNL     1      -4.853   2.970 -30.273  1.00  0.00    -0.265 OA
HETATM    4  H   UNL     1      -2.949   3.044 -32.787  1.00  0.00     0.169 HD
ENDROOT
BRANCH   1   5
HETATM    5  C   UNL     1      -2.729   4.617 -31.435  1.00  0.00     0.035 A 
HETATM    6  C   UNL     1      -3.420   5.754 -31.020  1.00  0.00     0.032 A 
HETATM    7  C   UNL     1      -2.736   6.833 -30.447  1.00  0.00     0.039 A 
HETATM    8  C   UNL     1      -1.355   6.771 -30.239  1.00  0.00     0.134 A 
HETATM    9  C   UNL     1      -0.657   5.653 -30.696  1.00  0.00     0.039 A 
HETATM   10  C   UNL     1      -1.338   4.594 -31.313  1.00  0.00     0.032 A 
BRANCH   8  11
HETATM   11  N   UNL     1      -0.697   7.906 -29.530  1.00  0.00    -0.042 N 
HETATM   12  H   UNL     1      -0.510   8.590 -30.276  1.00  0.00     0.286 HD
BRANCH  11  13
HETATM   13  C   UNL     1      -1.631   8.584 -28.545  1.00  0.00     0.237 C 
HETATM   14  C   UNL     1      -1.962  10.005 -28.965  1.00  0.00     0.035 C 
ENDBRANCH  11  13
BRANCH  11  15
HETATM   15  C   UNL     1       0.685   7.588 -28.992  1.00  0.00     0.237 C 
HETATM   16  C   UNL     1       1.133   8.501 -27.857  1.00  0.00     0.035 C 
ENDBRANCH  11  15
ENDBRANCH   8  11
ENDBRANCH   1   5
BRANCH   2  17
HETATM   17  C   UNL     1      -4.663   1.516 -32.118  1.00  0.00     0.150 A 
HETATM   18  O   UNL     1      -5.704   1.568 -33.010  1.00  0.00    -0.304 OA
HETATM   19  C   UNL     1      -5.804   0.342 -33.586  1.00  0.00     0.087 A 
HETATM   20  C   UNL     1      -4.816  -0.503 -33.101  1.00  0.00     0.009 A 
HETATM   21  C   UNL     1      -6.755  -0.029 -34.532  1.00  0.00     0.041 A 
HETATM   22  C   UNL     1      -4.074   0.258 -32.147  1.00  0.00    -0.009 A 
HETATM   23  C   UNL     1      -4.757  -1.813 -33.613  1.00  0.00     0.051 A 
HETATM   24  C   UNL     1      -2.896  -0.188 -31.358  1.00  0.00     0.052 C 
HETATM   25  C   UNL     1      -5.696  -2.226 -34.571  1.00  0.00     0.069 A 
HETATM   26  C   UNL     1      -6.682  -1.342 -35.018  1.00  0.00     0.039 A 
BRANCH  25  27
HETATM   27  O   UNL     1      -5.534  -3.520 -34.989  1.00  0.00    -0.356 OA
HETATM   28  C   UNL     1      -6.692  -4.347 -35.009  1.00  0.00     0.210 C 
ENDBRANCH  25  27
ENDBRANCH   2  17
TORSDOF 6
ENDMDL
MODEL 4
REMARK VINA RESULT:      -7.3      3.087      3.829
REMARK  6 active torsions:
REMARK  status: ('A' for Active; 'I' for Inactive)
REMARK    1  A    between atoms: C_2  and  N_3 
REMARK    2  A    between atoms: N_3  and  C_5 
REMARK    3  A    between atoms: N_3  and  C_26 
REMARK    4  A    between atoms: C_8  and  N_9 
REMARK       I    between atoms: N_9  and  C_10 
REMARK    5  A    between atoms: C_10  and  C_11 
REMARK    6  A    between atoms: C_19  and  O_20 
ROOT
HETATM    1  N   UNL     1      -8.421   1.789 -34.276  1.00  0.00    -0.321 N 
HETATM    2  C   UNL     1      -9.780   1.713 -34.005  1.00  0.00     0.280 C 
HETATM    3  O   UNL     1     -10.332   0.740 -33.502  1.00  0.00    -0.265 OA
HETATM    4  H   UNL     1      -8.154   2.609 -34.812  1.00  0.00     0.169 HD
ENDROOT
BRANCH   1   5
HETATM    5  C   UNL     1      -7.461   0.784 -34.075  1.00  0.00     0.035 A 
HETATM    6  C   UNL     1      -6.635   0.713 -32.955  1.00  0.00     0.032 A 
HETATM    7  C   UNL     1      -5.745  -0.357 -32.794  1.00  0.00     0.039 A 
HETATM    8  C   UNL     1      -5.704  -1.395 -33.729  1.00  0.00     0.134 A 
HETATM    9  C   UNL     1      -6.496  -1.300 -34.873  1.00  0.00     0.039 A 
HETATM   10  C   UNL     1      -7.352  -0.204 -35.056  1.00  0.00     0.032 A 
BRANCH   8  11
HETATM   11  N   UNL     1      -4.813  -2.559 -33.453  1.00  0.00    -0.042 N 
HETATM   12  H   UNL     1      -5.372  -3.157 -32.830  1.00  0.00     0.286 HD
BRANCH  11  13
HETATM   13  C   UNL     1      -4.533  -3.374 -34.701  1.00  0.00     0.237 C 
HETATM   14  C   UNL     1      -5.134  -4.766 -34.615  1.00  0.00     0.035 C 
ENDBRANCH  11  13
BRANCH  11  15
HETATM   15  C   UNL     1      -3.594  -2.225 -32.615  1.00  0.00     0.237 C 
HETATM   16  C   UNL     1      -2.994  -3.423 -31.888  1.00  0.00     0.035 C 
ENDBRANCH  11  15
ENDBRANCH   8  11
ENDBRANCH   1   5
BRANCH   2  17
HETATM   17  C   UNL     1     -10.504   2.887 -34.460  1.00  0.00     0.150 A 
HETATM   18  O   UNL     1      -9.831   4.080 -34.532  1.00  0.00    -0.304 OA
HETATM   19  C   UNL     1     -10.713   5.013 -34.977  1.00  0.00     0.087 A 
HETATM   20  C   UNL     1     -11.948   4.433 -35.227  1.00  0.00     0.009 A 
HETATM   21  C   UNL     1     -10.431   6.364 -35.164  1.00  0.00     0.041 A 
HETATM   22  C   UNL     1     -11.813   3.052 -34.891  1.00  0.00    -0.009 A 
HETATM   23  C   UNL     1     -12.977   5.257 -35.719  1.00  0.00     0.051 A 
HETATM   24  C   UNL     1     -12.851   1.993 -35.000  1.00  0.00     0.052 C 
HETATM   25  C   UNL     1     -12.733   6.625 -35.925  1.00  0.00     0.069 A 
HETATM   26  C   UNL     1     -11.475   7.166 -35.645  1.00  0.00     0.039 A 
BRANCH  25  27
HETATM   27  O   UNL     1     -13.813   7.317 -36.406  1.00  0.00    -0.356 OA
HETATM   28  C   UNL     1     -13.819   7.628 -37.794  1.00  0.00     0.210 C 
ENDBRANCH  25  27
ENDBRANCH   2  17
TORSDOF 6
ENDMDL
MODEL 5
REMARK VINA RESULT:      -7.2      6.852     10.192
REMARK  6 active torsions:
REMARK  status: ('A' for Active; 'I' for Inactive)
REMARK    1  A    between atoms: C_2  and  N_3 
REMARK    2  A    between atoms: N_3  and  C_5 
REMARK    3  A    between atoms: N_3  and  C_26 
REMARK    4  A    between atoms: C_8  and  N_9 
REMARK       I    between atoms: N_9  and  C_10 
REMARK    5  A    between atoms: C_10  and  C_11 
REMARK    6  A    between atoms: C_19  and  O_20 
ROOT
HETATM    1  N   UNL     1      -3.534   2.452 -32.405  1.00  0.00    -0.321 N 
HETATM    2  C   UNL     1      -4.317   1.578 -31.665  1.00  0.00     0.280 C 
HETATM    3  O   UNL     1      -4.822   1.849 -30.581  1.00  0.00    -0.265 OA
HETATM    4  H   UNL     1      -3.088   2.024 -33.210  1.00  0.00     0.169 HD
ENDROOT
BRANCH   1   5
HETATM    5  C   UNL     1      -3.146   3.753 -32.044  1.00  0.00     0.035 A 
HETATM    6  C   UNL     1      -3.880   4.571 -31.187  1.00  0.00     0.032 A 
HETATM    7  C   UNL     1      -3.396   5.834 -30.821  1.00  0.00     0.039 A 
HETATM    8  C   UNL     1      -2.149   6.276 -31.271  1.00  0.00     0.134 A 
HETATM    9  C   UNL     1      -1.436   5.477 -32.166  1.00  0.00     0.039 A 
HETATM   10  C   UNL     1      -1.945   4.233 -32.568  1.00  0.00     0.032 A 
BRANCH   8  11
HETATM   11  N   UNL     1      -1.640   7.583 -30.766  1.00  0.00    -0.042 N 
HETATM   12  H   UNL     1      -1.347   8.081 -31.617  1.00  0.00     0.286 HD
BRANCH  11  13
HETATM   13  C   UNL     1      -2.736   8.417 -30.132  1.00  0.00     0.237 C 
HETATM   14  C   UNL     1      -2.849   9.788 -30.776  1.00  0.00     0.035 C 
ENDBRANCH  11  13
BRANCH  11  15
HETATM   15  C   UNL     1      -0.359   7.483 -29.960  1.00  0.00     0.237 C 
HETATM   16  C   UNL     1      -0.391   8.259 -28.648  1.00  0.00     0.035 C 
ENDBRANCH  11  15
ENDBRANCH   8  11
ENDBRANCH   1   5
BRANCH   2  17
HETATM   17  C   UNL     1      -4.410   0.263 -32.276  1.00  0.00     0.150 A 
HETATM   18  O   UNL     1      -3.597  -0.735 -31.802  1.00  0.00    -0.304 OA
HETATM   19  C   UNL     1      -3.865  -1.852 -32.526  1.00  0.00     0.087 A 
HETATM   20  C   UNL     1      -4.871  -1.601 -33.449  1.00  0.00     0.009 A 
HETATM   21  C   UNL     1      -3.233  -3.083 -32.374  1.00  0.00     0.041 A 
HETATM   22  C   UNL     1      -5.225  -0.227 -33.287  1.00  0.00    -0.009 A 
HETATM   23  C   UNL     1      -5.293  -2.663 -34.270  1.00  0.00     0.051 A 
HETATM   24  C   UNL     1      -6.269   0.528 -34.030  1.00  0.00     0.052 C 
HETATM   25  C   UNL     1      -4.683  -3.922 -34.147  1.00  0.00     0.069 A 
HETATM   26  C   UNL     1      -3.664  -4.121 -33.211  1.00  0.00     0.039 A 
BRANCH  25  27
HETATM   27  O   UNL     1      -5.182  -4.869 -35.001  1.00  0.00    -0.356 OA
HETATM   28  C   UNL     1      -6.487  -4.651 -35.522  1.00  0.00     0.210 C 
ENDBRANCH  25  27
ENDBRANCH   2  17
TORSDOF 6
ENDMDL
MODEL 6
REMARK VINA RESULT:      -7.2      7.243     11.593
REMARK  6 active torsions:
REMARK  status: ('A' for Active; 'I' for Inactive)
REMARK    1  A    between atoms: C_2  and  N_3 
REMARK    2  A    between atoms: N_3  and  C_5 
REMARK    3  A    between atoms: N_3  and  C_26 
REMARK    4  A    between atoms: C_8  and  N_9 
REMARK       I    between atoms: N_9  and  C_10 
REMARK    5  A    between atoms: C_10  and  C_11 
REMARK    6  A    between atoms: C_19  and  O_20 
ROOT
HETATM    1  N   UNL     1      -3.254   4.222 -31.228  1.00  0.00    -0.321 N 
HETATM    2  C   UNL     1      -2.078   4.814 -31.667  1.00  0.00     0.280 C 
HETATM    3  O   UNL     1      -1.523   4.549 -32.728  1.00  0.00    -0.265 OA
HETATM    4  H   UNL     1      -3.503   4.459 -30.273  1.00  0.00     0.169 HD
ENDROOT
BRANCH   1   5
HETATM    5  C   UNL     1      -3.981   3.207 -31.872  1.00  0.00     0.035 A 
HETATM    6  C   UNL     1      -3.742   1.846 -31.690  1.00  0.00     0.032 A 
HETATM    7  C   UNL     1      -4.552   0.891 -32.317  1.00  0.00     0.039 A 
HETATM    8  C   UNL     1      -5.641   1.285 -33.100  1.00  0.00     0.134 A 
HETATM    9  C   UNL     1      -5.852   2.647 -33.320  1.00  0.00     0.039 A 
HETATM   10  C   UNL     1      -5.011   3.600 -32.729  1.00  0.00     0.032 A 
BRANCH   8  11
HETATM   11  N   UNL     1      -6.530   0.225 -33.657  1.00  0.00    -0.042 N 
HETATM   12  H   UNL     1      -6.457   0.350 -34.676  1.00  0.00     0.286 HD
BRANCH  11  13
HETATM   13  C   UNL     1      -6.015  -1.169 -33.355  1.00  0.00     0.237 C 
HETATM   14  C   UNL     1      -5.987  -2.045 -34.596  1.00  0.00     0.035 C 
ENDBRANCH  11  13
BRANCH  11  15
HETATM   15  C   UNL     1      -8.005   0.440 -33.382  1.00  0.00     0.237 C 
HETATM   16  C   UNL     1      -8.378   0.361 -31.906  1.00  0.00     0.035 C 
ENDBRANCH  11  15
ENDBRANCH   8  11
ENDBRANCH   1   5
BRANCH   2  17
HETATM   17  C   UNL     1      -1.522   5.733 -30.690  1.00  0.00     0.150 A 
HETATM   18  O   UNL     1      -0.498   5.293 -29.890  1.00  0.00    -0.304 OA
HETATM   19  C   UNL     1      -0.157   6.321 -29.070  1.00  0.00     0.087 A 
HETATM   20  C   UNL     1      -0.928   7.440 -29.349  1.00  0.00     0.009 A 
HETATM   21  C   UNL     1       0.827   6.275 -28.086  1.00  0.00     0.041 A 
HETATM   22  C   UNL     1      -1.816   7.059 -30.401  1.00  0.00    -0.009 A 
HETATM   23  C   UNL     1      -0.688   8.610 -28.604  1.00  0.00     0.051 A 
HETATM   24  C   UNL     1      -2.834   7.909 -31.073  1.00  0.00     0.052 C 
HETATM   25  C   UNL     1       0.298   8.607 -27.604  1.00  0.00     0.069 A 
HETATM   26  C   UNL     1       1.039   7.450 -27.351  1.00  0.00     0.039 A 
BRANCH  25  27
HETATM   27  O   UNL     1       0.435   9.803 -26.952  1.00  0.00    -0.356 OA
HETATM   28  C   UNL     1      -0.680  10.687 -26.975  1.00  0.00     0.210 C 
ENDBRANCH  25  27
ENDBRANCH   2  17
TORSDOF 6
ENDMDL
MODEL 7
REMARK VINA RESULT:      -7.1      5.824      9.646
REMARK  6 active torsions:
REMARK  status: ('A' for Active; 'I' for Inactive)
REMARK    1  A    between atoms: C_2  and  N_3 
REMARK    2  A    between atoms: N_3  and  C_5 
REMARK    3  A    between atoms: N_3  and  C_26 
REMARK    4  A    between atoms: C_8  and  N_9 
REMARK       I    between atoms: N_9  and  C_10 
REMARK    5  A    between atoms: C_10  and  C_11 
REMARK    6  A    between atoms: C_19  and  O_20 
ROOT
HETATM    1  N   UNL     1      -3.804   3.375 -32.300  1.00  0.00    -0.321 N 
HETATM    2  C   UNL     1      -5.157   3.080 -32.399  1.00  0.00     0.280 C 
HETATM    3  O   UNL     1      -6.057   3.818 -32.013  1.00  0.00    -0.265 OA
HETATM    4  H   UNL     1      -3.195   2.601 -32.545  1.00  0.00     0.169 HD
ENDROOT
BRANCH   1   5
HETATM    5  C   UNL     1      -3.228   4.516 -31.717  1.00  0.00     0.035 A 
HETATM    6  C   UNL     1      -3.931   5.419 -30.922  1.00  0.00     0.032 A 
HETATM    7  C   UNL     1      -3.273   6.500 -30.321  1.00  0.00     0.039 A 
HETATM    8  C   UNL     1      -1.893   6.665 -30.470  1.00  0.00     0.134 A 
HETATM    9  C   UNL     1      -1.199   5.788 -31.304  1.00  0.00     0.039 A 
HETATM   10  C   UNL     1      -1.868   4.735 -31.942  1.00  0.00     0.032 A 
BRANCH   8  11
HETATM   11  N   UNL     1      -1.231   7.772 -29.723  1.00  0.00    -0.042 N 
HETATM   12  H   UNL     1      -0.559   8.161 -30.398  1.00  0.00     0.286 HD
BRANCH  11  13
HETATM   13  C   UNL     1      -2.197   8.890 -29.382  1.00  0.00     0.237 C 
HETATM   14  C   UNL     1      -2.310   9.904 -30.507  1.00  0.00     0.035 C 
ENDBRANCH  11  13
BRANCH  11  15
HETATM   15  C   UNL     1      -0.350   7.312 -28.578  1.00  0.00     0.237 C 
HETATM   16  C   UNL     1       0.962   8.079 -28.457  1.00  0.00     0.035 C 
ENDBRANCH  11  15
ENDBRANCH   8  11
ENDBRANCH   1   5
BRANCH   2  17
HETATM   17  C   UNL     1      -5.397   1.753 -32.939  1.00  0.00     0.150 A 
HETATM   18  O   UNL     1      -4.437   0.790 -32.754  1.00  0.00    -0.304 OA
HETATM   19  C   UNL     1      -4.888  -0.347 -33.345  1.00  0.00     0.087 A 
HETATM   20  C   UNL     1      -6.149  -0.145 -33.886  1.00  0.00     0.009 A 
HETATM   21  C   UNL     1      -4.196  -1.553 -33.404  1.00  0.00     0.041 A 
HETATM   22  C   UNL     1      -6.481   1.219 -33.623  1.00  0.00    -0.009 A 
HETATM   23  C   UNL     1      -6.779  -1.233 -34.517  1.00  0.00     0.051 A 
HETATM   24  C   UNL     1      -7.738   1.927 -33.984  1.00  0.00     0.052 C 
HETATM   25  C   UNL     1      -6.117  -2.469 -34.596  1.00  0.00     0.069 A 
HETATM   26  C   UNL     1      -4.840  -2.619 -34.047  1.00  0.00     0.039 A 
BRANCH  25  27
HETATM   27  O   UNL     1      -6.834  -3.446 -35.233  1.00  0.00    -0.356 OA
HETATM   28  C   UNL     1      -6.220  -4.723 -35.362  1.00  0.00     0.210 C 
ENDBRANCH  25  27
ENDBRANCH   2  17
TORSDOF 6
ENDMDL
MODEL 8
REMARK VINA RESULT:      -7.1      4.118     10.107
REMARK  6 active torsions:
REMARK  status: ('A' for Active; 'I' for Inactive)
REMARK    1  A    between atoms: C_2  and  N_3 
REMARK    2  A    between atoms: N_3  and  C_5 
REMARK    3  A    between atoms: N_3  and  C_26 
REMARK    4  A    between atoms: C_8  and  N_9 
REMARK       I    between atoms: N_9  and  C_10 
REMARK    5  A    between atoms: C_10  and  C_11 
REMARK    6  A    between atoms: C_19  and  O_20 
ROOT
HETATM    1  N   UNL     1      -8.345   3.634 -33.572  1.00  0.00    -0.321 N 
HETATM    2  C   UNL     1      -7.364   2.709 -33.901  1.00  0.00     0.280 C 
HETATM    3  O   UNL     1      -7.590   1.583 -34.330  1.00  0.00    -0.265 OA
HETATM    4  H   UNL     1      -7.989   4.464 -33.107  1.00  0.00     0.169 HD
ENDROOT
BRANCH   1   5
HETATM    5  C   UNL     1      -9.736   3.445 -33.623  1.00  0.00     0.035 A 
HETATM    6  C   UNL     1     -10.453   3.276 -34.806  1.00  0.00     0.032 A 
HETATM    7  C   UNL     1     -11.831   3.028 -34.774  1.00  0.00     0.039 A 
HETATM    8  C   UNL     1     -12.502   2.899 -33.555  1.00  0.00     0.134 A 
HETATM    9  C   UNL     1     -11.794   3.115 -32.372  1.00  0.00     0.039 A 
HETATM   10  C   UNL     1     -10.424   3.410 -32.409  1.00  0.00     0.032 A 
BRANCH   8  11
HETATM   11  N   UNL     1     -13.947   2.532 -33.581  1.00  0.00    -0.042 N 
HETATM   12  H   UNL     1     -14.387   3.292 -34.116  1.00  0.00     0.286 HD
BRANCH  11  13
HETATM   13  C   UNL     1     -14.198   1.254 -34.358  1.00  0.00     0.237 C 
HETATM   14  C   UNL     1     -13.554   0.050 -33.692  1.00  0.00     0.035 C 
ENDBRANCH  11  13
BRANCH  11  15
HETATM   15  C   UNL     1     -14.635   2.610 -32.231  1.00  0.00     0.237 C 
HETATM   16  C   UNL     1     -16.136   2.350 -32.284  1.00  0.00     0.035 C 
ENDBRANCH  11  15
ENDBRANCH   8  11
ENDBRANCH   1   5
BRANCH   2  17
HETATM   17  C   UNL     1      -6.026   3.189 -33.601  1.00  0.00     0.150 A 
HETATM   18  O   UNL     1      -5.498   4.181 -34.388  1.00  0.00    -0.304 OA
HETATM   19  C   UNL     1      -4.254   4.451 -33.915  1.00  0.00     0.087 A 
HETATM   20  C   UNL     1      -3.976   3.666 -32.805  1.00  0.00     0.009 A 
HETATM   21  C   UNL     1      -3.371   5.383 -34.454  1.00  0.00     0.041 A 
HETATM   22  C   UNL     1      -5.127   2.846 -32.601  1.00  0.00    -0.009 A 
HETATM   23  C   UNL     1      -2.731   3.836 -32.171  1.00  0.00     0.051 A 
HETATM   24  C   UNL     1      -5.338   1.841 -31.525  1.00  0.00     0.052 C 
HETATM   25  C   UNL     1      -1.813   4.768 -32.681  1.00  0.00     0.069 A 
HETATM   26  C   UNL     1      -2.134   5.526 -33.810  1.00  0.00     0.039 A 
BRANCH  25  27
HETATM   27  O   UNL     1      -0.641   4.839 -31.976  1.00  0.00    -0.356 OA
HETATM   28  C   UNL     1      -0.266   6.112 -31.464  1.00  0.00     0.210 C 
ENDBRANCH  25  27
ENDBRANCH   2  17
TORSDOF 6
ENDMDL
MODEL 9
REMARK VINA RESULT:      -7.0      1.684      2.285
REMARK  6 active torsions:
REMARK  status: ('A' for Active; 'I' for Inactive)
REMARK    1  A    between atoms: C_2  and  N_3 
REMARK    2  A    between atoms: N_3  and  C_5 
REMARK    3  A    between atoms: N_3  and  C_26 
REMARK    4  A    between atoms: C_8  and  N_9 
REMARK       I    between atoms: N_9  and  C_10 
REMARK    5  A    between atoms: C_10  and  C_11 
REMARK    6  A    between atoms: C_19  and  O_20 
ROOT
HETATM    1  N   UNL     1      -9.166   0.918 -33.253  1.00  0.00    -0.321 N 
HETATM    2  C   UNL     1      -9.379   2.256 -33.553  1.00  0.00     0.280 C 
HETATM    3  O   UNL     1      -8.550   2.988 -34.081  1.00  0.00    -0.265 OA
HETATM    4  H   UNL     1      -9.905   0.497 -32.699  1.00  0.00     0.169 HD
ENDROOT
BRANCH   1   5
HETATM    5  C   UNL     1      -7.984   0.186 -33.449  1.00  0.00     0.035 A 
HETATM    6  C   UNL     1      -7.073  -0.104 -32.434  1.00  0.00     0.032 A 
HETATM    7  C   UNL     1      -5.947  -0.895 -32.693  1.00  0.00     0.039 A 
HETATM    8  C   UNL     1      -5.741  -1.447 -33.960  1.00  0.00     0.134 A 
HETATM    9  C   UNL     1      -6.627  -1.120 -34.987  1.00  0.00     0.039 A 
HETATM   10  C   UNL     1      -7.728  -0.288 -34.737  1.00  0.00     0.032 A 
BRANCH   8  11
HETATM   11  N   UNL     1      -4.582  -2.366 -34.150  1.00  0.00    -0.042 N 
HETATM   12  H   UNL     1      -3.948  -1.842 -34.768  1.00  0.00     0.286 HD
BRANCH  11  13
HETATM   13  C   UNL     1      -3.826  -2.607 -32.857  1.00  0.00     0.237 C 
HETATM   14  C   UNL     1      -3.320  -4.035 -32.754  1.00  0.00     0.035 C 
ENDBRANCH  11  13
BRANCH  11  15
HETATM   15  C   UNL     1      -4.900  -3.614 -34.951  1.00  0.00     0.237 C 
HETATM   16  C   UNL     1      -6.266  -4.217 -34.641  1.00  0.00     0.035 C 
ENDBRANCH  11  15
ENDBRANCH   8  11
ENDBRANCH   1   5
BRANCH   2  17
HETATM   17  C   UNL     1     -10.675   2.727 -33.095  1.00  0.00     0.150 A 
HETATM   18  O   UNL     1     -10.718   3.554 -32.001  1.00  0.00    -0.304 OA
HETATM   19  C   UNL     1     -12.024   3.851 -31.772  1.00  0.00     0.087 A 
HETATM   20  C   UNL     1     -12.832   3.251 -32.727  1.00  0.00     0.009 A 
HETATM   21  C   UNL     1     -12.499   4.646 -30.733  1.00  0.00     0.041 A 
HETATM   22  C   UNL     1     -11.957   2.520 -33.587  1.00  0.00    -0.009 A 
HETATM   23  C   UNL     1     -14.219   3.476 -32.654  1.00  0.00     0.051 A 
HETATM   24  C   UNL     1     -12.329   1.717 -34.782  1.00  0.00     0.052 C 
HETATM   25  C   UNL     1     -14.740   4.274 -31.622  1.00  0.00     0.069 A 
HETATM   26  C   UNL     1     -13.886   4.846 -30.675  1.00  0.00     0.039 A 
BRANCH  25  27
HETATM   27  O   UNL     1     -16.102   4.416 -31.660  1.00  0.00    -0.356 OA
HETATM   28  C   UNL     1     -16.623   5.729 -31.496  1.00  0.00     0.210 C 
ENDBRANCH  25  27
ENDBRANCH   2  17
TORSDOF 6
ENDMDL
MODEL 10
REMARK VINA RESULT:      -7.0      4.614      5.949
REMARK  6 active torsions:
REMARK  status: ('A' for Active; 'I' for Inactive)
REMARK    1  A    between atoms: C_2  and  N_3 
REMARK    2  A    between atoms: N_3  and  C_5 
REMARK    3  A    between atoms: N_3  and  C_26 
REMARK    4  A    between atoms: C_8  and  N_9 
REMARK       I    between atoms: N_9  and  C_10 
REMARK    5  A    between atoms: C_10  and  C_11 
REMARK    6  A    between atoms: C_19  and  O_20 
ROOT
HETATM    1  N   UNL     1      -6.727   3.460 -33.287  1.00  0.00    -0.321 N 
HETATM    2  C   UNL     1      -7.016   2.249 -33.901  1.00  0.00     0.280 C 
HETATM    3  O   UNL     1      -6.182   1.529 -34.440  1.00  0.00    -0.265 OA
HETATM    4  H   UNL     1      -7.548   3.988 -33.011  1.00  0.00     0.169 HD
ENDROOT
BRANCH   1   5
HETATM    5  C   UNL     1      -5.475   4.091 -33.211  1.00  0.00     0.035 A 
HETATM    6  C   UNL     1      -4.995   4.982 -34.170  1.00  0.00     0.032 A 
HETATM    7  C   UNL     1      -3.762   5.622 -33.993  1.00  0.00     0.039 A 
HETATM    8  C   UNL     1      -3.014   5.416 -32.831  1.00  0.00     0.134 A 
HETATM    9  C   UNL     1      -3.471   4.490 -31.893  1.00  0.00     0.039 A 
HETATM   10  C   UNL     1      -4.683   3.814 -32.096  1.00  0.00     0.032 A 
BRANCH   8  11
HETATM   11  N   UNL     1      -1.760   6.204 -32.650  1.00  0.00    -0.042 N 
HETATM   12  H   UNL     1      -1.164   5.905 -33.433  1.00  0.00     0.286 HD
BRANCH  11  13
HETATM   13  C   UNL     1      -1.991   7.693 -32.826  1.00  0.00     0.237 C 
HETATM   14  C   UNL     1      -2.753   8.290 -31.656  1.00  0.00     0.035 C 
ENDBRANCH  11  13
BRANCH  11  15
HETATM   15  C   UNL     1      -0.953   5.818 -31.426  1.00  0.00     0.237 C 
HETATM   16  C   UNL     1       0.377   6.554 -31.304  1.00  0.00     0.035 C 
ENDBRANCH  11  15
ENDBRANCH   8  11
ENDBRANCH   1   5
BRANCH   2  17
HETATM   17  C   UNL     1      -8.439   1.958 -33.911  1.00  0.00     0.150 A 
HETATM   18  O   UNL     1      -9.291   2.887 -34.450  1.00  0.00    -0.304 OA
HETATM   19  C   UNL     1     -10.551   2.391 -34.341  1.00  0.00     0.087 A 
HETATM   20  C   UNL     1     -10.526   1.130 -33.763  1.00  0.00     0.009 A 
HETATM   21  C   UNL     1     -11.711   3.042 -34.749  1.00  0.00     0.041 A 
HETATM   22  C   UNL     1      -9.155   0.847 -33.483  1.00  0.00    -0.009 A 
HETATM   23  C   UNL     1     -11.750   0.456 -33.597  1.00  0.00     0.051 A 
HETATM   24  C   UNL     1      -8.594  -0.390 -32.878  1.00  0.00     0.052 C 
HETATM   25  C   UNL     1     -12.945   1.076 -33.999  1.00  0.00     0.069 A 
HETATM   26  C   UNL     1     -12.919   2.354 -34.563  1.00  0.00     0.039 A 
BRANCH  25  27
HETATM   27  O   UNL     1     -14.065   0.319 -33.784  1.00  0.00    -0.356 OA
HETATM   28  C   UNL     1     -15.302   0.841 -34.253  1.00  0.00     0.210 C 
ENDBRANCH  25  27
ENDBRANCH   2  17
TORSDOF 6
ENDMDL
