MODEL 1
REMARK VINA RESULT:      -8.6      0.000      0.000
REMARK  4 active torsions:
REMARK  status: ('A' for Active; 'I' for Inactive)
REMARK    1  A    between atoms: C_4  and  C_5 
REMARK    2  A    between atoms: C_8  and  C_9 
REMARK    3  A    between atoms: C_9  and  N_10 
REMARK       I    between atoms: N_10  and  C_11 
REMARK       I    between atoms: C_11  and  N_12 
REMARK    4  A    between atoms: N_12  and  C_13 
ROOT
HETATM    1  C   UNL     1      -6.946   2.363 -32.818  1.00  0.00     0.213 C 
ENDROOT
BRANCH   1   2
HETATM    2  C   UNL     1      -6.741   1.116 -33.594  1.00  0.00     0.190 A 
HETATM    3  O   UNL     1      -7.310   1.066 -34.831  1.00  0.00    -0.194 OA
HETATM    4  N   UNL     1      -7.062  -0.210 -35.329  1.00  0.00    -0.106 NA
HETATM    5  C   UNL     1      -6.364  -0.810 -34.350  1.00  0.00     0.189 A 
HETATM    6  N   UNL     1      -6.139  -0.002 -33.252  1.00  0.00    -0.202 NA
BRANCH   5   7
HETATM    7  C   UNL     1      -5.906  -2.195 -34.411  1.00  0.00     0.014 A 
HETATM    8  C   UNL     1      -6.763  -3.222 -34.839  1.00  0.00     0.015 A 
HETATM    9  C   UNL     1      -6.321  -4.547 -34.884  1.00  0.00     0.001 A 
HETATM   10  C   UNL     1      -5.018  -4.861 -34.502  1.00  0.00     0.000 A 
HETATM   11  C   UNL     1      -4.157  -3.853 -34.074  1.00  0.00     0.001 A 
HETATM   12  C   UNL     1      -4.598  -2.527 -34.029  1.00  0.00     0.015 A 
ENDBRANCH   5   7
ENDBRANCH   1   2
BRANCH   1  13
HETATM   13  N   UNL     1      -5.948   3.353 -33.168  1.00  0.00    -0.335 N 
HETATM   14  C   UNL     1      -6.292   4.504 -33.802  1.00  0.00     0.321 C 
HETATM   15  N   UNL     1      -5.338   5.467 -33.928  1.00  0.00    -0.309 N 
HETATM   16  O   UNL     1      -7.436   4.739 -34.182  1.00  0.00    -0.247 OA
HETATM   17  H   UNL     1      -5.756   6.359 -34.171  1.00  0.00     0.170 HD
HETATM   18  H   UNL     1      -5.115   3.379 -32.600  1.00  0.00     0.164 HD
BRANCH  15  19
HETATM   19  C   UNL     1      -3.941   5.451 -33.781  1.00  0.00     0.036 A 
HETATM   20  C   UNL     1      -3.282   5.563 -32.554  1.00  0.00     0.029 A 
HETATM   21  C   UNL     1      -1.886   5.539 -32.500  1.00  0.00     0.002 A 
HETATM   22  C   UNL     1      -1.138   5.390 -33.667  1.00  0.00     0.000 A 
HETATM   23  C   UNL     1      -1.788   5.241 -34.889  1.00  0.00     0.002 A 
HETATM   24  C   UNL     1      -3.183   5.258 -34.943  1.00  0.00     0.029 A 
ENDBRANCH  15  19
ENDBRANCH   1  13
TORSDOF 4
ENDMDL
MODEL 2
REMARK VINA RESULT:      -8.4      1.662      2.323
REMARK  4 active torsions:
REMARK  status: ('A' for Active; 'I' for Inactive)
REMARK    1  A    between atoms: C_4  and  C_5 
REMARK    2  A    between atoms: C_8  and  C_9 
REMARK    3  A    between atoms: C_9  and  N_10 
REMARK       I    between atoms: N_10  and  C_11 
REMARK       I    between atoms: C_11  and  N_12 
REMARK    4  A    between atoms: N_12  and  C_13 
ROOT
HETATM    1  C   UNL     1      -6.381   2.706 -32.480  1.00  0.00     0.213 C 
ENDROOT
BRANCH   1   2
HETATM    2  C   UNL     1      -6.311   1.494 -33.330  1.00  0.00     0.190 A 
HETATM    3  O   UNL     1      -6.838   1.594 -34.582  1.00  0.00    -0.194 OA
HETATM    4  N   UNL     1      -6.739   0.331 -35.156  1.00  0.00    -0.106 NA
HETATM    5  C   UNL     1      -6.159  -0.414 -34.201  1.00  0.00     0.189 A 
HETATM    6  N   UNL     1      -5.870   0.287 -33.046  1.00  0.00    -0.202 NA
BRANCH   5   7
HETATM    7  C   UNL     1      -5.881  -1.841 -34.340  1.00  0.00     0.014 A 
HETATM    8  C   UNL     1      -4.592  -2.352 -34.123  1.00  0.00     0.015 A 
HETATM    9  C   UNL     1      -4.331  -3.717 -34.269  1.00  0.00     0.001 A 
HETATM   10  C   UNL     1      -5.357  -4.587 -34.634  1.00  0.00     0.000 A 
HETATM   11  C   UNL     1      -6.641  -4.095 -34.853  1.00  0.00     0.001 A 
HETATM   12  C   UNL     1      -6.903  -2.730 -34.708  1.00  0.00     0.015 A 
ENDBRANCH   5   7
ENDBRANCH   1   2
BRANCH   1  13
HETATM   13  N   UNL     1      -5.083   3.345 -32.392  1.00  0.00    -0.335 N 
HETATM   14  C   UNL     1      -4.252   3.106 -31.344  1.00  0.00     0.321 C 
HETATM   15  N   UNL     1      -2.981   3.586 -31.421  1.00  0.00    -0.309 N 
HETATM   16  O   UNL     1      -4.574   2.411 -30.385  1.00  0.00    -0.247 OA
HETATM   17  H   UNL     1      -2.385   3.143 -30.732  1.00  0.00     0.170 HD
HETATM   18  H   UNL     1      -4.650   3.616 -33.261  1.00  0.00     0.164 HD
BRANCH  15  19
HETATM   19  C   UNL     1      -2.370   4.539 -32.254  1.00  0.00     0.036 A 
HETATM   20  C   UNL     1      -2.159   4.362 -33.623  1.00  0.00     0.029 A 
HETATM   21  C   UNL     1      -1.541   5.363 -34.377  1.00  0.00     0.002 A 
HETATM   22  C   UNL     1      -1.141   6.554 -33.772  1.00  0.00     0.000 A 
HETATM   23  C   UNL     1      -1.381   6.754 -32.415  1.00  0.00     0.002 A 
HETATM   24  C   UNL     1      -2.005   5.756 -31.664  1.00  0.00     0.029 A 
ENDBRANCH  15  19
ENDBRANCH   1  13
TORSDOF 4
ENDMDL
MODEL 3
REMARK VINA RESULT:      -8.3      1.760      7.947
REMARK  4 active torsions:
REMARK  status: ('A' for Active; 'I' for Inactive)
REMARK    1  A    between atoms: C_4  and  C_5 
REMARK    2  A    between atoms: C_8  and  C_9 
REMARK    3  A    between atoms: C_9  and  N_10 
REMARK       I    between atoms: N_10  and  C_11 
REMARK       I    between atoms: C_11  and  N_12 
REMARK    4  A    between atoms: N_12  and  C_13 
ROOT
HETATM    1  C   UNL     1      -6.034   1.159 -31.909  1.00  0.00     0.213 C 
ENDROOT
BRANCH   1   2
HETATM    2  C   UNL     1      -4.764   1.922 -31.957  1.00  0.00     0.190 A 
HETATM    3  O   UNL     1      -3.798   1.556 -31.070  1.00  0.00    -0.194 OA
HETATM    4  N   UNL     1      -2.746   2.451 -31.237  1.00  0.00    -0.106 NA
HETATM    5  C   UNL     1      -3.172   3.272 -32.212  1.00  0.00     0.189 A 
HETATM    6  N   UNL     1      -4.430   2.962 -32.690  1.00  0.00    -0.202 NA
BRANCH   5   7
HETATM    7  C   UNL     1      -2.403   4.410 -32.709  1.00  0.00     0.014 A 
HETATM    8  C   UNL     1      -1.784   5.306 -31.823  1.00  0.00     0.015 A 
HETATM    9  C   UNL     1      -1.059   6.400 -32.306  1.00  0.00     0.001 A 
HETATM   10  C   UNL     1      -0.945   6.609 -33.679  1.00  0.00     0.000 A 
HETATM   11  C   UNL     1      -1.555   5.728 -34.570  1.00  0.00     0.001 A 
HETATM   12  C   UNL     1      -2.280   4.634 -34.088  1.00  0.00     0.015 A 
ENDBRANCH   5   7
ENDBRANCH   1   2
BRANCH   1  13
HETATM   13  N   UNL     1      -5.988   0.031 -32.819  1.00  0.00    -0.335 N 
HETATM   14  C   UNL     1      -6.464   0.131 -34.087  1.00  0.00     0.321 C 
HETATM   15  N   UNL     1      -6.216  -0.900 -34.940  1.00  0.00    -0.309 N 
HETATM   16  O   UNL     1      -7.025   1.138 -34.510  1.00  0.00    -0.247 OA
HETATM   17  H   UNL     1      -6.378  -0.621 -35.901  1.00  0.00     0.170 HD
HETATM   18  H   UNL     1      -5.264  -0.652 -32.658  1.00  0.00     0.164 HD
BRANCH  15  19
HETATM   19  C   UNL     1      -5.787  -2.223 -34.738  1.00  0.00     0.036 A 
HETATM   20  C   UNL     1      -4.489  -2.576 -34.365  1.00  0.00     0.029 A 
HETATM   21  C   UNL     1      -4.148  -3.920 -34.187  1.00  0.00     0.002 A 
HETATM   22  C   UNL     1      -5.103  -4.919 -34.367  1.00  0.00     0.000 A 
HETATM   23  C   UNL     1      -6.409  -4.572 -34.702  1.00  0.00     0.002 A 
HETATM   24  C   UNL     1      -6.752  -3.230 -34.873  1.00  0.00     0.029 A 
ENDBRANCH  15  19
ENDBRANCH   1  13
TORSDOF 4
ENDMDL
MODEL 4
REMARK VINA RESULT:      -8.3      3.314      4.251
REMARK  4 active torsions:
REMARK  status: ('A' for Active; 'I' for Inactive)
REMARK    1  A    between atoms: C_4  and  C_5 
REMARK    2  A    between atoms: C_8  and  C_9 
REMARK    3  A    between atoms: C_9  and  N_10 
REMARK       I    between atoms: N_10  and  C_11 
REMARK       I    between atoms: C_11  and  N_12 
REMARK    4  A    between atoms: N_12  and  C_13 
ROOT
HETATM    1  C   UNL     1      -4.042   3.363 -31.987  1.00  0.00     0.213 C 
ENDROOT
BRANCH   1   2
HETATM    2  C   UNL     1      -3.746   1.914 -31.889  1.00  0.00     0.190 A 
HETATM    3  O   UNL     1      -2.807   1.543 -30.975  1.00  0.00    -0.194 OA
HETATM    4  N   UNL     1      -2.635   0.169 -31.119  1.00  0.00    -0.106 NA
HETATM    5  C   UNL     1      -3.488  -0.162 -32.102  1.00  0.00     0.189 A 
HETATM    6  N   UNL     1      -4.206   0.907 -32.601  1.00  0.00    -0.202 NA
BRANCH   5   7
HETATM    7  C   UNL     1      -3.633  -1.516 -32.629  1.00  0.00     0.014 A 
HETATM    8  C   UNL     1      -3.107  -2.621 -31.941  1.00  0.00     0.015 A 
HETATM    9  C   UNL     1      -3.241  -3.913 -32.457  1.00  0.00     0.001 A 
HETATM   10  C   UNL     1      -3.901  -4.115 -33.667  1.00  0.00     0.000 A 
HETATM   11  C   UNL     1      -4.427  -3.029 -34.362  1.00  0.00     0.001 A 
HETATM   12  C   UNL     1      -4.294  -1.737 -33.847  1.00  0.00     0.015 A 
ENDBRANCH   5   7
ENDBRANCH   1   2
BRANCH   1  13
HETATM   13  N   UNL     1      -2.861   4.147 -31.685  1.00  0.00    -0.335 N 
HETATM   14  C   UNL     1      -2.007   4.538 -32.666  1.00  0.00     0.321 C 
HETATM   15  N   UNL     1      -1.030   5.427 -32.338  1.00  0.00    -0.309 N 
HETATM   16  O   UNL     1      -2.135   4.192 -33.837  1.00  0.00    -0.247 OA
HETATM   17  H   UNL     1      -0.625   5.842 -33.170  1.00  0.00     0.170 HD
HETATM   18  H   UNL     1      -2.899   4.725 -30.859  1.00  0.00     0.164 HD
BRANCH  15  19
HETATM   19  C   UNL     1      -0.508   5.860 -31.108  1.00  0.00     0.036 A 
HETATM   20  C   UNL     1      -0.714   7.135 -30.576  1.00  0.00     0.029 A 
HETATM   21  C   UNL     1      -0.155   7.483 -29.343  1.00  0.00     0.002 A 
HETATM   22  C   UNL     1       0.602   6.557 -28.627  1.00  0.00     0.000 A 
HETATM   23  C   UNL     1       0.781   5.272 -29.132  1.00  0.00     0.002 A 
HETATM   24  C   UNL     1       0.217   4.922 -30.361  1.00  0.00     0.029 A 
ENDBRANCH  15  19
ENDBRANCH   1  13
TORSDOF 4
ENDMDL
MODEL 5
REMARK VINA RESULT:      -8.2      3.998      7.436
REMARK  4 active torsions:
REMARK  status: ('A' for Active; 'I' for Inactive)
REMARK    1  A    between atoms: C_4  and  C_5 
REMARK    2  A    between atoms: C_8  and  C_9 
REMARK    3  A    between atoms: C_9  and  N_10 
REMARK       I    between atoms: N_10  and  C_11 
REMARK       I    between atoms: C_11  and  N_12 
REMARK    4  A    between atoms: N_12  and  C_13 
ROOT
HETATM    1  C   UNL     1      -7.168   0.266 -31.527  1.00  0.00     0.213 C 
ENDROOT
BRANCH   1   2
HETATM    2  C   UNL     1      -8.338   0.724 -32.313  1.00  0.00     0.190 A 
HETATM    3  O   UNL     1      -8.221   1.931 -32.935  1.00  0.00    -0.194 OA
HETATM    4  N   UNL     1      -9.451   2.190 -33.531  1.00  0.00    -0.106 NA
HETATM    5  C   UNL     1     -10.196   1.117 -33.218  1.00  0.00     0.189 A 
HETATM    6  N   UNL     1      -9.525   0.176 -32.462  1.00  0.00    -0.202 NA
BRANCH   5   7
HETATM    7  C   UNL     1     -11.595   0.958 -33.604  1.00  0.00     0.014 A 
HETATM    8  C   UNL     1     -12.293   1.998 -34.237  1.00  0.00     0.015 A 
HETATM    9  C   UNL     1     -13.636   1.843 -34.595  1.00  0.00     0.001 A 
HETATM   10  C   UNL     1     -14.295   0.646 -34.323  1.00  0.00     0.000 A 
HETATM   11  C   UNL     1     -13.616  -0.395 -33.695  1.00  0.00     0.001 A 
HETATM   12  C   UNL     1     -12.273  -0.241 -33.337  1.00  0.00     0.015 A 
ENDBRANCH   5   7
ENDBRANCH   1   2
BRANCH   1  13
HETATM   13  N   UNL     1      -6.341  -0.626 -32.315  1.00  0.00    -0.335 N 
HETATM   14  C   UNL     1      -5.241  -0.171 -32.968  1.00  0.00     0.321 C 
HETATM   15  N   UNL     1      -4.410  -1.092 -33.527  1.00  0.00    -0.309 N 
HETATM   16  O   UNL     1      -4.928   1.016 -32.997  1.00  0.00    -0.247 OA
HETATM   17  H   UNL     1      -3.512  -0.678 -33.754  1.00  0.00     0.170 HD
HETATM   18  H   UNL     1      -6.341  -1.599 -32.049  1.00  0.00     0.164 HD
BRANCH  15  19
HETATM   19  C   UNL     1      -4.562  -2.456 -33.828  1.00  0.00     0.036 A 
HETATM   20  C   UNL     1      -5.518  -2.961 -34.712  1.00  0.00     0.029 A 
HETATM   21  C   UNL     1      -5.600  -4.336 -34.950  1.00  0.00     0.002 A 
HETATM   22  C   UNL     1      -4.720  -5.214 -34.319  1.00  0.00     0.000 A 
HETATM   23  C   UNL     1      -3.741  -4.715 -33.466  1.00  0.00     0.002 A 
HETATM   24  C   UNL     1      -3.654  -3.341 -33.232  1.00  0.00     0.029 A 
ENDBRANCH  15  19
ENDBRANCH   1  13
TORSDOF 4
ENDMDL
MODEL 6
REMARK VINA RESULT:      -8.1      1.706      7.687
REMARK  4 active torsions:
REMARK  status: ('A' for Active; 'I' for Inactive)
REMARK    1  A    between atoms: C_4  and  C_5 
REMARK    2  A    between atoms: C_8  and  C_9 
REMARK    3  A    between atoms: C_9  and  N_10 
REMARK       I    between atoms: N_10  and  C_11 
REMARK       I    between atoms: C_11  and  N_12 
REMARK    4  A    between atoms: N_12  and  C_13 
ROOT
HETATM    1  C   UNL     1      -6.647   3.682 -33.950  1.00  0.00     0.213 C 
ENDROOT
BRANCH   1   2
HETATM    2  C   UNL     1      -5.350   4.398 -33.901  1.00  0.00     0.190 A 
HETATM    3  O   UNL     1      -4.881   4.894 -35.079  1.00  0.00    -0.194 OA
HETATM    4  N   UNL     1      -3.629   5.440 -34.809  1.00  0.00    -0.106 NA
HETATM    5  C   UNL     1      -3.460   5.226 -33.494  1.00  0.00     0.189 A 
HETATM    6  N   UNL     1      -4.524   4.583 -32.893  1.00  0.00    -0.202 NA
BRANCH   5   7
HETATM    7  C   UNL     1      -2.256   5.604 -32.758  1.00  0.00     0.014 A 
HETATM    8  C   UNL     1      -1.743   4.784 -31.741  1.00  0.00     0.015 A 
HETATM    9  C   UNL     1      -0.597   5.158 -31.034  1.00  0.00     0.001 A 
HETATM   10  C   UNL     1       0.050   6.355 -31.336  1.00  0.00     0.000 A 
HETATM   11  C   UNL     1      -0.448   7.179 -32.343  1.00  0.00     0.001 A 
HETATM   12  C   UNL     1      -1.594   6.806 -33.050  1.00  0.00     0.015 A 
ENDBRANCH   5   7
ENDBRANCH   1   2
BRANCH   1  13
HETATM   13  N   UNL     1      -6.465   2.275 -33.657  1.00  0.00    -0.335 N 
HETATM   14  C   UNL     1      -6.772   1.766 -32.435  1.00  0.00     0.321 C 
HETATM   15  N   UNL     1      -6.758   0.413 -32.290  1.00  0.00    -0.309 N 
HETATM   16  O   UNL     1      -7.139   2.467 -31.496  1.00  0.00    -0.247 OA
HETATM   17  H   UNL     1      -7.241   0.136 -31.443  1.00  0.00     0.170 HD
HETATM   18  H   UNL     1      -6.511   1.639 -34.438  1.00  0.00     0.164 HD
BRANCH  15  19
HETATM   19  C   UNL     1      -6.224  -0.624 -33.073  1.00  0.00     0.036 A 
HETATM   20  C   UNL     1      -4.876  -0.990 -33.074  1.00  0.00     0.029 A 
HETATM   21  C   UNL     1      -4.430  -2.035 -33.887  1.00  0.00     0.002 A 
HETATM   22  C   UNL     1      -5.328  -2.731 -34.694  1.00  0.00     0.000 A 
HETATM   23  C   UNL     1      -6.679  -2.398 -34.672  1.00  0.00     0.002 A 
HETATM   24  C   UNL     1      -7.126  -1.358 -33.854  1.00  0.00     0.029 A 
ENDBRANCH  15  19
ENDBRANCH   1  13
TORSDOF 4
ENDMDL
MODEL 7
REMARK VINA RESULT:      -8.0      2.462      8.258
REMARK  4 active torsions:
REMARK  status: ('A' for Active; 'I' for Inactive)
REMARK    1  A    between atoms: C_4  and  C_5 
REMARK    2  A    between atoms: C_8  and  C_9 
REMARK    3  A    between atoms: C_9  and  N_10 
REMARK       I    between atoms: N_10  and  C_11 
REMARK       I    between atoms: C_11  and  N_12 
REMARK    4  A    between atoms: N_12  and  C_13 
ROOT
HETATM    1  C   UNL     1      -4.312   0.296 -30.710  1.00  0.00     0.213 C 
ENDROOT
BRANCH   1   2
HETATM    2  C   UNL     1      -4.121   1.624 -31.341  1.00  0.00     0.190 A 
HETATM    3  O   UNL     1      -5.206   2.167 -31.961  1.00  0.00    -0.194 OA
HETATM    4  N   UNL     1      -4.775   3.354 -32.545  1.00  0.00    -0.106 NA
HETATM    5  C   UNL     1      -3.473   3.420 -32.223  1.00  0.00     0.189 A 
HETATM    6  N   UNL     1      -3.034   2.355 -31.461  1.00  0.00    -0.202 NA
BRANCH   5   7
HETATM    7  C   UNL     1      -2.582   4.494 -32.655  1.00  0.00     0.014 A 
HETATM    8  C   UNL     1      -2.240   4.649 -34.008  1.00  0.00     0.015 A 
HETATM    9  C   UNL     1      -1.378   5.672 -34.412  1.00  0.00     0.001 A 
HETATM   10  C   UNL     1      -0.850   6.552 -33.470  1.00  0.00     0.000 A 
HETATM   11  C   UNL     1      -1.180   6.410 -32.124  1.00  0.00     0.001 A 
HETATM   12  C   UNL     1      -2.042   5.387 -31.718  1.00  0.00     0.015 A 
ENDBRANCH   5   7
ENDBRANCH   1   2
BRANCH   1  13
HETATM   13  N   UNL     1      -4.388  -0.743 -31.717  1.00  0.00    -0.335 N 
HETATM   14  C   UNL     1      -3.270  -1.366 -32.170  1.00  0.00     0.321 C 
HETATM   15  N   UNL     1      -3.431  -2.455 -32.970  1.00  0.00    -0.309 N 
HETATM   16  O   UNL     1      -2.138  -1.040 -31.820  1.00  0.00    -0.247 OA
HETATM   17  H   UNL     1      -2.570  -2.986 -33.035  1.00  0.00     0.170 HD
HETATM   18  H   UNL     1      -5.250  -1.263 -31.768  1.00  0.00     0.164 HD
BRANCH  15  19
HETATM   19  C   UNL     1      -4.531  -2.959 -33.684  1.00  0.00     0.036 A 
HETATM   20  C   UNL     1      -5.646  -2.199 -34.044  1.00  0.00     0.029 A 
HETATM   21  C   UNL     1      -6.698  -2.783 -34.754  1.00  0.00     0.002 A 
HETATM   22  C   UNL     1      -6.639  -4.126 -35.122  1.00  0.00     0.000 A 
HETATM   23  C   UNL     1      -5.515  -4.882 -34.800  1.00  0.00     0.002 A 
HETATM   24  C   UNL     1      -4.461  -4.296 -34.097  1.00  0.00     0.029 A 
ENDBRANCH  15  19
ENDBRANCH   1  13
TORSDOF 4
ENDMDL
MODEL 8
REMARK VINA RESULT:      -8.0      1.692      2.280
REMARK  4 active torsions:
REMARK  status: ('A' for Active; 'I' for Inactive)
REMARK    1  A    between atoms: C_4  and  C_5 
REMARK    2  A    between atoms: C_8  and  C_9 
REMARK    3  A    between atoms: C_9  and  N_10 
REMARK       I    between atoms: N_10  and  C_11 
REMARK       I    between atoms: C_11  and  N_12 
REMARK    4  A    between atoms: N_12  and  C_13 
ROOT
HETATM    1  C   UNL     1      -6.153   3.800 -32.456  1.00  0.00     0.213 C 
ENDROOT
BRANCH   1   2
HETATM    2  C   UNL     1      -5.968   2.330 -32.441  1.00  0.00     0.190 A 
HETATM    3  O   UNL     1      -5.488   1.786 -31.288  1.00  0.00    -0.194 OA
HETATM    4  N   UNL     1      -5.317   0.426 -31.532  1.00  0.00    -0.106 NA
HETATM    5  C   UNL     1      -5.712   0.274 -32.807  1.00  0.00     0.189 A 
HETATM    6  N   UNL     1      -6.134   1.447 -33.403  1.00  0.00    -0.202 NA
BRANCH   5   7
HETATM    7  C   UNL     1      -5.676  -0.999 -33.522  1.00  0.00     0.014 A 
HETATM    8  C   UNL     1      -6.850  -1.577 -34.030  1.00  0.00     0.015 A 
HETATM    9  C   UNL     1      -6.808  -2.801 -34.704  1.00  0.00     0.001 A 
HETATM   10  C   UNL     1      -5.593  -3.460 -34.878  1.00  0.00     0.000 A 
HETATM   11  C   UNL     1      -4.420  -2.899 -34.379  1.00  0.00     0.001 A 
HETATM   12  C   UNL     1      -4.460  -1.675 -33.705  1.00  0.00     0.015 A 
ENDBRANCH   5   7
ENDBRANCH   1   2
BRANCH   1  13
HETATM   13  N   UNL     1      -4.894   4.471 -32.712  1.00  0.00    -0.335 N 
HETATM   14  C   UNL     1      -4.554   4.874 -33.964  1.00  0.00     0.321 C 
HETATM   15  N   UNL     1      -3.452   5.661 -34.099  1.00  0.00    -0.309 N 
HETATM   16  O   UNL     1      -5.242   4.629 -34.951  1.00  0.00    -0.247 OA
HETATM   17  H   UNL     1      -3.438   6.109 -35.009  1.00  0.00     0.170 HD
HETATM   18  H   UNL     1      -4.489   4.984 -31.945  1.00  0.00     0.164 HD
BRANCH  15  19
HETATM   19  C   UNL     1      -2.382   5.959 -33.240  1.00  0.00     0.036 A 
HETATM   20  C   UNL     1      -1.494   5.006 -32.736  1.00  0.00     0.029 A 
HETATM   21  C   UNL     1      -0.456   5.392 -31.883  1.00  0.00     0.002 A 
HETATM   22  C   UNL     1      -0.289   6.732 -31.538  1.00  0.00     0.000 A 
HETATM   23  C   UNL     1      -1.147   7.693 -32.065  1.00  0.00     0.002 A 
HETATM   24  C   UNL     1      -2.180   7.309 -32.923  1.00  0.00     0.029 A 
ENDBRANCH  15  19
ENDBRANCH   1  13
TORSDOF 4
ENDMDL
MODEL 9
REMARK VINA RESULT:      -7.9      4.086      6.596
REMARK  4 active torsions:
REMARK  status: ('A' for Active; 'I' for Inactive)
REMARK    1  A    between atoms: C_4  and  C_5 
REMARK    2  A    between atoms: C_8  and  C_9 
REMARK    3  A    between atoms: C_9  and  N_10 
REMARK       I    between atoms: N_10  and  C_11 
REMARK       I    between atoms: C_11  and  N_12 
REMARK    4  A    between atoms: N_12  and  C_13 
ROOT
HETATM    1  C   UNL     1      -8.678   2.143 -31.201  1.00  0.00     0.213 C 
ENDROOT
BRANCH   1   2
HETATM    2  C   UNL     1      -7.699   1.358 -31.990  1.00  0.00     0.190 A 
HETATM    3  O   UNL     1      -6.696   2.057 -32.590  1.00  0.00    -0.194 OA
HETATM    4  N   UNL     1      -5.961   1.138 -33.333  1.00  0.00    -0.106 NA
HETATM    5  C   UNL     1      -6.586  -0.030 -33.112  1.00  0.00     0.189 A 
HETATM    6  N   UNL     1      -7.675   0.072 -32.267  1.00  0.00    -0.202 NA
BRANCH   5   7
HETATM    7  C   UNL     1      -6.186  -1.294 -33.724  1.00  0.00     0.014 A 
HETATM    8  C   UNL     1      -7.142  -2.191 -34.225  1.00  0.00     0.015 A 
HETATM    9  C   UNL     1      -6.752  -3.404 -34.799  1.00  0.00     0.001 A 
HETATM   10  C   UNL     1      -5.400  -3.734 -34.879  1.00  0.00     0.000 A 
HETATM   11  C   UNL     1      -4.440  -2.854 -34.386  1.00  0.00     0.001 A 
HETATM   12  C   UNL     1      -4.829  -1.641 -33.811  1.00  0.00     0.015 A 
ENDBRANCH   5   7
ENDBRANCH   1   2
BRANCH   1  13
HETATM   13  N   UNL     1      -9.932   2.263 -31.916  1.00  0.00    -0.335 N 
HETATM   14  C   UNL     1     -10.188   3.333 -32.713  1.00  0.00     0.321 C 
HETATM   15  N   UNL     1     -11.298   3.288 -33.498  1.00  0.00    -0.309 N 
HETATM   16  O   UNL     1      -9.420   4.286 -32.813  1.00  0.00    -0.247 OA
HETATM   17  H   UNL     1     -11.256   3.995 -34.224  1.00  0.00     0.170 HD
HETATM   18  H   UNL     1     -10.410   1.405 -32.143  1.00  0.00     0.164 HD
BRANCH  15  19
HETATM   19  C   UNL     1     -12.439   2.468 -33.490  1.00  0.00     0.036 A 
HETATM   20  C   UNL     1     -13.591   2.737 -32.746  1.00  0.00     0.029 A 
HETATM   21  C   UNL     1     -14.681   1.864 -32.796  1.00  0.00     0.002 A 
HETATM   22  C   UNL     1     -14.635   0.725 -33.597  1.00  0.00     0.000 A 
HETATM   23  C   UNL     1     -13.506   0.469 -34.369  1.00  0.00     0.002 A 
HETATM   24  C   UNL     1     -12.419   1.344 -34.326  1.00  0.00     0.029 A 
ENDBRANCH  15  19
ENDBRANCH   1  13
TORSDOF 4
ENDMDL
MODEL 10
REMARK VINA RESULT:      -7.8      2.497      3.327
REMARK  4 active torsions:
REMARK  status: ('A' for Active; 'I' for Inactive)
REMARK    1  A    between atoms: C_4  and  C_5 
REMARK    2  A    between atoms: C_8  and  C_9 
REMARK    3  A    between atoms: C_9  and  N_10 
REMARK       I    between atoms: N_10  and  C_11 
REMARK       I    between atoms: C_11  and  N_12 
REMARK    4  A    between atoms: N_12  and  C_13 
ROOT
HETATM    1  C   UNL     1      -4.933   2.641 -30.540  1.00  0.00     0.213 C 
ENDROOT
BRANCH   1   2
HETATM    2  C   UNL     1      -4.647   1.426 -31.339  1.00  0.00     0.190 A 
HETATM    3  O   UNL     1      -3.339   1.185 -31.637  1.00  0.00    -0.194 OA
HETATM    4  N   UNL     1      -3.320   0.057 -32.452  1.00  0.00    -0.106 NA
HETATM    5  C   UNL     1      -4.615  -0.280 -32.569  1.00  0.00     0.189 A 
HETATM    6  N   UNL     1      -5.472   0.553 -31.875  1.00  0.00    -0.202 NA
BRANCH   5   7
HETATM    7  C   UNL     1      -5.093  -1.401 -33.374  1.00  0.00     0.014 A 
HETATM    8  C   UNL     1      -4.239  -2.460 -33.719  1.00  0.00     0.015 A 
HETATM    9  C   UNL     1      -4.701  -3.524 -34.500  1.00  0.00     0.001 A 
HETATM   10  C   UNL     1      -6.022  -3.540 -34.944  1.00  0.00     0.000 A 
HETATM   11  C   UNL     1      -6.881  -2.496 -34.610  1.00  0.00     0.001 A 
HETATM   12  C   UNL     1      -6.420  -1.431 -33.830  1.00  0.00     0.015 A 
ENDBRANCH   5   7
ENDBRANCH   1   2
BRANCH   1  13
HETATM   13  N   UNL     1      -3.945   3.668 -30.801  1.00  0.00    -0.335 N 
HETATM   14  C   UNL     1      -4.122   4.578 -31.794  1.00  0.00     0.321 C 
HETATM   15  N   UNL     1      -3.252   5.623 -31.858  1.00  0.00    -0.309 N 
HETATM   16  O   UNL     1      -5.073   4.539 -32.570  1.00  0.00    -0.247 OA
HETATM   17  H   UNL     1      -3.617   6.360 -32.451  1.00  0.00     0.170 HD
HETATM   18  H   UNL     1      -3.368   3.951 -30.023  1.00  0.00     0.164 HD
BRANCH  15  19
HETATM   19  C   UNL     1      -1.998   5.858 -31.270  1.00  0.00     0.036 A 
HETATM   20  C   UNL     1      -0.811   5.253 -31.690  1.00  0.00     0.029 A 
HETATM   21  C   UNL     1       0.394   5.544 -31.044  1.00  0.00     0.002 A 
HETATM   22  C   UNL     1       0.425   6.450 -29.985  1.00  0.00     0.000 A 
HETATM   23  C   UNL     1      -0.747   7.085 -29.585  1.00  0.00     0.002 A 
HETATM   24  C   UNL     1      -1.950   6.800 -30.234  1.00  0.00     0.029 A 
ENDBRANCH  15  19
ENDBRANCH   1  13
TORSDOF 4
ENDMDL
