MODEL 1
REMARK VINA RESULT:      -8.2      0.000      0.000
REMARK  6 active torsions:
REMARK  status: ('A' for Active; 'I' for Inactive)
REMARK    1  A    between atoms: O_2  and  C_3 
REMARK    2  A    between atoms: C_4  and  N_5 
REMARK       I    between atoms: N_5  and  C_6 
REMARK       I    between atoms: C_6  and  N_7 
REMARK    3  A    between atoms: N_7  and  C_8 
REMARK    4  A    between atoms: C_8  and  C_9 
REMARK    5  A    between atoms: C_9  and  C_10 
REMARK    6  A    between atoms: C_10  and  N_11 
ROOT
HETATM    1  N   UNL     1      -2.324   4.068 -31.788  1.00  0.00    -0.306 N 
HETATM    2  C   UNL     1      -3.462   3.395 -31.418  1.00  0.00     0.320 C 
HETATM    3  N   UNL     1      -3.232   2.032 -31.416  1.00  0.00    -0.343 N 
HETATM    4  O   UNL     1      -4.554   3.887 -31.177  1.00  0.00    -0.247 OA
HETATM    5  H   UNL     1      -1.603   3.515 -32.235  1.00  0.00     0.171 HD
HETATM    6  H   UNL     1      -2.313   1.770 -31.087  1.00  0.00     0.164 HD
ENDROOT
BRANCH   3   7
HETATM    7  C   UNL     1      -4.307   1.096 -31.146  1.00  0.00     0.126 C 
BRANCH   7   8
HETATM    8  C   UNL     1      -3.982  -0.329 -31.590  1.00  0.00     0.040 C 
BRANCH   8   9
HETATM    9  C   UNL     1      -3.798  -0.426 -33.102  1.00  0.00     0.131 C 
BRANCH   9  10
HETATM   10  N   UNL     1      -4.938  -1.042 -33.755  1.00  0.00    -0.341 N 
HETATM   11  C   UNL     1      -5.046  -2.377 -34.051  1.00  0.00     0.139 A 
HETATM   12  C   UNL     1      -6.269  -2.568 -34.692  1.00  0.00     0.011 A 
HETATM   13  N   UNL     1      -4.125  -3.320 -33.762  1.00  0.00    -0.242 NA
HETATM   14  C   UNL     1      -6.597  -3.873 -35.088  1.00  0.00     0.017 A 
HETATM   15  C   UNL     1      -6.898  -1.297 -34.775  1.00  0.00     0.032 A 
HETATM   16  C   UNL     1      -5.677  -4.884 -34.812  1.00  0.00     0.020 A 
HETATM   17  C   UNL     1      -4.493  -4.558 -34.165  1.00  0.00     0.119 A 
HETATM   18  C   UNL     1      -6.056  -0.374 -34.191  1.00  0.00     0.093 A 
ENDBRANCH   9  10
ENDBRANCH   8   9
ENDBRANCH   7   8
ENDBRANCH   3   7
BRANCH   1  19
HETATM   19  C   UNL     1      -2.145   5.462 -31.891  1.00  0.00     0.071 A 
HETATM   20  C   UNL     1      -2.040   5.998 -33.186  1.00  0.00     0.095 A 
HETATM   21  C   UNL     1      -1.813   7.360 -33.388  1.00  0.00     0.041 A 
HETATM   22  C   UNL     1      -1.726   8.207 -32.284  1.00  0.00     0.026 A 
HETATM   23  C   UNL     1      -1.852   7.684 -30.996  1.00  0.00     0.036 A 
HETATM   24  C   UNL     1      -2.060   6.318 -30.792  1.00  0.00     0.056 A 
HETATM   25 CL   UNL     1      -1.735   8.741 -29.642  1.00  0.00    -0.084 Cl
BRANCH  20  26
HETATM   26  O   UNL     1      -2.132   5.148 -34.263  1.00  0.00    -0.354 OA
HETATM   27  C   UNL     1      -3.396   5.312 -34.912  1.00  0.00     0.210 C 
ENDBRANCH  20  26
ENDBRANCH   1  19
TORSDOF 6
ENDMDL
MODEL 2
REMARK VINA RESULT:      -8.1      3.941      8.669
REMARK  6 active torsions:
REMARK  status: ('A' for Active; 'I' for Inactive)
REMARK    1  A    between atoms: O_2  and  C_3 
REMARK    2  A    between atoms: C_4  and  N_5 
REMARK       I    between atoms: N_5  and  C_6 
REMARK       I    between atoms: C_6  and  N_7 
REMARK    3  A    between atoms: N_7  and  C_8 
REMARK    4  A    between atoms: C_8  and  C_9 
REMARK    5  A    between atoms: C_9  and  C_10 
REMARK    6  A    between atoms: C_10  and  N_11 
ROOT
HETATM    1  N   UNL     1      -6.696  -0.088 -33.087  1.00  0.00    -0.306 N 
HETATM    2  C   UNL     1      -6.908   1.062 -33.808  1.00  0.00     0.320 C 
HETATM    3  N   UNL     1      -7.516   2.017 -33.015  1.00  0.00    -0.343 N 
HETATM    4  O   UNL     1      -6.666   1.234 -34.993  1.00  0.00    -0.247 OA
HETATM    5  H   UNL     1      -7.212  -0.175 -32.221  1.00  0.00     0.171 HD
HETATM    6  H   UNL     1      -7.190   2.026 -32.058  1.00  0.00     0.164 HD
ENDROOT
BRANCH   3   7
HETATM    7  C   UNL     1      -7.928   3.292 -33.571  1.00  0.00     0.126 C 
BRANCH   7   8
HETATM    8  C   UNL     1      -6.964   4.428 -33.233  1.00  0.00     0.040 C 
BRANCH   8   9
HETATM    9  C   UNL     1      -5.745   4.433 -34.152  1.00  0.00     0.131 C 
BRANCH   9  10
HETATM   10  N   UNL     1      -4.506   4.237 -33.421  1.00  0.00    -0.341 N 
HETATM   11  C   UNL     1      -3.412   5.061 -33.497  1.00  0.00     0.139 A 
HETATM   12  C   UNL     1      -2.425   4.526 -32.671  1.00  0.00     0.011 A 
HETATM   13  N   UNL     1      -3.327   6.184 -34.241  1.00  0.00    -0.242 NA
HETATM   14  C   UNL     1      -1.205   5.213 -32.591  1.00  0.00     0.017 A 
HETATM   15  C   UNL     1      -2.962   3.345 -32.092  1.00  0.00     0.032 A 
HETATM   16  C   UNL     1      -1.067   6.380 -33.341  1.00  0.00     0.020 A 
HETATM   17  C   UNL     1      -2.132   6.805 -34.125  1.00  0.00     0.119 A 
HETATM   18  C   UNL     1      -4.246   3.190 -32.572  1.00  0.00     0.093 A 
ENDBRANCH   9  10
ENDBRANCH   8   9
ENDBRANCH   7   8
ENDBRANCH   3   7
BRANCH   1  19
HETATM   19  C   UNL     1      -6.085  -1.279 -33.529  1.00  0.00     0.071 A 
HETATM   20  C   UNL     1      -4.732  -1.464 -33.196  1.00  0.00     0.095 A 
HETATM   21  C   UNL     1      -4.028  -2.587 -33.630  1.00  0.00     0.041 A 
HETATM   22  C   UNL     1      -4.690  -3.559 -34.379  1.00  0.00     0.026 A 
HETATM   23  C   UNL     1      -6.039  -3.392 -34.694  1.00  0.00     0.036 A 
HETATM   24  C   UNL     1      -6.740  -2.258 -34.276  1.00  0.00     0.056 A 
HETATM   25 CL   UNL     1      -6.843  -4.597 -35.625  1.00  0.00    -0.084 Cl
BRANCH  20  26
HETATM   26  O   UNL     1      -4.096  -0.496 -32.454  1.00  0.00    -0.354 OA
HETATM   27  C   UNL     1      -2.893  -1.022 -31.888  1.00  0.00     0.210 C 
ENDBRANCH  20  26
ENDBRANCH   1  19
TORSDOF 6
ENDMDL
MODEL 3
REMARK VINA RESULT:      -8.0      3.543      9.175
REMARK  6 active torsions:
REMARK  status: ('A' for Active; 'I' for Inactive)
REMARK    1  A    between atoms: O_2  and  C_3 
REMARK    2  A    between atoms: C_4  and  N_5 
REMARK       I    between atoms: N_5  and  C_6 
REMARK       I    between atoms: C_6  and  N_7 
REMARK    3  A    between atoms: N_7  and  C_8 
REMARK    4  A    between atoms: C_8  and  C_9 
REMARK    5  A    between atoms: C_9  and  C_10 
REMARK    6  A    between atoms: C_10  and  N_11 
ROOT
HETATM    1  N   UNL     1      -5.410  -0.325 -32.583  1.00  0.00    -0.306 N 
HETATM    2  C   UNL     1      -4.330   0.491 -32.353  1.00  0.00     0.320 C 
HETATM    3  N   UNL     1      -4.698   1.559 -31.557  1.00  0.00    -0.343 N 
HETATM    4  O   UNL     1      -3.207   0.361 -32.817  1.00  0.00    -0.247 OA
HETATM    5  H   UNL     1      -6.320   0.070 -32.381  1.00  0.00     0.171 HD
HETATM    6  H   UNL     1      -5.366   1.323 -30.835  1.00  0.00     0.164 HD
ENDROOT
BRANCH   3   7
HETATM    7  C   UNL     1      -3.754   2.615 -31.245  1.00  0.00     0.126 C 
BRANCH   7   8
HETATM    8  C   UNL     1      -3.831   3.790 -32.218  1.00  0.00     0.040 C 
BRANCH   8   9
HETATM    9  C   UNL     1      -2.600   3.865 -33.117  1.00  0.00     0.131 C 
BRANCH   9  10
HETATM   10  N   UNL     1      -1.868   5.107 -32.943  1.00  0.00    -0.341 N 
HETATM   11  C   UNL     1      -1.018   5.377 -31.901  1.00  0.00     0.139 A 
HETATM   12  C   UNL     1      -0.533   6.671 -32.079  1.00  0.00     0.011 A 
HETATM   13  N   UNL     1      -0.716   4.528 -30.896  1.00  0.00    -0.242 NA
HETATM   14  C   UNL     1       0.367   7.164 -31.121  1.00  0.00     0.017 A 
HETATM   15  C   UNL     1      -1.122   7.177 -33.268  1.00  0.00     0.032 A 
HETATM   16  C   UNL     1       0.710   6.324 -30.063  1.00  0.00     0.020 A 
HETATM   17  C   UNL     1       0.154   5.053 -30.005  1.00  0.00     0.119 A 
HETATM   18  C   UNL     1      -1.942   6.192 -33.781  1.00  0.00     0.093 A 
ENDBRANCH   9  10
ENDBRANCH   8   9
ENDBRANCH   7   8
ENDBRANCH   3   7
BRANCH   1  19
HETATM   19  C   UNL     1      -5.440  -1.522 -33.327  1.00  0.00     0.071 A 
HETATM   20  C   UNL     1      -6.605  -1.782 -34.070  1.00  0.00     0.095 A 
HETATM   21  C   UNL     1      -6.748  -2.963 -34.798  1.00  0.00     0.041 A 
HETATM   22  C   UNL     1      -5.701  -3.883 -34.818  1.00  0.00     0.026 A 
HETATM   23  C   UNL     1      -4.532  -3.619 -34.101  1.00  0.00     0.036 A 
HETATM   24  C   UNL     1      -4.396  -2.446 -33.354  1.00  0.00     0.056 A 
HETATM   25 CL   UNL     1      -3.249  -4.768 -34.128  1.00  0.00    -0.084 Cl
BRANCH  20  26
HETATM   26  O   UNL     1      -7.626  -0.862 -34.042  1.00  0.00    -0.354 OA
HETATM   27  C   UNL     1      -7.594  -0.056 -35.222  1.00  0.00     0.210 C 
ENDBRANCH  20  26
ENDBRANCH   1  19
TORSDOF 6
ENDMDL
MODEL 4
REMARK VINA RESULT:      -7.6      1.716      2.406
REMARK  6 active torsions:
REMARK  status: ('A' for Active; 'I' for Inactive)
REMARK    1  A    between atoms: O_2  and  C_3 
REMARK    2  A    between atoms: C_4  and  N_5 
REMARK       I    between atoms: N_5  and  C_6 
REMARK       I    between atoms: C_6  and  N_7 
REMARK    3  A    between atoms: N_7  and  C_8 
REMARK    4  A    between atoms: C_8  and  C_9 
REMARK    5  A    between atoms: C_9  and  C_10 
REMARK    6  A    between atoms: C_10  and  N_11 
ROOT
HETATM    1  N   UNL     1      -2.636   3.991 -32.206  1.00  0.00    -0.306 N 
HETATM    2  C   UNL     1      -3.918   3.848 -31.733  1.00  0.00     0.320 C 
HETATM    3  N   UNL     1      -4.546   2.793 -32.368  1.00  0.00    -0.343 N 
HETATM    4  O   UNL     1      -4.478   4.564 -30.918  1.00  0.00    -0.247 OA
HETATM    5  H   UNL     1      -2.424   3.518 -33.075  1.00  0.00     0.171 HD
HETATM    6  H   UNL     1      -3.940   2.003 -32.551  1.00  0.00     0.164 HD
ENDROOT
BRANCH   3   7
HETATM    7  C   UNL     1      -5.940   2.492 -32.109  1.00  0.00     0.126 C 
BRANCH   7   8
HETATM    8  C   UNL     1      -6.140   1.599 -30.885  1.00  0.00     0.040 C 
BRANCH   8   9
HETATM    9  C   UNL     1      -6.599   0.196 -31.273  1.00  0.00     0.131 C 
BRANCH   9  10
HETATM   10  N   UNL     1      -5.542  -0.571 -31.908  1.00  0.00    -0.341 N 
HETATM   11  C   UNL     1      -5.705  -1.367 -33.013  1.00  0.00     0.139 A 
HETATM   12  C   UNL     1      -4.471  -1.946 -33.299  1.00  0.00     0.011 A 
HETATM   13  N   UNL     1      -6.860  -1.541 -33.688  1.00  0.00    -0.242 NA
HETATM   14  C   UNL     1      -4.399  -2.808 -34.404  1.00  0.00     0.017 A 
HETATM   15  C   UNL     1      -3.552  -1.472 -32.324  1.00  0.00     0.032 A 
HETATM   16  C   UNL     1      -5.567  -3.021 -35.135  1.00  0.00     0.020 A 
HETATM   17  C   UNL     1      -6.734  -2.379 -34.742  1.00  0.00     0.119 A 
HETATM   18  C   UNL     1      -4.239  -0.626 -31.478  1.00  0.00     0.093 A 
ENDBRANCH   9  10
ENDBRANCH   8   9
ENDBRANCH   7   8
ENDBRANCH   3   7
BRANCH   1  19
HETATM   19  C   UNL     1      -1.671   4.935 -31.798  1.00  0.00     0.071 A 
HETATM   20  C   UNL     1      -1.396   5.989 -32.686  1.00  0.00     0.095 A 
HETATM   21  C   UNL     1      -0.422   6.944 -32.393  1.00  0.00     0.041 A 
HETATM   22  C   UNL     1       0.264   6.869 -31.181  1.00  0.00     0.026 A 
HETATM   23  C   UNL     1      -0.021   5.837 -30.286  1.00  0.00     0.036 A 
HETATM   24  C   UNL     1      -0.983   4.868 -30.587  1.00  0.00     0.056 A 
HETATM   25 CL   UNL     1       0.838   5.751 -28.796  1.00  0.00    -0.084 Cl
BRANCH  20  26
HETATM   26  O   UNL     1      -2.084   6.049 -33.875  1.00  0.00    -0.354 OA
HETATM   27  C   UNL     1      -1.333   5.411 -34.911  1.00  0.00     0.210 C 
ENDBRANCH  20  26
ENDBRANCH   1  19
TORSDOF 6
ENDMDL
MODEL 5
REMARK VINA RESULT:      -7.5      2.038      2.818
REMARK  6 active torsions:
REMARK  status: ('A' for Active; 'I' for Inactive)
REMARK    1  A    between atoms: O_2  and  C_3 
REMARK    2  A    between atoms: C_4  and  N_5 
REMARK       I    between atoms: N_5  and  C_6 
REMARK       I    between atoms: C_6  and  N_7 
REMARK    3  A    between atoms: N_7  and  C_8 
REMARK    4  A    between atoms: C_8  and  C_9 
REMARK    5  A    between atoms: C_9  and  C_10 
REMARK    6  A    between atoms: C_10  and  N_11 
ROOT
HETATM    1  N   UNL     1      -3.209   4.198 -31.131  1.00  0.00    -0.306 N 
HETATM    2  C   UNL     1      -4.539   4.434 -30.881  1.00  0.00     0.320 C 
HETATM    3  N   UNL     1      -5.213   3.238 -30.718  1.00  0.00    -0.343 N 
HETATM    4  O   UNL     1      -5.095   5.521 -30.861  1.00  0.00    -0.247 OA
HETATM    5  H   UNL     1      -2.966   3.255 -31.406  1.00  0.00     0.171 HD
HETATM    6  H   UNL     1      -4.684   2.531 -30.226  1.00  0.00     0.164 HD
ENDROOT
BRANCH   3   7
HETATM    7  C   UNL     1      -6.652   3.215 -30.532  1.00  0.00     0.126 C 
BRANCH   7   8
HETATM    8  C   UNL     1      -7.387   2.501 -31.666  1.00  0.00     0.040 C 
BRANCH   8   9
HETATM    9  C   UNL     1      -7.671   1.040 -31.329  1.00  0.00     0.131 C 
BRANCH   9  10
HETATM   10  N   UNL     1      -6.966   0.127 -32.210  1.00  0.00    -0.341 N 
HETATM   11  C   UNL     1      -5.653  -0.243 -32.068  1.00  0.00     0.139 A 
HETATM   12  C   UNL     1      -5.345  -1.108 -33.117  1.00  0.00     0.011 A 
HETATM   13  N   UNL     1      -4.826   0.165 -31.083  1.00  0.00    -0.242 NA
HETATM   14  C   UNL     1      -4.040  -1.620 -33.173  1.00  0.00     0.017 A 
HETATM   15  C   UNL     1      -6.521  -1.247 -33.901  1.00  0.00     0.032 A 
HETATM   16  C   UNL     1      -3.147  -1.228 -32.177  1.00  0.00     0.020 A 
HETATM   17  C   UNL     1      -3.584  -0.359 -31.186  1.00  0.00     0.119 A 
HETATM   18  C   UNL     1      -7.506  -0.475 -33.320  1.00  0.00     0.093 A 
ENDBRANCH   9  10
ENDBRANCH   8   9
ENDBRANCH   7   8
ENDBRANCH   3   7
BRANCH   1  19
HETATM   19  C   UNL     1      -2.191   5.152 -31.333  1.00  0.00     0.071 A 
HETATM   20  C   UNL     1      -1.883   5.483 -32.664  1.00  0.00     0.095 A 
HETATM   21  C   UNL     1      -0.858   6.379 -32.967  1.00  0.00     0.041 A 
HETATM   22  C   UNL     1      -0.151   6.983 -31.927  1.00  0.00     0.026 A 
HETATM   23  C   UNL     1      -0.468   6.675 -30.603  1.00  0.00     0.036 A 
HETATM   24  C   UNL     1      -1.482   5.763 -30.299  1.00  0.00     0.056 A 
HETATM   25 CL   UNL     1       0.417   7.423 -29.329  1.00  0.00    -0.084 Cl
BRANCH  20  26
HETATM   26  O   UNL     1      -2.592   4.879 -33.677  1.00  0.00    -0.354 OA
HETATM   27  C   UNL     1      -1.930   5.081 -34.928  1.00  0.00     0.210 C 
ENDBRANCH  20  26
ENDBRANCH   1  19
TORSDOF 6
ENDMDL
MODEL 6
REMARK VINA RESULT:      -7.5      3.622      9.649
REMARK  6 active torsions:
REMARK  status: ('A' for Active; 'I' for Inactive)
REMARK    1  A    between atoms: O_2  and  C_3 
REMARK    2  A    between atoms: C_4  and  N_5 
REMARK       I    between atoms: N_5  and  C_6 
REMARK       I    between atoms: C_6  and  N_7 
REMARK    3  A    between atoms: N_7  and  C_8 
REMARK    4  A    between atoms: C_8  and  C_9 
REMARK    5  A    between atoms: C_9  and  C_10 
REMARK    6  A    between atoms: C_10  and  N_11 
ROOT
HETATM    1  N   UNL     1      -5.208  -0.115 -32.586  1.00  0.00    -0.306 N 
HETATM    2  C   UNL     1      -4.063   0.603 -32.337  1.00  0.00     0.320 C 
HETATM    3  N   UNL     1      -4.352   1.708 -31.559  1.00  0.00    -0.343 N 
HETATM    4  O   UNL     1      -2.946   0.367 -32.772  1.00  0.00    -0.247 OA
HETATM    5  H   UNL     1      -6.082   0.363 -32.409  1.00  0.00     0.171 HD
HETATM    6  H   UNL     1      -5.055   1.541 -30.851  1.00  0.00     0.164 HD
ENDROOT
BRANCH   3   7
HETATM    7  C   UNL     1      -3.324   2.677 -31.232  1.00  0.00     0.126 C 
BRANCH   7   8
HETATM    8  C   UNL     1      -3.216   3.801 -32.261  1.00  0.00     0.040 C 
BRANCH   8   9
HETATM    9  C   UNL     1      -3.176   5.176 -31.600  1.00  0.00     0.131 C 
BRANCH   9  10
HETATM   10  N   UNL     1      -1.824   5.579 -31.253  1.00  0.00    -0.341 N 
HETATM   11  C   UNL     1      -1.499   6.438 -30.234  1.00  0.00     0.139 A 
HETATM   12  C   UNL     1      -0.113   6.588 -30.239  1.00  0.00     0.011 A 
HETATM   13  N   UNL     1      -2.376   7.019 -29.389  1.00  0.00    -0.242 NA
HETATM   14  C   UNL     1       0.451   7.430 -29.268  1.00  0.00     0.017 A 
HETATM   15  C   UNL     1       0.389   5.788 -31.300  1.00  0.00     0.032 A 
HETATM   16  C   UNL     1      -0.415   8.055 -28.371  1.00  0.00     0.020 A 
HETATM   17  C   UNL     1      -1.779   7.818 -28.477  1.00  0.00     0.119 A 
HETATM   18  C   UNL     1      -0.687   5.177 -31.910  1.00  0.00     0.093 A 
ENDBRANCH   9  10
ENDBRANCH   8   9
ENDBRANCH   7   8
ENDBRANCH   3   7
BRANCH   1  19
HETATM   19  C   UNL     1      -5.328  -1.311 -33.321  1.00  0.00     0.071 A 
HETATM   20  C   UNL     1      -6.512  -1.491 -34.058  1.00  0.00     0.095 A 
HETATM   21  C   UNL     1      -6.744  -2.663 -34.777  1.00  0.00     0.041 A 
HETATM   22  C   UNL     1      -5.768  -3.658 -34.792  1.00  0.00     0.026 A 
HETATM   23  C   UNL     1      -4.581  -3.476 -34.081  1.00  0.00     0.036 A 
HETATM   24  C   UNL     1      -4.355  -2.310 -33.344  1.00  0.00     0.056 A 
HETATM   25 CL   UNL     1      -3.386  -4.716 -34.103  1.00  0.00    -0.084 Cl
BRANCH  20  26
HETATM   26  O   UNL     1      -7.463  -0.497 -34.033  1.00  0.00    -0.354 OA
HETATM   27  C   UNL     1      -7.559   0.123 -35.318  1.00  0.00     0.210 C 
ENDBRANCH  20  26
ENDBRANCH   1  19
TORSDOF 6
ENDMDL
MODEL 7
REMARK VINA RESULT:      -7.5      6.270      8.862
REMARK  6 active torsions:
REMARK  status: ('A' for Active; 'I' for Inactive)
REMARK    1  A    between atoms: O_2  and  C_3 
REMARK    2  A    between atoms: C_4  and  N_5 
REMARK       I    between atoms: N_5  and  C_6 
REMARK       I    between atoms: C_6  and  N_7 
REMARK    3  A    between atoms: N_7  and  C_8 
REMARK    4  A    between atoms: C_8  and  C_9 
REMARK    5  A    between atoms: C_9  and  C_10 
REMARK    6  A    between atoms: C_10  and  N_11 
ROOT
HETATM    1  N   UNL     1      -6.924   0.502 -33.372  1.00  0.00    -0.306 N 
HETATM    2  C   UNL     1      -7.437   0.866 -32.151  1.00  0.00     0.320 C 
HETATM    3  N   UNL     1      -8.058   2.097 -32.242  1.00  0.00    -0.343 N 
HETATM    4  O   UNL     1      -7.327   0.251 -31.102  1.00  0.00    -0.247 OA
HETATM    5  H   UNL     1      -6.838   1.240 -34.059  1.00  0.00     0.171 HD
HETATM    6  H   UNL     1      -8.559   2.243 -33.109  1.00  0.00     0.164 HD
ENDROOT
BRANCH   3   7
HETATM    7  C   UNL     1      -8.603   2.745 -31.064  1.00  0.00     0.126 C 
BRANCH   7   8
HETATM    8  C   UNL     1     -10.045   3.212 -31.254  1.00  0.00     0.040 C 
BRANCH   8   9
HETATM    9  C   UNL     1     -10.421   3.313 -32.730  1.00  0.00     0.131 C 
BRANCH   9  10
HETATM   10  N   UNL     1     -11.498   2.406 -33.086  1.00  0.00    -0.341 N 
HETATM   11  C   UNL     1     -12.821   2.604 -32.785  1.00  0.00     0.139 A 
HETATM   12  C   UNL     1     -13.531   1.509 -33.272  1.00  0.00     0.011 A 
HETATM   13  N   UNL     1     -13.325   3.675 -32.136  1.00  0.00    -0.242 NA
HETATM   14  C   UNL     1     -14.921   1.498 -33.077  1.00  0.00     0.017 A 
HETATM   15  C   UNL     1     -12.588   0.638 -33.879  1.00  0.00     0.032 A 
HETATM   16  C   UNL     1     -15.490   2.583 -32.411  1.00  0.00     0.020 A 
HETATM   17  C   UNL     1     -14.667   3.613 -31.977  1.00  0.00     0.119 A 
HETATM   18  C   UNL     1     -11.341   1.215 -33.749  1.00  0.00     0.093 A 
ENDBRANCH   9  10
ENDBRANCH   8   9
ENDBRANCH   7   8
ENDBRANCH   3   7
BRANCH   1  19
HETATM   19  C   UNL     1      -6.239  -0.687 -33.696  1.00  0.00     0.071 A 
HETATM   20  C   UNL     1      -4.859  -0.719 -33.433  1.00  0.00     0.095 A 
HETATM   21  C   UNL     1      -4.086  -1.833 -33.764  1.00  0.00     0.041 A 
HETATM   22  C   UNL     1      -4.704  -2.946 -34.333  1.00  0.00     0.026 A 
HETATM   23  C   UNL     1      -6.078  -2.928 -34.575  1.00  0.00     0.036 A 
HETATM   24  C   UNL     1      -6.849  -1.806 -34.262  1.00  0.00     0.056 A 
HETATM   25 CL   UNL     1      -6.827  -4.307 -35.285  1.00  0.00    -0.084 Cl
BRANCH  20  26
HETATM   26  O   UNL     1      -4.267   0.387 -32.868  1.00  0.00    -0.354 OA
HETATM   27  C   UNL     1      -3.626   0.029 -31.641  1.00  0.00     0.210 C 
ENDBRANCH  20  26
ENDBRANCH   1  19
TORSDOF 6
ENDMDL
MODEL 8
REMARK VINA RESULT:      -7.4      2.556      3.621
REMARK  6 active torsions:
REMARK  status: ('A' for Active; 'I' for Inactive)
REMARK    1  A    between atoms: O_2  and  C_3 
REMARK    2  A    between atoms: C_4  and  N_5 
REMARK       I    between atoms: N_5  and  C_6 
REMARK       I    between atoms: C_6  and  N_7 
REMARK    3  A    between atoms: N_7  and  C_8 
REMARK    4  A    between atoms: C_8  and  C_9 
REMARK    5  A    between atoms: C_9  and  C_10 
REMARK    6  A    between atoms: C_10  and  N_11 
ROOT
HETATM    1  N   UNL     1      -3.772   4.741 -30.631  1.00  0.00    -0.306 N 
HETATM    2  C   UNL     1      -4.774   3.848 -30.925  1.00  0.00     0.320 C 
HETATM    3  N   UNL     1      -5.271   3.288 -29.764  1.00  0.00    -0.343 N 
HETATM    4  O   UNL     1      -5.156   3.524 -32.039  1.00  0.00    -0.247 OA
HETATM    5  H   UNL     1      -3.376   4.678 -29.702  1.00  0.00     0.171 HD
HETATM    6  H   UNL     1      -5.326   3.933 -28.987  1.00  0.00     0.164 HD
ENDROOT
BRANCH   3   7
HETATM    7  C   UNL     1      -6.278   2.246 -29.812  1.00  0.00     0.126 C 
BRANCH   7   8
HETATM    8  C   UNL     1      -5.697   0.846 -29.625  1.00  0.00     0.040 C 
BRANCH   8   9
HETATM    9  C   UNL     1      -6.543  -0.219 -30.319  1.00  0.00     0.131 C 
BRANCH   9  10
HETATM   10  N   UNL     1      -6.128  -0.439 -31.693  1.00  0.00    -0.341 N 
HETATM   11  C   UNL     1      -6.897  -0.172 -32.796  1.00  0.00     0.139 A 
HETATM   12  C   UNL     1      -6.159  -0.538 -33.921  1.00  0.00     0.011 A 
HETATM   13  N   UNL     1      -8.140   0.353 -32.777  1.00  0.00    -0.242 NA
HETATM   14  C   UNL     1      -6.755  -0.349 -35.177  1.00  0.00     0.017 A 
HETATM   15  C   UNL     1      -4.914  -1.039 -33.456  1.00  0.00     0.032 A 
HETATM   16  C   UNL     1      -8.040   0.192 -35.210  1.00  0.00     0.020 A 
HETATM   17  C   UNL     1      -8.664   0.515 -34.012  1.00  0.00     0.119 A 
HETATM   18  C   UNL     1      -4.921  -0.968 -32.079  1.00  0.00     0.093 A 
ENDBRANCH   9  10
ENDBRANCH   8   9
ENDBRANCH   7   8
ENDBRANCH   3   7
BRANCH   1  19
HETATM   19  C   UNL     1      -3.031   5.528 -31.535  1.00  0.00     0.071 A 
HETATM   20  C   UNL     1      -2.861   6.884 -31.208  1.00  0.00     0.095 A 
HETATM   21  C   UNL     1      -2.185   7.755 -32.064  1.00  0.00     0.041 A 
HETATM   22  C   UNL     1      -1.638   7.259 -33.247  1.00  0.00     0.026 A 
HETATM   23  C   UNL     1      -1.784   5.908 -33.566  1.00  0.00     0.036 A 
HETATM   24  C   UNL     1      -2.478   5.040 -32.719  1.00  0.00     0.056 A 
HETATM   25 CL   UNL     1      -1.110   5.311 -35.034  1.00  0.00    -0.084 Cl
BRANCH  20  26
HETATM   26  O   UNL     1      -3.404   7.355 -30.036  1.00  0.00    -0.354 OA
HETATM   27  C   UNL     1      -2.365   7.704 -29.118  1.00  0.00     0.210 C 
ENDBRANCH  20  26
ENDBRANCH   1  19
TORSDOF 6
ENDMDL
MODEL 9
REMARK VINA RESULT:      -7.3      3.912      8.369
REMARK  6 active torsions:
REMARK  status: ('A' for Active; 'I' for Inactive)
REMARK    1  A    between atoms: O_2  and  C_3 
REMARK    2  A    between atoms: C_4  and  N_5 
REMARK       I    between atoms: N_5  and  C_6 
REMARK       I    between atoms: C_6  and  N_7 
REMARK    3  A    between atoms: N_7  and  C_8 
REMARK    4  A    between atoms: C_8  and  C_9 
REMARK    5  A    between atoms: C_9  and  C_10 
REMARK    6  A    between atoms: C_10  and  N_11 
ROOT
HETATM    1  N   UNL     1      -6.340   0.501 -33.237  1.00  0.00    -0.306 N 
HETATM    2  C   UNL     1      -7.043   0.836 -32.106  1.00  0.00     0.320 C 
HETATM    3  N   UNL     1      -7.395   2.172 -32.141  1.00  0.00    -0.343 N 
HETATM    4  O   UNL     1      -7.287   0.106 -31.157  1.00  0.00    -0.247 OA
HETATM    5  H   UNL     1      -5.969   1.271 -33.778  1.00  0.00     0.171 HD
HETATM    6  H   UNL     1      -7.651   2.506 -33.060  1.00  0.00     0.164 HD
ENDROOT
BRANCH   3   7
HETATM    7  C   UNL     1      -8.068   2.793 -31.017  1.00  0.00     0.126 C 
BRANCH   7   8
HETATM    8  C   UNL     1      -7.500   4.168 -30.667  1.00  0.00     0.040 C 
BRANCH   8   9
HETATM    9  C   UNL     1      -6.317   4.067 -29.707  1.00  0.00     0.131 C 
BRANCH   9  10
HETATM   10  N   UNL     1      -5.200   4.897 -30.123  1.00  0.00    -0.341 N 
HETATM   11  C   UNL     1      -4.281   4.551 -31.080  1.00  0.00     0.139 A 
HETATM   12  C   UNL     1      -3.361   5.594 -31.174  1.00  0.00     0.011 A 
HETATM   13  N   UNL     1      -4.284   3.405 -31.792  1.00  0.00    -0.242 NA
HETATM   14  C   UNL     1      -2.319   5.457 -32.103  1.00  0.00     0.017 A 
HETATM   15  C   UNL     1      -3.758   6.585 -30.237  1.00  0.00     0.032 A 
HETATM   16  C   UNL     1      -2.278   4.289 -32.864  1.00  0.00     0.020 A 
HETATM   17  C   UNL     1      -3.260   3.326 -32.671  1.00  0.00     0.119 A 
HETATM   18  C   UNL     1      -4.895   6.129 -29.602  1.00  0.00     0.093 A 
ENDBRANCH   9  10
ENDBRANCH   8   9
ENDBRANCH   7   8
ENDBRANCH   3   7
BRANCH   1  19
HETATM   19  C   UNL     1      -5.824  -0.764 -33.584  1.00  0.00     0.071 A 
HETATM   20  C   UNL     1      -4.472  -1.005 -33.287  1.00  0.00     0.095 A 
HETATM   21  C   UNL     1      -3.858  -2.209 -33.636  1.00  0.00     0.041 A 
HETATM   22  C   UNL     1      -4.612  -3.202 -34.260  1.00  0.00     0.026 A 
HETATM   23  C   UNL     1      -5.961  -2.977 -34.538  1.00  0.00     0.036 A 
HETATM   24  C   UNL     1      -6.572  -1.764 -34.206  1.00  0.00     0.056 A 
HETATM   25 CL   UNL     1      -6.879  -4.209 -35.316  1.00  0.00    -0.084 Cl
BRANCH  20  26
HETATM   26  O   UNL     1      -3.744  -0.015 -32.668  1.00  0.00    -0.354 OA
HETATM   27  C   UNL     1      -3.376  -0.427 -31.349  1.00  0.00     0.210 C 
ENDBRANCH  20  26
ENDBRANCH   1  19
TORSDOF 6
ENDMDL
MODEL 10
REMARK VINA RESULT:      -7.3      4.945      7.205
REMARK  6 active torsions:
REMARK  status: ('A' for Active; 'I' for Inactive)
REMARK    1  A    between atoms: O_2  and  C_3 
REMARK    2  A    between atoms: C_4  and  N_5 
REMARK       I    between atoms: N_5  and  C_6 
REMARK       I    between atoms: C_6  and  N_7 
REMARK    3  A    between atoms: N_7  and  C_8 
REMARK    4  A    between atoms: C_8  and  C_9 
REMARK    5  A    between atoms: C_9  and  C_10 
REMARK    6  A    between atoms: C_10  and  N_11 
ROOT
HETATM    1  N   UNL     1      -8.780   3.258 -33.861  1.00  0.00    -0.306 N 
HETATM    2  C   UNL     1      -8.382   3.619 -32.597  1.00  0.00     0.320 C 
HETATM    3  N   UNL     1      -7.003   3.598 -32.506  1.00  0.00    -0.343 N 
HETATM    4  O   UNL     1      -9.109   3.869 -31.648  1.00  0.00    -0.247 OA
HETATM    5  H   UNL     1      -8.083   2.801 -34.436  1.00  0.00     0.171 HD
HETATM    6  H   UNL     1      -6.531   3.922 -33.339  1.00  0.00     0.164 HD
ENDROOT
BRANCH   3   7
HETATM    7  C   UNL     1      -6.337   3.855 -31.244  1.00  0.00     0.126 C 
BRANCH   7   8
HETATM    8  C   UNL     1      -5.395   2.726 -30.826  1.00  0.00     0.040 C 
BRANCH   8   9
HETATM    9  C   UNL     1      -4.472   2.305 -31.966  1.00  0.00     0.131 C 
BRANCH   9  10
HETATM   10  N   UNL     1      -4.602   0.894 -32.285  1.00  0.00    -0.341 N 
HETATM   11  C   UNL     1      -5.416   0.384 -33.264  1.00  0.00     0.139 A 
HETATM   12  C   UNL     1      -5.279  -1.003 -33.243  1.00  0.00     0.011 A 
HETATM   13  N   UNL     1      -6.199   1.110 -34.090  1.00  0.00    -0.242 NA
HETATM   14  C   UNL     1      -6.026  -1.743 -34.173  1.00  0.00     0.017 A 
HETATM   15  C   UNL     1      -4.351  -1.314 -32.213  1.00  0.00     0.032 A 
HETATM   16  C   UNL     1      -6.851  -1.038 -35.048  1.00  0.00     0.020 A 
HETATM   17  C   UNL     1      -6.895   0.348 -34.963  1.00  0.00     0.119 A 
HETATM   18  C   UNL     1      -3.950  -0.126 -31.638  1.00  0.00     0.093 A 
ENDBRANCH   9  10
ENDBRANCH   8   9
ENDBRANCH   7   8
ENDBRANCH   3   7
BRANCH   1  19
HETATM   19  C   UNL     1     -10.097   3.178 -34.357  1.00  0.00     0.071 A 
HETATM   20  C   UNL     1     -10.661   1.895 -34.465  1.00  0.00     0.095 A 
HETATM   21  C   UNL     1     -11.940   1.710 -34.990  1.00  0.00     0.041 A 
HETATM   22  C   UNL     1     -12.684   2.822 -35.381  1.00  0.00     0.026 A 
HETATM   23  C   UNL     1     -12.137   4.101 -35.255  1.00  0.00     0.036 A 
HETATM   24  C   UNL     1     -10.849   4.286 -34.747  1.00  0.00     0.056 A 
HETATM   25 CL   UNL     1     -13.065   5.466 -35.749  1.00  0.00    -0.084 Cl
BRANCH  20  26
HETATM   26  O   UNL     1      -9.914   0.809 -34.071  1.00  0.00    -0.354 OA
HETATM   27  C   UNL     1     -10.511   0.190 -32.929  1.00  0.00     0.210 C 
ENDBRANCH  20  26
ENDBRANCH   1  19
TORSDOF 6
ENDMDL
