MODEL 1
REMARK VINA RESULT:     -10.7      0.000      0.000
REMARK  6 active torsions:
REMARK  status: ('A' for Active; 'I' for Inactive)
REMARK    1  A    between atoms: C_5  and  N_6 
REMARK       I    between atoms: N_6  and  C_7 
REMARK       I    between atoms: C_7  and  N_8 
REMARK    2  A    between atoms: N_8  and  C_9 
REMARK    3  A    between atoms: C_12  and  C_13 
REMARK    4  A    between atoms: C_13  and  C_14 
REMARK       I    between atoms: C_14  and  N_15 
REMARK    5  A    between atoms: N_18  and  C_19 
REMARK    6  A    between atoms: C_21  and  C_22 
ROOT
HETATM    1  C   UNL     1      -5.560   5.157 -31.475  1.00  0.00     0.162 C 
ENDROOT
BRANCH   1   2
HETATM    2  C   UNL     1      -4.210   5.346 -32.077  1.00  0.00     0.052 A 
HETATM    3  C   UNL     1      -3.888   6.275 -33.053  1.00  0.00     0.081 A 
HETATM    4  S   UNL     1      -2.192   6.334 -33.274  1.00  0.00    -0.062 SA
HETATM    5  C   UNL     1      -2.022   5.100 -32.113  1.00  0.00     0.174 A 
HETATM    6  N   UNL     1      -3.124   4.624 -31.583  1.00  0.00    -0.228 NA
BRANCH   5   7
HETATM    7  N   UNL     1      -0.732   4.756 -31.846  1.00  0.00    -0.287 N 
HETATM    8  C   UNL     1       0.082   5.289 -30.890  1.00  0.00     0.326 C 
HETATM    9  N   UNL     1      -0.509   6.113 -29.969  1.00  0.00    -0.309 N 
HETATM   10  O   UNL     1       1.260   4.934 -30.889  1.00  0.00    -0.247 OA
HETATM   11  H   UNL     1      -1.509   6.237 -30.089  1.00  0.00     0.170 HD
HETATM   12  H   UNL     1      -0.304   4.051 -32.428  1.00  0.00     0.172 HD
BRANCH   9  13
HETATM   13  C   UNL     1       0.076   6.672 -28.816  1.00  0.00     0.036 A 
HETATM   14  C   UNL     1      -0.094   6.167 -27.527  1.00  0.00     0.030 A 
HETATM   15  C   UNL     1       0.499   6.803 -26.431  1.00  0.00     0.009 A 
HETATM   16  C   UNL     1       1.274   7.954 -26.605  1.00  0.00    -0.062 A 
HETATM   17  C   UNL     1       1.852   8.664 -25.416  1.00  0.00     0.048 C 
HETATM   18  C   UNL     1       1.442   8.464 -27.895  1.00  0.00     0.009 A 
HETATM   19  C   UNL     1       0.856   7.819 -28.989  1.00  0.00     0.030 A 
ENDBRANCH   9  13
ENDBRANCH   5   7
ENDBRANCH   1   2
BRANCH   1  20
HETATM   20  C   UNL     1      -5.684   3.868 -30.679  1.00  0.00     0.225 C 
HETATM   21  N   UNL     1      -5.789   2.663 -31.370  1.00  0.00    -0.349 N 
HETATM   22  C   UNL     1      -5.347   1.455 -30.653  1.00  0.00     0.145 C 
HETATM   23  C   UNL     1      -5.763   2.579 -32.836  1.00  0.00     0.145 C 
HETATM   24  C   UNL     1      -5.816   0.122 -31.271  1.00  0.00     0.143 C 
HETATM   25  N   UNL     1      -5.584   0.119 -32.731  1.00  0.00    -0.378 N 
HETATM   26  C   UNL     1      -6.285   1.243 -33.386  1.00  0.00     0.143 C 
HETATM   27  O   UNL     1      -5.637   3.907 -29.446  1.00  0.00    -0.273 OA
BRANCH  25  28
HETATM   28  C   UNL     1      -5.656  -1.088 -33.437  1.00  0.00     0.030 A 
HETATM   29  C   UNL     1      -4.712  -2.098 -33.171  1.00  0.00     0.045 A 
HETATM   30  C   UNL     1      -4.717  -3.333 -33.843  1.00  0.00     0.050 A 
HETATM   31  C   UNL     1      -5.716  -3.578 -34.790  1.00  0.00     0.016 A 
HETATM   32  C   UNL     1      -6.680  -2.608 -35.053  1.00  0.00     0.003 A 
HETATM   33  C   UNL     1      -6.648  -1.380 -34.381  1.00  0.00     0.029 A 
BRANCH  30  34
HETATM   34  C   UNL     1      -3.678  -4.380 -33.541  1.00  0.00     0.417 C 
HETATM   35  F   UNL     1      -2.836  -4.634 -34.581  1.00  0.00    -0.166 F 
HETATM   36  F   UNL     1      -2.881  -4.038 -32.491  1.00  0.00    -0.166 F 
HETATM   37  F   UNL     1      -4.231  -5.582 -33.213  1.00  0.00    -0.166 F 
ENDBRANCH  30  34
ENDBRANCH  25  28
ENDBRANCH   1  20
TORSDOF 6
ENDMDL
MODEL 2
REMARK VINA RESULT:     -10.3      5.189      9.017
REMARK  6 active torsions:
REMARK  status: ('A' for Active; 'I' for Inactive)
REMARK    1  A    between atoms: C_5  and  N_6 
REMARK       I    between atoms: N_6  and  C_7 
REMARK       I    between atoms: C_7  and  N_8 
REMARK    2  A    between atoms: N_8  and  C_9 
REMARK    3  A    between atoms: C_12  and  C_13 
REMARK    4  A    between atoms: C_13  and  C_14 
REMARK       I    between atoms: C_14  and  N_15 
REMARK    5  A    between atoms: N_18  and  C_19 
REMARK    6  A    between atoms: C_21  and  C_22 
ROOT
HETATM    1  C   UNL     1      -5.632   5.349 -33.884  1.00  0.00     0.162 C 
ENDROOT
BRANCH   1   2
HETATM    2  C   UNL     1      -4.536   4.621 -33.183  1.00  0.00     0.052 A 
HETATM    3  C   UNL     1      -3.336   5.178 -32.773  1.00  0.00     0.081 A 
HETATM    4  S   UNL     1      -2.480   4.071 -31.788  1.00  0.00    -0.062 SA
HETATM    5  C   UNL     1      -3.724   2.934 -32.024  1.00  0.00     0.174 A 
HETATM    6  N   UNL     1      -4.723   3.295 -32.795  1.00  0.00    -0.228 NA
BRANCH   5   7
HETATM    7  N   UNL     1      -3.547   1.763 -31.353  1.00  0.00    -0.287 N 
HETATM    8  C   UNL     1      -4.077   0.545 -31.666  1.00  0.00     0.326 C 
HETATM    9  N   UNL     1      -4.687   0.436 -32.888  1.00  0.00    -0.309 N 
HETATM   10  O   UNL     1      -3.904  -0.369 -30.862  1.00  0.00    -0.247 OA
HETATM   11  H   UNL     1      -4.674   1.283 -33.447  1.00  0.00     0.170 HD
HETATM   12  H   UNL     1      -2.989   1.783 -30.512  1.00  0.00     0.172 HD
BRANCH   9  13
HETATM   13  C   UNL     1      -5.185  -0.732 -33.499  1.00  0.00     0.036 A 
HETATM   14  C   UNL     1      -6.538  -0.980 -33.728  1.00  0.00     0.030 A 
HETATM   15  C   UNL     1      -6.951  -2.182 -34.314  1.00  0.00     0.009 A 
HETATM   16  C   UNL     1      -6.016  -3.155 -34.684  1.00  0.00    -0.062 A 
HETATM   17  C   UNL     1      -6.475  -4.465 -35.253  1.00  0.00     0.048 C 
HETATM   18  C   UNL     1      -4.661  -2.909 -34.452  1.00  0.00     0.009 A 
HETATM   19  C   UNL     1      -4.252  -1.702 -33.875  1.00  0.00     0.030 A 
ENDBRANCH   9  13
ENDBRANCH   5   7
ENDBRANCH   1   2
BRANCH   1  20
HETATM   20  C   UNL     1      -6.640   5.972 -32.933  1.00  0.00     0.225 C 
HETATM   21  N   UNL     1      -7.935   5.459 -32.901  1.00  0.00    -0.349 N 
HETATM   22  C   UNL     1      -8.689   5.658 -31.652  1.00  0.00     0.145 C 
HETATM   23  C   UNL     1      -8.364   4.325 -33.730  1.00  0.00     0.145 C 
HETATM   24  C   UNL     1     -10.210   5.430 -31.765  1.00  0.00     0.143 C 
HETATM   25  N   UNL     1     -10.492   4.171 -32.488  1.00  0.00    -0.378 N 
HETATM   26  C   UNL     1      -9.890   4.184 -33.837  1.00  0.00     0.143 C 
HETATM   27  O   UNL     1      -6.283   6.879 -32.175  1.00  0.00    -0.273 OA
BRANCH  25  28
HETATM   28  C   UNL     1     -11.780   3.626 -32.441  1.00  0.00     0.030 A 
HETATM   29  C   UNL     1     -12.097   2.537 -33.275  1.00  0.00     0.045 A 
HETATM   30  C   UNL     1     -13.370   1.941 -33.289  1.00  0.00     0.050 A 
HETATM   31  C   UNL     1     -14.351   2.430 -32.421  1.00  0.00     0.016 A 
HETATM   32  C   UNL     1     -14.057   3.489 -31.564  1.00  0.00     0.003 A 
HETATM   33  C   UNL     1     -12.785   4.075 -31.577  1.00  0.00     0.029 A 
BRANCH  30  34
HETATM   34  C   UNL     1     -13.673   0.788 -34.210  1.00  0.00     0.417 C 
HETATM   35  F   UNL     1     -13.443  -0.434 -33.652  1.00  0.00    -0.166 F 
HETATM   36  F   UNL     1     -14.971   0.772 -34.620  1.00  0.00    -0.166 F 
HETATM   37  F   UNL     1     -12.923   0.820 -35.348  1.00  0.00    -0.166 F 
ENDBRANCH  30  34
ENDBRANCH  25  28
ENDBRANCH   1  20
TORSDOF 6
ENDMDL
MODEL 3
REMARK VINA RESULT:     -10.2      4.666     10.852
REMARK  6 active torsions:
REMARK  status: ('A' for Active; 'I' for Inactive)
REMARK    1  A    between atoms: C_5  and  N_6 
REMARK       I    between atoms: N_6  and  C_7 
REMARK       I    between atoms: C_7  and  N_8 
REMARK    2  A    between atoms: N_8  and  C_9 
REMARK    3  A    between atoms: C_12  and  C_13 
REMARK    4  A    between atoms: C_13  and  C_14 
REMARK       I    between atoms: C_14  and  N_15 
REMARK    5  A    between atoms: N_18  and  C_19 
REMARK    6  A    between atoms: C_21  and  C_22 
ROOT
HETATM    1  C   UNL     1      -4.055   5.290 -34.935  1.00  0.00     0.162 C 
ENDROOT
BRANCH   1   2
HETATM    2  C   UNL     1      -4.938   4.700 -33.888  1.00  0.00     0.052 A 
HETATM    3  C   UNL     1      -6.289   4.965 -33.734  1.00  0.00     0.081 A 
HETATM    4  S   UNL     1      -6.971   3.894 -32.587  1.00  0.00    -0.062 SA
HETATM    5  C   UNL     1      -5.432   3.209 -32.346  1.00  0.00     0.174 A 
HETATM    6  N   UNL     1      -4.437   3.721 -33.032  1.00  0.00    -0.228 NA
BRANCH   5   7
HETATM    7  N   UNL     1      -5.413   2.169 -31.466  1.00  0.00    -0.287 N 
HETATM    8  C   UNL     1      -5.610   0.849 -31.746  1.00  0.00     0.326 C 
HETATM    9  N   UNL     1      -5.631   0.498 -33.070  1.00  0.00    -0.309 N 
HETATM   10  O   UNL     1      -5.682   0.074 -30.794  1.00  0.00    -0.247 OA
HETATM   11  H   UNL     1      -5.487   1.267 -33.716  1.00  0.00     0.170 HD
HETATM   12  H   UNL     1      -5.267   2.383 -30.491  1.00  0.00     0.172 HD
BRANCH   9  13
HETATM   13  C   UNL     1      -5.681  -0.801 -33.615  1.00  0.00     0.036 A 
HETATM   14  C   UNL     1      -4.560  -1.598 -33.842  1.00  0.00     0.030 A 
HETATM   15  C   UNL     1      -4.695  -2.867 -34.416  1.00  0.00     0.009 A 
HETATM   16  C   UNL     1      -5.955  -3.361 -34.770  1.00  0.00    -0.062 A 
HETATM   17  C   UNL     1      -6.082  -4.697 -35.442  1.00  0.00     0.048 C 
HETATM   18  C   UNL     1      -7.079  -2.562 -34.546  1.00  0.00     0.009 A 
HETATM   19  C   UNL     1      -6.939  -1.298 -33.963  1.00  0.00     0.030 A 
ENDBRANCH   9  13
ENDBRANCH   5   7
ENDBRANCH   1   2
BRANCH   1  20
HETATM   20  C   UNL     1      -2.601   5.388 -34.504  1.00  0.00     0.225 C 
HETATM   21  N   UNL     1      -2.281   6.181 -33.404  1.00  0.00    -0.349 N 
HETATM   22  C   UNL     1      -1.048   5.832 -32.681  1.00  0.00     0.145 C 
HETATM   23  C   UNL     1      -3.291   6.910 -32.627  1.00  0.00     0.145 C 
HETATM   24  C   UNL     1      -0.520   6.924 -31.728  1.00  0.00     0.143 C 
HETATM   25  N   UNL     1      -1.619   7.459 -30.896  1.00  0.00    -0.378 N 
HETATM   26  C   UNL     1      -2.702   8.013 -31.734  1.00  0.00     0.143 C 
HETATM   27  O   UNL     1      -1.744   4.727 -35.099  1.00  0.00    -0.273 OA
BRANCH  25  28
HETATM   28  C   UNL     1      -1.314   8.233 -29.770  1.00  0.00     0.030 A 
HETATM   29  C   UNL     1      -0.258   7.837 -28.928  1.00  0.00     0.045 A 
HETATM   30  C   UNL     1       0.101   8.560 -27.776  1.00  0.00     0.050 A 
HETATM   31  C   UNL     1      -0.598   9.732 -27.473  1.00  0.00     0.016 A 
HETATM   32  C   UNL     1      -1.629  10.162 -28.304  1.00  0.00     0.003 A 
HETATM   33  C   UNL     1      -1.979   9.420 -29.438  1.00  0.00     0.029 A 
BRANCH  30  34
HETATM   34  C   UNL     1       1.228   8.092 -26.893  1.00  0.00     0.417 C 
HETATM   35  F   UNL     1       2.386   8.790 -27.064  1.00  0.00    -0.166 F 
HETATM   36  F   UNL     1       0.928   8.188 -25.568  1.00  0.00    -0.166 F 
HETATM   37  F   UNL     1       1.551   6.785 -27.108  1.00  0.00    -0.166 F 
ENDBRANCH  30  34
ENDBRANCH  25  28
ENDBRANCH   1  20
TORSDOF 6
ENDMDL
MODEL 4
REMARK VINA RESULT:     -10.1      6.165      9.572
REMARK  6 active torsions:
REMARK  status: ('A' for Active; 'I' for Inactive)
REMARK    1  A    between atoms: C_5  and  N_6 
REMARK       I    between atoms: N_6  and  C_7 
REMARK       I    between atoms: C_7  and  N_8 
REMARK    2  A    between atoms: N_8  and  C_9 
REMARK    3  A    between atoms: C_12  and  C_13 
REMARK    4  A    between atoms: C_13  and  C_14 
REMARK       I    between atoms: C_14  and  N_15 
REMARK    5  A    between atoms: N_18  and  C_19 
REMARK    6  A    between atoms: C_21  and  C_22 
ROOT
HETATM    1  C   UNL     1      -6.686   4.715 -31.891  1.00  0.00     0.162 C 
ENDROOT
BRANCH   1   2
HETATM    2  C   UNL     1      -5.302   4.163 -31.918  1.00  0.00     0.052 A 
HETATM    3  C   UNL     1      -4.139   4.913 -31.994  1.00  0.00     0.081 A 
HETATM    4  S   UNL     1      -2.775   3.911 -31.739  1.00  0.00    -0.062 SA
HETATM    5  C   UNL     1      -3.815   2.570 -31.605  1.00  0.00     0.174 A 
HETATM    6  N   UNL     1      -5.099   2.793 -31.754  1.00  0.00    -0.228 NA
BRANCH   5   7
HETATM    7  N   UNL     1      -3.181   1.396 -31.329  1.00  0.00    -0.287 N 
HETATM    8  C   UNL     1      -3.549   0.146 -31.734  1.00  0.00     0.326 C 
HETATM    9  N   UNL     1      -4.539   0.072 -32.678  1.00  0.00    -0.309 N 
HETATM   10  O   UNL     1      -2.919  -0.804 -31.274  1.00  0.00    -0.247 OA
HETATM   11  H   UNL     1      -4.896   0.969 -32.991  1.00  0.00     0.170 HD
HETATM   12  H   UNL     1      -2.364   1.431 -30.738  1.00  0.00     0.172 HD
BRANCH   9  13
HETATM   13  C   UNL     1      -4.999  -1.076 -33.354  1.00  0.00     0.036 A 
HETATM   14  C   UNL     1      -4.166  -2.069 -33.867  1.00  0.00     0.030 A 
HETATM   15  C   UNL     1      -4.704  -3.164 -34.553  1.00  0.00     0.009 A 
HETATM   16  C   UNL     1      -6.086  -3.285 -34.734  1.00  0.00    -0.062 A 
HETATM   17  C   UNL     1      -6.647  -4.429 -35.525  1.00  0.00     0.048 C 
HETATM   18  C   UNL     1      -6.921  -2.289 -34.223  1.00  0.00     0.009 A 
HETATM   19  C   UNL     1      -6.379  -1.201 -33.530  1.00  0.00     0.030 A 
ENDBRANCH   9  13
ENDBRANCH   5   7
ENDBRANCH   1   2
BRANCH   1  20
HETATM   20  C   UNL     1      -7.387   4.635 -33.237  1.00  0.00     0.225 C 
HETATM   21  N   UNL     1      -8.573   3.909 -33.331  1.00  0.00    -0.349 N 
HETATM   22  C   UNL     1      -9.493   4.295 -34.414  1.00  0.00     0.145 C 
HETATM   23  C   UNL     1      -9.190   3.236 -32.181  1.00  0.00     0.145 C 
HETATM   24  C   UNL     1     -10.592   3.261 -34.735  1.00  0.00     0.143 C 
HETATM   25  N   UNL     1     -11.234   2.786 -33.490  1.00  0.00    -0.378 N 
HETATM   26  C   UNL     1     -10.242   2.188 -32.573  1.00  0.00     0.143 C 
HETATM   27  O   UNL     1      -6.926   5.252 -34.202  1.00  0.00    -0.273 OA
BRANCH  25  28
HETATM   28  C   UNL     1     -12.441   2.081 -33.564  1.00  0.00     0.030 A 
HETATM   29  C   UNL     1     -13.602   2.644 -33.002  1.00  0.00     0.045 A 
HETATM   30  C   UNL     1     -14.848   1.994 -33.031  1.00  0.00     0.050 A 
HETATM   31  C   UNL     1     -14.944   0.754 -33.670  1.00  0.00     0.016 A 
HETATM   32  C   UNL     1     -13.817   0.186 -34.260  1.00  0.00     0.003 A 
HETATM   33  C   UNL     1     -12.583   0.846 -34.207  1.00  0.00     0.029 A 
BRANCH  30  34
HETATM   34  C   UNL     1     -16.063   2.624 -32.402  1.00  0.00     0.417 C 
HETATM   35  F   UNL     1     -15.990   3.981 -32.307  1.00  0.00    -0.166 F 
HETATM   36  F   UNL     1     -17.207   2.360 -33.092  1.00  0.00    -0.166 F 
HETATM   37  F   UNL     1     -16.282   2.178 -31.133  1.00  0.00    -0.166 F 
ENDBRANCH  30  34
ENDBRANCH  25  28
ENDBRANCH   1  20
TORSDOF 6
ENDMDL
MODEL 5
REMARK VINA RESULT:     -10.0      1.917      2.222
REMARK  6 active torsions:
REMARK  status: ('A' for Active; 'I' for Inactive)
REMARK    1  A    between atoms: C_5  and  N_6 
REMARK       I    between atoms: N_6  and  C_7 
REMARK       I    between atoms: C_7  and  N_8 
REMARK    2  A    between atoms: N_8  and  C_9 
REMARK    3  A    between atoms: C_12  and  C_13 
REMARK    4  A    between atoms: C_13  and  C_14 
REMARK       I    between atoms: C_14  and  N_15 
REMARK    5  A    between atoms: N_18  and  C_19 
REMARK    6  A    between atoms: C_21  and  C_22 
ROOT
HETATM    1  C   UNL     1      -4.231   4.252 -31.227  1.00  0.00     0.162 C 
ENDROOT
BRANCH   1   2
HETATM    2  C   UNL     1      -3.408   5.443 -31.582  1.00  0.00     0.052 A 
HETATM    3  C   UNL     1      -2.748   5.634 -32.785  1.00  0.00     0.081 A 
HETATM    4  S   UNL     1      -2.142   7.232 -32.877  1.00  0.00    -0.062 SA
HETATM    5  C   UNL     1      -2.745   7.525 -31.312  1.00  0.00     0.174 A 
HETATM    6  N   UNL     1      -3.346   6.527 -30.708  1.00  0.00    -0.228 NA
BRANCH   5   7
HETATM    7  N   UNL     1      -2.551   8.797 -30.866  1.00  0.00    -0.287 N 
HETATM    8  C   UNL     1      -1.920   9.181 -29.719  1.00  0.00     0.326 C 
HETATM    9  N   UNL     1      -1.236   8.209 -29.039  1.00  0.00    -0.309 N 
HETATM   10  O   UNL     1      -1.958  10.375 -29.426  1.00  0.00    -0.247 OA
HETATM   11  H   UNL     1      -1.261   7.290 -29.470  1.00  0.00     0.170 HD
HETATM   12  H   UNL     1      -2.932   9.551 -31.418  1.00  0.00     0.172 HD
BRANCH   9  13
HETATM   13  C   UNL     1      -0.400   8.371 -27.917  1.00  0.00     0.036 A 
HETATM   14  C   UNL     1      -0.863   8.534 -26.611  1.00  0.00     0.030 A 
HETATM   15  C   UNL     1       0.037   8.720 -25.556  1.00  0.00     0.009 A 
HETATM   16  C   UNL     1       1.416   8.743 -25.788  1.00  0.00    -0.062 A 
HETATM   17  C   UNL     1       2.369   9.007 -24.659  1.00  0.00     0.048 C 
HETATM   18  C   UNL     1       1.882   8.584 -27.096  1.00  0.00     0.009 A 
HETATM   19  C   UNL     1       0.979   8.389 -28.146  1.00  0.00     0.030 A 
ENDBRANCH   9  13
ENDBRANCH   5   7
ENDBRANCH   1   2
BRANCH   1  20
HETATM   20  C   UNL     1      -5.251   3.890 -32.293  1.00  0.00     0.225 C 
HETATM   21  N   UNL     1      -5.293   2.578 -32.760  1.00  0.00    -0.349 N 
HETATM   22  C   UNL     1      -6.576   2.123 -33.321  1.00  0.00     0.145 C 
HETATM   23  C   UNL     1      -4.410   1.521 -32.251  1.00  0.00     0.145 C 
HETATM   24  C   UNL     1      -6.499   0.832 -34.161  1.00  0.00     0.143 C 
HETATM   25  N   UNL     1      -5.710  -0.199 -33.454  1.00  0.00    -0.378 N 
HETATM   26  C   UNL     1      -4.344   0.284 -33.158  1.00  0.00     0.143 C 
HETATM   27  O   UNL     1      -6.052   4.745 -32.686  1.00  0.00    -0.273 OA
BRANCH  25  28
HETATM   28  C   UNL     1      -5.764  -1.528 -33.891  1.00  0.00     0.030 A 
HETATM   29  C   UNL     1      -4.726  -2.411 -33.540  1.00  0.00     0.045 A 
HETATM   30  C   UNL     1      -4.708  -3.756 -33.948  1.00  0.00     0.050 A 
HETATM   31  C   UNL     1      -5.777  -4.243 -34.707  1.00  0.00     0.016 A 
HETATM   32  C   UNL     1      -6.832  -3.398 -35.045  1.00  0.00     0.003 A 
HETATM   33  C   UNL     1      -6.822  -2.058 -34.639  1.00  0.00     0.029 A 
BRANCH  30  34
HETATM   34  C   UNL     1      -3.569  -4.664 -33.565  1.00  0.00     0.417 C 
HETATM   35  F   UNL     1      -2.704  -4.920 -34.586  1.00  0.00    -0.166 F 
HETATM   36  F   UNL     1      -2.812  -4.154 -32.554  1.00  0.00    -0.166 F 
HETATM   37  F   UNL     1      -3.998  -5.883 -33.131  1.00  0.00    -0.166 F 
ENDBRANCH  30  34
ENDBRANCH  25  28
ENDBRANCH   1  20
TORSDOF 6
ENDMDL
MODEL 6
REMARK VINA RESULT:      -9.9      4.224      8.113
REMARK  6 active torsions:
REMARK  status: ('A' for Active; 'I' for Inactive)
REMARK    1  A    between atoms: C_5  and  N_6 
REMARK       I    between atoms: N_6  and  C_7 
REMARK       I    between atoms: C_7  and  N_8 
REMARK    2  A    between atoms: N_8  and  C_9 
REMARK    3  A    between atoms: C_12  and  C_13 
REMARK    4  A    between atoms: C_13  and  C_14 
REMARK       I    between atoms: C_14  and  N_15 
REMARK    5  A    between atoms: N_18  and  C_19 
REMARK    6  A    between atoms: C_21  and  C_22 
ROOT
HETATM    1  C   UNL     1      -6.077   4.296 -30.003  1.00  0.00     0.162 C 
ENDROOT
BRANCH   1   2
HETATM    2  C   UNL     1      -6.752   5.345 -30.818  1.00  0.00     0.052 A 
HETATM    3  C   UNL     1      -6.640   6.712 -30.622  1.00  0.00     0.081 A 
HETATM    4  S   UNL     1      -7.363   7.555 -31.924  1.00  0.00    -0.062 SA
HETATM    5  C   UNL     1      -7.811   6.063 -32.611  1.00  0.00     0.174 A 
HETATM    6  N   UNL     1      -7.489   4.979 -31.944  1.00  0.00    -0.228 NA
BRANCH   5   7
HETATM    7  N   UNL     1      -8.447   6.167 -33.810  1.00  0.00    -0.287 N 
HETATM    8  C   UNL     1      -9.369   5.308 -34.332  1.00  0.00     0.326 C 
HETATM    9  N   UNL     1      -9.861   4.348 -33.488  1.00  0.00    -0.309 N 
HETATM   10  O   UNL     1      -9.734   5.506 -35.489  1.00  0.00    -0.247 OA
HETATM   11  H   UNL     1      -9.490   4.381 -32.544  1.00  0.00     0.170 HD
HETATM   12  H   UNL     1      -8.201   6.944 -34.406  1.00  0.00     0.172 HD
BRANCH   9  13
HETATM   13  C   UNL     1     -10.908   3.439 -33.737  1.00  0.00     0.036 A 
HETATM   14  C   UNL     1     -12.204   3.814 -34.091  1.00  0.00     0.030 A 
HETATM   15  C   UNL     1     -13.194   2.845 -34.291  1.00  0.00     0.009 A 
HETATM   16  C   UNL     1     -12.904   1.485 -34.143  1.00  0.00    -0.062 A 
HETATM   17  C   UNL     1     -13.988   0.460 -34.298  1.00  0.00     0.048 C 
HETATM   18  C   UNL     1     -11.608   1.108 -33.785  1.00  0.00     0.009 A 
HETATM   19  C   UNL     1     -10.618   2.079 -33.595  1.00  0.00     0.030 A 
ENDBRANCH   9  13
ENDBRANCH   5   7
ENDBRANCH   1   2
BRANCH   1  20
HETATM   20  C   UNL     1      -4.864   3.692 -30.692  1.00  0.00     0.225 C 
HETATM   21  N   UNL     1      -4.990   2.441 -31.292  1.00  0.00    -0.349 N 
HETATM   22  C   UNL     1      -4.053   2.141 -32.387  1.00  0.00     0.145 C 
HETATM   23  C   UNL     1      -6.251   1.688 -31.307  1.00  0.00     0.145 C 
HETATM   24  C   UNL     1      -3.954   0.651 -32.771  1.00  0.00     0.143 C 
HETATM   25  N   UNL     1      -5.304   0.061 -32.906  1.00  0.00    -0.378 N 
HETATM   26  C   UNL     1      -6.075   0.201 -31.653  1.00  0.00     0.143 C 
HETATM   27  O   UNL     1      -3.813   4.338 -30.753  1.00  0.00    -0.273 OA
BRANCH  25  28
HETATM   28  C   UNL     1      -5.452  -1.182 -33.532  1.00  0.00     0.030 A 
HETATM   29  C   UNL     1      -4.525  -2.205 -33.258  1.00  0.00     0.045 A 
HETATM   30  C   UNL     1      -4.605  -3.476 -33.854  1.00  0.00     0.050 A 
HETATM   31  C   UNL     1      -5.661  -3.743 -34.729  1.00  0.00     0.016 A 
HETATM   32  C   UNL     1      -6.609  -2.758 -34.997  1.00  0.00     0.003 A 
HETATM   33  C   UNL     1      -6.503  -1.495 -34.403  1.00  0.00     0.029 A 
BRANCH  30  34
HETATM   34  C   UNL     1      -3.582  -4.538 -33.545  1.00  0.00     0.417 C 
HETATM   35  F   UNL     1      -2.802  -4.875 -34.611  1.00  0.00    -0.166 F 
HETATM   36  F   UNL     1      -2.722  -4.165 -32.558  1.00  0.00    -0.166 F 
HETATM   37  F   UNL     1      -4.151  -5.702 -33.124  1.00  0.00    -0.166 F 
ENDBRANCH  30  34
ENDBRANCH  25  28
ENDBRANCH   1  20
TORSDOF 6
ENDMDL
MODEL 7
REMARK VINA RESULT:      -9.9      2.884      6.276
REMARK  6 active torsions:
REMARK  status: ('A' for Active; 'I' for Inactive)
REMARK    1  A    between atoms: C_5  and  N_6 
REMARK       I    between atoms: N_6  and  C_7 
REMARK       I    between atoms: C_7  and  N_8 
REMARK    2  A    between atoms: N_8  and  C_9 
REMARK    3  A    between atoms: C_12  and  C_13 
REMARK    4  A    between atoms: C_13  and  C_14 
REMARK       I    between atoms: C_14  and  N_15 
REMARK    5  A    between atoms: N_18  and  C_19 
REMARK    6  A    between atoms: C_21  and  C_22 
ROOT
HETATM    1  C   UNL     1      -0.319   7.162 -31.226  1.00  0.00     0.162 C 
ENDROOT
BRANCH   1   2
HETATM    2  C   UNL     1      -0.738   7.291 -29.801  1.00  0.00     0.052 A 
HETATM    3  C   UNL     1      -0.039   7.968 -28.816  1.00  0.00     0.081 A 
HETATM    4  S   UNL     1      -0.990   8.090 -27.398  1.00  0.00    -0.062 SA
HETATM    5  C   UNL     1      -2.216   7.198 -28.172  1.00  0.00     0.174 A 
HETATM    6  N   UNL     1      -1.976   6.792 -29.397  1.00  0.00    -0.228 NA
BRANCH   5   7
HETATM    7  N   UNL     1      -3.340   7.023 -27.422  1.00  0.00    -0.287 N 
HETATM    8  C   UNL     1      -4.541   6.530 -27.841  1.00  0.00     0.326 C 
HETATM    9  N   UNL     1      -4.573   5.965 -29.088  1.00  0.00    -0.309 N 
HETATM   10  O   UNL     1      -5.475   6.569 -27.042  1.00  0.00    -0.247 OA
HETATM   11  H   UNL     1      -3.684   5.963 -29.577  1.00  0.00     0.170 HD
HETATM   12  H   UNL     1      -3.308   7.310 -26.456  1.00  0.00     0.172 HD
BRANCH   9  13
HETATM   13  C   UNL     1      -5.641   5.271 -29.690  1.00  0.00     0.036 A 
HETATM   14  C   UNL     1      -6.558   5.852 -30.566  1.00  0.00     0.030 A 
HETATM   15  C   UNL     1      -7.610   5.097 -31.097  1.00  0.00     0.009 A 
HETATM   16  C   UNL     1      -7.761   3.747 -30.763  1.00  0.00    -0.062 A 
HETATM   17  C   UNL     1      -8.928   2.964 -31.288  1.00  0.00     0.048 C 
HETATM   18  C   UNL     1      -6.845   3.165 -29.883  1.00  0.00     0.009 A 
HETATM   19  C   UNL     1      -5.790   3.921 -29.362  1.00  0.00     0.030 A 
ENDBRANCH   9  13
ENDBRANCH   5   7
ENDBRANCH   1   2
BRANCH   1  20
HETATM   20  C   UNL     1      -1.463   7.357 -32.206  1.00  0.00     0.225 C 
HETATM   21  N   UNL     1      -2.273   6.266 -32.515  1.00  0.00    -0.349 N 
HETATM   22  C   UNL     1      -3.638   6.572 -32.973  1.00  0.00     0.145 C 
HETATM   23  C   UNL     1      -2.084   4.939 -31.917  1.00  0.00     0.145 C 
HETATM   24  C   UNL     1      -4.373   5.402 -33.659  1.00  0.00     0.143 C 
HETATM   25  N   UNL     1      -4.228   4.163 -32.864  1.00  0.00    -0.378 N 
HETATM   26  C   UNL     1      -2.805   3.814 -32.675  1.00  0.00     0.143 C 
HETATM   27  O   UNL     1      -1.685   8.481 -32.668  1.00  0.00    -0.273 OA
BRANCH  25  28
HETATM   28  C   UNL     1      -5.054   3.068 -33.141  1.00  0.00     0.030 A 
HETATM   29  C   UNL     1      -4.843   1.856 -32.456  1.00  0.00     0.045 A 
HETATM   30  C   UNL     1      -5.627   0.712 -32.686  1.00  0.00     0.050 A 
HETATM   31  C   UNL     1      -6.675   0.789 -33.608  1.00  0.00     0.016 A 
HETATM   32  C   UNL     1      -6.924   1.984 -34.280  1.00  0.00     0.003 A 
HETATM   33  C   UNL     1      -6.122   3.107 -34.045  1.00  0.00     0.029 A 
BRANCH  30  34
HETATM   34  C   UNL     1      -5.357  -0.570 -31.943  1.00  0.00     0.417 C 
HETATM   35  F   UNL     1      -4.167  -0.579 -31.280  1.00  0.00    -0.166 F 
HETATM   36  F   UNL     1      -6.307  -0.842 -31.006  1.00  0.00    -0.166 F 
HETATM   37  F   UNL     1      -5.326  -1.654 -32.769  1.00  0.00    -0.166 F 
ENDBRANCH  30  34
ENDBRANCH  25  28
ENDBRANCH   1  20
TORSDOF 6
ENDMDL
MODEL 8
REMARK VINA RESULT:      -9.8      4.626      5.526
REMARK  6 active torsions:
REMARK  status: ('A' for Active; 'I' for Inactive)
REMARK    1  A    between atoms: C_5  and  N_6 
REMARK       I    between atoms: N_6  and  C_7 
REMARK       I    between atoms: C_7  and  N_8 
REMARK    2  A    between atoms: N_8  and  C_9 
REMARK    3  A    between atoms: C_12  and  C_13 
REMARK    4  A    between atoms: C_13  and  C_14 
REMARK       I    between atoms: C_14  and  N_15 
REMARK    5  A    between atoms: N_18  and  C_19 
REMARK    6  A    between atoms: C_21  and  C_22 
ROOT
HETATM    1  C   UNL     1      -3.944   2.063 -32.328  1.00  0.00     0.162 C 
ENDROOT
BRANCH   1   2
HETATM    2  C   UNL     1      -3.421   3.455 -32.214  1.00  0.00     0.052 A 
HETATM    3  C   UNL     1      -2.614   4.089 -33.144  1.00  0.00     0.081 A 
HETATM    4  S   UNL     1      -2.458   5.748 -32.755  1.00  0.00    -0.062 SA
HETATM    5  C   UNL     1      -3.415   5.489 -31.371  1.00  0.00     0.174 A 
HETATM    6  N   UNL     1      -3.829   4.263 -31.153  1.00  0.00    -0.228 NA
BRANCH   5   7
HETATM    7  N   UNL     1      -3.664   6.613 -30.644  1.00  0.00    -0.287 N 
HETATM    8  C   UNL     1      -2.931   7.099 -29.601  1.00  0.00     0.326 C 
HETATM    9  N   UNL     1      -1.711   6.517 -29.382  1.00  0.00    -0.309 N 
HETATM   10  O   UNL     1      -3.391   8.061 -28.988  1.00  0.00    -0.247 OA
HETATM   11  H   UNL     1      -1.470   5.778 -30.035  1.00  0.00     0.170 HD
HETATM   12  H   UNL     1      -4.493   7.143 -30.868  1.00  0.00     0.172 HD
BRANCH   9  13
HETATM   13  C   UNL     1      -0.717   6.920 -28.469  1.00  0.00     0.036 A 
HETATM   14  C   UNL     1      -0.666   6.514 -27.136  1.00  0.00     0.030 A 
HETATM   15  C   UNL     1       0.340   6.987 -26.287  1.00  0.00     0.009 A 
HETATM   16  C   UNL     1       1.316   7.872 -26.758  1.00  0.00    -0.062 A 
HETATM   17  C   UNL     1       2.352   8.422 -25.823  1.00  0.00     0.048 C 
HETATM   18  C   UNL     1       1.265   8.283 -28.092  1.00  0.00     0.009 A 
HETATM   19  C   UNL     1       0.262   7.800 -28.940  1.00  0.00     0.030 A 
ENDBRANCH   9  13
ENDBRANCH   5   7
ENDBRANCH   1   2
BRANCH   1  20
HETATM   20  C   UNL     1      -5.187   1.821 -31.489  1.00  0.00     0.225 C 
HETATM   21  N   UNL     1      -6.437   2.030 -32.070  1.00  0.00    -0.349 N 
HETATM   22  C   UNL     1      -7.564   1.283 -31.487  1.00  0.00     0.145 C 
HETATM   23  C   UNL     1      -6.606   2.452 -33.466  1.00  0.00     0.145 C 
HETATM   24  C   UNL     1      -8.962   1.802 -31.879  1.00  0.00     0.143 C 
HETATM   25  N   UNL     1      -9.036   2.035 -33.338  1.00  0.00    -0.378 N 
HETATM   26  C   UNL     1      -8.007   3.000 -33.777  1.00  0.00     0.143 C 
HETATM   27  O   UNL     1      -5.071   1.398 -30.334  1.00  0.00    -0.273 OA
BRANCH  25  28
HETATM   28  C   UNL     1     -10.286   2.216 -33.942  1.00  0.00     0.030 A 
HETATM   29  C   UNL     1     -11.347   1.357 -33.601  1.00  0.00     0.045 A 
HETATM   30  C   UNL     1     -12.626   1.473 -34.171  1.00  0.00     0.050 A 
HETATM   31  C   UNL     1     -12.862   2.500 -35.090  1.00  0.00     0.016 A 
HETATM   32  C   UNL     1     -11.838   3.383 -35.425  1.00  0.00     0.003 A 
HETATM   33  C   UNL     1     -10.568   3.240 -34.854  1.00  0.00     0.029 A 
BRANCH  30  34
HETATM   34  C   UNL     1     -13.730   0.521 -33.791  1.00  0.00     0.417 C 
HETATM   35  F   UNL     1     -14.651   0.327 -34.776  1.00  0.00    -0.166 F 
HETATM   36  F   UNL     1     -13.264  -0.717 -33.467  1.00  0.00    -0.166 F 
HETATM   37  F   UNL     1     -14.436   0.949 -32.707  1.00  0.00    -0.166 F 
ENDBRANCH  30  34
ENDBRANCH  25  28
ENDBRANCH   1  20
TORSDOF 6
ENDMDL
MODEL 9
REMARK VINA RESULT:      -9.7      5.752      9.729
REMARK  6 active torsions:
REMARK  status: ('A' for Active; 'I' for Inactive)
REMARK    1  A    between atoms: C_5  and  N_6 
REMARK       I    between atoms: N_6  and  C_7 
REMARK       I    between atoms: C_7  and  N_8 
REMARK    2  A    between atoms: N_8  and  C_9 
REMARK    3  A    between atoms: C_12  and  C_13 
REMARK    4  A    between atoms: C_13  and  C_14 
REMARK       I    between atoms: C_14  and  N_15 
REMARK    5  A    between atoms: N_18  and  C_19 
REMARK    6  A    between atoms: C_21  and  C_22 
ROOT
HETATM    1  C   UNL     1     -10.820   5.527 -34.278  1.00  0.00     0.162 C 
ENDROOT
BRANCH   1   2
HETATM    2  C   UNL     1     -11.594   4.254 -34.282  1.00  0.00     0.052 A 
HETATM    3  C   UNL     1     -12.606   3.931 -35.172  1.00  0.00     0.081 A 
HETATM    4  S   UNL     1     -13.048   2.288 -34.990  1.00  0.00    -0.062 SA
HETATM    5  C   UNL     1     -11.917   2.148 -33.725  1.00  0.00     0.174 A 
HETATM    6  N   UNL     1     -11.245   3.229 -33.403  1.00  0.00    -0.228 NA
BRANCH   5   7
HETATM    7  N   UNL     1     -11.822   0.897 -33.195  1.00  0.00    -0.287 N 
HETATM    8  C   UNL     1     -10.697   0.134 -33.083  1.00  0.00     0.326 C 
HETATM    9  N   UNL     1      -9.504   0.754 -33.343  1.00  0.00    -0.309 N 
HETATM   10  O   UNL     1     -10.837  -1.024 -32.692  1.00  0.00    -0.247 OA
HETATM   11  H   UNL     1      -9.580   1.736 -33.587  1.00  0.00     0.170 HD
HETATM   12  H   UNL     1     -12.670   0.459 -32.870  1.00  0.00     0.172 HD
BRANCH   9  13
HETATM   13  C   UNL     1      -8.207   0.232 -33.167  1.00  0.00     0.036 A 
HETATM   14  C   UNL     1      -7.532  -0.528 -34.123  1.00  0.00     0.030 A 
HETATM   15  C   UNL     1      -6.256  -1.034 -33.856  1.00  0.00     0.009 A 
HETATM   16  C   UNL     1      -5.631  -0.787 -32.629  1.00  0.00    -0.062 A 
HETATM   17  C   UNL     1      -4.289  -1.389 -32.329  1.00  0.00     0.048 C 
HETATM   18  C   UNL     1      -6.306  -0.030 -31.670  1.00  0.00     0.009 A 
HETATM   19  C   UNL     1      -7.579   0.483 -31.945  1.00  0.00     0.030 A 
ENDBRANCH   9  13
ENDBRANCH   5   7
ENDBRANCH   1   2
BRANCH   1  20
HETATM   20  C   UNL     1     -10.148   5.814 -32.945  1.00  0.00     0.225 C 
HETATM   21  N   UNL     1      -8.794   5.515 -32.801  1.00  0.00    -0.349 N 
HETATM   22  C   UNL     1      -8.059   6.282 -31.783  1.00  0.00     0.145 C 
HETATM   23  C   UNL     1      -7.981   4.955 -33.888  1.00  0.00     0.145 C 
HETATM   24  C   UNL     1      -6.694   5.688 -31.380  1.00  0.00     0.143 C 
HETATM   25  N   UNL     1      -5.918   5.314 -32.581  1.00  0.00    -0.378 N 
HETATM   26  C   UNL     1      -6.657   4.340 -33.412  1.00  0.00     0.143 C 
HETATM   27  O   UNL     1     -10.794   6.350 -32.040  1.00  0.00    -0.273 OA
BRANCH  25  28
HETATM   28  C   UNL     1      -4.550   5.039 -32.459  1.00  0.00     0.030 A 
HETATM   29  C   UNL     1      -3.617   5.916 -33.044  1.00  0.00     0.045 A 
HETATM   30  C   UNL     1      -2.230   5.702 -32.969  1.00  0.00     0.050 A 
HETATM   31  C   UNL     1      -1.758   4.593 -32.261  1.00  0.00     0.016 A 
HETATM   32  C   UNL     1      -2.657   3.723 -31.649  1.00  0.00     0.003 A 
HETATM   33  C   UNL     1      -4.036   3.948 -31.748  1.00  0.00     0.029 A 
BRANCH  30  34
HETATM   34  C   UNL     1      -1.266   6.657 -33.623  1.00  0.00     0.417 C 
HETATM   35  F   UNL     1      -1.822   7.855 -33.957  1.00  0.00    -0.166 F 
HETATM   36  F   UNL     1      -0.199   6.950 -32.829  1.00  0.00    -0.166 F 
HETATM   37  F   UNL     1      -0.744   6.159 -34.780  1.00  0.00    -0.166 F 
ENDBRANCH  30  34
ENDBRANCH  25  28
ENDBRANCH   1  20
TORSDOF 6
ENDMDL
MODEL 10
REMARK VINA RESULT:      -9.5      5.088     11.181
REMARK  6 active torsions:
REMARK  status: ('A' for Active; 'I' for Inactive)
REMARK    1  A    between atoms: C_5  and  N_6 
REMARK       I    between atoms: N_6  and  C_7 
REMARK       I    between atoms: C_7  and  N_8 
REMARK    2  A    between atoms: N_8  and  C_9 
REMARK    3  A    between atoms: C_12  and  C_13 
REMARK    4  A    between atoms: C_13  and  C_14 
REMARK       I    between atoms: C_14  and  N_15 
REMARK    5  A    between atoms: N_18  and  C_19 
REMARK    6  A    between atoms: C_21  and  C_22 
ROOT
HETATM    1  C   UNL     1      -4.527   5.678 -32.695  1.00  0.00     0.162 C 
ENDROOT
BRANCH   1   2
HETATM    2  C   UNL     1      -5.359   4.969 -31.681  1.00  0.00     0.052 A 
HETATM    3  C   UNL     1      -6.585   5.401 -31.204  1.00  0.00     0.081 A 
HETATM    4  S   UNL     1      -7.312   4.176 -30.256  1.00  0.00    -0.062 SA
HETATM    5  C   UNL     1      -5.938   3.202 -30.503  1.00  0.00     0.174 A 
HETATM    6  N   UNL     1      -4.963   3.715 -31.217  1.00  0.00    -0.228 NA
BRANCH   5   7
HETATM    7  N   UNL     1      -6.019   1.966 -29.937  1.00  0.00    -0.287 N 
HETATM    8  C   UNL     1      -6.191   0.775 -30.581  1.00  0.00     0.326 C 
HETATM    9  N   UNL     1      -6.071   0.790 -31.945  1.00  0.00    -0.309 N 
HETATM   10  O   UNL     1      -6.368  -0.222 -29.883  1.00  0.00    -0.247 OA
HETATM   11  H   UNL     1      -5.855   1.698 -32.343  1.00  0.00     0.170 HD
HETATM   12  H   UNL     1      -5.977   1.906 -28.931  1.00  0.00     0.172 HD
BRANCH   9  13
HETATM   13  C   UNL     1      -6.068  -0.314 -32.820  1.00  0.00     0.036 A 
HETATM   14  C   UNL     1      -7.202  -0.801 -33.470  1.00  0.00     0.030 A 
HETATM   15  C   UNL     1      -7.117  -1.924 -34.301  1.00  0.00     0.009 A 
HETATM   16  C   UNL     1      -5.895  -2.577 -34.498  1.00  0.00    -0.062 A 
HETATM   17  C   UNL     1      -5.828  -3.817 -35.340  1.00  0.00     0.048 C 
HETATM   18  C   UNL     1      -4.760  -2.092 -33.845  1.00  0.00     0.009 A 
HETATM   19  C   UNL     1      -4.848  -0.964 -33.023  1.00  0.00     0.030 A 
ENDBRANCH   9  13
ENDBRANCH   5   7
ENDBRANCH   1   2
BRANCH   1  20
HETATM   20  C   UNL     1      -3.039   5.411 -32.540  1.00  0.00     0.225 C 
HETATM   21  N   UNL     1      -2.339   6.087 -31.543  1.00  0.00    -0.349 N 
HETATM   22  C   UNL     1      -1.115   5.438 -31.046  1.00  0.00     0.145 C 
HETATM   23  C   UNL     1      -2.979   7.031 -30.619  1.00  0.00     0.145 C 
HETATM   24  C   UNL     1      -0.171   6.354 -30.241  1.00  0.00     0.143 C 
HETATM   25  N   UNL     1      -0.934   7.131 -29.240  1.00  0.00    -0.378 N 
HETATM   26  C   UNL     1      -1.986   7.944 -29.885  1.00  0.00     0.143 C 
HETATM   27  O   UNL     1      -2.493   4.569 -33.259  1.00  0.00    -0.273 OA
BRANCH  25  28
HETATM   28  C   UNL     1      -0.248   7.792 -28.215  1.00  0.00     0.030 A 
HETATM   29  C   UNL     1      -0.960   8.231 -27.082  1.00  0.00     0.045 A 
HETATM   30  C   UNL     1      -0.341   8.907 -26.016  1.00  0.00     0.050 A 
HETATM   31  C   UNL     1       1.038   9.126 -26.069  1.00  0.00     0.016 A 
HETATM   32  C   UNL     1       1.773   8.678 -27.165  1.00  0.00     0.003 A 
HETATM   33  C   UNL     1       1.134   8.018 -28.221  1.00  0.00     0.029 A 
BRANCH  30  34
HETATM   34  C   UNL     1      -1.143   9.375 -24.831  1.00  0.00     0.417 C 
HETATM   35  F   UNL     1      -1.902  10.478 -25.082  1.00  0.00    -0.166 F 
HETATM   36  F   UNL     1      -2.007   8.425 -24.375  1.00  0.00    -0.166 F 
HETATM   37  F   UNL     1      -0.357   9.705 -23.767  1.00  0.00    -0.166 F 
ENDBRANCH  30  34
ENDBRANCH  25  28
ENDBRANCH   1  20
TORSDOF 6
ENDMDL
