MODEL 1
REMARK VINA RESULT:      -9.1      0.000      0.000
REMARK  6 active torsions:
REMARK  status: ('A' for Active; 'I' for Inactive)
REMARK    1  A    between atoms: C_8  and  C_9 
REMARK    2  A    between atoms: C_9  and  C_10 
REMARK    3  A    between atoms: C_10  and  N_11 
REMARK    4  A    between atoms: C_10  and  C_19 
REMARK       I    between atoms: N_11  and  C_12 
REMARK    5  A    between atoms: C_12  and  C_13 
REMARK       I    between atoms: C_19  and  N_20 
REMARK    6  A    between atoms: N_20  and  C_21 
ROOT
HETATM    1  C   UNL     1      -7.717   0.634 -33.381  1.00  0.00     0.181 C 
ENDROOT
BRANCH   1   2
HETATM    2  C   UNL     1      -7.002  -0.049 -34.564  1.00  0.00     0.075 C 
BRANCH   2   3
HETATM    3  C   UNL     1      -5.847  -0.932 -34.189  1.00  0.00    -0.028 A 
HETATM    4  C   UNL     1      -5.755  -2.348 -34.399  1.00  0.00    -0.002 A 
HETATM    5  C   UNL     1      -6.596  -3.314 -34.990  1.00  0.00     0.014 A 
HETATM    6  C   UNL     1      -4.537  -2.771 -33.866  1.00  0.00     0.042 A 
HETATM    7  C   UNL     1      -6.196  -4.655 -35.019  1.00  0.00     0.001 A 
HETATM    8  C   UNL     1      -4.979  -5.044 -34.469  1.00  0.00     0.002 A 
HETATM    9  C   UNL     1      -4.123  -4.109 -33.881  1.00  0.00     0.030 A 
HETATM   10  N   UNL     1      -3.901  -1.657 -33.373  1.00  0.00    -0.365 N 
HETATM   11  H   UNL     1      -2.993  -1.663 -32.929  1.00  0.00     0.165 HD
HETATM   12  C   UNL     1      -4.670  -0.544 -33.579  1.00  0.00     0.096 A 
ENDBRANCH   2   3
ENDBRANCH   1   2
BRANCH   1  13
HETATM   13  N   UNL     1      -9.062   1.092 -33.738  1.00  0.00    -0.343 N 
HETATM   14  C   UNL     1     -10.214   0.493 -33.294  1.00  0.00     0.259 C 
HETATM   15  O   UNL     1     -10.173  -0.470 -32.530  1.00  0.00    -0.267 OA
HETATM   16  H   UNL     1      -9.128   1.949 -34.281  1.00  0.00     0.163 HD
BRANCH  14  17
HETATM   17  C   UNL     1     -11.458   1.053 -33.801  1.00  0.00     0.072 A 
HETATM   18  S   UNL     1     -11.521   2.551 -34.636  1.00  0.00    -0.097 SA
HETATM   19  C   UNL     1     -13.208   2.432 -34.875  1.00  0.00     0.050 A 
HETATM   20  C   UNL     1     -13.726   1.278 -34.332  1.00  0.00     0.009 A 
HETATM   21  C   UNL     1     -12.718   0.486 -33.710  1.00  0.00     0.025 A 
ENDBRANCH  14  17
ENDBRANCH   1  13
BRANCH   1  22
HETATM   22  C   UNL     1      -6.968   1.857 -32.785  1.00  0.00     0.245 C 
HETATM   23  N   UNL     1      -6.259   2.616 -33.698  1.00  0.00    -0.324 N 
HETATM   24  H   UNL     1      -6.399   2.421 -34.679  1.00  0.00     0.169 HD
HETATM   25  O   UNL     1      -6.993   2.064 -31.570  1.00  0.00    -0.271 OA
BRANCH  23  26
HETATM   26  C   UNL     1      -5.511   3.781 -33.418  1.00  0.00     0.052 A 
HETATM   27  C   UNL     1      -5.970   5.089 -33.557  1.00  0.00     0.145 A 
HETATM   28  N   UNL     1      -5.225   6.192 -33.282  1.00  0.00    -0.271 NA
HETATM   29  C   UNL     1      -3.962   5.986 -32.857  1.00  0.00     0.116 A 
HETATM   30  C   UNL     1      -3.410   4.729 -32.685  1.00  0.00     0.021 A 
HETATM   31  C   UNL     1      -4.199   3.615 -32.966  1.00  0.00     0.032 A 
ENDBRANCH  23  26
ENDBRANCH   1  22
TORSDOF 6
ENDMDL
MODEL 2
REMARK VINA RESULT:      -9.0      1.602      1.959
REMARK  6 active torsions:
REMARK  status: ('A' for Active; 'I' for Inactive)
REMARK    1  A    between atoms: C_8  and  C_9 
REMARK    2  A    between atoms: C_9  and  C_10 
REMARK    3  A    between atoms: C_10  and  N_11 
REMARK    4  A    between atoms: C_10  and  C_19 
REMARK       I    between atoms: N_11  and  C_12 
REMARK    5  A    between atoms: C_12  and  C_13 
REMARK       I    between atoms: C_19  and  N_20 
REMARK    6  A    between atoms: N_20  and  C_21 
ROOT
HETATM    1  C   UNL     1      -7.434   1.901 -32.062  1.00  0.00     0.181 C 
ENDROOT
BRANCH   1   2
HETATM    2  C   UNL     1      -6.964   0.650 -31.293  1.00  0.00     0.075 C 
BRANCH   2   3
HETATM    3  C   UNL     1      -5.842  -0.112 -31.937  1.00  0.00    -0.028 A 
HETATM    4  C   UNL     1      -5.960  -1.061 -33.006  1.00  0.00    -0.002 A 
HETATM    5  C   UNL     1      -7.037  -1.549 -33.776  1.00  0.00     0.014 A 
HETATM    6  C   UNL     1      -4.683  -1.557 -33.267  1.00  0.00     0.042 A 
HETATM    7  C   UNL     1      -6.801  -2.513 -34.763  1.00  0.00     0.001 A 
HETATM    8  C   UNL     1      -5.515  -2.994 -34.992  1.00  0.00     0.002 A 
HETATM    9  C   UNL     1      -4.429  -2.525 -34.247  1.00  0.00     0.030 A 
HETATM   10  N   UNL     1      -3.817  -0.921 -32.411  1.00  0.00    -0.365 N 
HETATM   11  H   UNL     1      -2.820  -1.082 -32.378  1.00  0.00     0.165 HD
HETATM   12  C   UNL     1      -4.499  -0.036 -31.620  1.00  0.00     0.096 A 
ENDBRANCH   2   3
ENDBRANCH   1   2
BRANCH   1  13
HETATM   13  N   UNL     1      -8.690   1.670 -32.779  1.00  0.00    -0.343 N 
HETATM   14  C   UNL     1      -9.738   2.555 -32.785  1.00  0.00     0.259 C 
HETATM   15  O   UNL     1      -9.662   3.631 -32.194  1.00  0.00    -0.267 OA
HETATM   16  H   UNL     1      -8.741   0.839 -33.363  1.00  0.00     0.163 HD
BRANCH  14  17
HETATM   17  C   UNL     1     -10.928   2.128 -33.507  1.00  0.00     0.072 A 
HETATM   18  S   UNL     1     -11.788   3.170 -34.565  1.00  0.00    -0.097 SA
HETATM   19  C   UNL     1     -12.916   1.952 -34.967  1.00  0.00     0.050 A 
HETATM   20  C   UNL     1     -12.654   0.770 -34.313  1.00  0.00     0.009 A 
HETATM   21  C   UNL     1     -11.511   0.873 -33.469  1.00  0.00     0.025 A 
ENDBRANCH  14  17
ENDBRANCH   1  13
BRANCH   1  22
HETATM   22  C   UNL     1      -6.416   2.448 -33.101  1.00  0.00     0.245 C 
HETATM   23  N   UNL     1      -5.558   3.424 -32.627  1.00  0.00    -0.324 N 
HETATM   24  H   UNL     1      -5.549   3.597 -31.632  1.00  0.00     0.169 HD
HETATM   25  O   UNL     1      -6.445   2.044 -34.265  1.00  0.00    -0.271 OA
BRANCH  23  26
HETATM   26  C   UNL     1      -4.536   4.068 -33.359  1.00  0.00     0.052 A 
HETATM   27  C   UNL     1      -4.731   4.899 -34.460  1.00  0.00     0.145 A 
HETATM   28  N   UNL     1      -3.725   5.503 -35.147  1.00  0.00    -0.271 NA
HETATM   29  C   UNL     1      -2.468   5.265 -34.723  1.00  0.00     0.116 A 
HETATM   30  C   UNL     1      -2.165   4.458 -33.641  1.00  0.00     0.021 A 
HETATM   31  C   UNL     1      -3.216   3.858 -32.950  1.00  0.00     0.032 A 
ENDBRANCH  23  26
ENDBRANCH   1  22
TORSDOF 6
ENDMDL
MODEL 3
REMARK VINA RESULT:      -8.8      1.836      2.102
REMARK  6 active torsions:
REMARK  status: ('A' for Active; 'I' for Inactive)
REMARK    1  A    between atoms: C_8  and  C_9 
REMARK    2  A    between atoms: C_9  and  C_10 
REMARK    3  A    between atoms: C_10  and  N_11 
REMARK    4  A    between atoms: C_10  and  C_19 
REMARK       I    between atoms: N_11  and  C_12 
REMARK    5  A    between atoms: C_12  and  C_13 
REMARK       I    between atoms: C_19  and  N_20 
REMARK    6  A    between atoms: N_20  and  C_21 
ROOT
HETATM    1  C   UNL     1      -7.827   0.177 -33.127  1.00  0.00     0.181 C 
ENDROOT
BRANCH   1   2
HETATM    2  C   UNL     1      -6.805   0.045 -34.273  1.00  0.00     0.075 C 
BRANCH   2   3
HETATM    3  C   UNL     1      -5.680  -0.916 -34.019  1.00  0.00    -0.028 A 
HETATM    4  C   UNL     1      -5.685  -2.324 -34.293  1.00  0.00    -0.002 A 
HETATM    5  C   UNL     1      -6.619  -3.215 -34.862  1.00  0.00     0.014 A 
HETATM    6  C   UNL     1      -4.460  -2.837 -33.867  1.00  0.00     0.042 A 
HETATM    7  C   UNL     1      -6.301  -4.573 -34.975  1.00  0.00     0.001 A 
HETATM    8  C   UNL     1      -5.073  -5.053 -34.531  1.00  0.00     0.002 A 
HETATM    9  C   UNL     1      -4.126  -4.193 -33.967  1.00  0.00     0.030 A 
HETATM   10  N   UNL     1      -3.727  -1.783 -33.375  1.00  0.00    -0.365 N 
HETATM   11  H   UNL     1      -2.793  -1.859 -32.998  1.00  0.00     0.165 HD
HETATM   12  C   UNL     1      -4.443  -0.621 -33.479  1.00  0.00     0.096 A 
ENDBRANCH   2   3
ENDBRANCH   1   2
BRANCH   1  13
HETATM   13  N   UNL     1      -9.069   0.817 -33.565  1.00  0.00    -0.343 N 
HETATM   14  C   UNL     1     -10.320   0.336 -33.268  1.00  0.00     0.259 C 
HETATM   15  O   UNL     1     -10.464  -0.670 -32.576  1.00  0.00    -0.267 OA
HETATM   16  H   UNL     1      -8.984   1.708 -34.047  1.00  0.00     0.163 HD
BRANCH  14  17
HETATM   17  C   UNL     1     -11.438   1.075 -33.839  1.00  0.00     0.072 A 
HETATM   18  S   UNL     1     -13.059   0.523 -33.731  1.00  0.00    -0.097 SA
HETATM   19  C   UNL     1     -13.658   1.890 -34.562  1.00  0.00     0.050 A 
HETATM   20  C   UNL     1     -12.651   2.757 -34.921  1.00  0.00     0.009 A 
HETATM   21  C   UNL     1     -11.372   2.285 -34.509  1.00  0.00     0.025 A 
ENDBRANCH  14  17
ENDBRANCH   1  13
BRANCH   1  22
HETATM   22  C   UNL     1      -7.322   0.972 -31.892  1.00  0.00     0.245 C 
HETATM   23  N   UNL     1      -7.242   2.342 -32.065  1.00  0.00    -0.324 N 
HETATM   24  H   UNL     1      -7.652   2.733 -32.902  1.00  0.00     0.169 HD
HETATM   25  O   UNL     1      -6.980   0.373 -30.870  1.00  0.00    -0.271 OA
BRANCH  23  26
HETATM   26  C   UNL     1      -6.832   3.287 -31.098  1.00  0.00     0.052 A 
HETATM   27  C   UNL     1      -5.547   3.810 -30.973  1.00  0.00     0.145 A 
HETATM   28  N   UNL     1      -5.181   4.716 -30.029  1.00  0.00    -0.271 NA
HETATM   29  C   UNL     1      -6.135   5.117 -29.165  1.00  0.00     0.116 A 
HETATM   30  C   UNL     1      -7.441   4.662 -29.203  1.00  0.00     0.021 A 
HETATM   31  C   UNL     1      -7.791   3.738 -30.186  1.00  0.00     0.032 A 
ENDBRANCH  23  26
ENDBRANCH   1  22
TORSDOF 6
ENDMDL
MODEL 4
REMARK VINA RESULT:      -8.8      2.370      7.093
REMARK  6 active torsions:
REMARK  status: ('A' for Active; 'I' for Inactive)
REMARK    1  A    between atoms: C_8  and  C_9 
REMARK    2  A    between atoms: C_9  and  C_10 
REMARK    3  A    between atoms: C_10  and  N_11 
REMARK    4  A    between atoms: C_10  and  C_19 
REMARK       I    between atoms: N_11  and  C_12 
REMARK    5  A    between atoms: C_12  and  C_13 
REMARK       I    between atoms: C_19  and  N_20 
REMARK    6  A    between atoms: N_20  and  C_21 
ROOT
HETATM    1  C   UNL     1      -7.673   2.144 -32.418  1.00  0.00     0.181 C 
ENDROOT
BRANCH   1   2
HETATM    2  C   UNL     1      -6.981   3.428 -32.918  1.00  0.00     0.075 C 
BRANCH   2   3
HETATM    3  C   UNL     1      -5.547   3.583 -32.505  1.00  0.00    -0.028 A 
HETATM    4  C   UNL     1      -4.501   4.196 -33.272  1.00  0.00    -0.002 A 
HETATM    5  C   UNL     1      -4.444   4.831 -34.531  1.00  0.00     0.014 A 
HETATM    6  C   UNL     1      -3.323   4.090 -32.533  1.00  0.00     0.042 A 
HETATM    7  C   UNL     1      -3.222   5.322 -35.004  1.00  0.00     0.001 A 
HETATM    8  C   UNL     1      -2.063   5.191 -34.244  1.00  0.00     0.002 A 
HETATM    9  C   UNL     1      -2.091   4.571 -32.992  1.00  0.00     0.030 A 
HETATM   10  N   UNL     1      -3.640   3.460 -31.353  1.00  0.00    -0.365 N 
HETATM   11  H   UNL     1      -2.978   3.251 -30.618  1.00  0.00     0.165 HD
HETATM   12  C   UNL     1      -4.976   3.169 -31.317  1.00  0.00     0.096 A 
ENDBRANCH   2   3
ENDBRANCH   1   2
BRANCH   1  13
HETATM   13  N   UNL     1      -7.194   0.950 -33.117  1.00  0.00    -0.343 N 
HETATM   14  C   UNL     1      -6.622  -0.125 -32.485  1.00  0.00     0.259 C 
HETATM   15  O   UNL     1      -6.504  -0.151 -31.260  1.00  0.00    -0.267 OA
HETATM   16  H   UNL     1      -7.375   0.896 -34.116  1.00  0.00     0.163 HD
BRANCH  14  17
HETATM   17  C   UNL     1      -6.153  -1.198 -33.351  1.00  0.00     0.072 A 
HETATM   18  S   UNL     1      -4.503  -1.661 -33.433  1.00  0.00    -0.097 SA
HETATM   19  C   UNL     1      -4.830  -2.897 -34.566  1.00  0.00     0.050 A 
HETATM   20  C   UNL     1      -6.168  -2.965 -34.884  1.00  0.00     0.009 A 
HETATM   21  C   UNL     1      -6.928  -1.983 -34.187  1.00  0.00     0.025 A 
ENDBRANCH  14  17
ENDBRANCH   1  13
BRANCH   1  22
HETATM   22  C   UNL     1      -9.222   2.148 -32.542  1.00  0.00     0.245 C 
HETATM   23  N   UNL     1      -9.724   1.541 -33.680  1.00  0.00    -0.324 N 
HETATM   24  H   UNL     1      -9.079   1.017 -34.254  1.00  0.00     0.169 HD
HETATM   25  O   UNL     1      -9.908   2.710 -31.687  1.00  0.00    -0.271 OA
BRANCH  23  26
HETATM   26  C   UNL     1     -11.087   1.397 -34.021  1.00  0.00     0.052 A 
HETATM   27  C   UNL     1     -11.795   2.225 -34.887  1.00  0.00     0.145 A 
HETATM   28  N   UNL     1     -13.109   2.063 -35.194  1.00  0.00    -0.271 NA
HETATM   29  C   UNL     1     -13.750   1.032 -34.607  1.00  0.00     0.116 A 
HETATM   30  C   UNL     1     -13.140   0.150 -33.733  1.00  0.00     0.021 A 
HETATM   31  C   UNL     1     -11.790   0.336 -33.442  1.00  0.00     0.032 A 
ENDBRANCH  23  26
ENDBRANCH   1  22
TORSDOF 6
ENDMDL
MODEL 5
REMARK VINA RESULT:      -8.8      2.335      7.659
REMARK  6 active torsions:
REMARK  status: ('A' for Active; 'I' for Inactive)
REMARK    1  A    between atoms: C_8  and  C_9 
REMARK    2  A    between atoms: C_9  and  C_10 
REMARK    3  A    between atoms: C_10  and  N_11 
REMARK    4  A    between atoms: C_10  and  C_19 
REMARK       I    between atoms: N_11  and  C_12 
REMARK    5  A    between atoms: C_12  and  C_13 
REMARK       I    between atoms: C_19  and  N_20 
REMARK    6  A    between atoms: N_20  and  C_21 
ROOT
HETATM    1  C   UNL     1      -6.987   1.349 -33.144  1.00  0.00     0.181 C 
ENDROOT
BRANCH   1   2
HETATM    2  C   UNL     1      -8.118   1.555 -34.171  1.00  0.00     0.075 C 
BRANCH   2   3
HETATM    3  C   UNL     1      -9.455   1.004 -33.768  1.00  0.00    -0.028 A 
HETATM    4  C   UNL     1     -10.737   1.476 -34.205  1.00  0.00    -0.002 A 
HETATM    5  C   UNL     1     -11.166   2.488 -35.090  1.00  0.00     0.014 A 
HETATM    6  C   UNL     1     -11.707   0.710 -33.559  1.00  0.00     0.042 A 
HETATM    7  C   UNL     1     -12.535   2.701 -35.286  1.00  0.00     0.001 A 
HETATM    8  C   UNL     1     -13.477   1.924 -34.618  1.00  0.00     0.002 A 
HETATM    9  C   UNL     1     -13.081   0.912 -33.739  1.00  0.00     0.030 A 
HETATM   10  N   UNL     1     -11.046  -0.208 -32.778  1.00  0.00    -0.365 N 
HETATM   11  H   UNL     1     -11.498  -0.899 -32.197  1.00  0.00     0.165 HD
HETATM   12  C   UNL     1      -9.692  -0.053 -32.911  1.00  0.00     0.096 A 
ENDBRANCH   2   3
ENDBRANCH   1   2
BRANCH   1  13
HETATM   13  N   UNL     1      -5.805   2.156 -33.452  1.00  0.00    -0.343 N 
HETATM   14  C   UNL     1      -5.679   3.482 -33.121  1.00  0.00     0.259 C 
HETATM   15  O   UNL     1      -6.568   4.067 -32.505  1.00  0.00    -0.267 OA
HETATM   16  H   UNL     1      -5.011   1.672 -33.866  1.00  0.00     0.163 HD
BRANCH  14  17
HETATM   17  C   UNL     1      -4.454   4.134 -33.562  1.00  0.00     0.072 A 
HETATM   18  S   UNL     1      -2.944   3.879 -32.788  1.00  0.00    -0.097 SA
HETATM   19  C   UNL     1      -2.129   4.913 -33.876  1.00  0.00     0.050 A 
HETATM   20  C   UNL     1      -2.980   5.450 -34.815  1.00  0.00     0.009 A 
HETATM   21  C   UNL     1      -4.321   5.004 -34.631  1.00  0.00     0.025 A 
ENDBRANCH  14  17
ENDBRANCH   1  13
BRANCH   1  22
HETATM   22  C   UNL     1      -6.503  -0.120 -32.994  1.00  0.00     0.245 C 
HETATM   23  N   UNL     1      -6.306  -0.800 -34.183  1.00  0.00    -0.324 N 
HETATM   24  H   UNL     1      -6.339  -0.265 -35.039  1.00  0.00     0.169 HD
HETATM   25  O   UNL     1      -6.367  -0.614 -31.873  1.00  0.00    -0.271 OA
BRANCH  23  26
HETATM   26  C   UNL     1      -5.855  -2.131 -34.323  1.00  0.00     0.052 A 
HETATM   27  C   UNL     1      -4.538  -2.558 -34.177  1.00  0.00     0.145 A 
HETATM   28  N   UNL     1      -4.133  -3.847 -34.321  1.00  0.00    -0.271 NA
HETATM   29  C   UNL     1      -5.082  -4.754 -34.631  1.00  0.00     0.116 A 
HETATM   30  C   UNL     1      -6.419  -4.436 -34.796  1.00  0.00     0.021 A 
HETATM   31  C   UNL     1      -6.807  -3.107 -34.635  1.00  0.00     0.032 A 
ENDBRANCH  23  26
ENDBRANCH   1  22
TORSDOF 6
ENDMDL
MODEL 6
REMARK VINA RESULT:      -8.6      2.603      3.404
REMARK  6 active torsions:
REMARK  status: ('A' for Active; 'I' for Inactive)
REMARK    1  A    between atoms: C_8  and  C_9 
REMARK    2  A    between atoms: C_9  and  C_10 
REMARK    3  A    between atoms: C_10  and  N_11 
REMARK    4  A    between atoms: C_10  and  C_19 
REMARK       I    between atoms: N_11  and  C_12 
REMARK    5  A    between atoms: C_12  and  C_13 
REMARK       I    between atoms: C_19  and  N_20 
REMARK    6  A    between atoms: N_20  and  C_21 
ROOT
HETATM    1  C   UNL     1      -4.624   1.685 -31.859  1.00  0.00     0.181 C 
ENDROOT
BRANCH   1   2
HETATM    2  C   UNL     1      -4.590   0.642 -32.993  1.00  0.00     0.075 C 
BRANCH   2   3
HETATM    3  C   UNL     1      -3.941  -0.665 -32.641  1.00  0.00    -0.028 A 
HETATM    4  C   UNL     1      -4.197  -1.936 -33.254  1.00  0.00    -0.002 A 
HETATM    5  C   UNL     1      -5.029  -2.373 -34.308  1.00  0.00     0.014 A 
HETATM    6  C   UNL     1      -3.412  -2.883 -32.598  1.00  0.00     0.042 A 
HETATM    7  C   UNL     1      -5.050  -3.728 -34.655  1.00  0.00     0.001 A 
HETATM    8  C   UNL     1      -4.261  -4.648 -33.973  1.00  0.00     0.002 A 
HETATM    9  C   UNL     1      -3.425  -4.244 -32.929  1.00  0.00     0.030 A 
HETATM   10  N   UNL     1      -2.687  -2.216 -31.639  1.00  0.00    -0.365 N 
HETATM   11  H   UNL     1      -2.029  -2.653 -31.010  1.00  0.00     0.165 HD
HETATM   12  C   UNL     1      -2.983  -0.880 -31.669  1.00  0.00     0.096 A 
ENDBRANCH   2   3
ENDBRANCH   1   2
BRANCH   1  13
HETATM   13  N   UNL     1      -5.934   2.328 -31.738  1.00  0.00    -0.343 N 
HETATM   14  C   UNL     1      -7.021   1.738 -31.143  1.00  0.00     0.259 C 
HETATM   15  O   UNL     1      -6.939   0.617 -30.644  1.00  0.00    -0.267 OA
HETATM   16  H   UNL     1      -6.003   3.295 -32.045  1.00  0.00     0.163 HD
BRANCH  14  17
HETATM   17  C   UNL     1      -8.256   2.508 -31.168  1.00  0.00     0.072 A 
HETATM   18  S   UNL     1      -9.440   2.312 -32.395  1.00  0.00    -0.097 SA
HETATM   19  C   UNL     1     -10.471   3.477 -31.689  1.00  0.00     0.050 A 
HETATM   20  C   UNL     1      -9.934   4.013 -30.541  1.00  0.00     0.009 A 
HETATM   21  C   UNL     1      -8.656   3.458 -30.243  1.00  0.00     0.025 A 
ENDBRANCH  14  17
ENDBRANCH   1  13
BRANCH   1  22
HETATM   22  C   UNL     1      -3.574   2.823 -31.988  1.00  0.00     0.245 C 
HETATM   23  N   UNL     1      -3.849   3.772 -32.955  1.00  0.00    -0.324 N 
HETATM   24  H   UNL     1      -4.762   3.748 -33.389  1.00  0.00     0.169 HD
HETATM   25  O   UNL     1      -2.558   2.807 -31.290  1.00  0.00    -0.271 OA
BRANCH  23  26
HETATM   26  C   UNL     1      -3.069   4.909 -33.260  1.00  0.00     0.052 A 
HETATM   27  C   UNL     1      -2.110   4.985 -34.267  1.00  0.00     0.145 A 
HETATM   28  N   UNL     1      -1.371   6.094 -34.535  1.00  0.00    -0.271 NA
HETATM   29  C   UNL     1      -1.591   7.176 -33.761  1.00  0.00     0.116 A 
HETATM   30  C   UNL     1      -2.520   7.207 -32.737  1.00  0.00     0.021 A 
HETATM   31  C   UNL     1      -3.270   6.058 -32.489  1.00  0.00     0.032 A 
ENDBRANCH  23  26
ENDBRANCH   1  22
TORSDOF 6
ENDMDL
MODEL 7
REMARK VINA RESULT:      -8.6      1.639      5.911
REMARK  6 active torsions:
REMARK  status: ('A' for Active; 'I' for Inactive)
REMARK    1  A    between atoms: C_8  and  C_9 
REMARK    2  A    between atoms: C_9  and  C_10 
REMARK    3  A    between atoms: C_10  and  N_11 
REMARK    4  A    between atoms: C_10  and  C_19 
REMARK       I    between atoms: N_11  and  C_12 
REMARK    5  A    between atoms: C_12  and  C_13 
REMARK       I    between atoms: C_19  and  N_20 
REMARK    6  A    between atoms: N_20  and  C_21 
ROOT
HETATM    1  C   UNL     1      -7.147   1.736 -32.900  1.00  0.00     0.181 C 
ENDROOT
BRANCH   1   2
HETATM    2  C   UNL     1      -6.626   2.663 -31.784  1.00  0.00     0.075 C 
BRANCH   2   3
HETATM    3  C   UNL     1      -5.168   3.009 -31.870  1.00  0.00    -0.028 A 
HETATM    4  C   UNL     1      -4.536   3.782 -32.901  1.00  0.00    -0.002 A 
HETATM    5  C   UNL     1      -4.996   4.447 -34.057  1.00  0.00     0.014 A 
HETATM    6  C   UNL     1      -3.172   3.825 -32.614  1.00  0.00     0.042 A 
HETATM    7  C   UNL     1      -4.083   5.117 -34.879  1.00  0.00     0.001 A 
HETATM    8  C   UNL     1      -2.727   5.133 -34.568  1.00  0.00     0.002 A 
HETATM    9  C   UNL     1      -2.244   4.487 -33.427  1.00  0.00     0.030 A 
HETATM   10  N   UNL     1      -2.981   3.130 -31.443  1.00  0.00    -0.365 N 
HETATM   11  H   UNL     1      -2.086   2.999 -30.993  1.00  0.00     0.165 HD
HETATM   12  C   UNL     1      -4.176   2.652 -30.978  1.00  0.00     0.096 A 
ENDBRANCH   2   3
ENDBRANCH   1   2
BRANCH   1  13
HETATM   13  N   UNL     1      -8.610   1.727 -32.973  1.00  0.00    -0.343 N 
HETATM   14  C   UNL     1      -9.316   1.262 -34.054  1.00  0.00     0.259 C 
HETATM   15  O   UNL     1      -8.739   0.792 -35.033  1.00  0.00    -0.267 OA
HETATM   16  H   UNL     1      -9.115   2.010 -32.137  1.00  0.00     0.163 HD
BRANCH  14  17
HETATM   17  C   UNL     1     -10.764   1.387 -33.969  1.00  0.00     0.072 A 
HETATM   18  S   UNL     1     -11.592   2.828 -34.398  1.00  0.00    -0.097 SA
HETATM   19  C   UNL     1     -13.118   2.141 -34.055  1.00  0.00     0.050 A 
HETATM   20  C   UNL     1     -13.012   0.839 -33.621  1.00  0.00     0.009 A 
HETATM   21  C   UNL     1     -11.656   0.407 -33.567  1.00  0.00     0.025 A 
ENDBRANCH  14  17
ENDBRANCH   1  13
BRANCH   1  22
HETATM   22  C   UNL     1      -6.693   0.255 -32.782  1.00  0.00     0.245 C 
HETATM   23  N   UNL     1      -6.315  -0.342 -33.971  1.00  0.00    -0.324 N 
HETATM   24  H   UNL     1      -6.214   0.252 -34.782  1.00  0.00     0.169 HD
HETATM   25  O   UNL     1      -6.733  -0.318 -31.691  1.00  0.00    -0.271 OA
BRANCH  23  26
HETATM   26  C   UNL     1      -5.848  -1.666 -34.133  1.00  0.00     0.052 A 
HETATM   27  C   UNL     1      -4.561  -2.110 -33.841  1.00  0.00     0.145 A 
HETATM   28  N   UNL     1      -4.140  -3.392 -34.011  1.00  0.00    -0.271 NA
HETATM   29  C   UNL     1      -5.038  -4.270 -34.500  1.00  0.00     0.116 A 
HETATM   30  C   UNL     1      -6.341  -3.932 -34.822  1.00  0.00     0.021 A 
HETATM   31  C   UNL     1      -6.748  -2.613 -34.630  1.00  0.00     0.032 A 
ENDBRANCH  23  26
ENDBRANCH   1  22
TORSDOF 6
ENDMDL
MODEL 8
REMARK VINA RESULT:      -8.0      2.626      6.285
REMARK  6 active torsions:
REMARK  status: ('A' for Active; 'I' for Inactive)
REMARK    1  A    between atoms: C_8  and  C_9 
REMARK    2  A    between atoms: C_9  and  C_10 
REMARK    3  A    between atoms: C_10  and  N_11 
REMARK    4  A    between atoms: C_10  and  C_19 
REMARK       I    between atoms: N_11  and  C_12 
REMARK    5  A    between atoms: C_12  and  C_13 
REMARK       I    between atoms: C_19  and  N_20 
REMARK    6  A    between atoms: N_20  and  C_21 
ROOT
HETATM    1  C   UNL     1      -6.373   3.004 -32.896  1.00  0.00     0.181 C 
ENDROOT
BRANCH   1   2
HETATM    2  C   UNL     1      -7.608   3.059 -31.973  1.00  0.00     0.075 C 
BRANCH   2   3
HETATM    3  C   UNL     1      -8.741   2.157 -32.368  1.00  0.00    -0.028 A 
HETATM    4  C   UNL     1      -9.743   2.433 -33.357  1.00  0.00    -0.002 A 
HETATM    5  C   UNL     1      -9.989   3.506 -34.240  1.00  0.00     0.014 A 
HETATM    6  C   UNL     1     -10.621   1.349 -33.375  1.00  0.00     0.042 A 
HETATM    7  C   UNL     1     -11.098   3.461 -35.092  1.00  0.00     0.001 A 
HETATM    8  C   UNL     1     -11.960   2.369 -35.077  1.00  0.00     0.002 A 
HETATM    9  C   UNL     1     -11.738   1.289 -34.218  1.00  0.00     0.030 A 
HETATM   10  N   UNL     1     -10.162   0.439 -32.454  1.00  0.00    -0.365 N 
HETATM   11  H   UNL     1     -10.603  -0.448 -32.254  1.00  0.00     0.165 HD
HETATM   12  C   UNL     1      -9.022   0.906 -31.857  1.00  0.00     0.096 A 
ENDBRANCH   2   3
ENDBRANCH   1   2
BRANCH   1  13
HETATM   13  N   UNL     1      -5.599   1.776 -32.712  1.00  0.00    -0.343 N 
HETATM   14  C   UNL     1      -5.668   0.697 -33.557  1.00  0.00     0.259 C 
HETATM   15  O   UNL     1      -6.384   0.721 -34.557  1.00  0.00    -0.267 OA
HETATM   16  H   UNL     1      -4.919   1.768 -31.955  1.00  0.00     0.163 HD
BRANCH  14  17
HETATM   17  C   UNL     1      -4.867  -0.459 -33.180  1.00  0.00     0.072 A 
HETATM   18  S   UNL     1      -3.818  -0.450 -31.822  1.00  0.00    -0.097 SA
HETATM   19  C   UNL     1      -3.347  -2.071 -32.082  1.00  0.00     0.050 A 
HETATM   20  C   UNL     1      -3.969  -2.620 -33.181  1.00  0.00     0.009 A 
HETATM   21  C   UNL     1      -4.841  -1.689 -33.815  1.00  0.00     0.025 A 
ENDBRANCH  14  17
ENDBRANCH   1  13
BRANCH   1  22
HETATM   22  C   UNL     1      -5.383   4.190 -32.730  1.00  0.00     0.245 C 
HETATM   23  N   UNL     1      -4.172   4.043 -33.380  1.00  0.00    -0.324 N 
HETATM   24  H   UNL     1      -4.078   3.270 -34.025  1.00  0.00     0.169 HD
HETATM   25  O   UNL     1      -5.684   5.150 -32.016  1.00  0.00    -0.271 OA
BRANCH  23  26
HETATM   26  C   UNL     1      -3.113   4.976 -33.402  1.00  0.00     0.052 A 
HETATM   27  C   UNL     1      -3.037   6.094 -34.230  1.00  0.00     0.145 A 
HETATM   28  N   UNL     1      -2.002   6.974 -34.231  1.00  0.00    -0.271 NA
HETATM   29  C   UNL     1      -0.991   6.728 -33.373  1.00  0.00     0.116 A 
HETATM   30  C   UNL     1      -0.968   5.649 -32.508  1.00  0.00     0.021 A 
HETATM   31  C   UNL     1      -2.046   4.767 -32.523  1.00  0.00     0.032 A 
ENDBRANCH  23  26
ENDBRANCH   1  22
TORSDOF 6
ENDMDL
MODEL 9
REMARK VINA RESULT:      -7.9      1.659      6.569
REMARK  6 active torsions:
REMARK  status: ('A' for Active; 'I' for Inactive)
REMARK    1  A    between atoms: C_8  and  C_9 
REMARK    2  A    between atoms: C_9  and  C_10 
REMARK    3  A    between atoms: C_10  and  N_11 
REMARK    4  A    between atoms: C_10  and  C_19 
REMARK       I    between atoms: N_11  and  C_12 
REMARK    5  A    between atoms: C_12  and  C_13 
REMARK       I    between atoms: C_19  and  N_20 
REMARK    6  A    between atoms: N_20  and  C_21 
ROOT
HETATM    1  C   UNL     1      -5.994   1.509 -32.989  1.00  0.00     0.181 C 
ENDROOT
BRANCH   1   2
HETATM    2  C   UNL     1      -5.330   2.514 -32.026  1.00  0.00     0.075 C 
BRANCH   2   3
HETATM    3  C   UNL     1      -4.937   3.825 -32.642  1.00  0.00    -0.028 A 
HETATM    4  C   UNL     1      -3.643   4.441 -32.579  1.00  0.00    -0.002 A 
HETATM    5  C   UNL     1      -2.404   4.076 -32.012  1.00  0.00     0.014 A 
HETATM    6  C   UNL     1      -3.729   5.663 -33.247  1.00  0.00     0.042 A 
HETATM    7  C   UNL     1      -1.309   4.942 -32.125  1.00  0.00     0.001 A 
HETATM    8  C   UNL     1      -1.433   6.157 -32.790  1.00  0.00     0.002 A 
HETATM    9  C   UNL     1      -2.646   6.543 -33.365  1.00  0.00     0.030 A 
HETATM   10  N   UNL     1      -5.015   5.777 -33.720  1.00  0.00    -0.365 N 
HETATM   11  H   UNL     1      -5.364   6.565 -34.247  1.00  0.00     0.165 HD
HETATM   12  C   UNL     1      -5.743   4.671 -33.379  1.00  0.00     0.096 A 
ENDBRANCH   2   3
ENDBRANCH   1   2
BRANCH   1  13
HETATM   13  N   UNL     1      -7.449   1.666 -33.036  1.00  0.00    -0.343 N 
HETATM   14  C   UNL     1      -8.218   1.326 -34.121  1.00  0.00     0.259 C 
HETATM   15  O   UNL     1      -7.711   0.831 -35.126  1.00  0.00    -0.267 OA
HETATM   16  H   UNL     1      -7.908   1.972 -32.182  1.00  0.00     0.163 HD
BRANCH  14  17
HETATM   17  C   UNL     1      -9.642   1.608 -34.005  1.00  0.00     0.072 A 
HETATM   18  S   UNL     1     -10.310   3.143 -34.380  1.00  0.00    -0.097 SA
HETATM   19  C   UNL     1     -11.898   2.621 -34.026  1.00  0.00     0.050 A 
HETATM   20  C   UNL     1     -11.931   1.304 -33.628  1.00  0.00     0.009 A 
HETATM   21  C   UNL     1     -10.631   0.722 -33.611  1.00  0.00     0.025 A 
ENDBRANCH  14  17
ENDBRANCH   1  13
BRANCH   1  22
HETATM   22  C   UNL     1      -5.712   0.015 -32.668  1.00  0.00     0.245 C 
HETATM   23  N   UNL     1      -4.723  -0.576 -33.433  1.00  0.00    -0.324 N 
HETATM   24  H   UNL     1      -4.163   0.026 -34.021  1.00  0.00     0.169 HD
HETATM   25  O   UNL     1      -6.385  -0.571 -31.817  1.00  0.00    -0.271 OA
BRANCH  23  26
HETATM   26  C   UNL     1      -4.267  -1.908 -33.330  1.00  0.00     0.052 A 
HETATM   27  C   UNL     1      -4.524  -2.924 -34.247  1.00  0.00     0.145 A 
HETATM   28  N   UNL     1      -4.073  -4.200 -34.118  1.00  0.00    -0.271 NA
HETATM   29  C   UNL     1      -3.339  -4.481 -33.023  1.00  0.00     0.116 A 
HETATM   30  C   UNL     1      -3.026  -3.546 -32.053  1.00  0.00     0.021 A 
HETATM   31  C   UNL     1      -3.494  -2.243 -32.214  1.00  0.00     0.032 A 
ENDBRANCH  23  26
ENDBRANCH   1  22
TORSDOF 6
ENDMDL
MODEL 10
REMARK VINA RESULT:      -7.9      2.065      2.699
REMARK  6 active torsions:
REMARK  status: ('A' for Active; 'I' for Inactive)
REMARK    1  A    between atoms: C_8  and  C_9 
REMARK    2  A    between atoms: C_9  and  C_10 
REMARK    3  A    between atoms: C_10  and  N_11 
REMARK    4  A    between atoms: C_10  and  C_19 
REMARK       I    between atoms: N_11  and  C_12 
REMARK    5  A    between atoms: C_12  and  C_13 
REMARK       I    between atoms: C_19  and  N_20 
REMARK    6  A    between atoms: N_20  and  C_21 
ROOT
HETATM    1  C   UNL     1      -5.192   1.185 -31.975  1.00  0.00     0.181 C 
ENDROOT
BRANCH   1   2
HETATM    2  C   UNL     1      -4.443   0.445 -33.102  1.00  0.00     0.075 C 
BRANCH   2   3
HETATM    3  C   UNL     1      -3.867  -0.886 -32.719  1.00  0.00    -0.028 A 
HETATM    4  C   UNL     1      -4.166  -2.150 -33.327  1.00  0.00    -0.002 A 
HETATM    5  C   UNL     1      -4.987  -2.559 -34.399  1.00  0.00     0.014 A 
HETATM    6  C   UNL     1      -3.445  -3.126 -32.640  1.00  0.00     0.042 A 
HETATM    7  C   UNL     1      -5.063  -3.916 -34.735  1.00  0.00     0.001 A 
HETATM    8  C   UNL     1      -4.337  -4.864 -34.021  1.00  0.00     0.002 A 
HETATM    9  C   UNL     1      -3.512  -4.488 -32.958  1.00  0.00     0.030 A 
HETATM   10  N   UNL     1      -2.716  -2.483 -31.667  1.00  0.00    -0.365 N 
HETATM   11  H   UNL     1      -2.097  -2.944 -31.016  1.00  0.00     0.165 HD
HETATM   12  C   UNL     1      -2.948  -1.135 -31.718  1.00  0.00     0.096 A 
ENDBRANCH   2   3
ENDBRANCH   1   2
BRANCH   1  13
HETATM   13  N   UNL     1      -6.573   1.504 -32.345  1.00  0.00    -0.343 N 
HETATM   14  C   UNL     1      -7.667   0.837 -31.854  1.00  0.00     0.259 C 
HETATM   15  O   UNL     1      -7.540  -0.071 -31.034  1.00  0.00    -0.267 OA
HETATM   16  H   UNL     1      -6.715   2.318 -32.937  1.00  0.00     0.163 HD
BRANCH  14  17
HETATM   17  C   UNL     1      -8.957   1.257 -32.381  1.00  0.00     0.072 A 
HETATM   18  S   UNL     1      -9.534   2.867 -32.231  1.00  0.00    -0.097 SA
HETATM   19  C   UNL     1     -10.973   2.509 -33.078  1.00  0.00     0.050 A 
HETATM   20  C   UNL     1     -11.026   1.190 -33.471  1.00  0.00     0.009 A 
HETATM   21  C   UNL     1      -9.867   0.469 -33.066  1.00  0.00     0.025 A 
ENDBRANCH  14  17
ENDBRANCH   1  13
BRANCH   1  22
HETATM   22  C   UNL     1      -4.530   2.514 -31.516  1.00  0.00     0.245 C 
HETATM   23  N   UNL     1      -5.368   3.614 -31.496  1.00  0.00    -0.324 N 
HETATM   24  H   UNL     1      -6.357   3.452 -31.627  1.00  0.00     0.169 HD
HETATM   25  O   UNL     1      -3.327   2.543 -31.248  1.00  0.00    -0.271 OA
BRANCH  23  26
HETATM   26  C   UNL     1      -5.020   4.926 -31.105  1.00  0.00     0.052 A 
HETATM   27  C   UNL     1      -5.197   5.463 -29.832  1.00  0.00     0.145 A 
HETATM   28  N   UNL     1      -4.855   6.732 -29.486  1.00  0.00    -0.271 NA
HETATM   29  C   UNL     1      -4.319   7.505 -30.451  1.00  0.00     0.116 A 
HETATM   30  C   UNL     1      -4.100   7.069 -31.746  1.00  0.00     0.021 A 
HETATM   31  C   UNL     1      -4.453   5.761 -32.072  1.00  0.00     0.032 A 
ENDBRANCH  23  26
ENDBRANCH   1  22
TORSDOF 6
ENDMDL
