MODEL 1
REMARK VINA RESULT:      -8.6      0.000      0.000
REMARK  8 active torsions:
REMARK  status: ('A' for Active; 'I' for Inactive)
REMARK    1  A    between atoms: C_3  and  N_4 
REMARK       I    between atoms: N_4  and  C_5 
REMARK       I    between atoms: C_5  and  N_6 
REMARK       I    between atoms: N_6  and  C_7 
REMARK    2  A    between atoms: C_7  and  C_8 
REMARK    3  A    between atoms: C_8  and  N_9 
REMARK    4  A    between atoms: N_9  and  C_11 
REMARK    5  A    between atoms: N_9  and  C_17 
REMARK    6  A    between atoms: C_11  and  C_12 
REMARK    7  A    between atoms: C_17  and  C_18 
REMARK    8  A    between atoms: C_19  and  O_20 
ROOT
HETATM    1  N   UNL     1      -7.028   1.659 -32.433  1.00  0.00    -0.053 N 
HETATM    2  H   UNL     1      -6.189   1.309 -31.944  1.00  0.00     0.281 HD
ENDROOT
BRANCH   1   3
HETATM    3  C   UNL     1      -7.030   3.162 -32.209  1.00  0.00     0.338 C 
BRANCH   3   4
HETATM    4  C   UNL     1      -5.639   3.772 -32.360  1.00  0.00     0.251 C 
HETATM    5  N   UNL     1      -4.698   3.287 -31.479  1.00  0.00    -0.278 N 
HETATM    6  C   UNL     1      -3.343   3.436 -31.595  1.00  0.00     0.323 C 
HETATM    7  H   UNL     1      -4.888   2.399 -31.026  1.00  0.00     0.173 HD
HETATM    8  N   UNL     1      -2.910   4.597 -32.156  1.00  0.00    -0.338 N 
HETATM    9  O   UNL     1      -2.616   2.528 -31.208  1.00  0.00    -0.247 OA
HETATM   10  H   UNL     1      -3.608   5.198 -32.582  1.00  0.00     0.164 HD
HETATM   11  O   UNL     1      -5.438   4.623 -33.226  1.00  0.00    -0.271 OA
BRANCH   8  12
HETATM   12  C   UNL     1      -1.497   4.886 -32.389  1.00  0.00     0.089 C 
HETATM   13  C   UNL     1      -1.274   5.710 -33.680  1.00  0.00     0.004 C 
HETATM   14  C   UNL     1      -1.869   5.040 -34.921  1.00  0.00     0.012 C 
HETATM   15  C   UNL     1      -1.795   7.149 -33.535  1.00  0.00     0.006 C 
HETATM   16  C   UNL     1      -1.183   7.848 -32.323  1.00  0.00     0.001 C 
HETATM   17  C   UNL     1      -1.384   7.047 -31.041  1.00  0.00     0.002 C 
HETATM   18  C   UNL     1      -0.871   5.615 -31.186  1.00  0.00     0.026 C 
ENDBRANCH   8  12
ENDBRANCH   3   4
ENDBRANCH   1   3
BRANCH   1  19
HETATM   19  C   UNL     1      -8.156   0.911 -31.765  1.00  0.00     0.300 C 
BRANCH  19  20
HETATM   20  C   UNL     1      -9.454   0.976 -32.482  1.00  0.00     0.078 A 
HETATM   21  O   UNL     1     -10.022   2.214 -32.585  1.00  0.00    -0.325 OA
HETATM   22  C   UNL     1     -11.217   2.054 -33.209  1.00  0.00     0.142 A 
HETATM   23  C   UNL     1     -11.409   0.734 -33.541  1.00  0.00     0.027 A 
HETATM   24  C   UNL     1     -10.268   0.034 -33.073  1.00  0.00     0.036 A 
ENDBRANCH  19  20
ENDBRANCH   1  19
BRANCH   1  25
HETATM   25  C   UNL     1      -6.832   1.285 -33.879  1.00  0.00     0.277 C 
BRANCH  25  26
HETATM   26  C   UNL     1      -6.302  -0.115 -34.018  1.00  0.00     0.001 A 
HETATM   27  C   UNL     1      -5.047  -0.446 -33.491  1.00  0.00     0.073 A 
HETATM   28  C   UNL     1      -4.516  -1.725 -33.629  1.00  0.00     0.037 A 
HETATM   29  C   UNL     1      -5.241  -2.694 -34.320  1.00  0.00     0.003 A 
HETATM   30  C   UNL     1      -6.488  -2.382 -34.861  1.00  0.00     0.001 A 
HETATM   31  C   UNL     1      -7.020  -1.100 -34.710  1.00  0.00     0.011 A 
BRANCH  27  32
HETATM   32  O   UNL     1      -4.335   0.534 -32.856  1.00  0.00    -0.360 OA
HETATM   33  H   UNL     1      -4.733   0.673 -31.973  1.00  0.00     0.217 HD
ENDBRANCH  27  32
ENDBRANCH  25  26
ENDBRANCH   1  25
TORSDOF 8
ENDMDL
MODEL 2
REMARK VINA RESULT:      -8.1      1.632      2.577
REMARK  8 active torsions:
REMARK  status: ('A' for Active; 'I' for Inactive)
REMARK    1  A    between atoms: C_3  and  N_4 
REMARK       I    between atoms: N_4  and  C_5 
REMARK       I    between atoms: C_5  and  N_6 
REMARK       I    between atoms: N_6  and  C_7 
REMARK    2  A    between atoms: C_7  and  C_8 
REMARK    3  A    between atoms: C_8  and  N_9 
REMARK    4  A    between atoms: N_9  and  C_11 
REMARK    5  A    between atoms: N_9  and  C_17 
REMARK    6  A    between atoms: C_11  and  C_12 
REMARK    7  A    between atoms: C_17  and  C_18 
REMARK    8  A    between atoms: C_19  and  O_20 
ROOT
HETATM    1  N   UNL     1      -7.483   1.835 -32.475  1.00  0.00    -0.053 N 
HETATM    2  H   UNL     1      -6.689   1.872 -31.817  1.00  0.00     0.281 HD
ENDROOT
BRANCH   1   3
HETATM    3  C   UNL     1      -6.977   2.476 -33.757  1.00  0.00     0.338 C 
BRANCH   3   4
HETATM    4  C   UNL     1      -5.670   3.238 -33.547  1.00  0.00     0.251 C 
HETATM    5  N   UNL     1      -4.966   2.875 -32.420  1.00  0.00    -0.278 N 
HETATM    6  C   UNL     1      -3.656   3.175 -32.165  1.00  0.00     0.323 C 
HETATM    7  H   UNL     1      -5.180   1.978 -31.998  1.00  0.00     0.173 HD
HETATM    8  N   UNL     1      -3.208   4.369 -32.637  1.00  0.00    -0.338 N 
HETATM    9  O   UNL     1      -2.974   2.360 -31.553  1.00  0.00    -0.247 OA
HETATM   10  H   UNL     1      -3.819   4.881 -33.265  1.00  0.00     0.164 HD
HETATM   11  O   UNL     1      -5.327   4.094 -34.362  1.00  0.00    -0.271 OA
BRANCH   8  12
HETATM   12  C   UNL     1      -1.824   4.813 -32.486  1.00  0.00     0.089 C 
HETATM   13  C   UNL     1      -1.368   5.714 -33.658  1.00  0.00     0.004 C 
HETATM   14  C   UNL     1      -1.541   5.043 -35.023  1.00  0.00     0.012 C 
HETATM   15  C   UNL     1      -2.065   7.083 -33.630  1.00  0.00     0.006 C 
HETATM   16  C   UNL     1      -1.871   7.785 -32.288  1.00  0.00     0.001 C 
HETATM   17  C   UNL     1      -2.306   6.909 -31.118  1.00  0.00     0.002 C 
HETATM   18  C   UNL     1      -1.617   5.546 -31.148  1.00  0.00     0.026 C 
ENDBRANCH   8  12
ENDBRANCH   3   4
ENDBRANCH   1   3
BRANCH   1  19
HETATM   19  C   UNL     1      -8.564   2.609 -31.759  1.00  0.00     0.300 C 
BRANCH  19  20
HETATM   20  C   UNL     1      -8.068   3.568 -30.741  1.00  0.00     0.078 A 
HETATM   21  O   UNL     1      -6.823   3.319 -30.236  1.00  0.00    -0.325 OA
HETATM   22  C   UNL     1      -6.581   4.258 -29.287  1.00  0.00     0.142 A 
HETATM   23  C   UNL     1      -7.640   5.130 -29.198  1.00  0.00     0.027 A 
HETATM   24  C   UNL     1      -8.603   4.687 -30.140  1.00  0.00     0.036 A 
ENDBRANCH  19  20
ENDBRANCH   1  19
BRANCH   1  25
HETATM   25  C   UNL     1      -7.798   0.372 -32.641  1.00  0.00     0.277 C 
BRANCH  25  26
HETATM   26  C   UNL     1      -6.548  -0.441 -32.834  1.00  0.00     0.001 A 
HETATM   27  C   UNL     1      -5.503  -0.353 -31.905  1.00  0.00     0.073 A 
HETATM   28  C   UNL     1      -4.322  -1.071 -32.071  1.00  0.00     0.037 A 
HETATM   29  C   UNL     1      -4.170  -1.884 -33.193  1.00  0.00     0.003 A 
HETATM   30  C   UNL     1      -5.195  -1.978 -34.134  1.00  0.00     0.001 A 
HETATM   31  C   UNL     1      -6.381  -1.264 -33.956  1.00  0.00     0.011 A 
BRANCH  27  32
HETATM   32  O   UNL     1      -5.659   0.486 -30.837  1.00  0.00    -0.360 OA
HETATM   33  H   UNL     1      -5.878   1.376 -31.181  1.00  0.00     0.217 HD
ENDBRANCH  27  32
ENDBRANCH  25  26
ENDBRANCH   1  25
TORSDOF 8
ENDMDL
MODEL 3
REMARK VINA RESULT:      -8.1      2.028      3.734
REMARK  8 active torsions:
REMARK  status: ('A' for Active; 'I' for Inactive)
REMARK    1  A    between atoms: C_3  and  N_4 
REMARK       I    between atoms: N_4  and  C_5 
REMARK       I    between atoms: C_5  and  N_6 
REMARK       I    between atoms: N_6  and  C_7 
REMARK    2  A    between atoms: C_7  and  C_8 
REMARK    3  A    between atoms: C_8  and  N_9 
REMARK    4  A    between atoms: N_9  and  C_11 
REMARK    5  A    between atoms: N_9  and  C_17 
REMARK    6  A    between atoms: C_11  and  C_12 
REMARK    7  A    between atoms: C_17  and  C_18 
REMARK    8  A    between atoms: C_19  and  O_20 
ROOT
HETATM    1  N   UNL     1      -6.453   2.649 -30.808  1.00  0.00    -0.053 N 
HETATM    2  H   UNL     1      -5.722   2.651 -31.537  1.00  0.00     0.281 HD
ENDROOT
BRANCH   1   3
HETATM    3  C   UNL     1      -6.197   3.894 -29.975  1.00  0.00     0.338 C 
BRANCH   3   4
HETATM    4  C   UNL     1      -4.823   4.503 -30.250  1.00  0.00     0.251 C 
HETATM    5  N   UNL     1      -3.945   3.670 -30.907  1.00  0.00    -0.278 N 
HETATM    6  C   UNL     1      -2.788   4.057 -31.527  1.00  0.00     0.323 C 
HETATM    7  H   UNL     1      -4.331   2.877 -31.408  1.00  0.00     0.173 HD
HETATM    8  N   UNL     1      -2.119   5.096 -30.960  1.00  0.00    -0.338 N 
HETATM    9  O   UNL     1      -2.440   3.466 -32.543  1.00  0.00    -0.247 OA
HETATM   10  H   UNL     1      -2.590   5.605 -30.219  1.00  0.00     0.164 HD
HETATM   11  O   UNL     1      -4.586   5.656 -29.892  1.00  0.00    -0.271 OA
BRANCH   8  12
HETATM   12  C   UNL     1      -0.895   5.655 -31.528  1.00  0.00     0.089 C 
HETATM   13  C   UNL     1      -0.905   7.202 -31.533  1.00  0.00     0.004 C 
HETATM   14  C   UNL     1      -2.117   7.785 -32.264  1.00  0.00     0.012 C 
HETATM   15  C   UNL     1      -0.797   7.777 -30.112  1.00  0.00     0.006 C 
HETATM   16  C   UNL     1       0.429   7.237 -29.379  1.00  0.00     0.001 C 
HETATM   17  C   UNL     1       0.463   5.713 -29.372  1.00  0.00     0.002 C 
HETATM   18  C   UNL     1       0.351   5.140 -30.784  1.00  0.00     0.026 C 
ENDBRANCH   8  12
ENDBRANCH   3   4
ENDBRANCH   1   3
BRANCH   1  19
HETATM   19  C   UNL     1      -6.223   1.342 -30.090  1.00  0.00     0.300 C 
BRANCH  19  20
HETATM   20  C   UNL     1      -5.291   0.412 -30.776  1.00  0.00     0.078 A 
HETATM   21  O   UNL     1      -3.959   0.667 -30.610  1.00  0.00    -0.325 OA
HETATM   22  C   UNL     1      -3.282  -0.242 -31.358  1.00  0.00     0.142 A 
HETATM   23  C   UNL     1      -4.161  -1.101 -31.975  1.00  0.00     0.027 A 
HETATM   24  C   UNL     1      -5.462  -0.681 -31.598  1.00  0.00     0.036 A 
ENDBRANCH  19  20
ENDBRANCH   1  19
BRANCH   1  25
HETATM   25  C   UNL     1      -7.760   2.705 -31.553  1.00  0.00     0.277 C 
BRANCH  25  26
HETATM   26  C   UNL     1      -7.732   1.835 -32.780  1.00  0.00     0.001 A 
HETATM   27  C   UNL     1      -6.720   2.000 -33.734  1.00  0.00     0.073 A 
HETATM   28  C   UNL     1      -6.683   1.231 -34.893  1.00  0.00     0.037 A 
HETATM   29  C   UNL     1      -7.683   0.286 -35.117  1.00  0.00     0.003 A 
HETATM   30  C   UNL     1      -8.705   0.113 -34.184  1.00  0.00     0.001 A 
HETATM   31  C   UNL     1      -8.731   0.881 -33.018  1.00  0.00     0.011 A 
BRANCH  27  32
HETATM   32  O   UNL     1      -5.776   2.964 -33.512  1.00  0.00    -0.360 OA
HETATM   33  H   UNL     1      -5.553   2.955 -32.560  1.00  0.00     0.217 HD
ENDBRANCH  27  32
ENDBRANCH  25  26
ENDBRANCH   1  25
TORSDOF 8
ENDMDL
MODEL 4
REMARK VINA RESULT:      -7.8      2.434      7.947
REMARK  8 active torsions:
REMARK  status: ('A' for Active; 'I' for Inactive)
REMARK    1  A    between atoms: C_3  and  N_4 
REMARK       I    between atoms: N_4  and  C_5 
REMARK       I    between atoms: C_5  and  N_6 
REMARK       I    between atoms: N_6  and  C_7 
REMARK    2  A    between atoms: C_7  and  C_8 
REMARK    3  A    between atoms: C_8  and  N_9 
REMARK    4  A    between atoms: N_9  and  C_11 
REMARK    5  A    between atoms: N_9  and  C_17 
REMARK    6  A    between atoms: C_11  and  C_12 
REMARK    7  A    between atoms: C_17  and  C_18 
REMARK    8  A    between atoms: C_19  and  O_20 
ROOT
HETATM    1  N   UNL     1      -6.855   1.517 -31.873  1.00  0.00    -0.053 N 
HETATM    2  H   UNL     1      -7.269   2.457 -31.767  1.00  0.00     0.281 HD
ENDROOT
BRANCH   1   3
HETATM    3  C   UNL     1      -7.991   0.543 -31.605  1.00  0.00     0.338 C 
BRANCH   3   4
HETATM    4  C   UNL     1      -9.325   1.043 -32.154  1.00  0.00     0.251 C 
HETATM    5  N   UNL     1      -9.680   2.308 -31.741  1.00  0.00    -0.278 N 
HETATM    6  C   UNL     1     -10.647   3.092 -32.309  1.00  0.00     0.323 C 
HETATM    7  H   UNL     1      -8.948   2.910 -31.379  1.00  0.00     0.173 HD
HETATM    8  N   UNL     1     -11.727   2.442 -32.820  1.00  0.00    -0.338 N 
HETATM    9  O   UNL     1     -10.480   4.307 -32.335  1.00  0.00    -0.247 OA
HETATM   10  H   UNL     1     -11.675   1.430 -32.883  1.00  0.00     0.164 HD
HETATM   11  O   UNL     1      -9.981   0.325 -32.908  1.00  0.00    -0.271 OA
BRANCH   8  12
HETATM   12  C   UNL     1     -12.821   3.133 -33.498  1.00  0.00     0.089 C 
HETATM   13  C   UNL     1     -13.415   2.295 -34.654  1.00  0.00     0.004 C 
HETATM   14  C   UNL     1     -12.363   1.876 -35.684  1.00  0.00     0.012 C 
HETATM   15  C   UNL     1     -14.187   1.072 -34.134  1.00  0.00     0.006 C 
HETATM   16  C   UNL     1     -15.268   1.474 -33.134  1.00  0.00     0.001 C 
HETATM   17  C   UNL     1     -14.705   2.309 -31.990  1.00  0.00     0.002 C 
HETATM   18  C   UNL     1     -13.933   3.523 -32.506  1.00  0.00     0.026 C 
ENDBRANCH   8  12
ENDBRANCH   3   4
ENDBRANCH   1   3
BRANCH   1  19
HETATM   19  C   UNL     1      -5.750   1.507 -30.845  1.00  0.00     0.300 C 
BRANCH  19  20
HETATM   20  C   UNL     1      -4.653   2.473 -31.104  1.00  0.00     0.078 A 
HETATM   21  O   UNL     1      -4.972   3.794 -30.969  1.00  0.00    -0.325 OA
HETATM   22  C   UNL     1      -3.868   4.508 -31.307  1.00  0.00     0.142 A 
HETATM   23  C   UNL     1      -2.832   3.663 -31.622  1.00  0.00     0.027 A 
HETATM   24  C   UNL     1      -3.337   2.344 -31.490  1.00  0.00     0.036 A 
ENDBRANCH  19  20
ENDBRANCH   1  19
BRANCH   1  25
HETATM   25  C   UNL     1      -6.358   1.457 -33.292  1.00  0.00     0.277 C 
BRANCH  25  26
HETATM   26  C   UNL     1      -6.027   0.048 -33.700  1.00  0.00     0.001 A 
HETATM   27  C   UNL     1      -6.856  -0.636 -34.599  1.00  0.00     0.073 A 
HETATM   28  C   UNL     1      -6.592  -1.950 -34.974  1.00  0.00     0.037 A 
HETATM   29  C   UNL     1      -5.488  -2.606 -34.432  1.00  0.00     0.003 A 
HETATM   30  C   UNL     1      -4.657  -1.947 -33.527  1.00  0.00     0.001 A 
HETATM   31  C   UNL     1      -4.920  -0.624 -33.163  1.00  0.00     0.011 A 
BRANCH  27  32
HETATM   32  O   UNL     1      -7.957   0.015 -35.083  1.00  0.00    -0.360 OA
HETATM   33  H   UNL     1      -8.670  -0.645 -35.199  1.00  0.00     0.217 HD
ENDBRANCH  27  32
ENDBRANCH  25  26
ENDBRANCH   1  25
TORSDOF 8
ENDMDL
MODEL 5
REMARK VINA RESULT:      -7.7      2.109      7.917
REMARK  8 active torsions:
REMARK  status: ('A' for Active; 'I' for Inactive)
REMARK    1  A    between atoms: C_3  and  N_4 
REMARK       I    between atoms: N_4  and  C_5 
REMARK       I    between atoms: C_5  and  N_6 
REMARK       I    between atoms: N_6  and  C_7 
REMARK    2  A    between atoms: C_7  and  C_8 
REMARK    3  A    between atoms: C_8  and  N_9 
REMARK    4  A    between atoms: N_9  and  C_11 
REMARK    5  A    between atoms: N_9  and  C_17 
REMARK    6  A    between atoms: C_11  and  C_12 
REMARK    7  A    between atoms: C_17  and  C_18 
REMARK    8  A    between atoms: C_19  and  O_20 
ROOT
HETATM    1  N   UNL     1      -3.972   5.736 -33.011  1.00  0.00    -0.053 N 
HETATM    2  H   UNL     1      -3.754   4.928 -32.407  1.00  0.00     0.281 HD
ENDROOT
BRANCH   1   3
HETATM    3  C   UNL     1      -5.014   5.234 -33.997  1.00  0.00     0.338 C 
BRANCH   3   4
HETATM    4  C   UNL     1      -5.390   3.775 -33.750  1.00  0.00     0.251 C 
HETATM    5  N   UNL     1      -4.561   3.106 -32.876  1.00  0.00    -0.278 N 
HETATM    6  C   UNL     1      -4.840   1.915 -32.263  1.00  0.00     0.323 C 
HETATM    7  H   UNL     1      -3.982   3.661 -32.255  1.00  0.00     0.173 HD
HETATM    8  N   UNL     1      -5.587   1.030 -32.977  1.00  0.00    -0.338 N 
HETATM    9  O   UNL     1      -4.422   1.726 -31.126  1.00  0.00    -0.247 OA
HETATM   10  H   UNL     1      -6.008   1.363 -33.838  1.00  0.00     0.164 HD
HETATM   11  O   UNL     1      -6.373   3.295 -34.314  1.00  0.00    -0.271 OA
BRANCH   8  12
HETATM   12  C   UNL     1      -6.006  -0.264 -32.444  1.00  0.00     0.089 C 
HETATM   13  C   UNL     1      -7.225  -0.842 -33.202  1.00  0.00     0.004 C 
HETATM   14  C   UNL     1      -8.420   0.114 -33.217  1.00  0.00     0.012 C 
HETATM   15  C   UNL     1      -6.856  -1.275 -34.630  1.00  0.00     0.006 C 
HETATM   16  C   UNL     1      -5.689  -2.260 -34.634  1.00  0.00     0.001 C 
HETATM   17  C   UNL     1      -4.479  -1.713 -33.883  1.00  0.00     0.002 C 
HETATM   18  C   UNL     1      -4.846  -1.277 -32.465  1.00  0.00     0.026 C 
ENDBRANCH   8  12
ENDBRANCH   3   4
ENDBRANCH   1   3
BRANCH   1  19
HETATM   19  C   UNL     1      -2.635   6.086 -33.618  1.00  0.00     0.300 C 
BRANCH  19  20
HETATM   20  C   UNL     1      -1.509   6.137 -32.653  1.00  0.00     0.078 A 
HETATM   21  O   UNL     1      -1.274   4.993 -31.944  1.00  0.00    -0.325 OA
HETATM   22  C   UNL     1      -0.260   5.259 -31.081  1.00  0.00     0.142 A 
HETATM   23  C   UNL     1       0.183   6.549 -31.249  1.00  0.00     0.027 A 
HETATM   24  C   UNL     1      -0.622   7.119 -32.267  1.00  0.00     0.036 A 
ENDBRANCH  19  20
ENDBRANCH   1  19
BRANCH   1  25
HETATM   25  C   UNL     1      -4.508   6.793 -32.083  1.00  0.00     0.277 C 
BRANCH  25  26
HETATM   26  C   UNL     1      -5.450   6.208 -31.067  1.00  0.00     0.001 A 
HETATM   27  C   UNL     1      -5.028   5.158 -30.242  1.00  0.00     0.073 A 
HETATM   28  C   UNL     1      -5.885   4.576 -29.312  1.00  0.00     0.037 A 
HETATM   29  C   UNL     1      -7.196   5.038 -29.210  1.00  0.00     0.003 A 
HETATM   30  C   UNL     1      -7.639   6.075 -30.030  1.00  0.00     0.001 A 
HETATM   31  C   UNL     1      -6.771   6.663 -30.953  1.00  0.00     0.011 A 
BRANCH  27  32
HETATM   32  O   UNL     1      -3.751   4.693 -30.392  1.00  0.00    -0.360 OA
HETATM   33  H   UNL     1      -3.687   3.832 -29.934  1.00  0.00     0.217 HD
ENDBRANCH  27  32
ENDBRANCH  25  26
ENDBRANCH   1  25
TORSDOF 8
ENDMDL
MODEL 6
REMARK VINA RESULT:      -7.5      1.441      4.231
REMARK  8 active torsions:
REMARK  status: ('A' for Active; 'I' for Inactive)
REMARK    1  A    between atoms: C_3  and  N_4 
REMARK       I    between atoms: N_4  and  C_5 
REMARK       I    between atoms: C_5  and  N_6 
REMARK       I    between atoms: N_6  and  C_7 
REMARK    2  A    between atoms: C_7  and  C_8 
REMARK    3  A    between atoms: C_8  and  N_9 
REMARK    4  A    between atoms: N_9  and  C_11 
REMARK    5  A    between atoms: N_9  and  C_17 
REMARK    6  A    between atoms: C_11  and  C_12 
REMARK    7  A    between atoms: C_17  and  C_18 
REMARK    8  A    between atoms: C_19  and  O_20 
ROOT
HETATM    1  N   UNL     1      -6.064   1.028 -32.161  1.00  0.00    -0.053 N 
HETATM    2  H   UNL     1      -6.329   2.026 -32.173  1.00  0.00     0.281 HD
ENDROOT
BRANCH   1   3
HETATM    3  C   UNL     1      -4.884   0.935 -31.207  1.00  0.00     0.338 C 
BRANCH   3   4
HETATM    4  C   UNL     1      -4.080   2.232 -31.151  1.00  0.00     0.251 C 
HETATM    5  N   UNL     1      -4.838   3.376 -31.030  1.00  0.00    -0.278 N 
HETATM    6  C   UNL     1      -4.372   4.609 -30.663  1.00  0.00     0.323 C 
HETATM    7  H   UNL     1      -5.791   3.278 -30.696  1.00  0.00     0.173 HD
HETATM    8  N   UNL     1      -3.110   4.919 -31.062  1.00  0.00    -0.338 N 
HETATM    9  O   UNL     1      -5.099   5.338 -29.997  1.00  0.00    -0.247 OA
HETATM   10  H   UNL     1      -2.552   4.174 -31.467  1.00  0.00     0.164 HD
HETATM   11  O   UNL     1      -2.851   2.189 -31.208  1.00  0.00    -0.271 OA
BRANCH   8  12
HETATM   12  C   UNL     1      -2.454   6.177 -30.712  1.00  0.00     0.089 C 
HETATM   13  C   UNL     1      -0.926   6.125 -30.947  1.00  0.00     0.004 C 
HETATM   14  C   UNL     1      -0.249   4.973 -30.200  1.00  0.00     0.012 C 
HETATM   15  C   UNL     1      -0.581   6.081 -32.444  1.00  0.00     0.006 C 
HETATM   16  C   UNL     1      -1.215   7.246 -33.201  1.00  0.00     0.001 C 
HETATM   17  C   UNL     1      -2.721   7.320 -32.974  1.00  0.00     0.002 C 
HETATM   18  C   UNL     1      -3.065   7.359 -31.486  1.00  0.00     0.026 C 
ENDBRANCH   8  12
ENDBRANCH   3   4
ENDBRANCH   1   3
BRANCH   1  19
HETATM   19  C   UNL     1      -5.740   0.738 -33.607  1.00  0.00     0.300 C 
BRANCH  19  20
HETATM   20  C   UNL     1      -5.718  -0.703 -33.959  1.00  0.00     0.078 A 
HETATM   21  O   UNL     1      -4.544  -1.362 -33.722  1.00  0.00    -0.325 OA
HETATM   22  C   UNL     1      -4.704  -2.635 -34.165  1.00  0.00     0.142 A 
HETATM   23  C   UNL     1      -5.977  -2.815 -34.653  1.00  0.00     0.027 A 
HETATM   24  C   UNL     1      -6.636  -1.566 -34.519  1.00  0.00     0.036 A 
ENDBRANCH  19  20
ENDBRANCH   1  19
BRANCH   1  25
HETATM   25  C   UNL     1      -7.280   0.298 -31.658  1.00  0.00     0.277 C 
BRANCH  25  26
HETATM   26  C   UNL     1      -8.546   0.891 -32.210  1.00  0.00     0.001 A 
HETATM   27  C   UNL     1      -8.819   2.254 -32.033  1.00  0.00     0.073 A 
HETATM   28  C   UNL     1      -9.995   2.827 -32.507  1.00  0.00     0.037 A 
HETATM   29  C   UNL     1     -10.930   2.025 -33.160  1.00  0.00     0.003 A 
HETATM   30  C   UNL     1     -10.682   0.664 -33.339  1.00  0.00     0.001 A 
HETATM   31  C   UNL     1      -9.495   0.097 -32.870  1.00  0.00     0.011 A 
BRANCH  27  32
HETATM   32  O   UNL     1      -7.907   3.010 -31.349  1.00  0.00    -0.360 OA
HETATM   33  H   UNL     1      -7.016   2.779 -31.680  1.00  0.00     0.217 HD
ENDBRANCH  27  32
ENDBRANCH  25  26
ENDBRANCH   1  25
TORSDOF 8
ENDMDL
MODEL 7
REMARK VINA RESULT:      -7.3      2.086      8.152
REMARK  8 active torsions:
REMARK  status: ('A' for Active; 'I' for Inactive)
REMARK    1  A    between atoms: C_3  and  N_4 
REMARK       I    between atoms: N_4  and  C_5 
REMARK       I    between atoms: C_5  and  N_6 
REMARK       I    between atoms: N_6  and  C_7 
REMARK    2  A    between atoms: C_7  and  C_8 
REMARK    3  A    between atoms: C_8  and  N_9 
REMARK    4  A    between atoms: N_9  and  C_11 
REMARK    5  A    between atoms: N_9  and  C_17 
REMARK    6  A    between atoms: C_11  and  C_12 
REMARK    7  A    between atoms: C_17  and  C_18 
REMARK    8  A    between atoms: C_19  and  O_20 
ROOT
HETATM    1  N   UNL     1      -6.625   1.704 -32.497  1.00  0.00    -0.053 N 
HETATM    2  H   UNL     1      -5.759   1.292 -32.115  1.00  0.00     0.281 HD
ENDROOT
BRANCH   1   3
HETATM    3  C   UNL     1      -7.752   1.128 -31.655  1.00  0.00     0.338 C 
BRANCH   3   4
HETATM    4  C   UNL     1      -9.130   1.494 -32.203  1.00  0.00     0.251 C 
HETATM    5  N   UNL     1      -9.599   2.727 -31.805  1.00  0.00    -0.278 N 
HETATM    6  C   UNL     1     -10.638   3.409 -32.377  1.00  0.00     0.323 C 
HETATM    7  H   UNL     1      -8.924   3.399 -31.455  1.00  0.00     0.173 HD
HETATM    8  N   UNL     1     -11.654   2.655 -32.872  1.00  0.00    -0.338 N 
HETATM    9  O   UNL     1     -10.584   4.634 -32.421  1.00  0.00    -0.247 OA
HETATM   10  H   UNL     1     -11.510   1.651 -32.922  1.00  0.00     0.164 HD
HETATM   11  O   UNL     1      -9.720   0.708 -32.943  1.00  0.00    -0.271 OA
BRANCH   8  12
HETATM   12  C   UNL     1     -12.812   3.232 -33.552  1.00  0.00     0.089 C 
HETATM   13  C   UNL     1     -13.444   2.249 -34.566  1.00  0.00     0.004 C 
HETATM   14  C   UNL     1     -12.441   1.744 -35.607  1.00  0.00     0.012 C 
HETATM   15  C   UNL     1     -14.139   1.072 -33.863  1.00  0.00     0.006 C 
HETATM   16  C   UNL     1     -15.172   1.556 -32.847  1.00  0.00     0.001 C 
HETATM   17  C   UNL     1     -14.570   2.533 -31.844  1.00  0.00     0.002 C 
HETATM   18  C   UNL     1     -13.875   3.701 -32.542  1.00  0.00     0.026 C 
ENDBRANCH   8  12
ENDBRANCH   3   4
ENDBRANCH   1   3
BRANCH   1  19
HETATM   19  C   UNL     1      -6.614   1.259 -33.940  1.00  0.00     0.300 C 
BRANCH  19  20
HETATM   20  C   UNL     1      -6.347  -0.186 -34.141  1.00  0.00     0.078 A 
HETATM   21  O   UNL     1      -5.147  -0.645 -33.677  1.00  0.00    -0.325 OA
HETATM   22  C   UNL     1      -5.066  -1.959 -34.010  1.00  0.00     0.142 A 
HETATM   23  C   UNL     1      -6.213  -2.360 -34.651  1.00  0.00     0.027 A 
HETATM   24  C   UNL     1      -7.045  -1.215 -34.736  1.00  0.00     0.036 A 
ENDBRANCH  19  20
ENDBRANCH   1  19
BRANCH   1  25
HETATM   25  C   UNL     1      -6.470   3.191 -32.324  1.00  0.00     0.277 C 
BRANCH  25  26
HETATM   26  C   UNL     1      -5.038   3.619 -32.491  1.00  0.00     0.001 A 
HETATM   27  C   UNL     1      -4.667   4.421 -33.577  1.00  0.00     0.073 A 
HETATM   28  C   UNL     1      -3.345   4.809 -33.775  1.00  0.00     0.037 A 
HETATM   29  C   UNL     1      -2.366   4.378 -32.881  1.00  0.00     0.003 A 
HETATM   30  C   UNL     1      -2.713   3.570 -31.799  1.00  0.00     0.001 A 
HETATM   31  C   UNL     1      -4.043   3.193 -31.600  1.00  0.00     0.011 A 
BRANCH  27  32
HETATM   32  O   UNL     1      -5.638   4.794 -34.465  1.00  0.00    -0.360 OA
HETATM   33  H   UNL     1      -6.156   3.998 -34.697  1.00  0.00     0.217 HD
ENDBRANCH  27  32
ENDBRANCH  25  26
ENDBRANCH   1  25
TORSDOF 8
ENDMDL
MODEL 8
REMARK VINA RESULT:      -7.2      2.393      8.553
REMARK  8 active torsions:
REMARK  status: ('A' for Active; 'I' for Inactive)
REMARK    1  A    between atoms: C_3  and  N_4 
REMARK       I    between atoms: N_4  and  C_5 
REMARK       I    between atoms: C_5  and  N_6 
REMARK       I    between atoms: N_6  and  C_7 
REMARK    2  A    between atoms: C_7  and  C_8 
REMARK    3  A    between atoms: C_8  and  N_9 
REMARK    4  A    between atoms: N_9  and  C_11 
REMARK    5  A    between atoms: N_9  and  C_17 
REMARK    6  A    between atoms: C_11  and  C_12 
REMARK    7  A    between atoms: C_17  and  C_18 
REMARK    8  A    between atoms: C_19  and  O_20 
ROOT
HETATM    1  N   UNL     1      -3.073   5.559 -30.534  1.00  0.00    -0.053 N 
HETATM    2  H   UNL     1      -3.123   5.141 -29.591  1.00  0.00     0.281 HD
ENDROOT
BRANCH   1   3
HETATM    3  C   UNL     1      -4.477   5.437 -31.105  1.00  0.00     0.338 C 
BRANCH   3   4
HETATM    4  C   UNL     1      -4.848   3.990 -31.424  1.00  0.00     0.251 C 
HETATM    5  N   UNL     1      -4.845   3.142 -30.339  1.00  0.00    -0.278 N 
HETATM    6  C   UNL     1      -5.418   1.900 -30.294  1.00  0.00     0.323 C 
HETATM    7  H   UNL     1      -4.898   3.556 -29.415  1.00  0.00     0.173 HD
HETATM    8  N   UNL     1      -5.403   1.187 -31.451  1.00  0.00    -0.338 N 
HETATM    9  O   UNL     1      -5.914   1.519 -29.239  1.00  0.00    -0.247 OA
HETATM   10  H   UNL     1      -5.111   1.671 -32.294  1.00  0.00     0.164 HD
HETATM   11  O   UNL     1      -5.125   3.674 -32.581  1.00  0.00    -0.271 OA
BRANCH   8  12
HETATM   12  C   UNL     1      -6.014  -0.134 -31.576  1.00  0.00     0.089 C 
HETATM   13  C   UNL     1      -7.279  -0.112 -32.467  1.00  0.00     0.004 C 
HETATM   14  C   UNL     1      -8.329   0.891 -31.981  1.00  0.00     0.012 C 
HETATM   15  C   UNL     1      -6.932   0.135 -33.944  1.00  0.00     0.006 C 
HETATM   16  C   UNL     1      -5.915  -0.880 -34.459  1.00  0.00     0.001 C 
HETATM   17  C   UNL     1      -4.664  -0.925 -33.589  1.00  0.00     0.002 C 
HETATM   18  C   UNL     1      -5.008  -1.165 -32.119  1.00  0.00     0.026 C 
ENDBRANCH   8  12
ENDBRANCH   3   4
ENDBRANCH   1   3
BRANCH   1  19
HETATM   19  C   UNL     1      -2.026   4.724 -31.229  1.00  0.00     0.300 C 
BRANCH  19  20
HETATM   20  C   UNL     1      -1.795   5.078 -32.652  1.00  0.00     0.078 A 
HETATM   21  O   UNL     1      -1.131   6.251 -32.879  1.00  0.00    -0.325 OA
HETATM   22  C   UNL     1      -1.077   6.425 -34.224  1.00  0.00     0.142 A 
HETATM   23  C   UNL     1      -1.665   5.362 -34.867  1.00  0.00     0.027 A 
HETATM   24  C   UNL     1      -2.129   4.488 -33.851  1.00  0.00     0.036 A 
ENDBRANCH  19  20
ENDBRANCH   1  19
BRANCH   1  25
HETATM   25  C   UNL     1      -2.656   6.989 -30.314  1.00  0.00     0.277 C 
BRANCH  25  26
HETATM   26  C   UNL     1      -1.529   7.087 -29.323  1.00  0.00     0.001 A 
HETATM   27  C   UNL     1      -1.766   6.845 -27.964  1.00  0.00     0.073 A 
HETATM   28  C   UNL     1      -0.751   6.957 -27.019  1.00  0.00     0.037 A 
HETATM   29  C   UNL     1       0.527   7.331 -27.431  1.00  0.00     0.003 A 
HETATM   30  C   UNL     1       0.781   7.586 -28.778  1.00  0.00     0.001 A 
HETATM   31  C   UNL     1      -0.239   7.462 -29.723  1.00  0.00     0.011 A 
BRANCH  27  32
HETATM   32  O   UNL     1      -3.039   6.523 -27.579  1.00  0.00    -0.360 OA
HETATM   33  H   UNL     1      -3.061   5.566 -27.380  1.00  0.00     0.217 HD
ENDBRANCH  27  32
ENDBRANCH  25  26
ENDBRANCH   1  25
TORSDOF 8
ENDMDL
MODEL 9
REMARK VINA RESULT:      -7.1      2.183      8.561
REMARK  8 active torsions:
REMARK  status: ('A' for Active; 'I' for Inactive)
REMARK    1  A    between atoms: C_3  and  N_4 
REMARK       I    between atoms: N_4  and  C_5 
REMARK       I    between atoms: C_5  and  N_6 
REMARK       I    between atoms: N_6  and  C_7 
REMARK    2  A    between atoms: C_7  and  C_8 
REMARK    3  A    between atoms: C_8  and  N_9 
REMARK    4  A    between atoms: N_9  and  C_11 
REMARK    5  A    between atoms: N_9  and  C_17 
REMARK    6  A    between atoms: C_11  and  C_12 
REMARK    7  A    between atoms: C_17  and  C_18 
REMARK    8  A    between atoms: C_19  and  O_20 
ROOT
HETATM    1  N   UNL     1      -3.770   6.245 -32.829  1.00  0.00    -0.053 N 
HETATM    2  H   UNL     1      -3.575   5.498 -32.143  1.00  0.00     0.281 HD
ENDROOT
BRANCH   1   3
HETATM    3  C   UNL     1      -4.686   5.613 -33.865  1.00  0.00     0.338 C 
BRANCH   3   4
HETATM    4  C   UNL     1      -5.008   4.156 -33.541  1.00  0.00     0.251 C 
HETATM    5  N   UNL     1      -4.373   3.659 -32.425  1.00  0.00    -0.278 N 
HETATM    6  C   UNL     1      -4.710   2.513 -31.757  1.00  0.00     0.323 C 
HETATM    7  H   UNL     1      -4.002   4.326 -31.756  1.00  0.00     0.173 HD
HETATM    8  N   UNL     1      -5.197   1.495 -32.515  1.00  0.00    -0.338 N 
HETATM    9  O   UNL     1      -4.569   2.479 -30.539  1.00  0.00    -0.247 OA
HETATM   10  H   UNL     1      -5.418   1.699 -33.484  1.00  0.00     0.164 HD
HETATM   11  O   UNL     1      -5.790   3.532 -34.259  1.00  0.00    -0.271 OA
BRANCH   8  12
HETATM   12  C   UNL     1      -5.642   0.225 -31.946  1.00  0.00     0.089 C 
HETATM   13  C   UNL     1      -6.892  -0.333 -32.667  1.00  0.00     0.004 C 
HETATM   14  C   UNL     1      -8.060   0.657 -32.680  1.00  0.00     0.012 C 
HETATM   15  C   UNL     1      -6.564  -0.808 -34.091  1.00  0.00     0.006 C 
HETATM   16  C   UNL     1      -5.426  -1.826 -34.095  1.00  0.00     0.001 C 
HETATM   17  C   UNL     1      -4.187  -1.299 -33.380  1.00  0.00     0.002 C 
HETATM   18  C   UNL     1      -4.513  -0.821 -31.966  1.00  0.00     0.026 C 
ENDBRANCH   8  12
ENDBRANCH   3   4
ENDBRANCH   1   3
BRANCH   1  19
HETATM   19  C   UNL     1      -2.398   6.621 -33.334  1.00  0.00     0.300 C 
BRANCH  19  20
HETATM   20  C   UNL     1      -1.283   6.263 -32.423  1.00  0.00     0.078 A 
HETATM   21  O   UNL     1      -0.470   7.292 -32.036  1.00  0.00    -0.325 OA
HETATM   22  C   UNL     1       0.513   6.757 -31.268  1.00  0.00     0.142 A 
HETATM   23  C   UNL     1       0.324   5.403 -31.126  1.00  0.00     0.027 A 
HETATM   24  C   UNL     1      -0.839   5.081 -31.871  1.00  0.00     0.036 A 
ENDBRANCH  19  20
ENDBRANCH   1  19
BRANCH   1  25
HETATM   25  C   UNL     1      -4.445   7.339 -32.045  1.00  0.00     0.277 C 
BRANCH  25  26
HETATM   26  C   UNL     1      -3.638   7.729 -30.838  1.00  0.00     0.001 A 
HETATM   27  C   UNL     1      -3.409   6.798 -29.816  1.00  0.00     0.073 A 
HETATM   28  C   UNL     1      -2.691   7.137 -28.673  1.00  0.00     0.037 A 
HETATM   29  C   UNL     1      -2.201   8.434 -28.534  1.00  0.00     0.003 A 
HETATM   30  C   UNL     1      -2.426   9.379 -29.536  1.00  0.00     0.001 A 
HETATM   31  C   UNL     1      -3.138   9.030 -30.685  1.00  0.00     0.011 A 
BRANCH  27  32
HETATM   32  O   UNL     1      -3.939   5.545 -29.955  1.00  0.00    -0.360 OA
HETATM   33  H   UNL     1      -4.799   5.630 -30.413  1.00  0.00     0.217 HD
ENDBRANCH  27  32
ENDBRANCH  25  26
ENDBRANCH   1  25
TORSDOF 8
ENDMDL
MODEL 10
REMARK VINA RESULT:      -7.0      1.689      4.236
REMARK  8 active torsions:
REMARK  status: ('A' for Active; 'I' for Inactive)
REMARK    1  A    between atoms: C_3  and  N_4 
REMARK       I    between atoms: N_4  and  C_5 
REMARK       I    between atoms: C_5  and  N_6 
REMARK       I    between atoms: N_6  and  C_7 
REMARK    2  A    between atoms: C_7  and  C_8 
REMARK    3  A    between atoms: C_8  and  N_9 
REMARK    4  A    between atoms: N_9  and  C_11 
REMARK    5  A    between atoms: N_9  and  C_17 
REMARK    6  A    between atoms: C_11  and  C_12 
REMARK    7  A    between atoms: C_17  and  C_18 
REMARK    8  A    between atoms: C_19  and  O_20 
ROOT
HETATM    1  N   UNL     1      -6.447   1.449 -31.944  1.00  0.00    -0.053 N 
HETATM    2  H   UNL     1      -6.810   2.416 -31.941  1.00  0.00     0.281 HD
ENDROOT
BRANCH   1   3
HETATM    3  C   UNL     1      -5.349   1.427 -30.893  1.00  0.00     0.338 C 
BRANCH   3   4
HETATM    4  C   UNL     1      -4.554   2.730 -30.858  1.00  0.00     0.251 C 
HETATM    5  N   UNL     1      -3.441   2.749 -31.669  1.00  0.00    -0.278 N 
HETATM    6  C   UNL     1      -2.745   3.865 -32.046  1.00  0.00     0.323 C 
HETATM    7  H   UNL     1      -3.391   2.068 -32.419  1.00  0.00     0.173 HD
HETATM    8  N   UNL     1      -2.683   4.872 -31.135  1.00  0.00    -0.338 N 
HETATM    9  O   UNL     1      -2.243   3.895 -33.164  1.00  0.00    -0.247 OA
HETATM   10  H   UNL     1      -3.271   4.795 -30.312  1.00  0.00     0.164 HD
HETATM   11  O   UNL     1      -4.936   3.657 -30.144  1.00  0.00    -0.271 OA
BRANCH   8  12
HETATM   12  C   UNL     1      -2.016   6.144 -31.405  1.00  0.00     0.089 C 
HETATM   13  C   UNL     1      -2.594   7.299 -30.552  1.00  0.00     0.004 C 
HETATM   14  C   UNL     1      -4.105   7.468 -30.730  1.00  0.00     0.012 C 
HETATM   15  C   UNL     1      -2.233   7.147 -29.066  1.00  0.00     0.006 C 
HETATM   16  C   UNL     1      -0.726   7.016 -28.865  1.00  0.00     0.001 C 
HETATM   17  C   UNL     1      -0.135   5.889 -29.704  1.00  0.00     0.002 C 
HETATM   18  C   UNL     1      -0.497   6.036 -31.181  1.00  0.00     0.026 C 
ENDBRANCH   8  12
ENDBRANCH   3   4
ENDBRANCH   1   3
BRANCH   1  19
HETATM   19  C   UNL     1      -5.974   1.260 -33.365  1.00  0.00     0.300 C 
BRANCH  19  20
HETATM   20  C   UNL     1      -5.765  -0.153 -33.766  1.00  0.00     0.078 A 
HETATM   21  O   UNL     1      -6.671  -0.668 -34.650  1.00  0.00    -0.325 OA
HETATM   22  C   UNL     1      -6.348  -1.973 -34.839  1.00  0.00     0.142 A 
HETATM   23  C   UNL     1      -5.225  -2.296 -34.115  1.00  0.00     0.027 A 
HETATM   24  C   UNL     1      -4.845  -1.120 -33.421  1.00  0.00     0.036 A 
ENDBRANCH  19  20
ENDBRANCH   1  19
BRANCH   1  25
HETATM   25  C   UNL     1      -7.621   0.581 -31.579  1.00  0.00     0.277 C 
BRANCH  25  26
HETATM   26  C   UNL     1      -8.893   1.082 -32.206  1.00  0.00     0.001 A 
HETATM   27  C   UNL     1      -9.307   2.404 -31.994  1.00  0.00     0.073 A 
HETATM   28  C   UNL     1     -10.493   2.889 -32.536  1.00  0.00     0.037 A 
HETATM   29  C   UNL     1     -11.294   2.038 -33.296  1.00  0.00     0.003 A 
HETATM   30  C   UNL     1     -10.905   0.716 -33.511  1.00  0.00     0.001 A 
HETATM   31  C   UNL     1      -9.708   0.238 -32.973  1.00  0.00     0.011 A 
BRANCH  27  32
HETATM   32  O   UNL     1      -8.525   3.205 -31.208  1.00  0.00    -0.360 OA
HETATM   33  H   UNL     1      -8.089   2.640 -30.539  1.00  0.00     0.217 HD
ENDBRANCH  27  32
ENDBRANCH  25  26
ENDBRANCH   1  25
TORSDOF 8
ENDMDL
