MODEL 1
REMARK VINA RESULT:      -8.4      0.000      0.000
REMARK  7 active torsions:
REMARK  status: ('A' for Active; 'I' for Inactive)
REMARK    1  A    between atoms: C_2  and  C_3 
REMARK       I    between atoms: C_3  and  N_4 
REMARK    2  A    between atoms: N_4  and  C_5 
REMARK    3  A    between atoms: C_7  and  C_8 
REMARK       I    between atoms: C_8  and  N_9 
REMARK    4  A    between atoms: N_9  and  C_10 
REMARK    5  A    between atoms: C_10  and  C_11 
REMARK    6  A    between atoms: C_13  and  O_14 
REMARK    7  A    between atoms: O_14  and  C_15 
ROOT
HETATM    1  C   UNL     1      -6.134   2.578 -33.630  1.00  0.00     0.252 C 
HETATM    2  N   UNL     1      -5.162   2.941 -32.723  1.00  0.00    -0.353 N 
HETATM    3  O   UNL     1      -6.888   3.390 -34.158  1.00  0.00    -0.268 OA
HETATM    4  H   UNL     1      -4.589   2.246 -32.267  1.00  0.00     0.163 HD
ENDROOT
BRANCH   1   5
HETATM    5  C   UNL     1      -6.269   1.128 -33.955  1.00  0.00     0.034 A 
HETATM    6  C   UNL     1      -5.380   0.154 -33.473  1.00  0.00     0.046 A 
HETATM    7  C   UNL     1      -5.551  -1.193 -33.813  1.00  0.00     0.035 A 
HETATM    8  C   UNL     1      -6.604  -1.555 -34.663  1.00  0.00     0.029 A 
HETATM    9  C   UNL     1      -7.481  -0.591 -35.161  1.00  0.00     0.003 A 
HETATM   10  C   UNL     1      -7.314   0.745 -34.807  1.00  0.00     0.017 A 
BRANCH   7  11
HETATM   11  N   UNL     1      -4.712  -2.232 -33.359  1.00  0.00    -0.327 N 
HETATM   12  C   UNL     1      -3.767  -2.173 -32.346  1.00  0.00     0.221 C 
HETATM   13  O   UNL     1      -3.521  -1.203 -31.639  1.00  0.00    -0.273 OA
HETATM   14  H   UNL     1      -4.843  -3.134 -33.801  1.00  0.00     0.169 HD
BRANCH  12  15
HETATM   15  C   UNL     1      -3.053  -3.506 -32.180  1.00  0.00     0.098 C 
HETATM   16  C   UNL     1      -3.455  -4.521 -33.235  1.00  0.00     0.014 C 
ENDBRANCH  12  15
ENDBRANCH   7  11
ENDBRANCH   1   5
BRANCH   2  17
HETATM   17  C   UNL     1      -4.924   4.325 -32.373  1.00  0.00     0.161 C 
BRANCH  17  18
HETATM   18  C   UNL     1      -3.562   4.785 -32.824  1.00  0.00    -0.035 A 
HETATM   19  C   UNL     1      -2.443   4.640 -31.998  1.00  0.00     0.066 A 
HETATM   20  C   UNL     1      -1.212   5.070 -32.464  1.00  0.00     0.164 A 
HETATM   21  N   UNL     1      -1.009   5.602 -33.687  1.00  0.00    -0.237 NA
HETATM   22  C   UNL     1      -2.096   5.709 -34.479  1.00  0.00     0.120 A 
HETATM   23  C   UNL     1      -3.373   5.322 -34.100  1.00  0.00     0.028 A 
BRANCH  20  24
HETATM   24  O   UNL     1      -0.143   4.940 -31.597  1.00  0.00    -0.329 OA
BRANCH  24  25
HETATM   25  C   UNL     1      -0.326   5.494 -30.277  1.00  0.00     0.130 C 
HETATM   26  C   UNL     1       0.779   5.193 -29.228  1.00  0.00     0.032 C 
HETATM   27  C   UNL     1       0.628   6.645 -28.743  1.00  0.00     0.005 C 
HETATM   28  C   UNL     1       0.082   6.984 -30.140  1.00  0.00     0.032 C 
ENDBRANCH  24  25
ENDBRANCH  20  24
ENDBRANCH  17  18
ENDBRANCH   2  17
TORSDOF 7
ENDMDL
MODEL 2
REMARK VINA RESULT:      -8.2      2.141      8.788
REMARK  7 active torsions:
REMARK  status: ('A' for Active; 'I' for Inactive)
REMARK    1  A    between atoms: C_2  and  C_3 
REMARK       I    between atoms: C_3  and  N_4 
REMARK    2  A    between atoms: N_4  and  C_5 
REMARK    3  A    between atoms: C_7  and  C_8 
REMARK       I    between atoms: C_8  and  N_9 
REMARK    4  A    between atoms: N_9  and  C_10 
REMARK    5  A    between atoms: C_10  and  C_11 
REMARK    6  A    between atoms: C_13  and  O_14 
REMARK    7  A    between atoms: O_14  and  C_15 
ROOT
HETATM    1  C   UNL     1      -3.479   2.668 -31.703  1.00  0.00     0.252 C 
HETATM    2  N   UNL     1      -4.841   2.772 -31.883  1.00  0.00    -0.353 N 
HETATM    3  O   UNL     1      -2.943   1.666 -31.238  1.00  0.00    -0.268 OA
HETATM    4  H   UNL     1      -5.258   3.627 -32.221  1.00  0.00     0.163 HD
ENDROOT
BRANCH   1   5
HETATM    5  C   UNL     1      -2.640   3.844 -32.079  1.00  0.00     0.034 A 
HETATM    6  C   UNL     1      -2.099   4.728 -31.132  1.00  0.00     0.046 A 
HETATM    7  C   UNL     1      -1.322   5.817 -31.541  1.00  0.00     0.035 A 
HETATM    8  C   UNL     1      -1.114   6.033 -32.909  1.00  0.00     0.029 A 
HETATM    9  C   UNL     1      -1.664   5.170 -33.858  1.00  0.00     0.003 A 
HETATM   10  C   UNL     1      -2.423   4.079 -33.443  1.00  0.00     0.017 A 
BRANCH   7  11
HETATM   11  N   UNL     1      -0.732   6.741 -30.653  1.00  0.00    -0.327 N 
HETATM   12  C   UNL     1       0.139   6.469 -29.609  1.00  0.00     0.221 C 
HETATM   13  O   UNL     1       0.577   5.368 -29.297  1.00  0.00    -0.273 OA
HETATM   14  H   UNL     1      -0.941   7.716 -30.823  1.00  0.00     0.169 HD
BRANCH  12  15
HETATM   15  C   UNL     1       0.531   7.742 -28.873  1.00  0.00     0.098 C 
HETATM   16  C   UNL     1       1.194   7.465 -27.535  1.00  0.00     0.014 C 
ENDBRANCH  12  15
ENDBRANCH   7  11
ENDBRANCH   1   5
BRANCH   2  17
HETATM   17  C   UNL     1      -5.736   1.673 -31.589  1.00  0.00     0.161 C 
BRANCH  17  18
HETATM   18  C   UNL     1      -6.445   1.189 -32.826  1.00  0.00    -0.035 A 
HETATM   19  C   UNL     1      -6.006   0.050 -33.509  1.00  0.00     0.066 A 
HETATM   20  C   UNL     1      -6.699  -0.360 -34.636  1.00  0.00     0.164 A 
HETATM   21  N   UNL     1      -7.801   0.256 -35.112  1.00  0.00    -0.237 NA
HETATM   22  C   UNL     1      -8.226   1.337 -34.423  1.00  0.00     0.120 A 
HETATM   23  C   UNL     1      -7.593   1.835 -33.294  1.00  0.00     0.028 A 
BRANCH  20  24
HETATM   24  O   UNL     1      -6.204  -1.468 -35.298  1.00  0.00    -0.329 OA
BRANCH  24  25
HETATM   25  C   UNL     1      -6.061  -2.667 -34.507  1.00  0.00     0.130 C 
HETATM   26  C   UNL     1      -6.639  -3.977 -35.106  1.00  0.00     0.032 C 
HETATM   27  C   UNL     1      -5.393  -4.702 -34.568  1.00  0.00     0.005 C 
HETATM   28  C   UNL     1      -4.669  -3.346 -34.610  1.00  0.00     0.032 C 
ENDBRANCH  24  25
ENDBRANCH  20  24
ENDBRANCH  17  18
ENDBRANCH   2  17
TORSDOF 7
ENDMDL
MODEL 3
REMARK VINA RESULT:      -8.2      1.518      1.800
REMARK  7 active torsions:
REMARK  status: ('A' for Active; 'I' for Inactive)
REMARK    1  A    between atoms: C_2  and  C_3 
REMARK       I    between atoms: C_3  and  N_4 
REMARK    2  A    between atoms: N_4  and  C_5 
REMARK    3  A    between atoms: C_7  and  C_8 
REMARK       I    between atoms: C_8  and  N_9 
REMARK    4  A    between atoms: N_9  and  C_10 
REMARK    5  A    between atoms: C_10  and  C_11 
REMARK    6  A    between atoms: C_13  and  O_14 
REMARK    7  A    between atoms: O_14  and  C_15 
ROOT
HETATM    1  C   UNL     1      -5.335   1.959 -32.529  1.00  0.00     0.252 C 
HETATM    2  N   UNL     1      -5.305   3.221 -33.080  1.00  0.00    -0.353 N 
HETATM    3  O   UNL     1      -5.005   1.730 -31.369  1.00  0.00    -0.268 OA
HETATM    4  H   UNL     1      -5.535   3.372 -34.052  1.00  0.00     0.163 HD
ENDROOT
BRANCH   1   5
HETATM    5  C   UNL     1      -5.775   0.833 -33.405  1.00  0.00     0.034 A 
HETATM    6  C   UNL     1      -5.167  -0.432 -33.382  1.00  0.00     0.046 A 
HETATM    7  C   UNL     1      -5.618  -1.451 -34.228  1.00  0.00     0.035 A 
HETATM    8  C   UNL     1      -6.665  -1.185 -35.120  1.00  0.00     0.029 A 
HETATM    9  C   UNL     1      -7.263   0.075 -35.162  1.00  0.00     0.003 A 
HETATM   10  C   UNL     1      -6.819   1.079 -34.307  1.00  0.00     0.017 A 
BRANCH   7  11
HETATM   11  N   UNL     1      -5.072  -2.751 -34.255  1.00  0.00    -0.327 N 
HETATM   12  C   UNL     1      -5.742  -3.944 -34.478  1.00  0.00     0.221 C 
HETATM   13  O   UNL     1      -6.935  -4.071 -34.726  1.00  0.00    -0.273 OA
HETATM   14  H   UNL     1      -4.068  -2.814 -34.135  1.00  0.00     0.169 HD
BRANCH  12  15
HETATM   15  C   UNL     1      -4.794  -5.132 -34.402  1.00  0.00     0.098 C 
HETATM   16  C   UNL     1      -3.586  -4.862 -33.521  1.00  0.00     0.014 C 
ENDBRANCH  12  15
ENDBRANCH   7  11
ENDBRANCH   1   5
BRANCH   2  17
HETATM   17  C   UNL     1      -4.934   4.384 -32.303  1.00  0.00     0.161 C 
BRANCH  17  18
HETATM   18  C   UNL     1      -3.587   4.919 -32.711  1.00  0.00    -0.035 A 
HETATM   19  C   UNL     1      -2.432   4.586 -31.995  1.00  0.00     0.066 A 
HETATM   20  C   UNL     1      -1.216   5.096 -32.417  1.00  0.00     0.164 A 
HETATM   21  N   UNL     1      -1.061   5.880 -33.503  1.00  0.00    -0.237 NA
HETATM   22  C   UNL     1      -2.182   6.168 -34.197  1.00  0.00     0.120 A 
HETATM   23  C   UNL     1      -3.447   5.720 -33.847  1.00  0.00     0.028 A 
BRANCH  20  24
HETATM   24  O   UNL     1      -0.110   4.769 -31.654  1.00  0.00    -0.329 OA
BRANCH  24  25
HETATM   25  C   UNL     1       0.493   5.852 -30.915  1.00  0.00     0.130 C 
HETATM   26  C   UNL     1      -0.407   7.076 -30.600  1.00  0.00     0.032 C 
HETATM   27  C   UNL     1       0.247   7.121 -29.208  1.00  0.00     0.005 C 
HETATM   28  C   UNL     1       0.564   5.627 -29.382  1.00  0.00     0.032 C 
ENDBRANCH  24  25
ENDBRANCH  20  24
ENDBRANCH  17  18
ENDBRANCH   2  17
TORSDOF 7
ENDMDL
MODEL 4
REMARK VINA RESULT:      -8.2      2.109      4.159
REMARK  7 active torsions:
REMARK  status: ('A' for Active; 'I' for Inactive)
REMARK    1  A    between atoms: C_2  and  C_3 
REMARK       I    between atoms: C_3  and  N_4 
REMARK    2  A    between atoms: N_4  and  C_5 
REMARK    3  A    between atoms: C_7  and  C_8 
REMARK       I    between atoms: C_8  and  N_9 
REMARK    4  A    between atoms: N_9  and  C_10 
REMARK    5  A    between atoms: C_10  and  C_11 
REMARK    6  A    between atoms: C_13  and  O_14 
REMARK    7  A    between atoms: O_14  and  C_15 
ROOT
HETATM    1  C   UNL     1      -4.544   0.974 -32.573  1.00  0.00     0.252 C 
HETATM    2  N   UNL     1      -4.517   2.302 -32.206  1.00  0.00    -0.353 N 
HETATM    3  O   UNL     1      -3.687   0.168 -32.225  1.00  0.00    -0.268 OA
HETATM    4  H   UNL     1      -5.208   2.953 -32.549  1.00  0.00     0.163 HD
ENDROOT
BRANCH   1   5
HETATM    5  C   UNL     1      -5.666   0.524 -33.450  1.00  0.00     0.034 A 
HETATM    6  C   UNL     1      -6.821   1.291 -33.663  1.00  0.00     0.046 A 
HETATM    7  C   UNL     1      -7.844   0.818 -34.492  1.00  0.00     0.035 A 
HETATM    8  C   UNL     1      -7.714  -0.444 -35.085  1.00  0.00     0.029 A 
HETATM    9  C   UNL     1      -6.577  -1.222 -34.864  1.00  0.00     0.003 A 
HETATM   10  C   UNL     1      -5.556  -0.738 -34.050  1.00  0.00     0.017 A 
BRANCH   7  11
HETATM   11  N   UNL     1      -9.028   1.534 -34.769  1.00  0.00    -0.327 N 
HETATM   12  C   UNL     1     -10.190   1.567 -34.013  1.00  0.00     0.221 C 
HETATM   13  O   UNL     1     -10.377   1.000 -32.944  1.00  0.00    -0.273 OA
HETATM   14  H   UNL     1      -9.010   2.118 -35.596  1.00  0.00     0.169 HD
BRANCH  12  15
HETATM   15  C   UNL     1     -11.249   2.442 -34.669  1.00  0.00     0.098 C 
HETATM   16  C   UNL     1     -12.411   1.639 -35.225  1.00  0.00     0.014 C 
ENDBRANCH  12  15
ENDBRANCH   7  11
ENDBRANCH   1   5
BRANCH   2  17
HETATM   17  C   UNL     1      -3.496   2.828 -31.325  1.00  0.00     0.161 C 
BRANCH  17  18
HETATM   18  C   UNL     1      -2.660   3.877 -32.009  1.00  0.00    -0.035 A 
HETATM   19  C   UNL     1      -1.632   4.537 -31.327  1.00  0.00     0.066 A 
HETATM   20  C   UNL     1      -0.886   5.487 -32.004  1.00  0.00     0.164 A 
HETATM   21  N   UNL     1      -1.065   5.805 -33.302  1.00  0.00    -0.237 NA
HETATM   22  C   UNL     1      -2.043   5.139 -33.951  1.00  0.00     0.120 A 
HETATM   23  C   UNL     1      -2.855   4.183 -33.359  1.00  0.00     0.028 A 
BRANCH  20  24
HETATM   24  O   UNL     1       0.093   6.138 -31.276  1.00  0.00    -0.329 OA
BRANCH  24  25
HETATM   25  C   UNL     1      -0.178   6.321 -29.871  1.00  0.00     0.130 C 
HETATM   26  C   UNL     1       0.690   5.506 -28.875  1.00  0.00     0.032 C 
HETATM   27  C   UNL     1       0.734   6.758 -27.982  1.00  0.00     0.005 C 
HETATM   28  C   UNL     1       0.467   7.588 -29.249  1.00  0.00     0.032 C 
ENDBRANCH  24  25
ENDBRANCH  20  24
ENDBRANCH  17  18
ENDBRANCH   2  17
TORSDOF 7
ENDMDL
MODEL 5
REMARK VINA RESULT:      -8.1      2.381      2.798
REMARK  7 active torsions:
REMARK  status: ('A' for Active; 'I' for Inactive)
REMARK    1  A    between atoms: C_2  and  C_3 
REMARK       I    between atoms: C_3  and  N_4 
REMARK    2  A    between atoms: N_4  and  C_5 
REMARK    3  A    between atoms: C_7  and  C_8 
REMARK       I    between atoms: C_8  and  N_9 
REMARK    4  A    between atoms: N_9  and  C_10 
REMARK    5  A    between atoms: C_10  and  C_11 
REMARK    6  A    between atoms: C_13  and  O_14 
REMARK    7  A    between atoms: O_14  and  C_15 
ROOT
HETATM    1  C   UNL     1      -4.336   2.220 -31.872  1.00  0.00     0.252 C 
HETATM    2  N   UNL     1      -3.301   2.971 -32.385  1.00  0.00    -0.353 N 
HETATM    3  O   UNL     1      -4.754   2.356 -30.726  1.00  0.00    -0.268 OA
HETATM    4  H   UNL     1      -2.945   2.802 -33.315  1.00  0.00     0.163 HD
ENDROOT
BRANCH   1   5
HETATM    5  C   UNL     1      -4.948   1.189 -32.761  1.00  0.00     0.034 A 
HETATM    6  C   UNL     1      -4.444  -0.116 -32.873  1.00  0.00     0.046 A 
HETATM    7  C   UNL     1      -5.055  -1.042 -33.725  1.00  0.00     0.035 A 
HETATM    8  C   UNL     1      -6.160  -0.644 -34.488  1.00  0.00     0.029 A 
HETATM    9  C   UNL     1      -6.656   0.657 -34.396  1.00  0.00     0.003 A 
HETATM   10  C   UNL     1      -6.052   1.569 -33.535  1.00  0.00     0.017 A 
BRANCH   7  11
HETATM   11  N   UNL     1      -4.619  -2.375 -33.882  1.00  0.00    -0.327 N 
HETATM   12  C   UNL     1      -3.781  -3.094 -33.043  1.00  0.00     0.221 C 
HETATM   13  O   UNL     1      -3.297  -2.699 -31.989  1.00  0.00    -0.273 OA
HETATM   14  H   UNL     1      -4.992  -2.873 -34.681  1.00  0.00     0.169 HD
BRANCH  12  15
HETATM   15  C   UNL     1      -3.534  -4.496 -33.580  1.00  0.00     0.098 C 
HETATM   16  C   UNL     1      -4.736  -5.062 -34.315  1.00  0.00     0.014 C 
ENDBRANCH  12  15
ENDBRANCH   7  11
ENDBRANCH   1   5
BRANCH   2  17
HETATM   17  C   UNL     1      -2.670   4.024 -31.618  1.00  0.00     0.161 C 
BRANCH  17  18
HETATM   18  C   UNL     1      -2.265   5.181 -32.493  1.00  0.00    -0.035 A 
HETATM   19  C   UNL     1      -2.300   6.495 -32.013  1.00  0.00     0.066 A 
HETATM   20  C   UNL     1      -1.909   7.522 -32.854  1.00  0.00     0.164 A 
HETATM   21  N   UNL     1      -1.463   7.340 -34.114  1.00  0.00    -0.237 NA
HETATM   22  C   UNL     1      -1.410   6.064 -34.551  1.00  0.00     0.120 A 
HETATM   23  C   UNL     1      -1.795   4.969 -33.792  1.00  0.00     0.028 A 
BRANCH  20  24
HETATM   24  O   UNL     1      -1.997   8.805 -32.346  1.00  0.00    -0.329 OA
BRANCH  24  25
HETATM   25  C   UNL     1      -2.564   8.926 -31.024  1.00  0.00     0.130 C 
HETATM   26  C   UNL     1      -2.308  10.258 -30.268  1.00  0.00     0.032 C 
HETATM   27  C   UNL     1      -3.762  10.184 -29.771  1.00  0.00     0.005 C 
HETATM   28  C   UNL     1      -4.067   9.311 -31.000  1.00  0.00     0.032 C 
ENDBRANCH  24  25
ENDBRANCH  20  24
ENDBRANCH  17  18
ENDBRANCH   2  17
TORSDOF 7
ENDMDL
MODEL 6
REMARK VINA RESULT:      -8.1      1.846      8.490
REMARK  7 active torsions:
REMARK  status: ('A' for Active; 'I' for Inactive)
REMARK    1  A    between atoms: C_2  and  C_3 
REMARK       I    between atoms: C_3  and  N_4 
REMARK    2  A    between atoms: N_4  and  C_5 
REMARK    3  A    between atoms: C_7  and  C_8 
REMARK       I    between atoms: C_8  and  N_9 
REMARK    4  A    between atoms: N_9  and  C_10 
REMARK    5  A    between atoms: C_10  and  C_11 
REMARK    6  A    between atoms: C_13  and  O_14 
REMARK    7  A    between atoms: O_14  and  C_15 
ROOT
HETATM    1  C   UNL     1      -4.478   4.891 -33.333  1.00  0.00     0.252 C 
HETATM    2  N   UNL     1      -5.121   4.326 -32.253  1.00  0.00    -0.353 N 
HETATM    3  O   UNL     1      -4.903   4.804 -34.481  1.00  0.00    -0.268 OA
HETATM    4  H   UNL     1      -4.722   4.371 -31.327  1.00  0.00     0.163 HD
ENDROOT
BRANCH   1   5
HETATM    5  C   UNL     1      -3.201   5.619 -33.073  1.00  0.00     0.034 A 
HETATM    6  C   UNL     1      -2.615   5.698 -31.801  1.00  0.00     0.046 A 
HETATM    7  C   UNL     1      -1.418   6.398 -31.613  1.00  0.00     0.035 A 
HETATM    8  C   UNL     1      -0.826   7.044 -32.706  1.00  0.00     0.029 A 
HETATM    9  C   UNL     1      -1.411   6.986 -33.971  1.00  0.00     0.003 A 
HETATM   10  C   UNL     1      -2.595   6.275 -34.153  1.00  0.00     0.017 A 
BRANCH   7  11
HETATM   11  N   UNL     1      -0.758   6.511 -30.371  1.00  0.00    -0.327 N 
HETATM   12  C   UNL     1       0.051   5.567 -29.756  1.00  0.00     0.221 C 
HETATM   13  O   UNL     1       0.362   4.473 -30.209  1.00  0.00    -0.273 OA
HETATM   14  H   UNL     1      -0.859   7.398 -29.894  1.00  0.00     0.169 HD
BRANCH  12  15
HETATM   15  C   UNL     1       0.553   6.067 -28.409  1.00  0.00     0.098 C 
HETATM   16  C   UNL     1       0.782   7.568 -28.389  1.00  0.00     0.014 C 
ENDBRANCH  12  15
ENDBRANCH   7  11
ENDBRANCH   1   5
BRANCH   2  17
HETATM   17  C   UNL     1      -6.385   3.636 -32.394  1.00  0.00     0.161 C 
BRANCH  17  18
HETATM   18  C   UNL     1      -6.240   2.156 -32.156  1.00  0.00    -0.035 A 
HETATM   19  C   UNL     1      -5.739   1.311 -33.152  1.00  0.00     0.066 A 
HETATM   20  C   UNL     1      -5.615  -0.041 -32.880  1.00  0.00     0.164 A 
HETATM   21  N   UNL     1      -5.923  -0.604 -31.694  1.00  0.00    -0.237 NA
HETATM   22  C   UNL     1      -6.379   0.230 -30.736  1.00  0.00     0.120 A 
HETATM   23  C   UNL     1      -6.553   1.594 -30.915  1.00  0.00     0.028 A 
BRANCH  20  24
HETATM   24  O   UNL     1      -5.151  -0.839 -33.909  1.00  0.00    -0.329 OA
BRANCH  24  25
HETATM   25  C   UNL     1      -5.562  -2.222 -33.873  1.00  0.00     0.130 C 
HETATM   26  C   UNL     1      -6.911  -2.573 -34.557  1.00  0.00     0.032 C 
HETATM   27  C   UNL     1      -6.238  -3.852 -35.088  1.00  0.00     0.005 C 
HETATM   28  C   UNL     1      -4.892  -3.122 -34.944  1.00  0.00     0.032 C 
ENDBRANCH  24  25
ENDBRANCH  20  24
ENDBRANCH  17  18
ENDBRANCH   2  17
TORSDOF 7
ENDMDL
MODEL 7
REMARK VINA RESULT:      -7.9      2.211      8.745
REMARK  7 active torsions:
REMARK  status: ('A' for Active; 'I' for Inactive)
REMARK    1  A    between atoms: C_2  and  C_3 
REMARK       I    between atoms: C_3  and  N_4 
REMARK    2  A    between atoms: N_4  and  C_5 
REMARK    3  A    between atoms: C_7  and  C_8 
REMARK       I    between atoms: C_8  and  N_9 
REMARK    4  A    between atoms: N_9  and  C_10 
REMARK    5  A    between atoms: C_10  and  C_11 
REMARK    6  A    between atoms: C_13  and  O_14 
REMARK    7  A    between atoms: O_14  and  C_15 
ROOT
HETATM    1  C   UNL     1      -3.764   2.646 -31.603  1.00  0.00     0.252 C 
HETATM    2  N   UNL     1      -3.271   1.382 -31.366  1.00  0.00    -0.353 N 
HETATM    3  O   UNL     1      -4.950   2.934 -31.474  1.00  0.00    -0.268 OA
HETATM    4  H   UNL     1      -2.299   1.162 -31.529  1.00  0.00     0.163 HD
ENDROOT
BRANCH   1   5
HETATM    5  C   UNL     1      -2.798   3.691 -32.055  1.00  0.00     0.034 A 
HETATM    6  C   UNL     1      -1.947   4.374 -31.172  1.00  0.00     0.046 A 
HETATM    7  C   UNL     1      -1.063   5.348 -31.650  1.00  0.00     0.035 A 
HETATM    8  C   UNL     1      -1.056   5.653 -33.017  1.00  0.00     0.029 A 
HETATM    9  C   UNL     1      -1.910   4.991 -33.898  1.00  0.00     0.003 A 
HETATM   10  C   UNL     1      -2.777   4.013 -33.418  1.00  0.00     0.017 A 
BRANCH   7  11
HETATM   11  N   UNL     1      -0.167   6.067 -30.831  1.00  0.00    -0.327 N 
HETATM   12  C   UNL     1      -0.480   7.003 -29.856  1.00  0.00     0.221 C 
HETATM   13  O   UNL     1      -1.605   7.343 -29.511  1.00  0.00    -0.273 OA
HETATM   14  H   UNL     1       0.814   5.846 -30.945  1.00  0.00     0.169 HD
BRANCH  12  15
HETATM   15  C   UNL     1       0.777   7.570 -29.213  1.00  0.00     0.098 C 
HETATM   16  C   UNL     1       0.506   8.211 -27.863  1.00  0.00     0.014 C 
ENDBRANCH  12  15
ENDBRANCH   7  11
ENDBRANCH   1   5
BRANCH   2  17
HETATM   17  C   UNL     1      -4.117   0.311 -30.884  1.00  0.00     0.161 C 
BRANCH  17  18
HETATM   18  C   UNL     1      -4.676  -0.508 -32.018  1.00  0.00    -0.035 A 
HETATM   19  C   UNL     1      -6.020  -0.404 -32.388  1.00  0.00     0.066 A 
HETATM   20  C   UNL     1      -6.482  -1.172 -33.444  1.00  0.00     0.164 A 
HETATM   21  N   UNL     1      -5.707  -2.004 -34.170  1.00  0.00    -0.237 NA
HETATM   22  C   UNL     1      -4.407  -2.070 -33.816  1.00  0.00     0.120 A 
HETATM   23  C   UNL     1      -3.852  -1.355 -32.765  1.00  0.00     0.028 A 
BRANCH  20  24
HETATM   24  O   UNL     1      -7.827  -1.062 -33.747  1.00  0.00    -0.329 OA
BRANCH  24  25
HETATM   25  C   UNL     1      -8.500   0.106 -33.232  1.00  0.00     0.130 C 
HETATM   26  C   UNL     1      -9.133   1.069 -34.272  1.00  0.00     0.032 C 
HETATM   27  C   UNL     1     -10.328   1.219 -33.315  1.00  0.00     0.005 C 
HETATM   28  C   UNL     1      -9.945  -0.151 -32.730  1.00  0.00     0.032 C 
ENDBRANCH  24  25
ENDBRANCH  20  24
ENDBRANCH  17  18
ENDBRANCH   2  17
TORSDOF 7
ENDMDL
MODEL 8
REMARK VINA RESULT:      -7.8      2.582      8.420
REMARK  7 active torsions:
REMARK  status: ('A' for Active; 'I' for Inactive)
REMARK    1  A    between atoms: C_2  and  C_3 
REMARK       I    between atoms: C_3  and  N_4 
REMARK    2  A    between atoms: N_4  and  C_5 
REMARK    3  A    between atoms: C_7  and  C_8 
REMARK       I    between atoms: C_8  and  N_9 
REMARK    4  A    between atoms: N_9  and  C_10 
REMARK    5  A    between atoms: C_10  and  C_11 
REMARK    6  A    between atoms: C_13  and  O_14 
REMARK    7  A    between atoms: O_14  and  C_15 
ROOT
HETATM    1  C   UNL     1      -4.183   0.925 -31.220  1.00  0.00     0.252 C 
HETATM    2  N   UNL     1      -3.606   0.486 -32.392  1.00  0.00    -0.353 N 
HETATM    3  O   UNL     1      -4.583   0.160 -30.347  1.00  0.00    -0.268 OA
HETATM    4  H   UNL     1      -3.332   1.137 -33.114  1.00  0.00     0.163 HD
ENDROOT
BRANCH   1   5
HETATM    5  C   UNL     1      -4.335   2.398 -31.034  1.00  0.00     0.034 A 
HETATM    6  C   UNL     1      -3.500   3.335 -31.663  1.00  0.00     0.046 A 
HETATM    7  C   UNL     1      -3.686   4.705 -31.450  1.00  0.00     0.035 A 
HETATM    8  C   UNL     1      -4.697   5.131 -30.580  1.00  0.00     0.029 A 
HETATM    9  C   UNL     1      -5.520   4.206 -29.937  1.00  0.00     0.003 A 
HETATM   10  C   UNL     1      -5.339   2.844 -30.165  1.00  0.00     0.017 A 
BRANCH   7  11
HETATM   11  N   UNL     1      -2.900   5.710 -32.055  1.00  0.00    -0.327 N 
HETATM   12  C   UNL     1      -3.047   6.246 -33.325  1.00  0.00     0.221 C 
HETATM   13  O   UNL     1      -3.918   5.960 -34.137  1.00  0.00    -0.273 OA
HETATM   14  H   UNL     1      -2.169   6.108 -31.478  1.00  0.00     0.169 HD
BRANCH  12  15
HETATM   15  C   UNL     1      -1.980   7.293 -33.607  1.00  0.00     0.098 C 
HETATM   16  C   UNL     1      -1.580   8.072 -32.367  1.00  0.00     0.014 C 
ENDBRANCH  12  15
ENDBRANCH   7  11
ENDBRANCH   1   5
BRANCH   2  17
HETATM   17  C   UNL     1      -3.375  -0.919 -32.649  1.00  0.00     0.161 C 
BRANCH  17  18
HETATM   18  C   UNL     1      -4.491  -1.526 -33.458  1.00  0.00    -0.035 A 
HETATM   19  C   UNL     1      -5.618  -0.776 -33.808  1.00  0.00     0.066 A 
HETATM   20  C   UNL     1      -6.612  -1.378 -34.561  1.00  0.00     0.164 A 
HETATM   21  N   UNL     1      -6.555  -2.649 -35.011  1.00  0.00    -0.237 NA
HETATM   22  C   UNL     1      -5.448  -3.349 -34.686  1.00  0.00     0.120 A 
HETATM   23  C   UNL     1      -4.406  -2.841 -33.924  1.00  0.00     0.028 A 
BRANCH  20  24
HETATM   24  O   UNL     1      -7.723  -0.607 -34.849  1.00  0.00    -0.329 OA
BRANCH  24  25
HETATM   25  C   UNL     1      -8.125   0.331 -33.830  1.00  0.00     0.130 C 
HETATM   26  C   UNL     1      -9.064   1.488 -34.269  1.00  0.00     0.032 C 
HETATM   27  C   UNL     1      -9.823   1.292 -32.945  1.00  0.00     0.005 C 
HETATM   28  C   UNL     1      -9.295  -0.152 -32.933  1.00  0.00     0.032 C 
ENDBRANCH  24  25
ENDBRANCH  20  24
ENDBRANCH  17  18
ENDBRANCH   2  17
TORSDOF 7
ENDMDL
MODEL 9
REMARK VINA RESULT:      -7.4      2.685      9.169
REMARK  7 active torsions:
REMARK  status: ('A' for Active; 'I' for Inactive)
REMARK    1  A    between atoms: C_2  and  C_3 
REMARK       I    between atoms: C_3  and  N_4 
REMARK    2  A    between atoms: N_4  and  C_5 
REMARK    3  A    between atoms: C_7  and  C_8 
REMARK       I    between atoms: C_8  and  N_9 
REMARK    4  A    between atoms: N_9  and  C_10 
REMARK    5  A    between atoms: C_10  and  C_11 
REMARK    6  A    between atoms: C_13  and  O_14 
REMARK    7  A    between atoms: O_14  and  C_15 
ROOT
HETATM    1  C   UNL     1      -2.573   4.755 -32.552  1.00  0.00     0.252 C 
HETATM    2  N   UNL     1      -3.712   4.173 -32.039  1.00  0.00    -0.353 N 
HETATM    3  O   UNL     1      -2.260   4.676 -33.736  1.00  0.00    -0.268 OA
HETATM    4  H   UNL     1      -3.918   4.212 -31.051  1.00  0.00     0.163 HD
ENDROOT
BRANCH   1   5
HETATM    5  C   UNL     1      -1.688   5.492 -31.603  1.00  0.00     0.034 A 
HETATM    6  C   UNL     1      -2.182   6.230 -30.516  1.00  0.00     0.046 A 
HETATM    7  C   UNL     1      -1.306   6.906 -29.660  1.00  0.00     0.035 A 
HETATM    8  C   UNL     1       0.070   6.862 -29.917  1.00  0.00     0.029 A 
HETATM    9  C   UNL     1       0.569   6.146 -31.006  1.00  0.00     0.003 A 
HETATM   10  C   UNL     1      -0.308   5.463 -31.845  1.00  0.00     0.017 A 
BRANCH   7  11
HETATM   11  N   UNL     1      -1.722   7.656 -28.540  1.00  0.00    -0.327 N 
HETATM   12  C   UNL     1      -1.512   7.360 -27.201  1.00  0.00     0.221 C 
HETATM   13  O   UNL     1      -0.892   6.401 -26.759  1.00  0.00    -0.273 OA
HETATM   14  H   UNL     1      -2.195   8.528 -28.740  1.00  0.00     0.169 HD
BRANCH  12  15
HETATM   15  C   UNL     1      -2.142   8.412 -26.300  1.00  0.00     0.098 C 
HETATM   16  C   UNL     1      -2.762   7.816 -25.048  1.00  0.00     0.014 C 
ENDBRANCH  12  15
ENDBRANCH   7  11
ENDBRANCH   1   5
BRANCH   2  17
HETATM   17  C   UNL     1      -4.657   3.472 -32.882  1.00  0.00     0.161 C 
BRANCH  17  18
HETATM   18  C   UNL     1      -5.036   2.136 -32.301  1.00  0.00    -0.035 A 
HETATM   19  C   UNL     1      -5.816   1.229 -33.026  1.00  0.00     0.066 A 
HETATM   20  C   UNL     1      -6.128   0.009 -32.450  1.00  0.00     0.164 A 
HETATM   21  N   UNL     1      -5.704  -0.382 -31.231  1.00  0.00    -0.237 NA
HETATM   22  C   UNL     1      -4.930   0.495 -30.557  1.00  0.00     0.120 A 
HETATM   23  C   UNL     1      -4.575   1.745 -31.040  1.00  0.00     0.028 A 
BRANCH  20  24
HETATM   24  O   UNL     1      -6.933  -0.837 -33.190  1.00  0.00    -0.329 OA
BRANCH  24  25
HETATM   25  C   UNL     1      -6.312  -1.462 -34.333  1.00  0.00     0.130 C 
HETATM   26  C   UNL     1      -4.919  -2.109 -34.111  1.00  0.00     0.032 C 
HETATM   27  C   UNL     1      -5.379  -3.265 -35.017  1.00  0.00     0.005 C 
HETATM   28  C   UNL     1      -6.823  -2.894 -34.642  1.00  0.00     0.032 C 
ENDBRANCH  24  25
ENDBRANCH  20  24
ENDBRANCH  17  18
ENDBRANCH   2  17
TORSDOF 7
ENDMDL
MODEL 10
REMARK VINA RESULT:      -7.4     16.389     17.751
REMARK  7 active torsions:
REMARK  status: ('A' for Active; 'I' for Inactive)
REMARK    1  A    between atoms: C_2  and  C_3 
REMARK       I    between atoms: C_3  and  N_4 
REMARK    2  A    between atoms: N_4  and  C_5 
REMARK    3  A    between atoms: C_7  and  C_8 
REMARK       I    between atoms: C_8  and  N_9 
REMARK    4  A    between atoms: N_9  and  C_10 
REMARK    5  A    between atoms: C_10  and  C_11 
REMARK    6  A    between atoms: C_13  and  O_14 
REMARK    7  A    between atoms: O_14  and  C_15 
ROOT
HETATM    1  C   UNL     1      -6.999 -14.010 -34.737  1.00  0.00     0.252 C 
HETATM    2  N   UNL     1      -7.020 -14.325 -36.079  1.00  0.00    -0.353 N 
HETATM    3  O   UNL     1      -7.535 -13.005 -34.280  1.00  0.00    -0.268 OA
HETATM    4  H   UNL     1      -6.528 -15.132 -36.432  1.00  0.00     0.163 HD
ENDROOT
BRANCH   1   5
HETATM    5  C   UNL     1      -6.271 -14.937 -33.821  1.00  0.00     0.034 A 
HETATM    6  C   UNL     1      -6.871 -15.521 -32.695  1.00  0.00     0.046 A 
HETATM    7  C   UNL     1      -6.140 -16.381 -31.868  1.00  0.00     0.035 A 
HETATM    8  C   UNL     1      -4.793 -16.630 -32.161  1.00  0.00     0.029 A 
HETATM    9  C   UNL     1      -4.184 -16.039 -33.268  1.00  0.00     0.003 A 
HETATM   10  C   UNL     1      -4.922 -15.196 -34.096  1.00  0.00     0.017 A 
BRANCH   7  11
HETATM   11  N   UNL     1      -6.673 -17.019 -30.728  1.00  0.00    -0.327 N 
HETATM   12  C   UNL     1      -6.315 -16.817 -29.403  1.00  0.00     0.221 C 
HETATM   13  O   UNL     1      -5.489 -16.014 -28.989  1.00  0.00    -0.273 OA
HETATM   14  H   UNL     1      -7.428 -17.671 -30.897  1.00  0.00     0.169 HD
BRANCH  12  15
HETATM   15  C   UNL     1      -7.112 -17.721 -28.474  1.00  0.00     0.098 C 
HETATM   16  C   UNL     1      -8.440 -17.111 -28.060  1.00  0.00     0.014 C 
ENDBRANCH  12  15
ENDBRANCH   7  11
ENDBRANCH   1   5
BRANCH   2  17
HETATM   17  C   UNL     1      -7.735 -13.514 -37.041  1.00  0.00     0.161 C 
BRANCH  17  18
HETATM   18  C   UNL     1      -6.809 -12.948 -38.086  1.00  0.00    -0.035 A 
HETATM   19  C   UNL     1      -5.444 -12.787 -37.828  1.00  0.00     0.066 A 
HETATM   20  C   UNL     1      -4.634 -12.270 -38.825  1.00  0.00     0.164 A 
HETATM   21  N   UNL     1      -5.071 -11.932 -40.056  1.00  0.00    -0.237 NA
HETATM   22  C   UNL     1      -6.386 -12.120 -40.295  1.00  0.00     0.120 A 
HETATM   23  C   UNL     1      -7.281 -12.616 -39.359  1.00  0.00     0.028 A 
BRANCH  20  24
HETATM   24  O   UNL     1      -3.299 -12.095 -38.509  1.00  0.00    -0.329 OA
BRANCH  24  25
HETATM   25  C   UNL     1      -2.484 -13.286 -38.518  1.00  0.00     0.130 C 
HETATM   26  C   UNL     1      -1.219 -13.266 -39.419  1.00  0.00     0.032 C 
HETATM   27  C   UNL     1      -0.478 -14.003 -38.290  1.00  0.00     0.005 C 
HETATM   28  C   UNL     1      -1.510 -13.410 -37.316  1.00  0.00     0.032 C 
ENDBRANCH  24  25
ENDBRANCH  20  24
ENDBRANCH  17  18
ENDBRANCH   2  17
TORSDOF 7
ENDMDL
