MODEL 1
REMARK VINA RESULT:      -9.6      0.000      0.000
REMARK  6 active torsions:
REMARK  status: ('A' for Active; 'I' for Inactive)
REMARK    1  A    between atoms: C_3  and  C_4 
REMARK    2  A    between atoms: C_4  and  N_5 
REMARK       I    between atoms: N_5  and  C_6 
REMARK    3  A    between atoms: C_6  and  C_7 
REMARK    4  A    between atoms: C_10  and  C_11 
REMARK    5  A    between atoms: C_11  and  N_12 
REMARK    6  A    between atoms: N_12  and  C_13 
ROOT
HETATM    1  C   UNL     1      -4.260   3.441 -32.464  1.00  0.00     0.032 A 
HETATM    2  C   UNL     1      -4.964   4.623 -32.725  1.00  0.00     0.017 A 
HETATM    3  C   UNL     1      -4.304   5.717 -33.293  1.00  0.00     0.010 A 
HETATM    4  C   UNL     1      -2.939   5.642 -33.611  1.00  0.00    -0.041 A 
HETATM    5  C   UNL     1      -2.235   4.464 -33.322  1.00  0.00     0.010 A 
HETATM    6  C   UNL     1      -2.892   3.372 -32.749  1.00  0.00     0.017 A 
ENDROOT
BRANCH   4   7
HETATM    7  C   UNL     1      -2.232   6.831 -34.219  1.00  0.00     0.160 C 
BRANCH   7   8
HETATM    8  N   UNL     1      -1.101   7.198 -33.386  1.00  0.00    -0.370 N 
HETATM    9  H   UNL     1      -0.335   7.600 -33.912  1.00  0.00     0.161 HD
BRANCH   8  10
HETATM   10  C   UNL     1      -1.286   7.652 -32.094  1.00  0.00     0.139 A 
HETATM   11  N   UNL     1      -2.033   8.701 -31.891  1.00  0.00    -0.202 NA
HETATM   12  C   UNL     1      -2.228   9.210 -30.635  1.00  0.00     0.200 A 
HETATM   13  S   UNL     1      -3.189  10.553 -30.328  1.00  0.00    -0.039 SA
HETATM   14  N   UNL     1      -1.609   8.623 -29.564  1.00  0.00    -0.331 N 
HETATM   15  C   UNL     1      -0.813   7.490 -29.696  1.00  0.00     0.048 A 
HETATM   16  H   UNL     1      -1.778   9.036 -28.657  1.00  0.00     0.168 HD
HETATM   17  C   UNL     1      -0.625   6.941 -30.963  1.00  0.00     0.036 A 
HETATM   18  C   UNL     1      -0.227   6.909 -28.572  1.00  0.00     0.030 A 
HETATM   19  C   UNL     1       0.137   5.777 -31.109  1.00  0.00     0.017 A 
HETATM   20  C   UNL     1       0.724   5.190 -29.984  1.00  0.00     0.001 A 
HETATM   21  C   UNL     1       0.546   5.758 -28.721  1.00  0.00     0.002 A 
ENDBRANCH   8  10
ENDBRANCH   7   8
ENDBRANCH   4   7
BRANCH   1  22
HETATM   22  C   UNL     1      -4.915   2.251 -31.858  1.00  0.00     0.251 C 
HETATM   23  N   UNL     1      -5.526   1.379 -32.731  1.00  0.00    -0.353 N 
HETATM   24  H   UNL     1      -5.405   1.494 -33.728  1.00  0.00     0.163 HD
HETATM   25  O   UNL     1      -4.858   2.076 -30.646  1.00  0.00    -0.268 OA
BRANCH  23  26
HETATM   26  C   UNL     1      -6.167   0.162 -32.274  1.00  0.00     0.163 C 
BRANCH  26  27
HETATM   27  C   UNL     1      -5.952  -1.041 -33.167  1.00  0.00    -0.019 A 
HETATM   28  C   UNL     1      -7.004  -1.629 -33.893  1.00  0.00     0.010 A 
HETATM   29  C   UNL     1      -6.781  -2.725 -34.732  1.00  0.00     0.001 A 
HETATM   30  C   UNL     1      -5.500  -3.249 -34.874  1.00  0.00     0.002 A 
HETATM   31  C   UNL     1      -4.439  -2.674 -34.178  1.00  0.00     0.024 A 
HETATM   32  C   UNL     1      -4.661  -1.578 -33.336  1.00  0.00     0.042 A 
HETATM   33 CL   UNL     1      -3.286  -0.914 -32.523  1.00  0.00    -0.084 Cl
ENDBRANCH  26  27
ENDBRANCH  23  26
ENDBRANCH   1  22
TORSDOF 6
ENDMDL
MODEL 2
REMARK VINA RESULT:      -9.5      0.990      1.578
REMARK  6 active torsions:
REMARK  status: ('A' for Active; 'I' for Inactive)
REMARK    1  A    between atoms: C_3  and  C_4 
REMARK    2  A    between atoms: C_4  and  N_5 
REMARK       I    between atoms: N_5  and  C_6 
REMARK    3  A    between atoms: C_6  and  C_7 
REMARK    4  A    between atoms: C_10  and  C_11 
REMARK    5  A    between atoms: C_11  and  N_12 
REMARK    6  A    between atoms: N_12  and  C_13 
ROOT
HETATM    1  C   UNL     1      -4.304   3.442 -32.721  1.00  0.00     0.032 A 
HETATM    2  C   UNL     1      -2.928   3.382 -32.971  1.00  0.00     0.017 A 
HETATM    3  C   UNL     1      -2.256   4.510 -33.450  1.00  0.00     0.010 A 
HETATM    4  C   UNL     1      -2.947   5.710 -33.680  1.00  0.00    -0.041 A 
HETATM    5  C   UNL     1      -4.330   5.754 -33.453  1.00  0.00     0.010 A 
HETATM    6  C   UNL     1      -5.004   4.626 -32.979  1.00  0.00     0.017 A 
ENDROOT
BRANCH   4   7
HETATM    7  C   UNL     1      -2.215   6.923 -34.204  1.00  0.00     0.160 C 
BRANCH   7   8
HETATM    8  N   UNL     1      -1.076   7.207 -33.349  1.00  0.00    -0.370 N 
HETATM    9  H   UNL     1      -0.276   7.562 -33.858  1.00  0.00     0.161 HD
BRANCH   8  10
HETATM   10  C   UNL     1      -1.252   7.660 -32.056  1.00  0.00     0.139 A 
HETATM   11  N   UNL     1      -1.980   8.721 -31.849  1.00  0.00    -0.202 NA
HETATM   12  C   UNL     1      -2.165   9.230 -30.591  1.00  0.00     0.200 A 
HETATM   13  S   UNL     1      -3.103  10.588 -30.280  1.00  0.00    -0.039 SA
HETATM   14  N   UNL     1      -1.556   8.628 -29.522  1.00  0.00    -0.331 N 
HETATM   15  C   UNL     1      -0.779   7.482 -29.659  1.00  0.00     0.048 A 
HETATM   16  H   UNL     1      -1.716   9.042 -28.614  1.00  0.00     0.168 HD
HETATM   17  C   UNL     1      -0.602   6.934 -30.927  1.00  0.00     0.036 A 
HETATM   18  C   UNL     1      -0.203   6.888 -28.537  1.00  0.00     0.030 A 
HETATM   19  C   UNL     1       0.139   5.758 -31.078  1.00  0.00     0.017 A 
HETATM   20  C   UNL     1       0.717   5.157 -29.955  1.00  0.00     0.001 A 
HETATM   21  C   UNL     1       0.550   5.723 -28.690  1.00  0.00     0.002 A 
ENDBRANCH   8  10
ENDBRANCH   7   8
ENDBRANCH   4   7
BRANCH   1  22
HETATM   22  C   UNL     1      -5.065   2.269 -32.215  1.00  0.00     0.251 C 
HETATM   23  N   UNL     1      -4.530   1.030 -32.488  1.00  0.00    -0.353 N 
HETATM   24  H   UNL     1      -3.607   0.956 -32.892  1.00  0.00     0.163 HD
HETATM   25  O   UNL     1      -6.088   2.442 -31.562  1.00  0.00    -0.268 OA
BRANCH  23  26
HETATM   26  C   UNL     1      -5.152  -0.193 -32.019  1.00  0.00     0.163 C 
BRANCH  26  27
HETATM   27  C   UNL     1      -5.323  -1.262 -33.078  1.00  0.00    -0.019 A 
HETATM   28  C   UNL     1      -4.277  -2.131 -33.436  1.00  0.00     0.010 A 
HETATM   29  C   UNL     1      -4.461  -3.128 -34.400  1.00  0.00     0.001 A 
HETATM   30  C   UNL     1      -5.699  -3.285 -35.015  1.00  0.00     0.002 A 
HETATM   31  C   UNL     1      -6.755  -2.447 -34.666  1.00  0.00     0.024 A 
HETATM   32  C   UNL     1      -6.571  -1.447 -33.704  1.00  0.00     0.042 A 
HETATM   33 CL   UNL     1      -7.939  -0.462 -33.316  1.00  0.00    -0.084 Cl
ENDBRANCH  26  27
ENDBRANCH  23  26
ENDBRANCH   1  22
TORSDOF 6
ENDMDL
MODEL 3
REMARK VINA RESULT:      -8.9      3.903      9.523
REMARK  6 active torsions:
REMARK  status: ('A' for Active; 'I' for Inactive)
REMARK    1  A    between atoms: C_3  and  C_4 
REMARK    2  A    between atoms: C_4  and  N_5 
REMARK       I    between atoms: N_5  and  C_6 
REMARK    3  A    between atoms: C_6  and  C_7 
REMARK    4  A    between atoms: C_10  and  C_11 
REMARK    5  A    between atoms: C_11  and  N_12 
REMARK    6  A    between atoms: N_12  and  C_13 
ROOT
HETATM    1  C   UNL     1      -4.798   4.055 -31.349  1.00  0.00     0.032 A 
HETATM    2  C   UNL     1      -5.047   3.106 -30.350  1.00  0.00     0.017 A 
HETATM    3  C   UNL     1      -6.364   2.782 -30.010  1.00  0.00     0.010 A 
HETATM    4  C   UNL     1      -7.444   3.395 -30.664  1.00  0.00    -0.041 A 
HETATM    5  C   UNL     1      -7.185   4.365 -31.643  1.00  0.00     0.010 A 
HETATM    6  C   UNL     1      -5.871   4.694 -31.981  1.00  0.00     0.017 A 
ENDROOT
BRANCH   4   7
HETATM    7  C   UNL     1      -8.864   3.044 -30.285  1.00  0.00     0.160 C 
BRANCH   7   8
HETATM    8  N   UNL     1      -9.213   1.757 -30.860  1.00  0.00    -0.370 N 
HETATM    9  H   UNL     1      -9.813   1.204 -30.260  1.00  0.00     0.161 HD
BRANCH   8  10
HETATM   10  C   UNL     1      -9.372   1.607 -32.224  1.00  0.00     0.139 A 
HETATM   11  N   UNL     1     -10.370   2.201 -32.815  1.00  0.00    -0.202 NA
HETATM   12  C   UNL     1     -10.593   2.064 -34.159  1.00  0.00     0.200 A 
HETATM   13  S   UNL     1     -11.860   2.819 -34.962  1.00  0.00    -0.039 SA
HETATM   14  N   UNL     1      -9.764   1.267 -34.904  1.00  0.00    -0.331 N 
HETATM   15  C   UNL     1      -8.667   0.615 -34.350  1.00  0.00     0.048 A 
HETATM   16  H   UNL     1      -9.969   1.191 -35.891  1.00  0.00     0.168 HD
HETATM   17  C   UNL     1      -8.409   0.765 -32.989  1.00  0.00     0.036 A 
HETATM   18  C   UNL     1      -7.833  -0.162 -35.154  1.00  0.00     0.030 A 
HETATM   19  C   UNL     1      -7.286   0.152 -32.424  1.00  0.00     0.017 A 
HETATM   20  C   UNL     1      -6.446  -0.626 -33.227  1.00  0.00     0.001 A 
HETATM   21  C   UNL     1      -6.722  -0.786 -34.586  1.00  0.00     0.002 A 
ENDBRANCH   8  10
ENDBRANCH   7   8
ENDBRANCH   4   7
BRANCH   1  22
HETATM   22  C   UNL     1      -3.416   4.438 -31.745  1.00  0.00     0.251 C 
HETATM   23  N   UNL     1      -2.657   5.065 -30.782  1.00  0.00    -0.353 N 
HETATM   24  H   UNL     1      -2.996   5.129 -29.833  1.00  0.00     0.163 HD
HETATM   25  O   UNL     1      -3.004   4.157 -32.864  1.00  0.00    -0.268 OA
BRANCH  23  26
HETATM   26  C   UNL     1      -1.283   5.456 -31.027  1.00  0.00     0.163 C 
BRANCH  26  27
HETATM   27  C   UNL     1      -0.635   6.230 -29.898  1.00  0.00    -0.019 A 
HETATM   28  C   UNL     1       0.263   5.626 -28.999  1.00  0.00     0.010 A 
HETATM   29  C   UNL     1       0.871   6.363 -27.977  1.00  0.00     0.001 A 
HETATM   30  C   UNL     1       0.604   7.721 -27.841  1.00  0.00     0.002 A 
HETATM   31  C   UNL     1      -0.269   8.345 -28.728  1.00  0.00     0.024 A 
HETATM   32  C   UNL     1      -0.880   7.609 -29.750  1.00  0.00     0.042 A 
HETATM   33 CL   UNL     1      -1.937   8.465 -30.819  1.00  0.00    -0.084 Cl
ENDBRANCH  26  27
ENDBRANCH  23  26
ENDBRANCH   1  22
TORSDOF 6
ENDMDL
MODEL 4
REMARK VINA RESULT:      -8.8      2.458      4.198
REMARK  6 active torsions:
REMARK  status: ('A' for Active; 'I' for Inactive)
REMARK    1  A    between atoms: C_3  and  C_4 
REMARK    2  A    between atoms: C_4  and  N_5 
REMARK       I    between atoms: N_5  and  C_6 
REMARK    3  A    between atoms: C_6  and  C_7 
REMARK    4  A    between atoms: C_10  and  C_11 
REMARK    5  A    between atoms: C_11  and  N_12 
REMARK    6  A    between atoms: N_12  and  C_13 
ROOT
HETATM    1  C   UNL     1      -6.707   1.389 -32.371  1.00  0.00     0.032 A 
HETATM    2  C   UNL     1      -5.833   1.372 -31.278  1.00  0.00     0.017 A 
HETATM    3  C   UNL     1      -5.576   2.551 -30.572  1.00  0.00     0.010 A 
HETATM    4  C   UNL     1      -6.192   3.756 -30.944  1.00  0.00    -0.041 A 
HETATM    5  C   UNL     1      -7.046   3.770 -32.056  1.00  0.00     0.010 A 
HETATM    6  C   UNL     1      -7.299   2.595 -32.767  1.00  0.00     0.017 A 
ENDROOT
BRANCH   4   7
HETATM    7  C   UNL     1      -5.905   5.027 -30.179  1.00  0.00     0.160 C 
BRANCH   7   8
HETATM    8  N   UNL     1      -5.298   6.001 -31.069  1.00  0.00    -0.370 N 
HETATM    9  H   UNL     1      -5.798   6.881 -31.096  1.00  0.00     0.161 HD
BRANCH   8  10
HETATM   10  C   UNL     1      -3.929   6.048 -31.245  1.00  0.00     0.139 A 
HETATM   11  N   UNL     1      -3.169   6.358 -30.231  1.00  0.00    -0.202 NA
HETATM   12  C   UNL     1      -1.809   6.447 -30.355  1.00  0.00     0.200 A 
HETATM   13  S   UNL     1      -0.794   6.833 -29.074  1.00  0.00    -0.039 SA
HETATM   14  N   UNL     1      -1.225   6.229 -31.575  1.00  0.00    -0.331 N 
HETATM   15  C   UNL     1      -1.965   5.875 -32.699  1.00  0.00     0.048 A 
HETATM   16  H   UNL     1      -0.219   6.310 -31.621  1.00  0.00     0.168 HD
HETATM   17  C   UNL     1      -3.348   5.752 -32.586  1.00  0.00     0.036 A 
HETATM   18  C   UNL     1      -1.324   5.633 -33.914  1.00  0.00     0.030 A 
HETATM   19  C   UNL     1      -4.103   5.356 -33.694  1.00  0.00     0.017 A 
HETATM   20  C   UNL     1      -3.464   5.110 -34.913  1.00  0.00     0.001 A 
HETATM   21  C   UNL     1      -2.079   5.253 -35.023  1.00  0.00     0.002 A 
ENDBRANCH   8  10
ENDBRANCH   7   8
ENDBRANCH   4   7
BRANCH   1  22
HETATM   22  C   UNL     1      -7.010   0.164 -33.157  1.00  0.00     0.251 C 
HETATM   23  N   UNL     1      -5.961  -0.384 -33.863  1.00  0.00    -0.353 N 
HETATM   24  H   UNL     1      -5.024  -0.031 -33.729  1.00  0.00     0.163 HD
HETATM   25  O   UNL     1      -8.135  -0.321 -33.121  1.00  0.00    -0.268 OA
BRANCH  23  26
HETATM   26  C   UNL     1      -6.113  -1.598 -34.639  1.00  0.00     0.163 C 
BRANCH  26  27
HETATM   27  C   UNL     1      -5.217  -2.741 -34.207  1.00  0.00    -0.019 A 
HETATM   28  C   UNL     1      -4.147  -2.553 -33.313  1.00  0.00     0.010 A 
HETATM   29  C   UNL     1      -3.346  -3.624 -32.907  1.00  0.00     0.001 A 
HETATM   30  C   UNL     1      -3.605  -4.909 -33.375  1.00  0.00     0.002 A 
HETATM   31  C   UNL     1      -4.669  -5.123 -34.247  1.00  0.00     0.024 A 
HETATM   32  C   UNL     1      -5.471  -4.051 -34.657  1.00  0.00     0.042 A 
HETATM   33 CL   UNL     1      -6.782  -4.407 -35.728  1.00  0.00    -0.084 Cl
ENDBRANCH  26  27
ENDBRANCH  23  26
ENDBRANCH   1  22
TORSDOF 6
ENDMDL
MODEL 5
REMARK VINA RESULT:      -8.7      3.246      9.578
REMARK  6 active torsions:
REMARK  status: ('A' for Active; 'I' for Inactive)
REMARK    1  A    between atoms: C_3  and  C_4 
REMARK    2  A    between atoms: C_4  and  N_5 
REMARK       I    between atoms: N_5  and  C_6 
REMARK    3  A    between atoms: C_6  and  C_7 
REMARK    4  A    between atoms: C_10  and  C_11 
REMARK    5  A    between atoms: C_11  and  N_12 
REMARK    6  A    between atoms: N_12  and  C_13 
ROOT
HETATM    1  C   UNL     1      -5.077   4.458 -32.996  1.00  0.00     0.032 A 
HETATM    2  C   UNL     1      -5.269   3.779 -31.787  1.00  0.00     0.017 A 
HETATM    3  C   UNL     1      -5.998   2.586 -31.765  1.00  0.00     0.010 A 
HETATM    4  C   UNL     1      -6.538   2.056 -32.947  1.00  0.00    -0.041 A 
HETATM    5  C   UNL     1      -6.365   2.757 -34.149  1.00  0.00     0.010 A 
HETATM    6  C   UNL     1      -5.642   3.952 -34.172  1.00  0.00     0.017 A 
ENDROOT
BRANCH   4   7
HETATM    7  C   UNL     1      -7.330   0.770 -32.914  1.00  0.00     0.160 C 
BRANCH   7   8
HETATM    8  N   UNL     1      -6.801  -0.150 -33.905  1.00  0.00    -0.370 N 
HETATM    9  H   UNL     1      -6.841   0.216 -34.848  1.00  0.00     0.161 HD
BRANCH   8  10
HETATM   10  C   UNL     1      -5.753  -0.997 -33.601  1.00  0.00     0.139 A 
HETATM   11  N   UNL     1      -4.766  -0.551 -32.876  1.00  0.00    -0.202 NA
HETATM   12  C   UNL     1      -3.688  -1.338 -32.568  1.00  0.00     0.200 A 
HETATM   13  S   UNL     1      -2.401  -0.806 -31.631  1.00  0.00    -0.039 SA
HETATM   14  N   UNL     1      -3.629  -2.619 -33.048  1.00  0.00    -0.331 N 
HETATM   15  C   UNL     1      -4.651  -3.175 -33.811  1.00  0.00     0.048 A 
HETATM   16  H   UNL     1      -2.813  -3.162 -32.800  1.00  0.00     0.168 HD
HETATM   17  C   UNL     1      -5.767  -2.398 -34.111  1.00  0.00     0.036 A 
HETATM   18  C   UNL     1      -4.559  -4.494 -34.253  1.00  0.00     0.030 A 
HETATM   19  C   UNL     1      -6.824  -2.953 -34.841  1.00  0.00     0.017 A 
HETATM   20  C   UNL     1      -6.737  -4.277 -35.283  1.00  0.00     0.001 A 
HETATM   21  C   UNL     1      -5.606  -5.042 -34.994  1.00  0.00     0.002 A 
ENDBRANCH   8  10
ENDBRANCH   7   8
ENDBRANCH   4   7
BRANCH   1  22
HETATM   22  C   UNL     1      -4.313   5.732 -33.071  1.00  0.00     0.251 C 
HETATM   23  N   UNL     1      -4.034   6.348 -31.872  1.00  0.00    -0.353 N 
HETATM   24  H   UNL     1      -4.230   5.874 -31.002  1.00  0.00     0.163 HD
HETATM   25  O   UNL     1      -3.939   6.154 -34.159  1.00  0.00    -0.268 OA
BRANCH  23  26
HETATM   26  C   UNL     1      -3.264   7.575 -31.803  1.00  0.00     0.163 C 
BRANCH  26  27
HETATM   27  C   UNL     1      -1.931   7.446 -31.096  1.00  0.00    -0.019 A 
HETATM   28  C   UNL     1      -1.803   7.623 -29.707  1.00  0.00     0.010 A 
HETATM   29  C   UNL     1      -0.568   7.477 -29.068  1.00  0.00     0.001 A 
HETATM   30  C   UNL     1       0.563   7.138 -29.803  1.00  0.00     0.002 A 
HETATM   31  C   UNL     1       0.459   6.942 -31.178  1.00  0.00     0.024 A 
HETATM   32  C   UNL     1      -0.776   7.090 -31.819  1.00  0.00     0.042 A 
HETATM   33 CL   UNL     1      -0.821   6.811 -33.526  1.00  0.00    -0.084 Cl
ENDBRANCH  26  27
ENDBRANCH  23  26
ENDBRANCH   1  22
TORSDOF 6
ENDMDL
MODEL 6
REMARK VINA RESULT:      -8.5      2.164      3.108
REMARK  6 active torsions:
REMARK  status: ('A' for Active; 'I' for Inactive)
REMARK    1  A    between atoms: C_3  and  C_4 
REMARK    2  A    between atoms: C_4  and  N_5 
REMARK       I    between atoms: N_5  and  C_6 
REMARK    3  A    between atoms: C_6  and  C_7 
REMARK    4  A    between atoms: C_10  and  C_11 
REMARK    5  A    between atoms: C_11  and  N_12 
REMARK    6  A    between atoms: N_12  and  C_13 
ROOT
HETATM    1  C   UNL     1      -4.287   3.547 -32.949  1.00  0.00     0.032 A 
HETATM    2  C   UNL     1      -2.930   3.410 -32.635  1.00  0.00     0.017 A 
HETATM    3  C   UNL     1      -2.052   4.476 -32.853  1.00  0.00     0.010 A 
HETATM    4  C   UNL     1      -2.520   5.690 -33.380  1.00  0.00    -0.041 A 
HETATM    5  C   UNL     1      -3.875   5.810 -33.717  1.00  0.00     0.010 A 
HETATM    6  C   UNL     1      -4.752   4.743 -33.505  1.00  0.00     0.017 A 
ENDROOT
BRANCH   4   7
HETATM    7  C   UNL     1      -1.564   6.836 -33.619  1.00  0.00     0.160 C 
BRANCH   7   8
HETATM    8  N   UNL     1      -1.770   7.856 -32.607  1.00  0.00    -0.370 N 
HETATM    9  H   UNL     1      -2.347   8.624 -32.928  1.00  0.00     0.161 HD
BRANCH   8  10
HETATM   10  C   UNL     1      -1.849   7.525 -31.268  1.00  0.00     0.139 A 
HETATM   11  N   UNL     1      -0.801   7.024 -30.675  1.00  0.00    -0.202 NA
HETATM   12  C   UNL     1      -0.832   6.651 -29.358  1.00  0.00     0.200 A 
HETATM   13  S   UNL     1       0.496   6.012 -28.554  1.00  0.00    -0.039 SA
HETATM   14  N   UNL     1      -1.994   6.784 -28.645  1.00  0.00    -0.331 N 
HETATM   15  C   UNL     1      -3.148   7.327 -29.201  1.00  0.00     0.048 A 
HETATM   16  H   UNL     1      -1.972   6.491 -27.678  1.00  0.00     0.168 HD
HETATM   17  C   UNL     1      -3.128   7.737 -30.532  1.00  0.00     0.036 A 
HETATM   18  C   UNL     1      -4.299   7.470 -28.427  1.00  0.00     0.030 A 
HETATM   19  C   UNL     1      -4.265   8.326 -31.094  1.00  0.00     0.017 A 
HETATM   20  C   UNL     1      -5.421   8.473 -30.321  1.00  0.00     0.001 A 
HETATM   21  C   UNL     1      -5.438   8.042 -28.993  1.00  0.00     0.002 A 
ENDBRANCH   8  10
ENDBRANCH   7   8
ENDBRANCH   4   7
BRANCH   1  22
HETATM   22  C   UNL     1      -5.259   2.441 -32.739  1.00  0.00     0.251 C 
HETATM   23  N   UNL     1      -4.758   1.284 -32.185  1.00  0.00    -0.353 N 
HETATM   24  H   UNL     1      -3.813   1.262 -31.829  1.00  0.00     0.163 HD
HETATM   25  O   UNL     1      -6.440   2.606 -33.022  1.00  0.00    -0.268 OA
BRANCH  23  26
HETATM   26  C   UNL     1      -5.606   0.145 -31.894  1.00  0.00     0.163 C 
BRANCH  26  27
HETATM   27  C   UNL     1      -5.606  -0.932 -32.959  1.00  0.00    -0.019 A 
HETATM   28  C   UNL     1      -4.462  -1.699 -33.244  1.00  0.00     0.010 A 
HETATM   29  C   UNL     1      -4.487  -2.706 -34.214  1.00  0.00     0.001 A 
HETATM   30  C   UNL     1      -5.661  -2.976 -34.910  1.00  0.00     0.002 A 
HETATM   31  C   UNL     1      -6.811  -2.242 -34.635  1.00  0.00     0.024 A 
HETATM   32  C   UNL     1      -6.787  -1.232 -33.666  1.00  0.00     0.042 A 
HETATM   33 CL   UNL     1      -8.264  -0.380 -33.373  1.00  0.00    -0.084 Cl
ENDBRANCH  26  27
ENDBRANCH  23  26
ENDBRANCH   1  22
TORSDOF 6
ENDMDL
MODEL 7
REMARK VINA RESULT:      -8.3      3.904      8.978
REMARK  6 active torsions:
REMARK  status: ('A' for Active; 'I' for Inactive)
REMARK    1  A    between atoms: C_3  and  C_4 
REMARK    2  A    between atoms: C_4  and  N_5 
REMARK       I    between atoms: N_5  and  C_6 
REMARK    3  A    between atoms: C_6  and  C_7 
REMARK    4  A    between atoms: C_10  and  C_11 
REMARK    5  A    between atoms: C_11  and  N_12 
REMARK    6  A    between atoms: N_12  and  C_13 
ROOT
HETATM    1  C   UNL     1      -1.568   5.696 -31.484  1.00  0.00     0.032 A 
HETATM    2  C   UNL     1      -1.481   5.183 -32.784  1.00  0.00     0.017 A 
HETATM    3  C   UNL     1      -2.638   5.036 -33.554  1.00  0.00     0.010 A 
HETATM    4  C   UNL     1      -3.891   5.404 -33.041  1.00  0.00    -0.041 A 
HETATM    5  C   UNL     1      -3.973   5.892 -31.728  1.00  0.00     0.010 A 
HETATM    6  C   UNL     1      -2.818   6.034 -30.955  1.00  0.00     0.017 A 
ENDROOT
BRANCH   4   7
HETATM    7  C   UNL     1      -5.138   5.236 -33.878  1.00  0.00     0.160 C 
BRANCH   7   8
HETATM    8  N   UNL     1      -5.297   3.837 -34.232  1.00  0.00    -0.370 N 
HETATM    9  H   UNL     1      -4.471   3.440 -34.664  1.00  0.00     0.161 HD
BRANCH   8  10
HETATM   10  C   UNL     1      -6.075   2.993 -33.465  1.00  0.00     0.139 A 
HETATM   11  N   UNL     1      -7.373   3.068 -33.557  1.00  0.00    -0.202 NA
HETATM   12  C   UNL     1      -8.193   2.275 -32.799  1.00  0.00     0.200 A 
HETATM   13  S   UNL     1      -9.869   2.332 -32.894  1.00  0.00    -0.039 SA
HETATM   14  N   UNL     1      -7.645   1.396 -31.904  1.00  0.00    -0.331 N 
HETATM   15  C   UNL     1      -6.269   1.244 -31.760  1.00  0.00     0.048 A 
HETATM   16  H   UNL     1      -8.288   0.835 -31.362  1.00  0.00     0.168 HD
HETATM   17  C   UNL     1      -5.419   2.022 -32.543  1.00  0.00     0.036 A 
HETATM   18  C   UNL     1      -5.756   0.314 -30.857  1.00  0.00     0.030 A 
HETATM   19  C   UNL     1      -4.035   1.852 -32.443  1.00  0.00     0.017 A 
HETATM   20  C   UNL     1      -3.516   0.919 -31.540  1.00  0.00     0.001 A 
HETATM   21  C   UNL     1      -4.375   0.157 -30.746  1.00  0.00     0.002 A 
ENDBRANCH   8  10
ENDBRANCH   7   8
ENDBRANCH   4   7
BRANCH   1  22
HETATM   22  C   UNL     1      -0.367   5.868 -30.623  1.00  0.00     0.251 C 
HETATM   23  N   UNL     1      -0.569   5.755 -29.265  1.00  0.00    -0.353 N 
HETATM   24  H   UNL     1      -1.461   5.441 -28.911  1.00  0.00     0.163 HD
HETATM   25  O   UNL     1       0.728   6.060 -31.137  1.00  0.00    -0.268 OA
BRANCH  23  26
HETATM   26  C   UNL     1       0.523   5.864 -28.319  1.00  0.00     0.163 C 
BRANCH  26  27
HETATM   27  C   UNL     1       0.556   7.161 -27.537  1.00  0.00    -0.019 A 
HETATM   28  C   UNL     1       1.421   8.217 -27.880  1.00  0.00     0.010 A 
HETATM   29  C   UNL     1       1.420   9.416 -27.162  1.00  0.00     0.001 A 
HETATM   30  C   UNL     1       0.546   9.591 -26.094  1.00  0.00     0.002 A 
HETATM   31  C   UNL     1      -0.331   8.567 -25.745  1.00  0.00     0.024 A 
HETATM   32  C   UNL     1      -0.330   7.365 -26.462  1.00  0.00     0.042 A 
HETATM   33 CL   UNL     1      -1.463   6.151 -25.974  1.00  0.00    -0.084 Cl
ENDBRANCH  26  27
ENDBRANCH  23  26
ENDBRANCH   1  22
TORSDOF 6
ENDMDL
MODEL 8
REMARK VINA RESULT:      -8.3      3.954      9.195
REMARK  6 active torsions:
REMARK  status: ('A' for Active; 'I' for Inactive)
REMARK    1  A    between atoms: C_3  and  C_4 
REMARK    2  A    between atoms: C_4  and  N_5 
REMARK       I    between atoms: N_5  and  C_6 
REMARK    3  A    between atoms: C_6  and  C_7 
REMARK    4  A    between atoms: C_10  and  C_11 
REMARK    5  A    between atoms: C_11  and  N_12 
REMARK    6  A    between atoms: N_12  and  C_13 
ROOT
HETATM    1  C   UNL     1      -6.089   5.609 -30.732  1.00  0.00     0.032 A 
HETATM    2  C   UNL     1      -5.965   4.371 -30.091  1.00  0.00     0.017 A 
HETATM    3  C   UNL     1      -7.086   3.551 -29.935  1.00  0.00     0.010 A 
HETATM    4  C   UNL     1      -8.340   3.954 -30.422  1.00  0.00    -0.041 A 
HETATM    5  C   UNL     1      -8.461   5.207 -31.038  1.00  0.00     0.010 A 
HETATM    6  C   UNL     1      -7.342   6.030 -31.189  1.00  0.00     0.017 A 
ENDROOT
BRANCH   4   7
HETATM    7  C   UNL     1      -9.548   3.064 -30.244  1.00  0.00     0.160 C 
BRANCH   7   8
HETATM    8  N   UNL     1      -9.297   1.777 -30.866  1.00  0.00    -0.370 N 
HETATM    9  H   UNL     1      -9.548   0.994 -30.275  1.00  0.00     0.161 HD
BRANCH   8  10
HETATM   10  C   UNL     1      -9.435   1.607 -32.230  1.00  0.00     0.139 A 
HETATM   11  N   UNL     1     -10.468   2.125 -32.833  1.00  0.00    -0.202 NA
HETATM   12  C   UNL     1     -10.669   1.963 -34.177  1.00  0.00     0.200 A 
HETATM   13  S   UNL     1     -11.981   2.621 -34.995  1.00  0.00    -0.039 SA
HETATM   14  N   UNL     1      -9.780   1.223 -34.910  1.00  0.00    -0.331 N 
HETATM   15  C   UNL     1      -8.643   0.654 -34.343  1.00  0.00     0.048 A 
HETATM   16  H   UNL     1      -9.971   1.127 -35.898  1.00  0.00     0.168 HD
HETATM   17  C   UNL     1      -8.407   0.831 -32.982  1.00  0.00     0.036 A 
HETATM   18  C   UNL     1      -7.750  -0.066 -35.136  1.00  0.00     0.030 A 
HETATM   19  C   UNL     1      -7.248   0.304 -32.404  1.00  0.00     0.017 A 
HETATM   20  C   UNL     1      -6.349  -0.418 -33.195  1.00  0.00     0.001 A 
HETATM   21  C   UNL     1      -6.602  -0.606 -34.555  1.00  0.00     0.002 A 
ENDBRANCH   8  10
ENDBRANCH   7   8
ENDBRANCH   4   7
BRANCH   1  22
HETATM   22  C   UNL     1      -4.927   6.519 -30.919  1.00  0.00     0.251 C 
HETATM   23  N   UNL     1      -4.198   6.349 -32.075  1.00  0.00    -0.353 N 
HETATM   24  H   UNL     1      -4.534   5.728 -32.797  1.00  0.00     0.163 HD
HETATM   25  O   UNL     1      -4.690   7.383 -30.083  1.00  0.00    -0.268 OA
BRANCH  23  26
HETATM   26  C   UNL     1      -3.065   7.195 -32.396  1.00  0.00     0.163 C 
BRANCH  26  27
HETATM   27  C   UNL     1      -1.769   6.799 -31.720  1.00  0.00    -0.019 A 
HETATM   28  C   UNL     1      -1.238   7.527 -30.640  1.00  0.00     0.010 A 
HETATM   29  C   UNL     1      -0.052   7.133 -30.013  1.00  0.00     0.001 A 
HETATM   30  C   UNL     1       0.621   5.994 -30.443  1.00  0.00     0.002 A 
HETATM   31  C   UNL     1       0.106   5.247 -31.500  1.00  0.00     0.024 A 
HETATM   32  C   UNL     1      -1.079   5.642 -32.130  1.00  0.00     0.042 A 
HETATM   33 CL   UNL     1      -1.658   4.647 -33.423  1.00  0.00    -0.084 Cl
ENDBRANCH  26  27
ENDBRANCH  23  26
ENDBRANCH   1  22
TORSDOF 6
ENDMDL
MODEL 9
REMARK VINA RESULT:      -8.1      1.785      2.279
REMARK  6 active torsions:
REMARK  status: ('A' for Active; 'I' for Inactive)
REMARK    1  A    between atoms: C_3  and  C_4 
REMARK    2  A    between atoms: C_4  and  N_5 
REMARK       I    between atoms: N_5  and  C_6 
REMARK    3  A    between atoms: C_6  and  C_7 
REMARK    4  A    between atoms: C_10  and  C_11 
REMARK    5  A    between atoms: C_11  and  N_12 
REMARK    6  A    between atoms: N_12  and  C_13 
ROOT
HETATM    1  C   UNL     1      -4.689   3.272 -32.482  1.00  0.00     0.032 A 
HETATM    2  C   UNL     1      -4.761   4.600 -32.919  1.00  0.00     0.017 A 
HETATM    3  C   UNL     1      -3.739   5.497 -32.595  1.00  0.00     0.010 A 
HETATM    4  C   UNL     1      -2.634   5.079 -31.838  1.00  0.00    -0.041 A 
HETATM    5  C   UNL     1      -2.583   3.754 -31.381  1.00  0.00     0.010 A 
HETATM    6  C   UNL     1      -3.606   2.858 -31.699  1.00  0.00     0.017 A 
ENDROOT
BRANCH   4   7
HETATM    7  C   UNL     1      -1.537   6.057 -31.486  1.00  0.00     0.160 C 
BRANCH   7   8
HETATM    8  N   UNL     1      -1.307   6.031 -30.053  1.00  0.00    -0.370 N 
HETATM    9  H   UNL     1      -0.451   5.555 -29.796  1.00  0.00     0.161 HD
BRANCH   8  10
HETATM   10  C   UNL     1      -1.712   7.080 -29.249  1.00  0.00     0.139 A 
HETATM   11  N   UNL     1      -2.985   7.340 -29.139  1.00  0.00    -0.202 NA
HETATM   12  C   UNL     1      -3.440   8.384 -28.379  1.00  0.00     0.200 A 
HETATM   13  S   UNL     1      -5.070   8.748 -28.202  1.00  0.00    -0.039 SA
HETATM   14  N   UNL     1      -2.542   9.193 -27.733  1.00  0.00    -0.331 N 
HETATM   15  C   UNL     1      -1.170   8.968 -27.786  1.00  0.00     0.048 A 
HETATM   16  H   UNL     1      -2.924   9.953 -27.188  1.00  0.00     0.168 HD
HETATM   17  C   UNL     1      -0.690   7.895 -28.532  1.00  0.00     0.036 A 
HETATM   18  C   UNL     1      -0.296   9.801 -27.088  1.00  0.00     0.030 A 
HETATM   19  C   UNL     1       0.683   7.628 -28.561  1.00  0.00     0.017 A 
HETATM   20  C   UNL     1       1.563   8.459 -27.860  1.00  0.00     0.001 A 
HETATM   21  C   UNL     1       1.074   9.544 -27.130  1.00  0.00     0.002 A 
ENDBRANCH   8  10
ENDBRANCH   7   8
ENDBRANCH   4   7
BRANCH   1  22
HETATM   22  C   UNL     1      -5.752   2.280 -32.797  1.00  0.00     0.251 C 
HETATM   23  N   UNL     1      -5.615   1.036 -32.222  1.00  0.00    -0.353 N 
HETATM   24  H   UNL     1      -4.900   0.876 -31.527  1.00  0.00     0.163 HD
HETATM   25  O   UNL     1      -6.699   2.606 -33.502  1.00  0.00    -0.268 OA
BRANCH  23  26
HETATM   26  C   UNL     1      -6.601  -0.009 -32.418  1.00  0.00     0.163 C 
BRANCH  26  27
HETATM   27  C   UNL     1      -6.127  -1.176 -33.260  1.00  0.00    -0.019 A 
HETATM   28  C   UNL     1      -6.949  -1.779 -34.228  1.00  0.00     0.010 A 
HETATM   29  C   UNL     1      -6.486  -2.839 -35.013  1.00  0.00     0.001 A 
HETATM   30  C   UNL     1      -5.187  -3.310 -34.856  1.00  0.00     0.002 A 
HETATM   31  C   UNL     1      -4.348  -2.719 -33.914  1.00  0.00     0.024 A 
HETATM   32  C   UNL     1      -4.811  -1.659 -33.126  1.00  0.00     0.042 A 
HETATM   33 CL   UNL     1      -3.699  -0.970 -31.994  1.00  0.00    -0.084 Cl
ENDBRANCH  26  27
ENDBRANCH  23  26
ENDBRANCH   1  22
TORSDOF 6
ENDMDL
MODEL 10
REMARK VINA RESULT:      -8.1      3.989      8.977
REMARK  6 active torsions:
REMARK  status: ('A' for Active; 'I' for Inactive)
REMARK    1  A    between atoms: C_3  and  C_4 
REMARK    2  A    between atoms: C_4  and  N_5 
REMARK       I    between atoms: N_5  and  C_6 
REMARK    3  A    between atoms: C_6  and  C_7 
REMARK    4  A    between atoms: C_10  and  C_11 
REMARK    5  A    between atoms: C_11  and  N_12 
REMARK    6  A    between atoms: N_12  and  C_13 
ROOT
HETATM    1  C   UNL     1      -6.159   4.765 -32.618  1.00  0.00     0.032 A 
HETATM    2  C   UNL     1      -5.645   4.127 -33.753  1.00  0.00     0.017 A 
HETATM    3  C   UNL     1      -6.225   2.939 -34.209  1.00  0.00     0.010 A 
HETATM    4  C   UNL     1      -7.325   2.379 -33.541  1.00  0.00    -0.041 A 
HETATM    5  C   UNL     1      -7.817   3.010 -32.389  1.00  0.00     0.010 A 
HETATM    6  C   UNL     1      -7.235   4.193 -31.930  1.00  0.00     0.017 A 
ENDROOT
BRANCH   4   7
HETATM    7  C   UNL     1      -7.942   1.091 -34.036  1.00  0.00     0.160 C 
BRANCH   7   8
HETATM    8  N   UNL     1      -7.670   0.028 -33.085  1.00  0.00    -0.370 N 
HETATM    9  H   UNL     1      -8.506  -0.332 -32.642  1.00  0.00     0.161 HD
BRANCH   8  10
HETATM   10  C   UNL     1      -6.631  -0.859 -33.289  1.00  0.00     0.139 A 
HETATM   11  N   UNL     1      -6.810  -1.874 -34.087  1.00  0.00    -0.202 NA
HETATM   12  C   UNL     1      -5.825  -2.800 -34.303  1.00  0.00     0.200 A 
HETATM   13  S   UNL     1      -6.012  -4.116 -35.331  1.00  0.00    -0.039 SA
HETATM   14  N   UNL     1      -4.627  -2.677 -33.651  1.00  0.00    -0.331 N 
HETATM   15  C   UNL     1      -4.352  -1.612 -32.799  1.00  0.00     0.048 A 
HETATM   16  H   UNL     1      -3.931  -3.386 -33.838  1.00  0.00     0.168 HD
HETATM   17  C   UNL     1      -5.332  -0.646 -32.588  1.00  0.00     0.036 A 
HETATM   18  C   UNL     1      -3.106  -1.513 -32.180  1.00  0.00     0.030 A 
HETATM   19  C   UNL     1      -5.058   0.454 -31.769  1.00  0.00     0.017 A 
HETATM   20  C   UNL     1      -3.809   0.559 -31.148  1.00  0.00     0.001 A 
HETATM   21  C   UNL     1      -2.839  -0.425 -31.350  1.00  0.00     0.002 A 
ENDBRANCH   8  10
ENDBRANCH   7   8
ENDBRANCH   4   7
BRANCH   1  22
HETATM   22  C   UNL     1      -5.575   6.028 -32.092  1.00  0.00     0.251 C 
HETATM   23  N   UNL     1      -4.407   5.907 -31.373  1.00  0.00    -0.353 N 
HETATM   24  H   UNL     1      -3.927   5.020 -31.334  1.00  0.00     0.163 HD
HETATM   25  O   UNL     1      -6.117   7.099 -32.341  1.00  0.00    -0.268 OA
BRANCH  23  26
HETATM   26  C   UNL     1      -3.716   7.063 -30.837  1.00  0.00     0.163 C 
BRANCH  26  27
HETATM   27  C   UNL     1      -2.206   6.952 -30.833  1.00  0.00    -0.019 A 
HETATM   28  C   UNL     1      -1.477   6.735 -29.650  1.00  0.00     0.010 A 
HETATM   29  C   UNL     1      -0.084   6.611 -29.670  1.00  0.00     0.001 A 
HETATM   30  C   UNL     1       0.608   6.688 -30.874  1.00  0.00     0.002 A 
HETATM   31  C   UNL     1      -0.093   6.886 -32.061  1.00  0.00     0.024 A 
HETATM   32  C   UNL     1      -1.487   7.013 -32.043  1.00  0.00     0.042 A 
HETATM   33 CL   UNL     1      -2.281   7.239 -33.563  1.00  0.00    -0.084 Cl
ENDBRANCH  26  27
ENDBRANCH  23  26
ENDBRANCH   1  22
TORSDOF 6
ENDMDL
