MODEL 1
REMARK VINA RESULT:      -9.1      0.000      0.000
REMARK  4 active torsions:
REMARK  status: ('A' for Active; 'I' for Inactive)
REMARK    1  A    between atoms: O_2  and  C_3 
REMARK    2  A    between atoms: C_5  and  C_6 
REMARK    3  A    between atoms: C_10  and  C_11 
REMARK       I    between atoms: C_11  and  N_12 
REMARK    4  A    between atoms: N_12  and  N_13 
ROOT
HETATM    1  C   UNL     1      -9.842   1.939 -32.937  1.00  0.00     0.289 C 
HETATM    2  N   UNL     1     -11.036   2.028 -33.632  1.00  0.00    -0.241 N 
HETATM    3  O   UNL     1      -9.584   2.585 -31.924  1.00  0.00    -0.264 OA
HETATM    4  H   UNL     1     -11.186   1.481 -34.479  1.00  0.00     0.192 HD
ENDROOT
BRANCH   1   5
HETATM    5  C   UNL     1      -8.885   1.016 -33.494  1.00  0.00     0.121 A 
HETATM    6  N   UNL     1      -8.740   0.883 -34.846  1.00  0.00    -0.272 N 
HETATM    7  N   UNL     1      -7.819  -0.018 -35.215  1.00  0.00    -0.174 NA
HETATM    8  H   UNL     1      -9.254   1.387 -35.562  1.00  0.00     0.189 HD
HETATM    9  C   UNL     1      -7.319  -0.489 -34.061  1.00  0.00     0.089 A 
HETATM   10  C   UNL     1      -7.971   0.132 -32.955  1.00  0.00     0.071 A 
BRANCH   9  11
HETATM   11  C   UNL     1      -6.257  -1.504 -34.044  1.00  0.00    -0.003 A 
HETATM   12  C   UNL     1      -5.174  -1.377 -33.155  1.00  0.00     0.050 A 
HETATM   13  C   UNL     1      -4.155  -2.332 -33.121  1.00  0.00     0.069 A 
HETATM   14  C   UNL     1      -4.217  -3.426 -33.985  1.00  0.00     0.037 A 
HETATM   15  C   UNL     1      -5.284  -3.571 -34.870  1.00  0.00     0.004 A 
HETATM   16  C   UNL     1      -6.301  -2.614 -34.899  1.00  0.00     0.014 A 
BRANCH  13  17
HETATM   17  O   UNL     1      -3.059  -2.311 -32.302  1.00  0.00    -0.356 OA
HETATM   18  C   UNL     1      -2.595  -1.032 -31.887  1.00  0.00     0.210 C 
ENDBRANCH  13  17
ENDBRANCH   9  11
ENDBRANCH   1   5
BRANCH   2  19
HETATM   19  N   UNL     1     -12.030   2.864 -33.202  1.00  0.00    -0.165 NA
HETATM   20  C   UNL     1     -13.209   2.345 -33.076  1.00  0.00     0.157 A 
HETATM   21  C   UNL     1     -13.649   0.904 -33.351  1.00  0.00     0.277 A 
HETATM   22  C   UNL     1     -14.406   3.050 -32.633  1.00  0.00     0.027 A 
HETATM   23  O   UNL     1     -12.912   0.019 -33.733  1.00  0.00    -0.266 OA
HETATM   24  N   UNL     1     -14.999   0.870 -33.073  1.00  0.00    -0.321 N 
HETATM   25  C   UNL     1     -15.445   2.120 -32.651  1.00  0.00     0.048 A 
HETATM   26  H   UNL     1     -15.567   0.040 -33.166  1.00  0.00     0.169 HD
HETATM   27  C   UNL     1     -16.725   2.474 -32.283  1.00  0.00     0.030 A 
HETATM   28  C   UNL     1     -16.937   3.801 -31.889  1.00  0.00     0.002 A 
HETATM   29  C   UNL     1     -15.879   4.736 -31.872  1.00  0.00     0.001 A 
HETATM   30  C   UNL     1     -14.588   4.362 -32.249  1.00  0.00     0.016 A 
ENDBRANCH   2  19
TORSDOF 4
ENDMDL
MODEL 2
REMARK VINA RESULT:      -9.0      6.444      9.927
REMARK  4 active torsions:
REMARK  status: ('A' for Active; 'I' for Inactive)
REMARK    1  A    between atoms: O_2  and  C_3 
REMARK    2  A    between atoms: C_5  and  C_6 
REMARK    3  A    between atoms: C_10  and  C_11 
REMARK       I    between atoms: C_11  and  N_12 
REMARK    4  A    between atoms: N_12  and  N_13 
ROOT
HETATM    1  C   UNL     1      -3.843   0.962 -31.522  1.00  0.00     0.289 C 
HETATM    2  N   UNL     1      -3.589   0.507 -32.804  1.00  0.00    -0.241 N 
HETATM    3  O   UNL     1      -4.114   0.232 -30.572  1.00  0.00    -0.264 OA
HETATM    4  H   UNL     1      -3.388   1.163 -33.558  1.00  0.00     0.192 HD
ENDROOT
BRANCH   1   5
HETATM    5  C   UNL     1      -3.771   2.393 -31.362  1.00  0.00     0.121 A 
HETATM    6  N   UNL     1      -4.655   3.058 -30.561  1.00  0.00    -0.272 N 
HETATM    7  N   UNL     1      -4.471   4.384 -30.517  1.00  0.00    -0.174 NA
HETATM    8  H   UNL     1      -5.410   2.645 -30.020  1.00  0.00     0.189 HD
HETATM    9  C   UNL     1      -3.409   4.608 -31.309  1.00  0.00     0.089 A 
HETATM   10  C   UNL     1      -2.946   3.380 -31.866  1.00  0.00     0.071 A 
BRANCH   9  11
HETATM   11  C   UNL     1      -2.879   5.962 -31.514  1.00  0.00    -0.003 A 
HETATM   12  C   UNL     1      -3.687   7.084 -31.254  1.00  0.00     0.050 A 
HETATM   13  C   UNL     1      -3.201   8.380 -31.441  1.00  0.00     0.069 A 
HETATM   14  C   UNL     1      -1.892   8.560 -31.894  1.00  0.00     0.037 A 
HETATM   15  C   UNL     1      -1.076   7.461 -32.152  1.00  0.00     0.004 A 
HETATM   16  C   UNL     1      -1.566   6.166 -31.962  1.00  0.00     0.014 A 
BRANCH  13  17
HETATM   17  O   UNL     1      -3.894   9.540 -31.222  1.00  0.00    -0.356 OA
HETATM   18  C   UNL     1      -3.284  10.498 -30.367  1.00  0.00     0.210 C 
ENDBRANCH  13  17
ENDBRANCH   9  11
ENDBRANCH   1   5
BRANCH   2  19
HETATM   19  N   UNL     1      -3.619  -0.832 -33.085  1.00  0.00    -0.165 NA
HETATM   20  C   UNL     1      -4.673  -1.272 -33.695  1.00  0.00     0.157 A 
HETATM   21  C   UNL     1      -5.908  -0.488 -34.146  1.00  0.00     0.277 A 
HETATM   22  C   UNL     1      -4.911  -2.655 -34.089  1.00  0.00     0.027 A 
HETATM   23  O   UNL     1      -6.063   0.705 -33.991  1.00  0.00    -0.266 OA
HETATM   24  N   UNL     1      -6.741  -1.416 -34.733  1.00  0.00    -0.321 N 
HETATM   25  C   UNL     1      -6.162  -2.683 -34.704  1.00  0.00     0.048 A 
HETATM   26  H   UNL     1      -7.642  -1.187 -35.128  1.00  0.00     0.169 HD
HETATM   27  C   UNL     1      -6.689  -3.857 -35.196  1.00  0.00     0.030 A 
HETATM   28  C   UNL     1      -5.917  -5.017 -35.054  1.00  0.00     0.002 A 
HETATM   29  C   UNL     1      -4.651  -4.980 -34.431  1.00  0.00     0.001 A 
HETATM   30  C   UNL     1      -4.131  -3.782 -33.937  1.00  0.00     0.016 A 
ENDBRANCH   2  19
TORSDOF 4
ENDMDL
MODEL 3
REMARK VINA RESULT:      -8.8      6.449      9.898
REMARK  4 active torsions:
REMARK  status: ('A' for Active; 'I' for Inactive)
REMARK    1  A    between atoms: O_2  and  C_3 
REMARK    2  A    between atoms: C_5  and  C_6 
REMARK    3  A    between atoms: C_10  and  C_11 
REMARK       I    between atoms: C_11  and  N_12 
REMARK    4  A    between atoms: N_12  and  N_13 
ROOT
HETATM    1  C   UNL     1      -5.234   2.450 -33.108  1.00  0.00     0.289 C 
HETATM    2  N   UNL     1      -4.952   1.138 -32.766  1.00  0.00    -0.241 N 
HETATM    3  O   UNL     1      -6.048   2.779 -33.968  1.00  0.00    -0.264 OA
HETATM    4  H   UNL     1      -4.252   0.925 -32.057  1.00  0.00     0.192 HD
ENDROOT
BRANCH   1   5
HETATM    5  C   UNL     1      -4.489   3.440 -32.373  1.00  0.00     0.121 A 
HETATM    6  N   UNL     1      -5.094   4.221 -31.429  1.00  0.00    -0.272 N 
HETATM    7  N   UNL     1      -4.277   5.101 -30.835  1.00  0.00    -0.174 NA
HETATM    8  H   UNL     1      -6.072   4.191 -31.157  1.00  0.00     0.189 HD
HETATM    9  C   UNL     1      -3.075   4.883 -31.393  1.00  0.00     0.089 A 
HETATM   10  C   UNL     1      -3.169   3.850 -32.371  1.00  0.00     0.071 A 
BRANCH   9  11
HETATM   11  C   UNL     1      -1.892   5.655 -30.990  1.00  0.00    -0.003 A 
HETATM   12  C   UNL     1      -2.034   6.781 -30.157  1.00  0.00     0.050 A 
HETATM   13  C   UNL     1      -0.921   7.527 -29.761  1.00  0.00     0.069 A 
HETATM   14  C   UNL     1       0.348   7.146 -30.201  1.00  0.00     0.037 A 
HETATM   15  C   UNL     1       0.507   6.032 -31.022  1.00  0.00     0.004 A 
HETATM   16  C   UNL     1      -0.608   5.288 -31.415  1.00  0.00     0.014 A 
BRANCH  13  17
HETATM   17  O   UNL     1      -0.940   8.635 -28.958  1.00  0.00    -0.356 OA
HETATM   18  C   UNL     1      -0.184   8.566 -27.755  1.00  0.00     0.210 C 
ENDBRANCH  13  17
ENDBRANCH   9  11
ENDBRANCH   1   5
BRANCH   2  19
HETATM   19  N   UNL     1      -5.599   0.104 -33.387  1.00  0.00    -0.165 NA
HETATM   20  C   UNL     1      -4.988  -1.037 -33.399  1.00  0.00     0.157 A 
HETATM   21  C   UNL     1      -3.620  -1.391 -32.809  1.00  0.00     0.277 A 
HETATM   22  C   UNL     1      -5.492  -2.265 -34.001  1.00  0.00     0.027 A 
HETATM   23  O   UNL     1      -2.901  -0.611 -32.218  1.00  0.00    -0.266 OA
HETATM   24  N   UNL     1      -3.426  -2.724 -33.098  1.00  0.00    -0.321 N 
HETATM   25  C   UNL     1      -4.518  -3.240 -33.792  1.00  0.00     0.048 A 
HETATM   26  H   UNL     1      -2.599  -3.238 -32.829  1.00  0.00     0.169 HD
HETATM   27  C   UNL     1      -4.689  -4.530 -34.246  1.00  0.00     0.030 A 
HETATM   28  C   UNL     1      -5.881  -4.819 -34.923  1.00  0.00     0.002 A 
HETATM   29  C   UNL     1      -6.863  -3.827 -35.130  1.00  0.00     0.001 A 
HETATM   30  C   UNL     1      -6.674  -2.524 -34.664  1.00  0.00     0.016 A 
ENDBRANCH   2  19
TORSDOF 4
ENDMDL
MODEL 4
REMARK VINA RESULT:      -8.7      5.652      8.323
REMARK  4 active torsions:
REMARK  status: ('A' for Active; 'I' for Inactive)
REMARK    1  A    between atoms: O_2  and  C_3 
REMARK    2  A    between atoms: C_5  and  C_6 
REMARK    3  A    between atoms: C_10  and  C_11 
REMARK       I    between atoms: C_11  and  N_12 
REMARK    4  A    between atoms: N_12  and  N_13 
ROOT
HETATM    1  C   UNL     1      -6.216   3.220 -33.246  1.00  0.00     0.289 C 
HETATM    2  N   UNL     1      -4.933   3.739 -33.243  1.00  0.00    -0.241 N 
HETATM    3  O   UNL     1      -7.210   3.836 -32.868  1.00  0.00    -0.264 OA
HETATM    4  H   UNL     1      -4.143   3.173 -33.550  1.00  0.00     0.192 HD
ENDROOT
BRANCH   1   5
HETATM    5  C   UNL     1      -6.320   1.866 -33.730  1.00  0.00     0.121 A 
HETATM    6  N   UNL     1      -7.186   1.543 -34.735  1.00  0.00    -0.272 N 
HETATM    7  N   UNL     1      -7.179   0.246 -35.074  1.00  0.00    -0.174 NA
HETATM    8  H   UNL     1      -7.811   2.178 -35.224  1.00  0.00     0.189 HD
HETATM    9  C   UNL     1      -6.257  -0.311 -34.273  1.00  0.00     0.089 A 
HETATM   10  C   UNL     1      -5.700   0.675 -33.407  1.00  0.00     0.071 A 
BRANCH   9  11
HETATM   11  C   UNL     1      -5.941  -1.744 -34.348  1.00  0.00    -0.003 A 
HETATM   12  C   UNL     1      -4.757  -2.237 -33.770  1.00  0.00     0.050 A 
HETATM   13  C   UNL     1      -4.440  -3.596 -33.829  1.00  0.00     0.069 A 
HETATM   14  C   UNL     1      -5.314  -4.474 -34.474  1.00  0.00     0.037 A 
HETATM   15  C   UNL     1      -6.493  -4.004 -35.048  1.00  0.00     0.004 A 
HETATM   16  C   UNL     1      -6.807  -2.644 -34.985  1.00  0.00     0.014 A 
BRANCH  13  17
HETATM   17  O   UNL     1      -3.321  -4.185 -33.305  1.00  0.00    -0.356 OA
HETATM   18  C   UNL     1      -2.938  -3.779 -31.997  1.00  0.00     0.210 C 
ENDBRANCH  13  17
ENDBRANCH   9  11
ENDBRANCH   1   5
BRANCH   2  19
HETATM   19  N   UNL     1      -4.701   5.017 -32.813  1.00  0.00    -0.165 NA
HETATM   20  C   UNL     1      -3.651   5.200 -32.079  1.00  0.00     0.157 A 
HETATM   21  C   UNL     1      -2.621   4.165 -31.617  1.00  0.00     0.277 A 
HETATM   22  C   UNL     1      -3.217   6.473 -31.517  1.00  0.00     0.027 A 
HETATM   23  O   UNL     1      -2.654   2.985 -31.900  1.00  0.00    -0.266 OA
HETATM   24  N   UNL     1      -1.711   4.863 -30.853  1.00  0.00    -0.321 N 
HETATM   25  C   UNL     1      -2.054   6.212 -30.794  1.00  0.00     0.048 A 
HETATM   26  H   UNL     1      -0.911   4.437 -30.410  1.00  0.00     0.169 HD
HETATM   27  C   UNL     1      -1.385   7.219 -30.131  1.00  0.00     0.030 A 
HETATM   28  C   UNL     1      -1.921   8.511 -30.216  1.00  0.00     0.002 A 
HETATM   29  C   UNL     1      -3.098   8.766 -30.952  1.00  0.00     0.001 A 
HETATM   30  C   UNL     1      -3.764   7.735 -31.617  1.00  0.00     0.016 A 
ENDBRANCH   2  19
TORSDOF 4
ENDMDL
MODEL 5
REMARK VINA RESULT:      -8.6      7.268     10.574
REMARK  4 active torsions:
REMARK  status: ('A' for Active; 'I' for Inactive)
REMARK    1  A    between atoms: O_2  and  C_3 
REMARK    2  A    between atoms: C_5  and  C_6 
REMARK    3  A    between atoms: C_10  and  C_11 
REMARK       I    between atoms: C_11  and  N_12 
REMARK    4  A    between atoms: N_12  and  N_13 
ROOT
HETATM    1  C   UNL     1      -2.753   4.506 -32.688  1.00  0.00     0.289 C 
HETATM    2  N   UNL     1      -3.817   3.844 -32.100  1.00  0.00    -0.241 N 
HETATM    3  O   UNL     1      -2.559   4.561 -33.900  1.00  0.00    -0.264 OA
HETATM    4  H   UNL     1      -3.916   3.816 -31.086  1.00  0.00     0.192 HD
ENDROOT
BRANCH   1   5
HETATM    5  C   UNL     1      -1.853   5.146 -31.761  1.00  0.00     0.121 A 
HETATM    6  N   UNL     1      -0.501   5.115 -31.957  1.00  0.00    -0.272 N 
HETATM    7  N   UNL     1       0.208   5.744 -31.011  1.00  0.00    -0.174 NA
HETATM    8  H   UNL     1      -0.012   4.669 -32.728  1.00  0.00     0.189 HD
HETATM    9  C   UNL     1      -0.711   6.229 -30.160  1.00  0.00     0.089 A 
HETATM   10  C   UNL     1      -2.020   5.866 -30.595  1.00  0.00     0.071 A 
BRANCH   9  11
HETATM   11  C   UNL     1      -0.324   7.007 -28.975  1.00  0.00    -0.003 A 
HETATM   12  C   UNL     1      -1.180   7.065 -27.860  1.00  0.00     0.050 A 
HETATM   13  C   UNL     1      -0.830   7.797 -26.723  1.00  0.00     0.069 A 
HETATM   14  C   UNL     1       0.388   8.479 -26.698  1.00  0.00     0.037 A 
HETATM   15  C   UNL     1       1.250   8.429 -27.792  1.00  0.00     0.004 A 
HETATM   16  C   UNL     1       0.896   7.695 -28.926  1.00  0.00     0.014 A 
BRANCH  13  17
HETATM   17  O   UNL     1      -1.580   7.925 -25.585  1.00  0.00    -0.356 OA
HETATM   18  C   UNL     1      -2.962   7.607 -25.692  1.00  0.00     0.210 C 
ENDBRANCH  13  17
ENDBRANCH   9  11
ENDBRANCH   1   5
BRANCH   2  19
HETATM   19  N   UNL     1      -4.748   3.202 -32.871  1.00  0.00    -0.165 NA
HETATM   20  C   UNL     1      -4.762   1.909 -32.805  1.00  0.00     0.157 A 
HETATM   21  C   UNL     1      -3.865   0.989 -31.972  1.00  0.00     0.277 A 
HETATM   22  C   UNL     1      -5.666   1.031 -33.537  1.00  0.00     0.027 A 
HETATM   23  O   UNL     1      -2.989   1.372 -31.225  1.00  0.00    -0.266 OA
HETATM   24  N   UNL     1      -4.278  -0.293 -32.264  1.00  0.00    -0.321 N 
HETATM   25  C   UNL     1      -5.331  -0.274 -33.176  1.00  0.00     0.048 A 
HETATM   26  H   UNL     1      -3.862  -1.119 -31.858  1.00  0.00     0.169 HD
HETATM   27  C   UNL     1      -6.006  -1.355 -33.701  1.00  0.00     0.030 A 
HETATM   28  C   UNL     1      -7.040  -1.088 -34.607  1.00  0.00     0.002 A 
HETATM   29  C   UNL     1      -7.374   0.235 -34.965  1.00  0.00     0.001 A 
HETATM   30  C   UNL     1      -6.680   1.320 -34.426  1.00  0.00     0.016 A 
ENDBRANCH   2  19
TORSDOF 4
ENDMDL
MODEL 6
REMARK VINA RESULT:      -8.5      3.312      4.232
REMARK  4 active torsions:
REMARK  status: ('A' for Active; 'I' for Inactive)
REMARK    1  A    between atoms: O_2  and  C_3 
REMARK    2  A    between atoms: C_5  and  C_6 
REMARK    3  A    between atoms: C_10  and  C_11 
REMARK       I    between atoms: C_11  and  N_12 
REMARK    4  A    between atoms: N_12  and  N_13 
ROOT
HETATM    1  C   UNL     1     -10.832   2.272 -33.786  1.00  0.00     0.289 C 
HETATM    2  N   UNL     1     -10.644   3.056 -34.911  1.00  0.00    -0.241 N 
HETATM    3  O   UNL     1     -11.840   2.304 -33.084  1.00  0.00    -0.264 OA
HETATM    4  H   UNL     1      -9.776   3.000 -35.444  1.00  0.00     0.192 HD
ENDROOT
BRANCH   1   5
HETATM    5  C   UNL     1      -9.736   1.389 -33.474  1.00  0.00     0.121 A 
HETATM    6  N   UNL     1      -9.445   1.058 -32.181  1.00  0.00    -0.272 N 
HETATM    7  N   UNL     1      -8.395   0.236 -32.045  1.00  0.00    -0.174 NA
HETATM    8  H   UNL     1      -9.937   1.373 -31.350  1.00  0.00     0.189 HD
HETATM    9  C   UNL     1      -7.984  -0.004 -33.301  1.00  0.00     0.089 A 
HETATM   10  C   UNL     1      -8.798   0.711 -34.228  1.00  0.00     0.071 A 
BRANCH   9  11
HETATM   11  C   UNL     1      -6.843  -0.886 -33.578  1.00  0.00    -0.003 A 
HETATM   12  C   UNL     1      -5.708  -0.855 -32.747  1.00  0.00     0.050 A 
HETATM   13  C   UNL     1      -4.613  -1.687 -32.993  1.00  0.00     0.069 A 
HETATM   14  C   UNL     1      -4.651  -2.561 -34.080  1.00  0.00     0.037 A 
HETATM   15  C   UNL     1      -5.768  -2.609 -34.911  1.00  0.00     0.004 A 
HETATM   16  C   UNL     1      -6.861  -1.776 -34.661  1.00  0.00     0.014 A 
BRANCH  13  17
HETATM   17  O   UNL     1      -3.461  -1.741 -32.255  1.00  0.00    -0.356 OA
HETATM   18  C   UNL     1      -3.005  -3.034 -31.876  1.00  0.00     0.210 C 
ENDBRANCH  13  17
ENDBRANCH   9  11
ENDBRANCH   1   5
BRANCH   2  19
HETATM   19  N   UNL     1     -11.613   3.932 -35.319  1.00  0.00    -0.165 NA
HETATM   20  C   UNL     1     -11.284   5.183 -35.358  1.00  0.00     0.157 A 
HETATM   21  C   UNL     1      -9.940   5.825 -35.003  1.00  0.00     0.277 A 
HETATM   22  C   UNL     1     -12.157   6.279 -35.761  1.00  0.00     0.027 A 
HETATM   23  O   UNL     1      -8.962   5.214 -34.628  1.00  0.00    -0.266 OA
HETATM   24  N   UNL     1     -10.112   7.177 -35.203  1.00  0.00    -0.321 N 
HETATM   25  C   UNL     1     -11.405   7.447 -35.649  1.00  0.00     0.048 A 
HETATM   26  H   UNL     1      -9.386   7.861 -35.047  1.00  0.00     0.169 HD
HETATM   27  C   UNL     1     -11.945   8.676 -35.959  1.00  0.00     0.030 A 
HETATM   28  C   UNL     1     -13.277   8.702 -36.392  1.00  0.00     0.002 A 
HETATM   29  C   UNL     1     -14.031   7.514 -36.505  1.00  0.00     0.001 A 
HETATM   30  C   UNL     1     -13.469   6.276 -36.186  1.00  0.00     0.016 A 
ENDBRANCH   2  19
TORSDOF 4
ENDMDL
MODEL 7
REMARK VINA RESULT:      -8.5      5.667      9.539
REMARK  4 active torsions:
REMARK  status: ('A' for Active; 'I' for Inactive)
REMARK    1  A    between atoms: O_2  and  C_3 
REMARK    2  A    between atoms: C_5  and  C_6 
REMARK    3  A    between atoms: C_10  and  C_11 
REMARK       I    between atoms: C_11  and  N_12 
REMARK    4  A    between atoms: N_12  and  N_13 
ROOT
HETATM    1  C   UNL     1      -6.523   1.905 -32.022  1.00  0.00     0.289 C 
HETATM    2  N   UNL     1      -6.017   1.412 -33.213  1.00  0.00    -0.241 N 
HETATM    3  O   UNL     1      -7.347   1.315 -31.327  1.00  0.00    -0.264 OA
HETATM    4  H   UNL     1      -5.349   1.956 -33.758  1.00  0.00     0.192 HD
ENDROOT
BRANCH   1   5
HETATM    5  C   UNL     1      -6.014   3.196 -31.637  1.00  0.00     0.121 A 
HETATM    6  N   UNL     1      -6.512   3.854 -30.548  1.00  0.00    -0.272 N 
HETATM    7  N   UNL     1      -5.947   5.047 -30.318  1.00  0.00    -0.174 NA
HETATM    8  H   UNL     1      -7.247   3.527 -29.928  1.00  0.00     0.189 HD
HETATM    9  C   UNL     1      -5.022   5.179 -31.283  1.00  0.00     0.089 A 
HETATM   10  C   UNL     1      -5.039   4.038 -32.138  1.00  0.00     0.071 A 
BRANCH   9  11
HETATM   11  C   UNL     1      -4.166   6.370 -31.366  1.00  0.00    -0.003 A 
HETATM   12  C   UNL     1      -3.234   6.498 -32.412  1.00  0.00     0.050 A 
HETATM   13  C   UNL     1      -2.413   7.624 -32.510  1.00  0.00     0.069 A 
HETATM   14  C   UNL     1      -2.521   8.633 -31.553  1.00  0.00     0.037 A 
HETATM   15  C   UNL     1      -3.441   8.526 -30.512  1.00  0.00     0.004 A 
HETATM   16  C   UNL     1      -4.262   7.399 -30.418  1.00  0.00     0.014 A 
BRANCH  13  17
HETATM   17  O   UNL     1      -1.475   7.853 -33.480  1.00  0.00    -0.356 OA
HETATM   18  C   UNL     1      -0.981   6.715 -34.175  1.00  0.00     0.210 C 
ENDBRANCH  13  17
ENDBRANCH   9  11
ENDBRANCH   1   5
BRANCH   2  19
HETATM   19  N   UNL     1      -6.416   0.191 -33.686  1.00  0.00    -0.165 NA
HETATM   20  C   UNL     1      -5.535  -0.756 -33.660  1.00  0.00     0.157 A 
HETATM   21  C   UNL     1      -4.085  -0.695 -33.170  1.00  0.00     0.277 A 
HETATM   22  C   UNL     1      -5.747  -2.126 -34.112  1.00  0.00     0.027 A 
HETATM   23  O   UNL     1      -3.553   0.295 -32.713  1.00  0.00    -0.266 OA
HETATM   24  N   UNL     1      -3.575  -1.960 -33.365  1.00  0.00    -0.321 N 
HETATM   25  C   UNL     1      -4.542  -2.800 -33.913  1.00  0.00     0.048 A 
HETATM   26  H   UNL     1      -2.628  -2.222 -33.132  1.00  0.00     0.169 HD
HETATM   27  C   UNL     1      -4.407  -4.132 -34.243  1.00  0.00     0.030 A 
HETATM   28  C   UNL     1      -5.527  -4.777 -34.783  1.00  0.00     0.002 A 
HETATM   29  C   UNL     1      -6.743  -4.088 -34.979  1.00  0.00     0.001 A 
HETATM   30  C   UNL     1      -6.864  -2.738 -34.640  1.00  0.00     0.016 A 
ENDBRANCH   2  19
TORSDOF 4
ENDMDL
MODEL 8
REMARK VINA RESULT:      -8.2      7.210     10.731
REMARK  4 active torsions:
REMARK  status: ('A' for Active; 'I' for Inactive)
REMARK    1  A    between atoms: O_2  and  C_3 
REMARK    2  A    between atoms: C_5  and  C_6 
REMARK    3  A    between atoms: C_10  and  C_11 
REMARK       I    between atoms: C_11  and  N_12 
REMARK    4  A    between atoms: N_12  and  N_13 
ROOT
HETATM    1  C   UNL     1      -4.388   5.104 -30.496  1.00  0.00     0.289 C 
HETATM    2  N   UNL     1      -3.106   5.611 -30.617  1.00  0.00    -0.241 N 
HETATM    3  O   UNL     1      -5.242   5.561 -29.740  1.00  0.00    -0.264 OA
HETATM    4  H   UNL     1      -2.433   5.177 -31.248  1.00  0.00     0.192 HD
ENDROOT
BRANCH   1   5
HETATM    5  C   UNL     1      -4.670   3.966 -31.334  1.00  0.00     0.121 A 
HETATM    6  N   UNL     1      -5.440   4.090 -32.456  1.00  0.00    -0.272 N 
HETATM    7  N   UNL     1      -5.622   2.946 -33.129  1.00  0.00    -0.174 NA
HETATM    8  H   UNL     1      -5.868   4.942 -32.803  1.00  0.00     0.189 HD
HETATM    9  C   UNL     1      -4.930   2.027 -32.436  1.00  0.00     0.089 A 
HETATM   10  C   UNL     1      -4.323   2.629 -31.295  1.00  0.00     0.071 A 
BRANCH   9  11
HETATM   11  C   UNL     1      -4.871   0.625 -32.870  1.00  0.00    -0.003 A 
HETATM   12  C   UNL     1      -6.008   0.010 -33.427  1.00  0.00     0.050 A 
HETATM   13  C   UNL     1      -5.972  -1.322 -33.847  1.00  0.00     0.069 A 
HETATM   14  C   UNL     1      -4.789  -2.049 -33.709  1.00  0.00     0.037 A 
HETATM   15  C   UNL     1      -3.653  -1.456 -33.163  1.00  0.00     0.004 A 
HETATM   16  C   UNL     1      -3.692  -0.124 -32.746  1.00  0.00     0.014 A 
BRANCH  13  17
HETATM   17  O   UNL     1      -7.012  -2.020 -34.400  1.00  0.00    -0.356 OA
HETATM   18  C   UNL     1      -6.749  -3.365 -34.780  1.00  0.00     0.210 C 
ENDBRANCH  13  17
ENDBRANCH   9  11
ENDBRANCH   1   5
BRANCH   2  19
HETATM   19  N   UNL     1      -2.715   6.696 -29.881  1.00  0.00    -0.165 NA
HETATM   20  C   UNL     1      -1.469   6.743 -29.535  1.00  0.00     0.157 A 
HETATM   21  C   UNL     1      -0.358   5.733 -29.839  1.00  0.00     0.277 A 
HETATM   22  C   UNL     1      -0.843   7.803 -28.754  1.00  0.00     0.027 A 
HETATM   23  O   UNL     1      -0.509   4.715 -30.481  1.00  0.00    -0.266 OA
HETATM   24  N   UNL     1       0.775   6.240 -29.242  1.00  0.00    -0.321 N 
HETATM   25  C   UNL     1       0.498   7.449 -28.609  1.00  0.00     0.048 A 
HETATM   26  H   UNL     1       1.675   5.782 -29.274  1.00  0.00     0.169 HD
HETATM   27  C   UNL     1       1.376   8.251 -27.911  1.00  0.00     0.030 A 
HETATM   28  C   UNL     1       0.866   9.433 -27.358  1.00  0.00     0.002 A 
HETATM   29  C   UNL     1      -0.493   9.784 -27.512  1.00  0.00     0.001 A 
HETATM   30  C   UNL     1      -1.370   8.960 -28.220  1.00  0.00     0.016 A 
ENDBRANCH   2  19
TORSDOF 4
ENDMDL
MODEL 9
REMARK VINA RESULT:      -8.1      5.673      9.829
REMARK  4 active torsions:
REMARK  status: ('A' for Active; 'I' for Inactive)
REMARK    1  A    between atoms: O_2  and  C_3 
REMARK    2  A    between atoms: C_5  and  C_6 
REMARK    3  A    between atoms: C_10  and  C_11 
REMARK       I    between atoms: C_11  and  N_12 
REMARK    4  A    between atoms: N_12  and  N_13 
ROOT
HETATM    1  C   UNL     1      -3.400   1.322 -31.653  1.00  0.00     0.289 C 
HETATM    2  N   UNL     1      -4.053   0.799 -32.756  1.00  0.00    -0.241 N 
HETATM    3  O   UNL     1      -2.702   0.661 -30.887  1.00  0.00    -0.264 OA
HETATM    4  H   UNL     1      -4.635   1.393 -33.346  1.00  0.00     0.192 HD
ENDROOT
BRANCH   1   5
HETATM    5  C   UNL     1      -3.597   2.735 -31.447  1.00  0.00     0.121 A 
HETATM    6  N   UNL     1      -2.709   3.649 -31.939  1.00  0.00    -0.272 N 
HETATM    7  N   UNL     1      -3.019   4.923 -31.662  1.00  0.00    -0.174 NA
HETATM    8  H   UNL     1      -1.868   3.449 -32.471  1.00  0.00     0.189 HD
HETATM    9  C   UNL     1      -4.170   4.853 -30.974  1.00  0.00     0.089 A 
HETATM   10  C   UNL     1      -4.562   3.492 -30.811  1.00  0.00     0.071 A 
BRANCH   9  11
HETATM   11  C   UNL     1      -4.850   6.063 -30.494  1.00  0.00    -0.003 A 
HETATM   12  C   UNL     1      -5.702   5.998 -29.376  1.00  0.00     0.050 A 
HETATM   13  C   UNL     1      -6.357   7.137 -28.902  1.00  0.00     0.069 A 
HETATM   14  C   UNL     1      -6.159   8.357 -29.551  1.00  0.00     0.037 A 
HETATM   15  C   UNL     1      -5.315   8.442 -30.657  1.00  0.00     0.004 A 
HETATM   16  C   UNL     1      -4.662   7.300 -31.126  1.00  0.00     0.014 A 
BRANCH  13  17
HETATM   17  O   UNL     1      -7.205   7.191 -27.829  1.00  0.00    -0.356 OA
HETATM   18  C   UNL     1      -8.542   6.756 -28.049  1.00  0.00     0.210 C 
ENDBRANCH  13  17
ENDBRANCH   9  11
ENDBRANCH   1   5
BRANCH   2  19
HETATM   19  N   UNL     1      -3.940  -0.530 -33.065  1.00  0.00    -0.165 NA
HETATM   20  C   UNL     1      -4.970  -1.084 -33.620  1.00  0.00     0.157 A 
HETATM   21  C   UNL     1      -6.316  -0.449 -33.977  1.00  0.00     0.277 A 
HETATM   22  C   UNL     1      -5.065  -2.480 -34.030  1.00  0.00     0.027 A 
HETATM   23  O   UNL     1      -6.602   0.715 -33.786  1.00  0.00    -0.266 OA
HETATM   24  N   UNL     1      -7.067  -1.461 -34.533  1.00  0.00    -0.321 N 
HETATM   25  C   UNL     1      -6.340  -2.649 -34.568  1.00  0.00     0.048 A 
HETATM   26  H   UNL     1      -8.012  -1.337 -34.867  1.00  0.00     0.169 HD
HETATM   27  C   UNL     1      -6.753  -3.871 -35.054  1.00  0.00     0.030 A 
HETATM   28  C   UNL     1      -5.840  -4.932 -34.986  1.00  0.00     0.002 A 
HETATM   29  C   UNL     1      -4.551  -4.751 -34.441  1.00  0.00     0.001 A 
HETATM   30  C   UNL     1      -4.148  -3.507 -33.952  1.00  0.00     0.016 A 
ENDBRANCH   2  19
TORSDOF 4
ENDMDL
MODEL 10
REMARK VINA RESULT:      -8.1      4.860      6.264
REMARK  4 active torsions:
REMARK  status: ('A' for Active; 'I' for Inactive)
REMARK    1  A    between atoms: O_2  and  C_3 
REMARK    2  A    between atoms: C_5  and  C_6 
REMARK    3  A    between atoms: C_10  and  C_11 
REMARK       I    between atoms: C_11  and  N_12 
REMARK    4  A    between atoms: N_12  and  N_13 
ROOT
HETATM    1  C   UNL     1      -7.296   2.997 -32.509  1.00  0.00     0.289 C 
HETATM    2  N   UNL     1      -7.911   2.493 -33.642  1.00  0.00    -0.241 N 
HETATM    3  O   UNL     1      -7.662   2.756 -31.361  1.00  0.00    -0.264 OA
HETATM    4  H   UNL     1      -7.575   2.744 -34.571  1.00  0.00     0.192 HD
ENDROOT
BRANCH   1   5
HETATM    5  C   UNL     1      -6.166   3.853 -32.764  1.00  0.00     0.121 A 
HETATM    6  N   UNL     1      -6.161   4.719 -33.822  1.00  0.00    -0.272 N 
HETATM    7  N   UNL     1      -5.040   5.443 -33.937  1.00  0.00    -0.174 NA
HETATM    8  H   UNL     1      -6.907   4.849 -34.500  1.00  0.00     0.189 HD
HETATM    9  C   UNL     1      -4.275   5.057 -32.904  1.00  0.00     0.089 A 
HETATM   10  C   UNL     1      -4.946   4.051 -32.147  1.00  0.00     0.071 A 
BRANCH   9  11
HETATM   11  C   UNL     1      -2.948   5.641 -32.673  1.00  0.00    -0.003 A 
HETATM   12  C   UNL     1      -1.933   4.873 -32.073  1.00  0.00     0.050 A 
HETATM   13  C   UNL     1      -0.663   5.409 -31.846  1.00  0.00     0.069 A 
HETATM   14  C   UNL     1      -0.402   6.728 -32.222  1.00  0.00     0.037 A 
HETATM   15  C   UNL     1      -1.394   7.503 -32.821  1.00  0.00     0.004 A 
HETATM   16  C   UNL     1      -2.661   6.962 -33.047  1.00  0.00     0.014 A 
BRANCH  13  17
HETATM   17  O   UNL     1       0.395   4.758 -31.272  1.00  0.00    -0.356 OA
HETATM   18  C   UNL     1       0.655   5.043 -29.903  1.00  0.00     0.210 C 
ENDBRANCH  13  17
ENDBRANCH   9  11
ENDBRANCH   1   5
BRANCH   2  19
HETATM   19  N   UNL     1      -8.993   1.662 -33.535  1.00  0.00    -0.165 NA
HETATM   20  C   UNL     1     -10.126   2.129 -33.951  1.00  0.00     0.157 A 
HETATM   21  C   UNL     1     -10.426   3.505 -34.551  1.00  0.00     0.277 A 
HETATM   22  C   UNL     1     -11.398   1.417 -33.930  1.00  0.00     0.027 A 
HETATM   23  O   UNL     1      -9.598   4.375 -34.730  1.00  0.00    -0.266 OA
HETATM   24  N   UNL     1     -11.777   3.506 -34.817  1.00  0.00    -0.321 N 
HETATM   25  C   UNL     1     -12.349   2.288 -34.459  1.00  0.00     0.048 A 
HETATM   26  H   UNL     1     -12.266   4.292 -35.222  1.00  0.00     0.169 HD
HETATM   27  C   UNL     1     -13.671   1.914 -34.578  1.00  0.00     0.030 A 
HETATM   28  C   UNL     1     -14.015   0.625 -34.150  1.00  0.00     0.002 A 
HETATM   29  C   UNL     1     -13.045  -0.251 -33.618  1.00  0.00     0.001 A 
HETATM   30  C   UNL     1     -11.710   0.143 -33.502  1.00  0.00     0.016 A 
ENDBRANCH   2  19
TORSDOF 4
ENDMDL
