MODEL 1
REMARK VINA RESULT:      -8.5      0.000      0.000
REMARK  7 active torsions:
REMARK  status: ('A' for Active; 'I' for Inactive)
REMARK    1  A    between atoms: C_5  and  S_6 
REMARK    2  A    between atoms: S_6  and  C_7 
REMARK    3  A    between atoms: C_7  and  C_8 
REMARK       I    between atoms: C_8  and  N_9 
REMARK    4  A    between atoms: N_9  and  C_10 
REMARK    5  A    between atoms: C_10  and  C_11 
REMARK    6  A    between atoms: C_11  and  C_12 
REMARK    7  A    between atoms: C_26  and  O_27 
ROOT
HETATM    1  C   UNL     1      -3.163  -0.501 -31.429  1.00  0.00     0.052 C 
HETATM    2  C   UNL     1      -4.020   0.716 -31.679  1.00  0.00    -0.013 A 
HETATM    3  C   UNL     1      -5.418   0.733 -31.391  1.00  0.00     0.165 A 
HETATM    4  N   UNL     1      -6.192   1.865 -31.656  1.00  0.00    -0.271 N 
HETATM    5  C   UNL     1      -7.463   1.487 -31.256  1.00  0.00     0.197 A 
HETATM    6  N   UNL     1      -7.444   0.260 -30.782  1.00  0.00    -0.122 NA
HETATM    7  N   UNL     1      -6.171  -0.215 -30.870  1.00  0.00    -0.128 NA
HETATM    8  C   UNL     1      -5.634   3.062 -32.189  1.00  0.00     0.053 A 
HETATM    9  C   UNL     1      -4.251   3.042 -32.445  1.00  0.00    -0.005 A 
HETATM   10  C   UNL     1      -3.463   1.831 -32.187  1.00  0.00     0.024 A 
HETATM   11  C   UNL     1      -6.358   4.227 -32.448  1.00  0.00     0.034 A 
HETATM   12  C   UNL     1      -5.710   5.367 -32.948  1.00  0.00     0.039 A 
HETATM   13  C   UNL     1      -4.339   5.354 -33.194  1.00  0.00     0.069 A 
HETATM   14  C   UNL     1      -3.616   4.186 -32.946  1.00  0.00     0.050 A 
ENDROOT
BRANCH   5  15
HETATM   15  S   UNL     1      -8.919   2.419 -31.338  1.00  0.00    -0.080 SA
BRANCH  15  16
HETATM   16  C   UNL     1      -9.779   1.625 -32.723  1.00  0.00     0.185 C 
BRANCH  16  17
HETATM   17  C   UNL     1      -8.829   1.333 -33.871  1.00  0.00     0.227 C 
HETATM   18  N   UNL     1      -8.540  -0.004 -34.048  1.00  0.00    -0.360 N 
HETATM   19  H   UNL     1      -8.641  -0.598 -33.222  1.00  0.00     0.162 HD
HETATM   20  O   UNL     1      -8.388   2.219 -34.599  1.00  0.00    -0.273 OA
BRANCH  18  21
HETATM   21  C   UNL     1      -7.615  -0.439 -35.076  1.00  0.00     0.127 C 
BRANCH  21  22
HETATM   22  C   UNL     1      -6.214  -0.665 -34.511  1.00  0.00     0.058 C 
BRANCH  22  23
HETATM   23  C   UNL     1      -5.831  -2.123 -34.495  1.00  0.00    -0.057 A 
HETATM   24  C   UNL     1      -4.526  -2.516 -34.171  1.00  0.00     0.007 A 
HETATM   25  C   UNL     1      -4.174  -3.868 -34.173  1.00  0.00     0.001 A 
HETATM   26  C   UNL     1      -5.122  -4.836 -34.498  1.00  0.00     0.000 A 
HETATM   27  C   UNL     1      -6.422  -4.456 -34.824  1.00  0.00     0.001 A 
HETATM   28  C   UNL     1      -6.775  -3.105 -34.826  1.00  0.00     0.007 A 
ENDBRANCH  22  23
ENDBRANCH  21  22
ENDBRANCH  18  21
ENDBRANCH  16  17
ENDBRANCH  15  16
ENDBRANCH   5  15
BRANCH  13  29
HETATM   29  O   UNL     1      -3.595   6.397 -33.669  1.00  0.00    -0.356 OA
HETATM   30  C   UNL     1      -2.467   6.072 -34.472  1.00  0.00     0.210 C 
ENDBRANCH  13  29
TORSDOF 7
ENDMDL
MODEL 2
REMARK VINA RESULT:      -8.3      4.316      9.069
REMARK  7 active torsions:
REMARK  status: ('A' for Active; 'I' for Inactive)
REMARK    1  A    between atoms: C_5  and  S_6 
REMARK    2  A    between atoms: S_6  and  C_7 
REMARK    3  A    between atoms: C_7  and  C_8 
REMARK       I    between atoms: C_8  and  N_9 
REMARK    4  A    between atoms: N_9  and  C_10 
REMARK    5  A    between atoms: C_10  and  C_11 
REMARK    6  A    between atoms: C_11  and  C_12 
REMARK    7  A    between atoms: C_26  and  O_27 
ROOT
HETATM    1  C   UNL     1      -9.678   1.745 -34.249  1.00  0.00     0.052 C 
HETATM    2  C   UNL     1      -8.315   1.147 -34.000  1.00  0.00    -0.013 A 
HETATM    3  C   UNL     1      -7.247   1.902 -33.428  1.00  0.00     0.165 A 
HETATM    4  N   UNL     1      -5.988   1.331 -33.233  1.00  0.00    -0.271 N 
HETATM    5  C   UNL     1      -5.249   2.363 -32.678  1.00  0.00     0.197 A 
HETATM    6  N   UNL     1      -5.998   3.435 -32.540  1.00  0.00    -0.122 NA
HETATM    7  N   UNL     1      -7.243   3.152 -33.012  1.00  0.00    -0.128 NA
HETATM    8  C   UNL     1      -5.708  -0.028 -33.556  1.00  0.00     0.053 A 
HETATM    9  C   UNL     1      -6.774  -0.769 -34.097  1.00  0.00    -0.005 A 
HETATM   10  C   UNL     1      -8.081  -0.139 -34.322  1.00  0.00     0.024 A 
HETATM   11  C   UNL     1      -4.476  -0.653 -33.358  1.00  0.00     0.034 A 
HETATM   12  C   UNL     1      -4.308  -2.007 -33.684  1.00  0.00     0.039 A 
HETATM   13  C   UNL     1      -5.365  -2.747 -34.211  1.00  0.00     0.069 A 
HETATM   14  C   UNL     1      -6.594  -2.120 -34.420  1.00  0.00     0.050 A 
ENDROOT
BRANCH   5  15
HETATM   15  S   UNL     1      -3.581   2.339 -32.215  1.00  0.00    -0.080 SA
BRANCH  15  16
HETATM   16  C   UNL     1      -3.379   3.996 -31.506  1.00  0.00     0.185 C 
BRANCH  16  17
HETATM   17  C   UNL     1      -1.993   4.552 -31.781  1.00  0.00     0.227 C 
HETATM   18  N   UNL     1      -1.247   4.812 -30.650  1.00  0.00    -0.360 N 
HETATM   19  H   UNL     1      -1.776   4.989 -29.794  1.00  0.00     0.162 HD
HETATM   20  O   UNL     1      -1.569   4.720 -32.922  1.00  0.00    -0.273 OA
BRANCH  18  21
HETATM   21  C   UNL     1       0.081   5.386 -30.748  1.00  0.00     0.127 C 
BRANCH  21  22
HETATM   22  C   UNL     1       0.074   6.876 -30.410  1.00  0.00     0.058 C 
BRANCH  22  23
HETATM   23  C   UNL     1       0.393   7.135 -28.959  1.00  0.00    -0.057 A 
HETATM   24  C   UNL     1       1.221   8.202 -28.589  1.00  0.00     0.007 A 
HETATM   25  C   UNL     1       1.524   8.427 -27.244  1.00  0.00     0.001 A 
HETATM   26  C   UNL     1       1.001   7.590 -26.260  1.00  0.00     0.000 A 
HETATM   27  C   UNL     1       0.178   6.525 -26.618  1.00  0.00     0.001 A 
HETATM   28  C   UNL     1      -0.123   6.296 -27.961  1.00  0.00     0.007 A 
ENDBRANCH  22  23
ENDBRANCH  21  22
ENDBRANCH  18  21
ENDBRANCH  16  17
ENDBRANCH  15  16
ENDBRANCH   5  15
BRANCH  13  29
HETATM   29  O   UNL     1      -5.330  -4.068 -34.558  1.00  0.00    -0.356 OA
HETATM   30  C   UNL     1      -6.334  -4.526 -35.455  1.00  0.00     0.210 C 
ENDBRANCH  13  29
TORSDOF 7
ENDMDL
MODEL 3
REMARK VINA RESULT:      -8.2      3.299      8.110
REMARK  7 active torsions:
REMARK  status: ('A' for Active; 'I' for Inactive)
REMARK    1  A    between atoms: C_5  and  S_6 
REMARK    2  A    between atoms: S_6  and  C_7 
REMARK    3  A    between atoms: C_7  and  C_8 
REMARK       I    between atoms: C_8  and  N_9 
REMARK    4  A    between atoms: N_9  and  C_10 
REMARK    5  A    between atoms: C_10  and  C_11 
REMARK    6  A    between atoms: C_11  and  C_12 
REMARK    7  A    between atoms: C_26  and  O_27 
ROOT
HETATM    1  C   UNL     1     -10.108   1.177 -32.918  1.00  0.00     0.052 C 
HETATM    2  C   UNL     1      -8.668   0.726 -32.946  1.00  0.00    -0.013 A 
HETATM    3  C   UNL     1      -7.630   1.457 -32.294  1.00  0.00     0.165 A 
HETATM    4  N   UNL     1      -6.302   1.030 -32.358  1.00  0.00    -0.271 N 
HETATM    5  C   UNL     1      -5.621   1.987 -31.624  1.00  0.00     0.197 A 
HETATM    6  N   UNL     1      -6.461   2.883 -31.155  1.00  0.00    -0.122 NA
HETATM    7  N   UNL     1      -7.715   2.558 -31.575  1.00  0.00    -0.128 NA
HETATM    8  C   UNL     1      -5.916  -0.160 -33.039  1.00  0.00     0.053 A 
HETATM    9  C   UNL     1      -6.950  -0.885 -33.657  1.00  0.00    -0.005 A 
HETATM   10  C   UNL     1      -8.335  -0.401 -33.603  1.00  0.00     0.024 A 
HETATM   11  C   UNL     1      -4.608  -0.642 -33.111  1.00  0.00     0.034 A 
HETATM   12  C   UNL     1      -4.333  -1.843 -33.785  1.00  0.00     0.039 A 
HETATM   13  C   UNL     1      -5.356  -2.568 -34.390  1.00  0.00     0.069 A 
HETATM   14  C   UNL     1      -6.662  -2.080 -34.328  1.00  0.00     0.050 A 
ENDROOT
BRANCH   5  15
HETATM   15  S   UNL     1      -3.918   2.077 -31.326  1.00  0.00    -0.080 SA
BRANCH  15  16
HETATM   16  C   UNL     1      -3.377   3.188 -32.654  1.00  0.00     0.185 C 
BRANCH  16  17
HETATM   17  C   UNL     1      -3.147   4.598 -32.138  1.00  0.00     0.227 C 
HETATM   18  N   UNL     1      -2.542   5.446 -33.041  1.00  0.00    -0.360 N 
HETATM   19  H   UNL     1      -1.972   5.000 -33.763  1.00  0.00     0.162 HD
HETATM   20  O   UNL     1      -3.508   4.952 -31.018  1.00  0.00    -0.273 OA
BRANCH  18  21
HETATM   21  C   UNL     1      -2.218   6.812 -32.682  1.00  0.00     0.127 C 
BRANCH  21  22
HETATM   22  C   UNL     1      -0.713   7.002 -32.497  1.00  0.00     0.058 C 
BRANCH  22  23
HETATM   23  C   UNL     1      -0.242   6.550 -31.138  1.00  0.00    -0.057 A 
HETATM   24  C   UNL     1      -0.431   7.359 -30.010  1.00  0.00     0.007 A 
HETATM   25  C   UNL     1       0.022   6.940 -28.757  1.00  0.00     0.001 A 
HETATM   26  C   UNL     1       0.665   5.712 -28.620  1.00  0.00     0.000 A 
HETATM   27  C   UNL     1       0.860   4.901 -29.736  1.00  0.00     0.001 A 
HETATM   28  C   UNL     1       0.412   5.318 -30.990  1.00  0.00     0.007 A 
ENDBRANCH  22  23
ENDBRANCH  21  22
ENDBRANCH  18  21
ENDBRANCH  16  17
ENDBRANCH  15  16
ENDBRANCH   5  15
BRANCH  13  29
HETATM   29  O   UNL     1      -5.217  -3.749 -35.063  1.00  0.00    -0.356 OA
HETATM   30  C   UNL     1      -6.395  -4.521 -35.261  1.00  0.00     0.210 C 
ENDBRANCH  13  29
TORSDOF 7
ENDMDL
MODEL 4
REMARK VINA RESULT:      -8.1      3.010      7.909
REMARK  7 active torsions:
REMARK  status: ('A' for Active; 'I' for Inactive)
REMARK    1  A    between atoms: C_5  and  S_6 
REMARK    2  A    between atoms: S_6  and  C_7 
REMARK    3  A    between atoms: C_7  and  C_8 
REMARK       I    between atoms: C_8  and  N_9 
REMARK    4  A    between atoms: N_9  and  C_10 
REMARK    5  A    between atoms: C_10  and  C_11 
REMARK    6  A    between atoms: C_11  and  C_12 
REMARK    7  A    between atoms: C_26  and  O_27 
ROOT
HETATM    1  C   UNL     1      -5.560  -3.133 -34.931  1.00  0.00     0.052 C 
HETATM    2  C   UNL     1      -5.982  -1.872 -34.219  1.00  0.00    -0.013 A 
HETATM    3  C   UNL     1      -5.045  -1.026 -33.552  1.00  0.00     0.165 A 
HETATM    4  N   UNL     1      -5.468   0.123 -32.879  1.00  0.00    -0.271 N 
HETATM    5  C   UNL     1      -4.291   0.649 -32.372  1.00  0.00     0.197 A 
HETATM    6  N   UNL     1      -3.268  -0.100 -32.725  1.00  0.00    -0.122 NA
HETATM    7  N   UNL     1      -3.737  -1.148 -33.456  1.00  0.00    -0.128 NA
HETATM    8  C   UNL     1      -6.832   0.529 -32.847  1.00  0.00     0.053 A 
HETATM    9  C   UNL     1      -7.743  -0.298 -33.528  1.00  0.00    -0.005 A 
HETATM   10  C   UNL     1      -7.281  -1.517 -34.203  1.00  0.00     0.024 A 
HETATM   11  C   UNL     1      -7.301   1.680 -32.210  1.00  0.00     0.034 A 
HETATM   12  C   UNL     1      -8.665   2.010 -32.259  1.00  0.00     0.039 A 
HETATM   13  C   UNL     1      -9.568   1.197 -32.941  1.00  0.00     0.069 A 
HETATM   14  C   UNL     1      -9.101   0.041 -33.568  1.00  0.00     0.050 A 
ENDROOT
BRANCH   5  15
HETATM   15  S   UNL     1      -4.100   2.070 -31.402  1.00  0.00    -0.080 SA
BRANCH  15  16
HETATM   16  C   UNL     1      -3.982   3.361 -32.670  1.00  0.00     0.185 C 
BRANCH  16  17
HETATM   17  C   UNL     1      -2.637   4.065 -32.623  1.00  0.00     0.227 C 
HETATM   18  N   UNL     1      -2.377   4.873 -33.709  1.00  0.00    -0.360 N 
HETATM   19  H   UNL     1      -2.870   4.638 -34.572  1.00  0.00     0.162 HD
HETATM   20  O   UNL     1      -1.868   3.943 -31.672  1.00  0.00    -0.273 OA
BRANCH  18  21
HETATM   21  C   UNL     1      -1.116   5.579 -33.829  1.00  0.00     0.127 C 
BRANCH  21  22
HETATM   22  C   UNL     1      -1.263   7.056 -33.471  1.00  0.00     0.058 C 
BRANCH  22  23
HETATM   23  C   UNL     1      -0.992   7.321 -32.011  1.00  0.00    -0.057 A 
HETATM   24  C   UNL     1       0.147   6.796 -31.389  1.00  0.00     0.007 A 
HETATM   25  C   UNL     1       0.384   7.033 -30.033  1.00  0.00     0.001 A 
HETATM   26  C   UNL     1      -0.515   7.796 -29.289  1.00  0.00     0.000 A 
HETATM   27  C   UNL     1      -1.652   8.321 -29.898  1.00  0.00     0.001 A 
HETATM   28  C   UNL     1      -1.892   8.083 -31.252  1.00  0.00     0.007 A 
ENDBRANCH  22  23
ENDBRANCH  21  22
ENDBRANCH  18  21
ENDBRANCH  16  17
ENDBRANCH  15  16
ENDBRANCH   5  15
BRANCH  13  29
HETATM   29  O   UNL     1     -10.910   1.415 -33.068  1.00  0.00    -0.356 OA
HETATM   30  C   UNL     1     -11.314   2.693 -33.544  1.00  0.00     0.210 C 
ENDBRANCH  13  29
TORSDOF 7
ENDMDL
MODEL 5
REMARK VINA RESULT:      -7.7      3.272      5.937
REMARK  7 active torsions:
REMARK  status: ('A' for Active; 'I' for Inactive)
REMARK    1  A    between atoms: C_5  and  S_6 
REMARK    2  A    between atoms: S_6  and  C_7 
REMARK    3  A    between atoms: C_7  and  C_8 
REMARK       I    between atoms: C_8  and  N_9 
REMARK    4  A    between atoms: N_9  and  C_10 
REMARK    5  A    between atoms: C_10  and  C_11 
REMARK    6  A    between atoms: C_11  and  C_12 
REMARK    7  A    between atoms: C_26  and  O_27 
ROOT
HETATM    1  C   UNL     1     -13.656   0.092 -33.609  1.00  0.00     0.052 C 
HETATM    2  C   UNL     1     -12.681   1.215 -33.864  1.00  0.00    -0.013 A 
HETATM    3  C   UNL     1     -11.288   1.093 -33.574  1.00  0.00     0.165 A 
HETATM    4  N   UNL     1     -10.413   2.158 -33.797  1.00  0.00    -0.271 N 
HETATM    5  C   UNL     1      -9.187   1.657 -33.393  1.00  0.00     0.197 A 
HETATM    6  N   UNL     1      -9.316   0.411 -32.989  1.00  0.00    -0.122 NA
HETATM    7  N   UNL     1     -10.627   0.059 -33.096  1.00  0.00    -0.128 NA
HETATM    8  C   UNL     1     -10.845   3.398 -34.349  1.00  0.00     0.053 A 
HETATM    9  C   UNL     1     -12.215   3.498 -34.653  1.00  0.00    -0.005 A 
HETATM   10  C   UNL     1     -13.122   2.377 -34.383  1.00  0.00     0.024 A 
HETATM   11  C   UNL     1     -10.007   4.483 -34.613  1.00  0.00     0.034 A 
HETATM   12  C   UNL     1     -10.526   5.655 -35.186  1.00  0.00     0.039 A 
HETATM   13  C   UNL     1     -11.880   5.754 -35.497  1.00  0.00     0.069 A 
HETATM   14  C   UNL     1     -12.720   4.674 -35.222  1.00  0.00     0.050 A 
ENDROOT
BRANCH   5  15
HETATM   15  S   UNL     1      -7.662   2.476 -33.378  1.00  0.00    -0.080 SA
BRANCH  15  16
HETATM   16  C   UNL     1      -7.304   2.540 -31.601  1.00  0.00     0.185 C 
BRANCH  16  17
HETATM   17  C   UNL     1      -6.372   1.416 -31.183  1.00  0.00     0.227 C 
HETATM   18  N   UNL     1      -6.082   0.512 -32.183  1.00  0.00    -0.360 N 
HETATM   19  H   UNL     1      -6.772   0.435 -32.932  1.00  0.00     0.162 HD
HETATM   20  O   UNL     1      -5.895   1.347 -30.052  1.00  0.00    -0.273 OA
BRANCH  18  21
HETATM   21  C   UNL     1      -5.241  -0.641 -31.927  1.00  0.00     0.127 C 
BRANCH  21  22
HETATM   22  C   UNL     1      -4.423  -1.024 -33.159  1.00  0.00     0.058 C 
BRANCH  22  23
HETATM   23  C   UNL     1      -4.953  -2.262 -33.836  1.00  0.00    -0.057 A 
HETATM   24  C   UNL     1      -6.252  -2.291 -34.358  1.00  0.00     0.007 A 
HETATM   25  C   UNL     1      -6.741  -3.447 -34.971  1.00  0.00     0.001 A 
HETATM   26  C   UNL     1      -5.937  -4.581 -35.067  1.00  0.00     0.000 A 
HETATM   27  C   UNL     1      -4.644  -4.563 -34.549  1.00  0.00     0.001 A 
HETATM   28  C   UNL     1      -4.154  -3.411 -33.934  1.00  0.00     0.007 A 
ENDBRANCH  22  23
ENDBRANCH  21  22
ENDBRANCH  18  21
ENDBRANCH  16  17
ENDBRANCH  15  16
ENDBRANCH   5  15
BRANCH  13  29
HETATM   29  O   UNL     1     -12.500   6.832 -36.063  1.00  0.00    -0.356 OA
HETATM   30  C   UNL     1     -13.921   6.864 -36.002  1.00  0.00     0.210 C 
ENDBRANCH  13  29
TORSDOF 7
ENDMDL
MODEL 6
REMARK VINA RESULT:      -7.7      1.623      2.172
REMARK  7 active torsions:
REMARK  status: ('A' for Active; 'I' for Inactive)
REMARK    1  A    between atoms: C_5  and  S_6 
REMARK    2  A    between atoms: S_6  and  C_7 
REMARK    3  A    between atoms: C_7  and  C_8 
REMARK       I    between atoms: C_8  and  N_9 
REMARK    4  A    between atoms: N_9  and  C_10 
REMARK    5  A    between atoms: C_10  and  C_11 
REMARK    6  A    between atoms: C_11  and  C_12 
REMARK    7  A    between atoms: C_26  and  O_27 
ROOT
HETATM    1  C   UNL     1      -5.619   0.653 -29.554  1.00  0.00     0.052 C 
HETATM    2  C   UNL     1      -5.625   1.668 -30.671  1.00  0.00    -0.013 A 
HETATM    3  C   UNL     1      -6.836   2.202 -31.206  1.00  0.00     0.165 A 
HETATM    4  N   UNL     1      -6.812   3.122 -32.256  1.00  0.00    -0.271 N 
HETATM    5  C   UNL     1      -8.153   3.383 -32.485  1.00  0.00     0.197 A 
HETATM    6  N   UNL     1      -8.899   2.702 -31.642  1.00  0.00    -0.122 NA
HETATM    7  N   UNL     1      -8.080   1.961 -30.847  1.00  0.00    -0.128 NA
HETATM    8  C   UNL     1      -5.597   3.599 -32.825  1.00  0.00     0.053 A 
HETATM    9  C   UNL     1      -4.410   3.085 -32.273  1.00  0.00    -0.005 A 
HETATM   10  C   UNL     1      -4.459   2.096 -31.190  1.00  0.00     0.024 A 
HETATM   11  C   UNL     1      -5.519   4.536 -33.858  1.00  0.00     0.034 A 
HETATM   12  C   UNL     1      -4.269   4.964 -34.331  1.00  0.00     0.039 A 
HETATM   13  C   UNL     1      -3.091   4.464 -33.781  1.00  0.00     0.069 A 
HETATM   14  C   UNL     1      -3.169   3.519 -32.756  1.00  0.00     0.050 A 
ENDROOT
BRANCH   5  15
HETATM   15  S   UNL     1      -8.838   4.427 -33.685  1.00  0.00    -0.080 SA
BRANCH  15  16
HETATM   16  C   UNL     1     -10.329   3.509 -34.154  1.00  0.00     0.185 C 
BRANCH  16  17
HETATM   17  C   UNL     1     -10.041   2.026 -34.312  1.00  0.00     0.227 C 
HETATM   18  N   UNL     1      -8.757   1.734 -34.722  1.00  0.00    -0.360 N 
HETATM   19  H   UNL     1      -8.274   2.470 -35.240  1.00  0.00     0.162 HD
HETATM   20  O   UNL     1     -10.880   1.165 -34.057  1.00  0.00    -0.273 OA
BRANCH  18  21
HETATM   21  C   UNL     1      -8.342   0.365 -34.958  1.00  0.00     0.127 C 
BRANCH  21  22
HETATM   22  C   UNL     1      -7.839  -0.298 -33.677  1.00  0.00     0.058 C 
BRANCH  22  23
HETATM   23  C   UNL     1      -6.630  -1.166 -33.918  1.00  0.00    -0.057 A 
HETATM   24  C   UNL     1      -6.751  -2.391 -34.585  1.00  0.00     0.007 A 
HETATM   25  C   UNL     1      -5.629  -3.197 -34.792  1.00  0.00     0.001 A 
HETATM   26  C   UNL     1      -4.379  -2.785 -34.334  1.00  0.00     0.000 A 
HETATM   27  C   UNL     1      -4.248  -1.569 -33.667  1.00  0.00     0.001 A 
HETATM   28  C   UNL     1      -5.368  -0.764 -33.457  1.00  0.00     0.007 A 
ENDBRANCH  22  23
ENDBRANCH  21  22
ENDBRANCH  18  21
ENDBRANCH  16  17
ENDBRANCH  15  16
ENDBRANCH   5  15
BRANCH  13  29
HETATM   29  O   UNL     1      -1.821   4.808 -34.147  1.00  0.00    -0.356 OA
HETATM   30  C   UNL     1      -1.467   6.181 -34.035  1.00  0.00     0.210 C 
ENDBRANCH  13  29
TORSDOF 7
ENDMDL
MODEL 7
REMARK VINA RESULT:      -7.5      2.342      3.131
REMARK  7 active torsions:
REMARK  status: ('A' for Active; 'I' for Inactive)
REMARK    1  A    between atoms: C_5  and  S_6 
REMARK    2  A    between atoms: S_6  and  C_7 
REMARK    3  A    between atoms: C_7  and  C_8 
REMARK       I    between atoms: C_8  and  N_9 
REMARK    4  A    between atoms: N_9  and  C_10 
REMARK    5  A    between atoms: C_10  and  C_11 
REMARK    6  A    between atoms: C_11  and  C_12 
REMARK    7  A    between atoms: C_26  and  O_27 
ROOT
HETATM    1  C   UNL     1      -5.866   0.671 -29.589  1.00  0.00     0.052 C 
HETATM    2  C   UNL     1      -5.901   1.800 -30.590  1.00  0.00    -0.013 A 
HETATM    3  C   UNL     1      -7.094   2.536 -30.863  1.00  0.00     0.165 A 
HETATM    4  N   UNL     1      -7.104   3.559 -31.814  1.00  0.00    -0.271 N 
HETATM    5  C   UNL     1      -8.414   4.008 -31.789  1.00  0.00     0.197 A 
HETATM    6  N   UNL     1      -9.109   3.333 -30.900  1.00  0.00    -0.122 NA
HETATM    7  N   UNL     1      -8.289   2.411 -30.324  1.00  0.00    -0.128 NA
HETATM    8  C   UNL     1      -5.936   3.945 -32.531  1.00  0.00     0.053 A 
HETATM    9  C   UNL     1      -4.762   3.229 -32.237  1.00  0.00    -0.005 A 
HETATM   10  C   UNL     1      -4.781   2.137 -31.256  1.00  0.00     0.024 A 
HETATM   11  C   UNL     1      -5.888   4.975 -33.472  1.00  0.00     0.034 A 
HETATM   12  C   UNL     1      -4.678   5.298 -34.107  1.00  0.00     0.039 A 
HETATM   13  C   UNL     1      -3.511   4.597 -33.810  1.00  0.00     0.069 A 
HETATM   14  C   UNL     1      -3.561   3.559 -32.879  1.00  0.00     0.050 A 
ENDROOT
BRANCH   5  15
HETATM   15  S   UNL     1      -9.122   5.257 -32.756  1.00  0.00    -0.080 SA
BRANCH  15  16
HETATM   16  C   UNL     1     -10.817   4.643 -32.955  1.00  0.00     0.185 C 
BRANCH  16  17
HETATM   17  C   UNL     1     -10.847   3.339 -33.732  1.00  0.00     0.227 C 
HETATM   18  N   UNL     1     -10.970   2.210 -32.949  1.00  0.00    -0.360 N 
HETATM   19  H   UNL     1     -10.643   2.295 -31.985  1.00  0.00     0.162 HD
HETATM   20  O   UNL     1     -10.801   3.307 -34.959  1.00  0.00    -0.273 OA
BRANCH  18  21
HETATM   21  C   UNL     1     -10.970   0.887 -33.542  1.00  0.00     0.127 C 
BRANCH  21  22
HETATM   22  C   UNL     1     -10.027  -0.060 -32.802  1.00  0.00     0.058 C 
BRANCH  22  23
HETATM   23  C   UNL     1      -8.603   0.055 -33.286  1.00  0.00    -0.057 A 
HETATM   24  C   UNL     1      -8.259   0.979 -34.280  1.00  0.00     0.007 A 
HETATM   25  C   UNL     1      -6.941   1.070 -34.735  1.00  0.00     0.001 A 
HETATM   26  C   UNL     1      -5.959   0.239 -34.199  1.00  0.00     0.000 A 
HETATM   27  C   UNL     1      -6.292  -0.686 -33.212  1.00  0.00     0.001 A 
HETATM   28  C   UNL     1      -7.608  -0.780 -32.759  1.00  0.00     0.007 A 
ENDBRANCH  22  23
ENDBRANCH  21  22
ENDBRANCH  18  21
ENDBRANCH  16  17
ENDBRANCH  15  16
ENDBRANCH   5  15
BRANCH  13  29
HETATM   29  O   UNL     1      -2.277   4.822 -34.351  1.00  0.00    -0.356 OA
HETATM   30  C   UNL     1      -1.289   5.382 -33.494  1.00  0.00     0.210 C 
ENDBRANCH  13  29
TORSDOF 7
ENDMDL
MODEL 8
REMARK VINA RESULT:      -7.5      3.303      4.695
REMARK  7 active torsions:
REMARK  status: ('A' for Active; 'I' for Inactive)
REMARK    1  A    between atoms: C_5  and  S_6 
REMARK    2  A    between atoms: S_6  and  C_7 
REMARK    3  A    between atoms: C_7  and  C_8 
REMARK       I    between atoms: C_8  and  N_9 
REMARK    4  A    between atoms: N_9  and  C_10 
REMARK    5  A    between atoms: C_10  and  C_11 
REMARK    6  A    between atoms: C_11  and  C_12 
REMARK    7  A    between atoms: C_26  and  O_27 
ROOT
HETATM    1  C   UNL     1      -1.131   5.262 -35.131  1.00  0.00     0.052 C 
HETATM    2  C   UNL     1      -1.860   5.660 -33.870  1.00  0.00    -0.013 A 
HETATM    3  C   UNL     1      -3.285   5.681 -33.791  1.00  0.00     0.165 A 
HETATM    4  N   UNL     1      -3.933   6.077 -32.619  1.00  0.00    -0.271 N 
HETATM    5  C   UNL     1      -5.276   5.970 -32.943  1.00  0.00     0.197 A 
HETATM    6  N   UNL     1      -5.413   5.535 -34.177  1.00  0.00    -0.122 NA
HETATM    7  N   UNL     1      -4.173   5.359 -34.710  1.00  0.00    -0.128 NA
HETATM    8  C   UNL     1      -3.222   6.445 -31.442  1.00  0.00     0.053 A 
HETATM    9  C   UNL     1      -1.818   6.398 -31.524  1.00  0.00    -0.005 A 
HETATM   10  C   UNL     1      -1.158   6.007 -32.775  1.00  0.00     0.024 A 
HETATM   11  C   UNL     1      -3.822   6.825 -30.239  1.00  0.00     0.034 A 
HETATM   12  C   UNL     1      -3.032   7.143 -29.124  1.00  0.00     0.039 A 
HETATM   13  C   UNL     1      -1.642   7.088 -29.199  1.00  0.00     0.069 A 
HETATM   14  C   UNL     1      -1.041   6.720 -30.404  1.00  0.00     0.050 A 
ENDROOT
BRANCH   5  15
HETATM   15  S   UNL     1      -6.638   6.340 -31.941  1.00  0.00    -0.080 SA
BRANCH  15  16
HETATM   16  C   UNL     1      -7.454   4.725 -31.828  1.00  0.00     0.185 C 
BRANCH  16  17
HETATM   17  C   UNL     1      -6.450   3.612 -31.584  1.00  0.00     0.227 C 
HETATM   18  N   UNL     1      -6.309   2.729 -32.635  1.00  0.00    -0.360 N 
HETATM   19  H   UNL     1      -7.109   2.651 -33.265  1.00  0.00     0.162 HD
HETATM   20  O   UNL     1      -5.797   3.535 -30.546  1.00  0.00    -0.273 OA
BRANCH  18  21
HETATM   21  C   UNL     1      -5.419   1.589 -32.537  1.00  0.00     0.127 C 
BRANCH  21  22
HETATM   22  C   UNL     1      -6.168   0.328 -32.109  1.00  0.00     0.058 C 
BRANCH  22  23
HETATM   23  C   UNL     1      -5.925  -0.828 -33.047  1.00  0.00    -0.057 A 
HETATM   24  C   UNL     1      -4.638  -1.356 -33.211  1.00  0.00     0.007 A 
HETATM   25  C   UNL     1      -4.417  -2.417 -34.092  1.00  0.00     0.001 A 
HETATM   26  C   UNL     1      -5.479  -2.959 -34.814  1.00  0.00     0.000 A 
HETATM   27  C   UNL     1      -6.762  -2.439 -34.660  1.00  0.00     0.001 A 
HETATM   28  C   UNL     1      -6.985  -1.377 -33.782  1.00  0.00     0.007 A 
ENDBRANCH  22  23
ENDBRANCH  21  22
ENDBRANCH  18  21
ENDBRANCH  16  17
ENDBRANCH  15  16
ENDBRANCH   5  15
BRANCH  13  29
HETATM   29  O   UNL     1      -0.769   7.364 -28.185  1.00  0.00    -0.356 OA
HETATM   30  C   UNL     1      -0.168   6.253 -27.530  1.00  0.00     0.210 C 
ENDBRANCH  13  29
TORSDOF 7
ENDMDL
MODEL 9
REMARK VINA RESULT:      -7.3      4.359      5.423
REMARK  7 active torsions:
REMARK  status: ('A' for Active; 'I' for Inactive)
REMARK    1  A    between atoms: C_5  and  S_6 
REMARK    2  A    between atoms: S_6  and  C_7 
REMARK    3  A    between atoms: C_7  and  C_8 
REMARK       I    between atoms: C_8  and  N_9 
REMARK    4  A    between atoms: N_9  and  C_10 
REMARK    5  A    between atoms: C_10  and  C_11 
REMARK    6  A    between atoms: C_11  and  C_12 
REMARK    7  A    between atoms: C_26  and  O_27 
ROOT
HETATM    1  C   UNL     1       1.287   4.728 -30.613  1.00  0.00     0.052 C 
HETATM    2  C   UNL     1       0.064   5.597 -30.454  1.00  0.00    -0.013 A 
HETATM    3  C   UNL     1      -1.195   5.252 -31.034  1.00  0.00     0.165 A 
HETATM    4  N   UNL     1      -2.304   6.088 -30.892  1.00  0.00    -0.271 N 
HETATM    5  C   UNL     1      -3.300   5.421 -31.586  1.00  0.00     0.197 A 
HETATM    6  N   UNL     1      -2.835   4.292 -32.076  1.00  0.00    -0.122 NA
HETATM    7  N   UNL     1      -1.520   4.187 -31.737  1.00  0.00    -0.128 NA
HETATM    8  C   UNL     1      -2.256   7.299 -30.144  1.00  0.00     0.053 A 
HETATM    9  C   UNL     1      -1.018   7.617 -29.557  1.00  0.00    -0.005 A 
HETATM   10  C   UNL     1       0.143   6.738 -29.744  1.00  0.00     0.024 A 
HETATM   11  C   UNL     1      -3.341   8.156 -29.952  1.00  0.00     0.034 A 
HETATM   12  C   UNL     1      -3.199   9.314 -29.173  1.00  0.00     0.039 A 
HETATM   13  C   UNL     1      -1.977   9.627 -28.582  1.00  0.00     0.069 A 
HETATM   14  C   UNL     1      -0.888   8.777 -28.783  1.00  0.00     0.050 A 
ENDROOT
BRANCH   5  15
HETATM   15  S   UNL     1      -4.937   5.927 -31.834  1.00  0.00    -0.080 SA
BRANCH  15  16
HETATM   16  C   UNL     1      -5.183   5.513 -33.583  1.00  0.00     0.185 C 
BRANCH  16  17
HETATM   17  C   UNL     1      -6.115   4.325 -33.745  1.00  0.00     0.227 C 
HETATM   18  N   UNL     1      -5.545   3.106 -33.446  1.00  0.00    -0.360 N 
HETATM   19  H   UNL     1      -4.529   3.052 -33.533  1.00  0.00     0.162 HD
HETATM   20  O   UNL     1      -7.289   4.456 -34.083  1.00  0.00    -0.273 OA
BRANCH  18  21
HETATM   21  C   UNL     1      -6.296   1.874 -33.593  1.00  0.00     0.127 C 
BRANCH  21  22
HETATM   22  C   UNL     1      -5.707   0.752 -32.740  1.00  0.00     0.058 C 
BRANCH  22  23
HETATM   23  C   UNL     1      -5.692  -0.571 -33.465  1.00  0.00    -0.057 A 
HETATM   24  C   UNL     1      -6.873  -1.113 -33.987  1.00  0.00     0.007 A 
HETATM   25  C   UNL     1      -6.855  -2.345 -34.644  1.00  0.00     0.001 A 
HETATM   26  C   UNL     1      -5.657  -3.044 -34.784  1.00  0.00     0.000 A 
HETATM   27  C   UNL     1      -4.478  -2.515 -34.265  1.00  0.00     0.001 A 
HETATM   28  C   UNL     1      -4.495  -1.285 -33.606  1.00  0.00     0.007 A 
ENDBRANCH  22  23
ENDBRANCH  21  22
ENDBRANCH  18  21
ENDBRANCH  16  17
ENDBRANCH  15  16
ENDBRANCH   5  15
BRANCH  13  29
HETATM   29  O   UNL     1      -1.716  10.715 -27.797  1.00  0.00    -0.356 OA
HETATM   30  C   UNL     1      -0.771  10.543 -26.748  1.00  0.00     0.210 C 
ENDBRANCH  13  29
TORSDOF 7
ENDMDL
MODEL 10
REMARK VINA RESULT:      -7.3      4.851      8.738
REMARK  7 active torsions:
REMARK  status: ('A' for Active; 'I' for Inactive)
REMARK    1  A    between atoms: C_5  and  S_6 
REMARK    2  A    between atoms: S_6  and  C_7 
REMARK    3  A    between atoms: C_7  and  C_8 
REMARK       I    between atoms: C_8  and  N_9 
REMARK    4  A    between atoms: N_9  and  C_10 
REMARK    5  A    between atoms: C_10  and  C_11 
REMARK    6  A    between atoms: C_11  and  C_12 
REMARK    7  A    between atoms: C_26  and  O_27 
ROOT
HETATM    1  C   UNL     1      -1.368   5.880 -34.266  1.00  0.00     0.052 C 
HETATM    2  C   UNL     1      -2.293   5.274 -33.238  1.00  0.00    -0.013 A 
HETATM    3  C   UNL     1      -2.959   6.067 -32.255  1.00  0.00     0.165 A 
HETATM    4  N   UNL     1      -3.790   5.477 -31.300  1.00  0.00    -0.271 N 
HETATM    5  C   UNL     1      -4.227   6.553 -30.545  1.00  0.00     0.197 A 
HETATM    6  N   UNL     1      -3.722   7.673 -31.015  1.00  0.00    -0.122 NA
HETATM    7  N   UNL     1      -2.927   7.372 -32.078  1.00  0.00    -0.128 NA
HETATM    8  C   UNL     1      -4.044   4.076 -31.272  1.00  0.00     0.053 A 
HETATM    9  C   UNL     1      -3.402   3.308 -32.260  1.00  0.00    -0.005 A 
HETATM   10  C   UNL     1      -2.509   3.946 -33.236  1.00  0.00     0.024 A 
HETATM   11  C   UNL     1      -4.885   3.441 -30.355  1.00  0.00     0.034 A 
HETATM   12  C   UNL     1      -5.093   2.055 -30.428  1.00  0.00     0.039 A 
HETATM   13  C   UNL     1      -4.466   1.293 -31.412  1.00  0.00     0.069 A 
HETATM   14  C   UNL     1      -3.617   1.925 -32.321  1.00  0.00     0.050 A 
ENDROOT
BRANCH   5  15
HETATM   15  S   UNL     1      -5.273   6.522 -29.166  1.00  0.00    -0.080 SA
BRANCH  15  16
HETATM   16  C   UNL     1      -4.611   7.892 -28.179  1.00  0.00     0.185 C 
BRANCH  16  17
HETATM   17  C   UNL     1      -3.442   7.443 -27.321  1.00  0.00     0.227 C 
HETATM   18  N   UNL     1      -2.260   8.108 -27.571  1.00  0.00    -0.360 N 
HETATM   19  H   UNL     1      -2.163   8.515 -28.503  1.00  0.00     0.162 HD
HETATM   20  O   UNL     1      -3.560   6.581 -26.453  1.00  0.00    -0.273 OA
BRANCH  18  21
HETATM   21  C   UNL     1      -1.044   7.762 -26.861  1.00  0.00     0.127 C 
BRANCH  21  22
HETATM   22  C   UNL     1       0.199   8.060 -27.699  1.00  0.00     0.058 C 
BRANCH  22  23
HETATM   23  C   UNL     1       0.374   7.081 -28.832  1.00  0.00    -0.057 A 
HETATM   24  C   UNL     1       0.567   5.718 -28.576  1.00  0.00     0.007 A 
HETATM   25  C   UNL     1       0.743   4.819 -29.630  1.00  0.00     0.001 A 
HETATM   26  C   UNL     1       0.727   5.274 -30.947  1.00  0.00     0.000 A 
HETATM   27  C   UNL     1       0.539   6.629 -31.213  1.00  0.00     0.001 A 
HETATM   28  C   UNL     1       0.365   7.529 -30.161  1.00  0.00     0.007 A 
ENDBRANCH  22  23
ENDBRANCH  21  22
ENDBRANCH  18  21
ENDBRANCH  16  17
ENDBRANCH  15  16
ENDBRANCH   5  15
BRANCH  13  29
HETATM   29  O   UNL     1      -4.596  -0.055 -31.592  1.00  0.00    -0.356 OA
HETATM   30  C   UNL     1      -3.945  -0.620 -32.723  1.00  0.00     0.210 C 
ENDBRANCH  13  29
TORSDOF 7
ENDMDL
