MODEL 1
REMARK VINA RESULT:     -10.4      0.000      0.000
REMARK  6 active torsions:
REMARK  status: ('A' for Active; 'I' for Inactive)
REMARK    1  A    between atoms: C_5  and  C_6 
REMARK    2  A    between atoms: C_11  and  C_12 
REMARK       I    between atoms: C_12  and  N_13 
REMARK    3  A    between atoms: N_13  and  C_14 
REMARK    4  A    between atoms: C_16  and  C_17 
REMARK    5  A    between atoms: C_17  and  O_18 
REMARK    6  A    between atoms: C_25  and  C_26 
ROOT
HETATM    1  C   UNL     1      -1.603   6.085 -31.485  1.00  0.00     0.118 C 
HETATM    2  N   UNL     1      -1.675   4.643 -31.251  1.00  0.00    -0.366 N 
HETATM    3  C   UNL     1      -2.670   3.875 -31.736  1.00  0.00     0.123 A 
HETATM    4  N   UNL     1      -3.596   4.380 -32.603  1.00  0.00    -0.240 N 
HETATM    5  N   UNL     1      -4.614   3.543 -32.870  1.00  0.00    -0.165 NA
HETATM    6  C   UNL     1      -4.239   2.396 -32.252  1.00  0.00     0.148 A 
HETATM    7  C   UNL     1      -3.018   2.566 -31.542  1.00  0.00     0.089 A 
HETATM    8  C   UNL     1      -3.553   5.740 -33.102  1.00  0.00     0.221 C 
HETATM    9  C   UNL     1      -2.936   6.646 -32.027  1.00  0.00     0.066 C 
HETATM   10  H   UNL     1      -0.973   4.265 -30.616  1.00  0.00     0.161 HD
ENDROOT
BRANCH   6  11
HETATM   11  C   UNL     1      -5.052   1.169 -32.318  1.00  0.00     0.276 C 
HETATM   12  N   UNL     1      -4.729   0.399 -33.419  1.00  0.00    -0.322 N 
HETATM   13  H   UNL     1      -4.026   0.824 -34.018  1.00  0.00     0.169 HD
HETATM   14  O   UNL     1      -5.917   0.929 -31.482  1.00  0.00    -0.266 OA
BRANCH  12  15
HETATM   15  C   UNL     1      -5.262  -0.842 -33.801  1.00  0.00     0.035 A 
HETATM   16  C   UNL     1      -4.505  -2.014 -33.891  1.00  0.00     0.039 A 
HETATM   17  C   UNL     1      -5.086  -3.226 -34.308  1.00  0.00    -0.028 A 
HETATM   18  C   UNL     1      -6.455  -3.247 -34.607  1.00  0.00     0.010 A 
HETATM   19  C   UNL     1      -7.217  -2.084 -34.520  1.00  0.00     0.003 A 
HETATM   20  C   UNL     1      -6.620  -0.885 -34.128  1.00  0.00     0.029 A 
BRANCH  17  21
HETATM   21  C   UNL     1      -4.223  -4.464 -34.407  1.00  0.00     0.147 C 
HETATM   22  C   UNL     1      -3.409  -4.689 -33.138  1.00  0.00     0.044 C 
BRANCH  21  23
HETATM   23  O   UNL     1      -5.026  -5.618 -34.651  1.00  0.00    -0.391 OA
HETATM   24  H   UNL     1      -5.867  -5.302 -35.021  1.00  0.00     0.210 HD
ENDBRANCH  21  23
ENDBRANCH  17  21
ENDBRANCH  12  15
ENDBRANCH   6  11
BRANCH   8  25
HETATM   25  C   UNL     1      -2.798   5.785 -34.410  1.00  0.00     0.409 C 
HETATM   26  F   UNL     1      -3.600   5.573 -35.476  1.00  0.00    -0.169 F 
HETATM   27  F   UNL     1      -2.251   7.018 -34.580  1.00  0.00    -0.169 F 
HETATM   28  F   UNL     1      -1.780   4.902 -34.478  1.00  0.00    -0.169 F 
ENDBRANCH   8  25
BRANCH   1  29
HETATM   29  C   UNL     1      -1.216   6.771 -30.185  1.00  0.00    -0.035 A 
HETATM   30  C   UNL     1      -2.193   7.126 -29.246  1.00  0.00     0.010 A 
HETATM   31  C   UNL     1      -1.835   7.757 -28.050  1.00  0.00     0.007 A 
HETATM   32  C   UNL     1      -0.495   8.055 -27.775  1.00  0.00    -0.062 A 
HETATM   33  C   UNL     1      -0.101   8.705 -26.482  1.00  0.00     0.048 C 
HETATM   34  C   UNL     1       0.485   7.693 -28.703  1.00  0.00     0.007 A 
HETATM   35  C   UNL     1       0.128   7.066 -29.897  1.00  0.00     0.010 A 
ENDBRANCH   1  29
TORSDOF 6
ENDMDL
MODEL 2
REMARK VINA RESULT:     -10.0      1.597      1.953
REMARK  6 active torsions:
REMARK  status: ('A' for Active; 'I' for Inactive)
REMARK    1  A    between atoms: C_5  and  C_6 
REMARK    2  A    between atoms: C_11  and  C_12 
REMARK       I    between atoms: C_12  and  N_13 
REMARK    3  A    between atoms: N_13  and  C_14 
REMARK    4  A    between atoms: C_16  and  C_17 
REMARK    5  A    between atoms: C_17  and  O_18 
REMARK    6  A    between atoms: C_25  and  C_26 
ROOT
HETATM    1  C   UNL     1      -2.895   6.374 -31.174  1.00  0.00     0.118 C 
HETATM    2  N   UNL     1      -2.527   5.059 -31.697  1.00  0.00    -0.366 N 
HETATM    3  C   UNL     1      -3.388   4.023 -31.733  1.00  0.00     0.123 A 
HETATM    4  N   UNL     1      -4.705   4.186 -31.415  1.00  0.00    -0.240 N 
HETATM    5  N   UNL     1      -5.400   3.036 -31.340  1.00  0.00    -0.165 NA
HETATM    6  C   UNL     1      -4.509   2.111 -31.773  1.00  0.00     0.148 A 
HETATM    7  C   UNL     1      -3.240   2.698 -32.039  1.00  0.00     0.089 A 
HETATM    8  C   UNL     1      -5.284   5.469 -31.072  1.00  0.00     0.221 C 
HETATM    9  C   UNL     1      -4.217   6.326 -30.377  1.00  0.00     0.066 C 
HETATM   10  H   UNL     1      -1.546   4.945 -31.949  1.00  0.00     0.161 HD
ENDROOT
BRANCH   6  11
HETATM   11  C   UNL     1      -4.859   0.685 -31.899  1.00  0.00     0.276 C 
HETATM   12  N   UNL     1      -5.109   0.333 -33.212  1.00  0.00    -0.322 N 
HETATM   13  H   UNL     1      -5.055   1.117 -33.858  1.00  0.00     0.169 HD
HETATM   14  O   UNL     1      -4.934  -0.045 -30.917  1.00  0.00    -0.266 OA
BRANCH  12  15
HETATM   15  C   UNL     1      -5.441  -0.929 -33.728  1.00  0.00     0.035 A 
HETATM   16  C   UNL     1      -4.572  -2.023 -33.714  1.00  0.00     0.039 A 
HETATM   17  C   UNL     1      -4.948  -3.259 -34.273  1.00  0.00    -0.028 A 
HETATM   18  C   UNL     1      -6.231  -3.386 -34.822  1.00  0.00     0.010 A 
HETATM   19  C   UNL     1      -7.104  -2.301 -34.839  1.00  0.00     0.003 A 
HETATM   20  C   UNL     1      -6.707  -1.075 -34.302  1.00  0.00     0.029 A 
BRANCH  17  21
HETATM   21  C   UNL     1      -3.966  -4.410 -34.251  1.00  0.00     0.147 C 
HETATM   22  C   UNL     1      -3.238  -4.506 -32.916  1.00  0.00     0.044 C 
BRANCH  21  23
HETATM   23  O   UNL     1      -4.635  -5.645 -34.504  1.00  0.00    -0.391 OA
HETATM   24  H   UNL     1      -4.997  -5.947 -33.654  1.00  0.00     0.210 HD
ENDBRANCH  21  23
ENDBRANCH  17  21
ENDBRANCH  12  15
ENDBRANCH   6  11
BRANCH   8  25
HETATM   25  C   UNL     1      -5.848   6.127 -32.310  1.00  0.00     0.409 C 
HETATM   26  F   UNL     1      -7.123   5.755 -32.557  1.00  0.00    -0.169 F 
HETATM   27  F   UNL     1      -5.867   7.476 -32.143  1.00  0.00    -0.169 F 
HETATM   28  F   UNL     1      -5.127   5.890 -33.426  1.00  0.00    -0.169 F 
ENDBRANCH   8  25
BRANCH   1  29
HETATM   29  C   UNL     1      -1.758   6.889 -30.306  1.00  0.00    -0.035 A 
HETATM   30  C   UNL     1      -0.424   6.678 -30.677  1.00  0.00     0.010 A 
HETATM   31  C   UNL     1       0.620   7.153 -29.877  1.00  0.00     0.007 A 
HETATM   32  C   UNL     1       0.352   7.839 -28.686  1.00  0.00    -0.062 A 
HETATM   33  C   UNL     1       1.466   8.377 -27.839  1.00  0.00     0.048 C 
HETATM   34  C   UNL     1      -0.978   8.063 -28.318  1.00  0.00     0.007 A 
HETATM   35  C   UNL     1      -2.020   7.587 -29.115  1.00  0.00     0.010 A 
ENDBRANCH   1  29
TORSDOF 6
ENDMDL
MODEL 3
REMARK VINA RESULT:      -9.9      4.752      9.998
REMARK  6 active torsions:
REMARK  status: ('A' for Active; 'I' for Inactive)
REMARK    1  A    between atoms: C_5  and  C_6 
REMARK    2  A    between atoms: C_11  and  C_12 
REMARK       I    between atoms: C_12  and  N_13 
REMARK    3  A    between atoms: N_13  and  C_14 
REMARK    4  A    between atoms: C_16  and  C_17 
REMARK    5  A    between atoms: C_17  and  O_18 
REMARK    6  A    between atoms: C_25  and  C_26 
ROOT
HETATM    1  C   UNL     1     -10.131   1.082 -34.076  1.00  0.00     0.118 C 
HETATM    2  N   UNL     1      -9.446   2.373 -34.116  1.00  0.00    -0.366 N 
HETATM    3  C   UNL     1      -8.223   2.566 -33.584  1.00  0.00     0.123 A 
HETATM    4  N   UNL     1      -7.488   1.522 -33.103  1.00  0.00    -0.240 N 
HETATM    5  N   UNL     1      -6.365   1.889 -32.460  1.00  0.00    -0.165 NA
HETATM    6  C   UNL     1      -6.315   3.227 -32.669  1.00  0.00     0.148 A 
HETATM    7  C   UNL     1      -7.460   3.683 -33.381  1.00  0.00     0.089 A 
HETATM    8  C   UNL     1      -7.930   0.144 -33.172  1.00  0.00     0.221 C 
HETATM    9  C   UNL     1      -9.463   0.108 -33.080  1.00  0.00     0.066 C 
HETATM   10  H   UNL     1      -9.992   3.148 -34.490  1.00  0.00     0.161 HD
ENDROOT
BRANCH   6  11
HETATM   11  C   UNL     1      -5.205   4.058 -32.169  1.00  0.00     0.276 C 
HETATM   12  N   UNL     1      -4.279   4.325 -33.159  1.00  0.00    -0.322 N 
HETATM   13  H   UNL     1      -4.491   3.871 -34.044  1.00  0.00     0.169 HD
HETATM   14  O   UNL     1      -5.151   4.414 -30.996  1.00  0.00    -0.266 OA
BRANCH  12  15
HETATM   15  C   UNL     1      -3.112   5.099 -33.073  1.00  0.00     0.035 A 
HETATM   16  C   UNL     1      -2.091   4.861 -32.148  1.00  0.00     0.039 A 
HETATM   17  C   UNL     1      -0.955   5.688 -32.088  1.00  0.00    -0.028 A 
HETATM   18  C   UNL     1      -0.846   6.747 -32.998  1.00  0.00     0.010 A 
HETATM   19  C   UNL     1      -1.857   6.992 -33.925  1.00  0.00     0.003 A 
HETATM   20  C   UNL     1      -2.989   6.177 -33.955  1.00  0.00     0.029 A 
BRANCH  17  21
HETATM   21  C   UNL     1       0.115   5.401 -31.057  1.00  0.00     0.147 C 
HETATM   22  C   UNL     1       0.467   6.643 -30.248  1.00  0.00     0.044 C 
BRANCH  21  23
HETATM   23  O   UNL     1      -0.310   4.372 -30.164  1.00  0.00    -0.391 OA
HETATM   24  H   UNL     1      -0.224   3.531 -30.644  1.00  0.00     0.210 HD
ENDBRANCH  21  23
ENDBRANCH  17  21
ENDBRANCH  12  15
ENDBRANCH   6  11
BRANCH   8  25
HETATM   25  C   UNL     1      -7.404  -0.503 -34.432  1.00  0.00     0.409 C 
HETATM   26  F   UNL     1      -6.118  -0.175 -34.682  1.00  0.00    -0.169 F 
HETATM   27  F   UNL     1      -7.436  -1.857 -34.299  1.00  0.00    -0.169 F 
HETATM   28  F   UNL     1      -8.125  -0.210 -35.534  1.00  0.00    -0.169 F 
ENDBRANCH   8  25
BRANCH   1  29
HETATM   29  C   UNL     1     -11.588   1.313 -33.711  1.00  0.00    -0.035 A 
HETATM   30  C   UNL     1     -12.526   0.279 -33.823  1.00  0.00     0.010 A 
HETATM   31  C   UNL     1     -13.866   0.493 -33.486  1.00  0.00     0.007 A 
HETATM   32  C   UNL     1     -14.296   1.749 -33.041  1.00  0.00    -0.062 A 
HETATM   33  C   UNL     1     -15.726   1.978 -32.650  1.00  0.00     0.048 C 
HETATM   34  C   UNL     1     -13.363   2.781 -32.916  1.00  0.00     0.007 A 
HETATM   35  C   UNL     1     -12.027   2.568 -33.254  1.00  0.00     0.010 A 
ENDBRANCH   1  29
TORSDOF 6
ENDMDL
MODEL 4
REMARK VINA RESULT:      -9.7      3.362      9.708
REMARK  6 active torsions:
REMARK  status: ('A' for Active; 'I' for Inactive)
REMARK    1  A    between atoms: C_5  and  C_6 
REMARK    2  A    between atoms: C_11  and  C_12 
REMARK       I    between atoms: C_12  and  N_13 
REMARK    3  A    between atoms: N_13  and  C_14 
REMARK    4  A    between atoms: C_16  and  C_17 
REMARK    5  A    between atoms: C_17  and  O_18 
REMARK    6  A    between atoms: C_25  and  C_26 
ROOT
HETATM    1  C   UNL     1      -6.916  -0.048 -33.514  1.00  0.00     0.118 C 
HETATM    2  N   UNL     1      -6.168   0.436 -32.354  1.00  0.00    -0.366 N 
HETATM    3  C   UNL     1      -5.723   1.704 -32.252  1.00  0.00     0.123 A 
HETATM    4  N   UNL     1      -6.074   2.654 -33.166  1.00  0.00    -0.240 N 
HETATM    5  N   UNL     1      -5.425   3.823 -33.022  1.00  0.00    -0.165 NA
HETATM    6  C   UNL     1      -4.733   3.650 -31.869  1.00  0.00     0.148 A 
HETATM    7  C   UNL     1      -4.908   2.335 -31.353  1.00  0.00     0.089 A 
HETATM    8  C   UNL     1      -6.977   2.394 -34.269  1.00  0.00     0.221 C 
HETATM    9  C   UNL     1      -6.822   0.930 -34.706  1.00  0.00     0.066 C 
HETATM   10  H   UNL     1      -5.921  -0.273 -31.664  1.00  0.00     0.161 HD
ENDROOT
BRANCH   6  11
HETATM   11  C   UNL     1      -3.897   4.716 -31.290  1.00  0.00     0.276 C 
HETATM   12  N   UNL     1      -2.560   4.541 -31.593  1.00  0.00    -0.322 N 
HETATM   13  H   UNL     1      -2.373   3.691 -32.120  1.00  0.00     0.169 HD
HETATM   14  O   UNL     1      -4.383   5.609 -30.604  1.00  0.00    -0.266 OA
BRANCH  12  15
HETATM   15  C   UNL     1      -1.474   5.357 -31.246  1.00  0.00     0.035 A 
HETATM   16  C   UNL     1      -0.926   5.411 -29.961  1.00  0.00     0.039 A 
HETATM   17  C   UNL     1       0.147   6.271 -29.661  1.00  0.00    -0.028 A 
HETATM   18  C   UNL     1       0.682   7.060 -30.688  1.00  0.00     0.010 A 
HETATM   19  C   UNL     1       0.143   7.013 -31.972  1.00  0.00     0.003 A 
HETATM   20  C   UNL     1      -0.936   6.172 -32.247  1.00  0.00     0.029 A 
BRANCH  17  21
HETATM   21  C   UNL     1       0.695   6.307 -28.251  1.00  0.00     0.147 C 
HETATM   22  C   UNL     1       1.025   7.727 -27.810  1.00  0.00     0.044 C 
BRANCH  21  23
HETATM   23  O   UNL     1      -0.242   5.743 -27.334  1.00  0.00    -0.391 OA
HETATM   24  H   UNL     1       0.055   4.836 -27.151  1.00  0.00     0.210 HD
ENDBRANCH  21  23
ENDBRANCH  17  21
ENDBRANCH  12  15
ENDBRANCH   6  11
BRANCH   8  25
HETATM   25  C   UNL     1      -8.392   2.740 -33.868  1.00  0.00     0.409 C 
HETATM   26  F   UNL     1      -8.578   2.681 -32.532  1.00  0.00    -0.169 F 
HETATM   27  F   UNL     1      -8.674   4.017 -34.240  1.00  0.00    -0.169 F 
HETATM   28  F   UNL     1      -9.325   1.958 -34.449  1.00  0.00    -0.169 F 
ENDBRANCH   8  25
BRANCH   1  29
HETATM   29  C   UNL     1      -6.386  -1.420 -33.898  1.00  0.00    -0.035 A 
HETATM   30  C   UNL     1      -5.021  -1.716 -33.788  1.00  0.00     0.010 A 
HETATM   31  C   UNL     1      -4.536  -2.979 -34.141  1.00  0.00     0.007 A 
HETATM   32  C   UNL     1      -5.404  -3.967 -34.621  1.00  0.00    -0.062 A 
HETATM   33  C   UNL     1      -4.895  -5.333 -34.974  1.00  0.00     0.048 C 
HETATM   34  C   UNL     1      -6.768  -3.681 -34.722  1.00  0.00     0.007 A 
HETATM   35  C   UNL     1      -7.252  -2.421 -34.372  1.00  0.00     0.010 A 
ENDBRANCH   1  29
TORSDOF 6
ENDMDL
MODEL 5
REMARK VINA RESULT:      -9.7      3.111      9.953
REMARK  6 active torsions:
REMARK  status: ('A' for Active; 'I' for Inactive)
REMARK    1  A    between atoms: C_5  and  C_6 
REMARK    2  A    between atoms: C_11  and  C_12 
REMARK       I    between atoms: C_12  and  N_13 
REMARK    3  A    between atoms: N_13  and  C_14 
REMARK    4  A    between atoms: C_16  and  C_17 
REMARK    5  A    between atoms: C_17  and  O_18 
REMARK    6  A    between atoms: C_25  and  C_26 
ROOT
HETATM    1  C   UNL     1      -6.333   0.407 -33.133  1.00  0.00     0.118 C 
HETATM    2  N   UNL     1      -5.313   0.741 -32.140  1.00  0.00    -0.366 N 
HETATM    3  C   UNL     1      -4.705   1.943 -32.096  1.00  0.00     0.123 A 
HETATM    4  N   UNL     1      -5.117   2.974 -32.889  1.00  0.00    -0.240 N 
HETATM    5  N   UNL     1      -4.315   4.053 -32.849  1.00  0.00    -0.165 NA
HETATM    6  C   UNL     1      -3.430   3.742 -31.872  1.00  0.00     0.148 A 
HETATM    7  C   UNL     1      -3.653   2.430 -31.369  1.00  0.00     0.089 A 
HETATM    8  C   UNL     1      -6.250   2.878 -33.787  1.00  0.00     0.221 C 
HETATM    9  C   UNL     1      -6.366   1.432 -34.289  1.00  0.00     0.066 C 
HETATM   10  H   UNL     1      -5.018  -0.027 -31.538  1.00  0.00     0.161 HD
ENDROOT
BRANCH   6  11
HETATM   11  C   UNL     1      -2.370   4.675 -31.448  1.00  0.00     0.276 C 
HETATM   12  N   UNL     1      -2.861   5.669 -30.625  1.00  0.00    -0.322 N 
HETATM   13  H   UNL     1      -3.867   5.619 -30.487  1.00  0.00     0.169 HD
HETATM   14  O   UNL     1      -1.214   4.548 -31.838  1.00  0.00    -0.266 OA
BRANCH  12  15
HETATM   15  C   UNL     1      -2.158   6.713 -30.005  1.00  0.00     0.035 A 
HETATM   16  C   UNL     1      -1.027   6.517 -29.207  1.00  0.00     0.039 A 
HETATM   17  C   UNL     1      -0.378   7.599 -28.585  1.00  0.00    -0.028 A 
HETATM   18  C   UNL     1      -0.869   8.893 -28.803  1.00  0.00     0.010 A 
HETATM   19  C   UNL     1      -1.996   9.098 -29.597  1.00  0.00     0.003 A 
HETATM   20  C   UNL     1      -2.642   8.012 -30.188  1.00  0.00     0.029 A 
BRANCH  17  21
HETATM   21  C   UNL     1       0.832   7.336 -27.716  1.00  0.00     0.147 C 
HETATM   22  C   UNL     1       1.672   8.592 -27.521  1.00  0.00     0.044 C 
BRANCH  21  23
HETATM   23  O   UNL     1       0.434   6.843 -26.437  1.00  0.00    -0.391 OA
HETATM   24  H   UNL     1      -0.537   6.830 -26.431  1.00  0.00     0.210 HD
ENDBRANCH  21  23
ENDBRANCH  17  21
ENDBRANCH  12  15
ENDBRANCH   6  11
BRANCH   8  25
HETATM   25  C   UNL     1      -7.502   3.359 -33.090  1.00  0.00     0.409 C 
HETATM   26  F   UNL     1      -7.404   3.284 -31.745  1.00  0.00    -0.169 F 
HETATM   27  F   UNL     1      -7.717   4.668 -33.387  1.00  0.00    -0.169 F 
HETATM   28  F   UNL     1      -8.616   2.695 -33.460  1.00  0.00    -0.169 F 
ENDBRANCH   8  25
BRANCH   1  29
HETATM   29  C   UNL     1      -6.064  -0.993 -33.658  1.00  0.00    -0.035 A 
HETATM   30  C   UNL     1      -4.768  -1.524 -33.644  1.00  0.00     0.010 A 
HETATM   31  C   UNL     1      -4.522  -2.813 -34.128  1.00  0.00     0.007 A 
HETATM   32  C   UNL     1      -5.564  -3.592 -34.645  1.00  0.00    -0.062 A 
HETATM   33  C   UNL     1      -5.313  -4.985 -35.137  1.00  0.00     0.048 C 
HETATM   34  C   UNL     1      -6.861  -3.071 -34.650  1.00  0.00     0.007 A 
HETATM   35  C   UNL     1      -7.106  -1.785 -34.170  1.00  0.00     0.010 A 
ENDBRANCH   1  29
TORSDOF 6
ENDMDL
MODEL 6
REMARK VINA RESULT:      -9.6      3.642      4.517
REMARK  6 active torsions:
REMARK  status: ('A' for Active; 'I' for Inactive)
REMARK    1  A    between atoms: C_5  and  C_6 
REMARK    2  A    between atoms: C_11  and  C_12 
REMARK       I    between atoms: C_12  and  N_13 
REMARK    3  A    between atoms: N_13  and  C_14 
REMARK    4  A    between atoms: C_16  and  C_17 
REMARK    5  A    between atoms: C_17  and  O_18 
REMARK    6  A    between atoms: C_25  and  C_26 
ROOT
HETATM    1  C   UNL     1      -1.346   5.463 -31.577  1.00  0.00     0.118 C 
HETATM    2  N   UNL     1      -2.357   4.517 -31.106  1.00  0.00    -0.366 N 
HETATM    3  C   UNL     1      -3.602   4.467 -31.618  1.00  0.00     0.123 A 
HETATM    4  N   UNL     1      -3.947   5.202 -32.714  1.00  0.00    -0.240 N 
HETATM    5  N   UNL     1      -5.260   5.170 -33.007  1.00  0.00    -0.165 NA
HETATM    6  C   UNL     1      -5.747   4.254 -32.136  1.00  0.00     0.148 A 
HETATM    7  C   UNL     1      -4.731   3.783 -31.257  1.00  0.00     0.089 A 
HETATM    8  C   UNL     1      -3.008   6.039 -33.433  1.00  0.00     0.221 C 
HETATM    9  C   UNL     1      -1.966   6.581 -32.444  1.00  0.00     0.066 C 
HETATM   10  H   UNL     1      -2.090   3.957 -30.296  1.00  0.00     0.161 HD
ENDROOT
BRANCH   6  11
HETATM   11  C   UNL     1      -7.167   3.859 -32.126  1.00  0.00     0.276 C 
HETATM   12  N   UNL     1      -7.408   2.794 -32.973  1.00  0.00    -0.322 N 
HETATM   13  H   UNL     1      -6.585   2.494 -33.490  1.00  0.00     0.169 HD
HETATM   14  O   UNL     1      -7.994   4.461 -31.450  1.00  0.00    -0.266 OA
BRANCH  12  15
HETATM   15  C   UNL     1      -8.619   2.125 -33.209  1.00  0.00     0.035 A 
HETATM   16  C   UNL     1      -9.633   2.629 -34.028  1.00  0.00     0.039 A 
HETATM   17  C   UNL     1     -10.840   1.929 -34.207  1.00  0.00    -0.028 A 
HETATM   18  C   UNL     1     -11.001   0.693 -33.567  1.00  0.00     0.010 A 
HETATM   19  C   UNL     1      -9.995   0.182 -32.749  1.00  0.00     0.003 A 
HETATM   20  C   UNL     1      -8.813   0.901 -32.564  1.00  0.00     0.029 A 
BRANCH  17  21
HETATM   21  C   UNL     1     -11.917   2.523 -35.089  1.00  0.00     0.147 C 
HETATM   22  C   UNL     1     -11.545   3.919 -35.571  1.00  0.00     0.044 C 
BRANCH  21  23
HETATM   23  O   UNL     1     -12.153   1.690 -36.223  1.00  0.00    -0.391 OA
HETATM   24  H   UNL     1     -11.790   0.814 -36.009  1.00  0.00     0.210 HD
ENDBRANCH  21  23
ENDBRANCH  17  21
ENDBRANCH  12  15
ENDBRANCH   6  11
BRANCH   8  25
HETATM   25  C   UNL     1      -2.388   5.259 -34.569  1.00  0.00     0.409 C 
HETATM   26  F   UNL     1      -1.203   5.774 -34.961  1.00  0.00    -0.169 F 
HETATM   27  F   UNL     1      -2.138   3.984 -34.165  1.00  0.00    -0.169 F 
HETATM   28  F   UNL     1      -3.179   5.167 -35.658  1.00  0.00    -0.169 F 
ENDBRANCH   8  25
BRANCH   1  29
HETATM   29  C   UNL     1      -0.625   6.048 -30.374  1.00  0.00    -0.035 A 
HETATM   30  C   UNL     1      -0.752   7.407 -30.056  1.00  0.00     0.010 A 
HETATM   31  C   UNL     1      -0.089   7.943 -28.948  1.00  0.00     0.007 A 
HETATM   32  C   UNL     1       0.722   7.135 -28.142  1.00  0.00    -0.062 A 
HETATM   33  C   UNL     1       1.412   7.697 -26.935  1.00  0.00     0.048 C 
HETATM   34  C   UNL     1       0.842   5.777 -28.447  1.00  0.00     0.007 A 
HETATM   35  C   UNL     1       0.182   5.241 -29.554  1.00  0.00     0.010 A 
ENDBRANCH   1  29
TORSDOF 6
ENDMDL
MODEL 7
REMARK VINA RESULT:      -9.4      6.311      9.994
REMARK  6 active torsions:
REMARK  status: ('A' for Active; 'I' for Inactive)
REMARK    1  A    between atoms: C_5  and  C_6 
REMARK    2  A    between atoms: C_11  and  C_12 
REMARK       I    between atoms: C_12  and  N_13 
REMARK    3  A    between atoms: N_13  and  C_14 
REMARK    4  A    between atoms: C_16  and  C_17 
REMARK    5  A    between atoms: C_17  and  O_18 
REMARK    6  A    between atoms: C_25  and  C_26 
ROOT
HETATM    1  C   UNL     1      -5.890   0.453 -32.822  1.00  0.00     0.118 C 
HETATM    2  N   UNL     1      -7.031   1.202 -33.345  1.00  0.00    -0.366 N 
HETATM    3  C   UNL     1      -7.850   1.926 -32.557  1.00  0.00     0.123 A 
HETATM    4  N   UNL     1      -7.572   2.120 -31.235  1.00  0.00    -0.240 N 
HETATM    5  N   UNL     1      -8.559   2.723 -30.547  1.00  0.00    -0.165 NA
HETATM    6  C   UNL     1      -9.448   3.055 -31.514  1.00  0.00     0.148 A 
HETATM    7  C   UNL     1      -9.029   2.581 -32.789  1.00  0.00     0.089 A 
HETATM    8  C   UNL     1      -6.372   1.619 -30.597  1.00  0.00     0.221 C 
HETATM    9  C   UNL     1      -5.952   0.311 -31.285  1.00  0.00     0.066 C 
HETATM   10  H   UNL     1      -7.228   1.069 -34.336  1.00  0.00     0.161 HD
ENDROOT
BRANCH   6  11
HETATM   11  C   UNL     1     -10.692   3.788 -31.217  1.00  0.00     0.276 C 
HETATM   12  N   UNL     1     -11.740   3.360 -32.009  1.00  0.00    -0.322 N 
HETATM   13  H   UNL     1     -11.472   2.652 -32.688  1.00  0.00     0.169 HD
HETATM   14  O   UNL     1     -10.722   4.681 -30.377  1.00  0.00    -0.266 OA
BRANCH  12  15
HETATM   15  C   UNL     1     -13.074   3.796 -31.998  1.00  0.00     0.035 A 
HETATM   16  C   UNL     1     -14.171   2.931 -32.060  1.00  0.00     0.039 A 
HETATM   17  C   UNL     1     -15.488   3.425 -32.075  1.00  0.00    -0.028 A 
HETATM   18  C   UNL     1     -15.687   4.810 -31.997  1.00  0.00     0.010 A 
HETATM   19  C   UNL     1     -14.601   5.679 -31.934  1.00  0.00     0.003 A 
HETATM   20  C   UNL     1     -13.300   5.174 -31.944  1.00  0.00     0.029 A 
BRANCH  17  21
HETATM   21  C   UNL     1     -16.642   2.451 -32.162  1.00  0.00     0.147 C 
HETATM   22  C   UNL     1     -17.975   3.126 -31.862  1.00  0.00     0.044 C 
BRANCH  21  23
HETATM   23  O   UNL     1     -16.705   1.860 -33.459  1.00  0.00    -0.391 OA
HETATM   24  H   UNL     1     -16.053   1.139 -33.471  1.00  0.00     0.210 HD
ENDBRANCH  21  23
ENDBRANCH  17  21
ENDBRANCH  12  15
ENDBRANCH   6  11
BRANCH   8  25
HETATM   25  C   UNL     1      -5.290   2.673 -30.634  1.00  0.00     0.409 C 
HETATM   26  F   UNL     1      -5.269   3.429 -29.515  1.00  0.00    -0.169 F 
HETATM   27  F   UNL     1      -4.071   2.075 -30.717  1.00  0.00    -0.169 F 
HETATM   28  F   UNL     1      -5.380   3.505 -31.692  1.00  0.00    -0.169 F 
ENDBRANCH   8  25
BRANCH   1  29
HETATM   29  C   UNL     1      -5.855  -0.912 -33.490  1.00  0.00    -0.035 A 
HETATM   30  C   UNL     1      -4.642  -1.591 -33.664  1.00  0.00     0.010 A 
HETATM   31  C   UNL     1      -4.612  -2.847 -34.278  1.00  0.00     0.007 A 
HETATM   32  C   UNL     1      -5.792  -3.443 -34.740  1.00  0.00    -0.062 A 
HETATM   33  C   UNL     1      -5.771  -4.803 -35.372  1.00  0.00     0.048 C 
HETATM   34  C   UNL     1      -7.006  -2.775 -34.558  1.00  0.00     0.007 A 
HETATM   35  C   UNL     1      -7.036  -1.522 -33.947  1.00  0.00     0.010 A 
ENDBRANCH   1  29
TORSDOF 6
ENDMDL
MODEL 8
REMARK VINA RESULT:      -9.2      1.951      2.523
REMARK  6 active torsions:
REMARK  status: ('A' for Active; 'I' for Inactive)
REMARK    1  A    between atoms: C_5  and  C_6 
REMARK    2  A    between atoms: C_11  and  C_12 
REMARK       I    between atoms: C_12  and  N_13 
REMARK    3  A    between atoms: N_13  and  C_14 
REMARK    4  A    between atoms: C_16  and  C_17 
REMARK    5  A    between atoms: C_17  and  O_18 
REMARK    6  A    between atoms: C_25  and  C_26 
ROOT
HETATM    1  C   UNL     1      -2.660   6.781 -30.740  1.00  0.00     0.118 C 
HETATM    2  N   UNL     1      -2.314   5.458 -31.260  1.00  0.00    -0.366 N 
HETATM    3  C   UNL     1      -3.191   4.436 -31.291  1.00  0.00     0.123 A 
HETATM    4  N   UNL     1      -4.504   4.619 -30.970  1.00  0.00    -0.240 N 
HETATM    5  N   UNL     1      -5.216   3.480 -30.891  1.00  0.00    -0.165 NA
HETATM    6  C   UNL     1      -4.341   2.541 -31.323  1.00  0.00     0.148 A 
HETATM    7  C   UNL     1      -3.064   3.108 -31.595  1.00  0.00     0.089 A 
HETATM    8  C   UNL     1      -5.062   5.912 -30.629  1.00  0.00     0.221 C 
HETATM    9  C   UNL     1      -3.980   6.755 -29.939  1.00  0.00     0.066 C 
HETATM   10  H   UNL     1      -1.335   5.328 -31.515  1.00  0.00     0.161 HD
ENDROOT
BRANCH   6  11
HETATM   11  C   UNL     1      -4.713   1.120 -31.446  1.00  0.00     0.276 C 
HETATM   12  N   UNL     1      -3.861   0.438 -32.294  1.00  0.00    -0.322 N 
HETATM   13  H   UNL     1      -3.156   1.033 -32.722  1.00  0.00     0.169 HD
HETATM   14  O   UNL     1      -5.691   0.663 -30.863  1.00  0.00    -0.266 OA
BRANCH  12  15
HETATM   15  C   UNL     1      -3.878  -0.923 -32.635  1.00  0.00     0.035 A 
HETATM   16  C   UNL     1      -4.674  -1.455 -33.653  1.00  0.00     0.039 A 
HETATM   17  C   UNL     1      -4.672  -2.834 -33.934  1.00  0.00    -0.028 A 
HETATM   18  C   UNL     1      -3.829  -3.670 -33.190  1.00  0.00     0.010 A 
HETATM   19  C   UNL     1      -3.031  -3.148 -32.174  1.00  0.00     0.003 A 
HETATM   20  C   UNL     1      -3.063  -1.782 -31.892  1.00  0.00     0.029 A 
BRANCH  17  21
HETATM   21  C   UNL     1      -5.565  -3.366 -35.033  1.00  0.00     0.147 C 
HETATM   22  C   UNL     1      -5.700  -4.882 -34.967  1.00  0.00     0.044 C 
BRANCH  21  23
HETATM   23  O   UNL     1      -6.864  -2.782 -34.952  1.00  0.00    -0.391 OA
HETATM   24  H   UNL     1      -6.811  -2.069 -34.294  1.00  0.00     0.210 HD
ENDBRANCH  21  23
ENDBRANCH  17  21
ENDBRANCH  12  15
ENDBRANCH   6  11
BRANCH   8  25
HETATM   25  C   UNL     1      -5.620   6.575 -31.867  1.00  0.00     0.409 C 
HETATM   26  F   UNL     1      -5.488   7.919 -31.836  1.00  0.00    -0.169 F 
HETATM   27  F   UNL     1      -4.936   6.148 -32.963  1.00  0.00    -0.169 F 
HETATM   28  F   UNL     1      -6.920   6.294 -32.094  1.00  0.00    -0.169 F 
ENDBRANCH   8  25
BRANCH   1  29
HETATM   29  C   UNL     1      -1.513   7.280 -29.876  1.00  0.00    -0.035 A 
HETATM   30  C   UNL     1      -1.672   8.406 -29.059  1.00  0.00     0.010 A 
HETATM   31  C   UNL     1      -0.616   8.864 -28.265  1.00  0.00     0.007 A 
HETATM   32  C   UNL     1       0.623   8.212 -28.280  1.00  0.00    -0.062 A 
HETATM   33  C   UNL     1       1.750   8.679 -27.409  1.00  0.00     0.048 C 
HETATM   34  C   UNL     1       0.783   7.081 -29.085  1.00  0.00     0.007 A 
HETATM   35  C   UNL     1      -0.269   6.625 -29.879  1.00  0.00     0.010 A 
ENDBRANCH   1  29
TORSDOF 6
ENDMDL
MODEL 9
REMARK VINA RESULT:      -9.2      3.655      9.878
REMARK  6 active torsions:
REMARK  status: ('A' for Active; 'I' for Inactive)
REMARK    1  A    between atoms: C_5  and  C_6 
REMARK    2  A    between atoms: C_11  and  C_12 
REMARK       I    between atoms: C_12  and  N_13 
REMARK    3  A    between atoms: N_13  and  C_14 
REMARK    4  A    between atoms: C_16  and  C_17 
REMARK    5  A    between atoms: C_17  and  O_18 
REMARK    6  A    between atoms: C_25  and  C_26 
ROOT
HETATM    1  C   UNL     1      -6.247   0.694 -33.250  1.00  0.00     0.118 C 
HETATM    2  N   UNL     1      -5.583   1.950 -33.596  1.00  0.00    -0.366 N 
HETATM    3  C   UNL     1      -4.539   2.438 -32.899  1.00  0.00     0.123 A 
HETATM    4  N   UNL     1      -3.943   1.708 -31.912  1.00  0.00    -0.240 N 
HETATM    5  N   UNL     1      -3.025   2.388 -31.202  1.00  0.00    -0.165 NA
HETATM    6  C   UNL     1      -2.932   3.565 -31.867  1.00  0.00     0.148 A 
HETATM    7  C   UNL     1      -3.860   3.625 -32.945  1.00  0.00     0.089 A 
HETATM    8  C   UNL     1      -4.344   0.357 -31.576  1.00  0.00     0.221 C 
HETATM    9  C   UNL     1      -5.849   0.204 -31.841  1.00  0.00     0.066 C 
HETATM   10  H   UNL     1      -6.021   2.486 -34.345  1.00  0.00     0.161 HD
ENDROOT
BRANCH   6  11
HETATM   11  C   UNL     1      -1.993   4.624 -31.459  1.00  0.00     0.276 C 
HETATM   12  N   UNL     1      -2.556   5.478 -30.530  1.00  0.00    -0.322 N 
HETATM   13  H   UNL     1      -3.528   5.264 -30.321  1.00  0.00     0.169 HD
HETATM   14  O   UNL     1      -0.869   4.704 -31.943  1.00  0.00    -0.266 OA
BRANCH  12  15
HETATM   15  C   UNL     1      -1.968   6.581 -29.891  1.00  0.00     0.035 A 
HETATM   16  C   UNL     1      -0.814   6.495 -29.108  1.00  0.00     0.039 A 
HETATM   17  C   UNL     1      -0.284   7.629 -28.465  1.00  0.00    -0.028 A 
HETATM   18  C   UNL     1      -0.919   8.864 -28.648  1.00  0.00     0.010 A 
HETATM   19  C   UNL     1      -2.070   8.959 -29.428  1.00  0.00     0.003 A 
HETATM   20  C   UNL     1      -2.597   7.820 -30.039  1.00  0.00     0.029 A 
BRANCH  17  21
HETATM   21  C   UNL     1       0.958   7.483 -27.612  1.00  0.00     0.147 C 
HETATM   22  C   UNL     1       1.722   8.796 -27.498  1.00  0.00     0.044 C 
BRANCH  21  23
HETATM   23  O   UNL     1       0.617   7.031 -26.302  1.00  0.00    -0.391 OA
HETATM   24  H   UNL     1      -0.319   7.253 -26.163  1.00  0.00     0.210 HD
ENDBRANCH  21  23
ENDBRANCH  17  21
ENDBRANCH  12  15
ENDBRANCH   6  11
BRANCH   8  25
HETATM   25  C   UNL     1      -3.509  -0.636 -32.350  1.00  0.00     0.409 C 
HETATM   26  F   UNL     1      -4.251  -1.631 -32.881  1.00  0.00    -0.169 F 
HETATM   27  F   UNL     1      -2.904  -0.008 -33.395  1.00  0.00    -0.169 F 
HETATM   28  F   UNL     1      -2.523  -1.200 -31.621  1.00  0.00    -0.169 F 
ENDBRANCH   8  25
BRANCH   1  29
HETATM   29  C   UNL     1      -7.751   0.893 -33.349  1.00  0.00    -0.035 A 
HETATM   30  C   UNL     1      -8.282   2.010 -34.005  1.00  0.00     0.010 A 
HETATM   31  C   UNL     1      -9.666   2.191 -34.095  1.00  0.00     0.007 A 
HETATM   32  C   UNL     1     -10.545   1.264 -33.522  1.00  0.00    -0.062 A 
HETATM   33  C   UNL     1     -12.030   1.436 -33.641  1.00  0.00     0.048 C 
HETATM   34  C   UNL     1     -10.020   0.142 -32.876  1.00  0.00     0.007 A 
HETATM   35  C   UNL     1      -8.640  -0.038 -32.784  1.00  0.00     0.010 A 
ENDBRANCH   1  29
TORSDOF 6
ENDMDL
MODEL 10
REMARK VINA RESULT:      -9.0      6.724     10.510
REMARK  6 active torsions:
REMARK  status: ('A' for Active; 'I' for Inactive)
REMARK    1  A    between atoms: C_5  and  C_6 
REMARK    2  A    between atoms: C_11  and  C_12 
REMARK       I    between atoms: C_12  and  N_13 
REMARK    3  A    between atoms: N_13  and  C_14 
REMARK    4  A    between atoms: C_16  and  C_17 
REMARK    5  A    between atoms: C_17  and  O_18 
REMARK    6  A    between atoms: C_25  and  C_26 
ROOT
HETATM    1  C   UNL     1      -6.460   0.372 -33.155  1.00  0.00     0.118 C 
HETATM    2  N   UNL     1      -7.454   0.946 -34.059  1.00  0.00    -0.366 N 
HETATM    3  C   UNL     1      -8.535   1.621 -33.620  1.00  0.00     0.123 A 
HETATM    4  N   UNL     1      -8.686   1.934 -32.300  1.00  0.00    -0.240 N 
HETATM    5  N   UNL     1      -9.885   2.462 -31.994  1.00  0.00    -0.165 NA
HETATM    6  C   UNL     1     -10.469   2.623 -33.206  1.00  0.00     0.148 A 
HETATM    7  C   UNL     1      -9.644   2.116 -34.250  1.00  0.00     0.089 A 
HETATM    8  C   UNL     1      -7.692   1.620 -31.294  1.00  0.00     0.221 C 
HETATM    9  C   UNL     1      -6.968   0.327 -31.696  1.00  0.00     0.066 C 
HETATM   10  H   UNL     1      -7.331   0.724 -35.047  1.00  0.00     0.161 HD
ENDROOT
BRANCH   6  11
HETATM   11  C   UNL     1     -11.806   3.224 -33.358  1.00  0.00     0.276 C 
HETATM   12  N   UNL     1     -12.714   2.684 -32.468  1.00  0.00    -0.322 N 
HETATM   13  H   UNL     1     -12.325   1.940 -31.895  1.00  0.00     0.169 HD
HETATM   14  O   UNL     1     -12.031   4.075 -34.212  1.00  0.00    -0.266 OA
BRANCH  12  15
HETATM   15  C   UNL     1     -14.066   3.018 -32.293  1.00  0.00     0.035 A 
HETATM   16  C   UNL     1     -14.503   4.272 -31.858  1.00  0.00     0.039 A 
HETATM   17  C   UNL     1     -15.871   4.543 -31.672  1.00  0.00    -0.028 A 
HETATM   18  C   UNL     1     -16.801   3.536 -31.960  1.00  0.00     0.010 A 
HETATM   19  C   UNL     1     -16.375   2.283 -32.396  1.00  0.00     0.003 A 
HETATM   20  C   UNL     1     -15.013   2.022 -32.552  1.00  0.00     0.029 A 
BRANCH  17  21
HETATM   21  C   UNL     1     -16.294   5.910 -31.181  1.00  0.00     0.147 C 
HETATM   22  C   UNL     1     -15.230   6.548 -30.297  1.00  0.00     0.044 C 
BRANCH  21  23
HETATM   23  O   UNL     1     -16.562   6.778 -32.282  1.00  0.00    -0.391 OA
HETATM   24  H   UNL     1     -17.489   7.058 -32.200  1.00  0.00     0.210 HD
ENDBRANCH  21  23
ENDBRANCH  17  21
ENDBRANCH  12  15
ENDBRANCH   6  11
BRANCH   8  25
HETATM   25  C   UNL     1      -6.751   2.788 -31.117  1.00  0.00     0.409 C 
HETATM   26  F   UNL     1      -7.139   3.617 -30.124  1.00  0.00    -0.169 F 
HETATM   27  F   UNL     1      -5.515   2.333 -30.777  1.00  0.00    -0.169 F 
HETATM   28  F   UNL     1      -6.591   3.529 -32.234  1.00  0.00    -0.169 F 
ENDBRANCH   8  25
BRANCH   1  29
HETATM   29  C   UNL     1      -6.101  -1.022 -33.645  1.00  0.00    -0.035 A 
HETATM   30  C   UNL     1      -4.787  -1.498 -33.546  1.00  0.00     0.010 A 
HETATM   31  C   UNL     1      -4.459  -2.780 -33.997  1.00  0.00     0.007 A 
HETATM   32  C   UNL     1      -5.435  -3.607 -34.566  1.00  0.00    -0.062 A 
HETATM   33  C   UNL     1      -5.097  -4.994 -35.025  1.00  0.00     0.048 C 
HETATM   34  C   UNL     1      -6.750  -3.141 -34.657  1.00  0.00     0.007 A 
HETATM   35  C   UNL     1      -7.077  -1.861 -34.209  1.00  0.00     0.010 A 
ENDBRANCH   1  29
TORSDOF 6
ENDMDL
