MODEL 1
REMARK VINA RESULT:      -8.6      0.000      0.000
REMARK  4 active torsions:
REMARK  status: ('A' for Active; 'I' for Inactive)
REMARK    1  A    between atoms: C_4  and  C_5 
REMARK    2  A    between atoms: C_5  and  C_6 
REMARK       I    between atoms: C_6  and  N_7 
REMARK    3  A    between atoms: N_7  and  N_8 
REMARK       I    between atoms: N_8  and  C_9 
REMARK    4  A    between atoms: C_9  and  C_10 
ROOT
HETATM    1  N   UNL     1      -7.979   0.021 -34.340  1.00  0.00    -0.263 N 
HETATM    2  C   UNL     1      -6.654   0.417 -34.331  1.00  0.00     0.272 C 
HETATM    3  O   UNL     1      -6.332   1.576 -34.591  1.00  0.00    -0.266 OA
HETATM    4  H   UNL     1      -8.271  -0.945 -34.226  1.00  0.00     0.190 HD
ENDROOT
BRANCH   1   5
HETATM    5  N   UNL     1      -8.949   0.906 -34.829  1.00  0.00    -0.267 N 
HETATM    6  C   UNL     1     -10.081   1.105 -34.068  1.00  0.00     0.240 C 
HETATM    7  O   UNL     1     -10.193   0.644 -32.930  1.00  0.00    -0.271 OA
HETATM    8  H   UNL     1      -8.881   1.166 -35.813  1.00  0.00     0.190 HD
BRANCH   6   9
HETATM    9  C   UNL     1     -11.216   1.833 -34.761  1.00  0.00     0.150 C 
BRANCH   9  10
HETATM   10  C   UNL     1     -12.542   1.538 -34.129  1.00  0.00    -0.008 A 
HETATM   11  S   UNL     1     -13.280   2.692 -33.102  1.00  0.00    -0.099 SA
HETATM   12  C   UNL     1     -14.660   1.711 -32.870  1.00  0.00    -0.021 A 
HETATM   13  C   UNL     1     -15.786   2.181 -32.014  1.00  0.00     0.056 C 
HETATM   14  C   UNL     1     -14.550   0.514 -33.547  1.00  0.00     0.015 A 
HETATM   15  C   UNL     1     -13.331   0.416 -34.276  1.00  0.00     0.016 A 
ENDBRANCH   9  10
ENDBRANCH   6   9
ENDBRANCH   1   5
BRANCH   2  16
HETATM   16  C   UNL     1      -5.687  -0.632 -34.007  1.00  0.00     0.061 A 
HETATM   17  C   UNL     1      -5.793  -2.028 -34.335  1.00  0.00     0.008 A 
HETATM   18  C   UNL     1      -4.667  -2.676 -33.822  1.00  0.00     0.043 A 
HETATM   19  C   UNL     1      -6.746  -2.807 -35.028  1.00  0.00     0.015 A 
HETATM   20  C   UNL     1      -4.450  -4.051 -33.961  1.00  0.00     0.030 A 
HETATM   21  N   UNL     1      -3.900  -1.719 -33.204  1.00  0.00    -0.364 N 
HETATM   22  C   UNL     1      -5.410  -4.795 -34.651  1.00  0.00     0.002 A 
HETATM   23  C   UNL     1      -6.543  -4.184 -35.180  1.00  0.00     0.001 A 
HETATM   24  H   UNL     1      -3.024  -1.906 -32.736  1.00  0.00     0.165 HD
HETATM   25  C   UNL     1      -4.496  -0.490 -33.308  1.00  0.00     0.106 A 
ENDBRANCH   2  16
TORSDOF 4
ENDMDL
MODEL 2
REMARK VINA RESULT:      -8.1      1.753      2.418
REMARK  4 active torsions:
REMARK  status: ('A' for Active; 'I' for Inactive)
REMARK    1  A    between atoms: C_4  and  C_5 
REMARK    2  A    between atoms: C_5  and  C_6 
REMARK       I    between atoms: C_6  and  N_7 
REMARK    3  A    between atoms: N_7  and  N_8 
REMARK       I    between atoms: N_8  and  C_9 
REMARK    4  A    between atoms: C_9  and  C_10 
ROOT
HETATM    1  N   UNL     1      -7.746   0.426 -33.476  1.00  0.00    -0.263 N 
HETATM    2  C   UNL     1      -6.917   0.038 -34.512  1.00  0.00     0.272 C 
HETATM    3  O   UNL     1      -7.122   0.408 -35.668  1.00  0.00    -0.266 OA
HETATM    4  H   UNL     1      -7.663   0.062 -32.531  1.00  0.00     0.190 HD
ENDROOT
BRANCH   1   5
HETATM    5  N   UNL     1      -8.936   1.102 -33.776  1.00  0.00    -0.267 N 
HETATM    6  C   UNL     1     -10.114   0.584 -33.280  1.00  0.00     0.240 C 
HETATM    7  O   UNL     1     -10.129  -0.354 -32.479  1.00  0.00    -0.271 OA
HETATM    8  H   UNL     1      -8.899   1.787 -34.531  1.00  0.00     0.190 HD
BRANCH   6   9
HETATM    9  C   UNL     1     -11.384   1.171 -33.863  1.00  0.00     0.150 C 
BRANCH   9  10
HETATM   10  C   UNL     1     -11.315   2.664 -33.970  1.00  0.00    -0.008 A 
HETATM   11  S   UNL     1     -11.282   3.627 -32.554  1.00  0.00    -0.099 SA
HETATM   12  C   UNL     1     -11.145   5.074 -33.453  1.00  0.00    -0.021 A 
HETATM   13  C   UNL     1     -11.051   6.389 -32.758  1.00  0.00     0.056 C 
HETATM   14  C   UNL     1     -11.145   4.829 -34.811  1.00  0.00     0.015 A 
HETATM   15  C   UNL     1     -11.239   3.439 -35.109  1.00  0.00     0.016 A 
ENDBRANCH   9  10
ENDBRANCH   6   9
ENDBRANCH   1   5
BRANCH   2  16
HETATM   16  C   UNL     1      -5.809  -0.840 -34.135  1.00  0.00     0.061 A 
HETATM   17  C   UNL     1      -5.726  -2.259 -34.354  1.00  0.00     0.008 A 
HETATM   18  C   UNL     1      -4.513  -2.704 -33.823  1.00  0.00     0.043 A 
HETATM   19  C   UNL     1      -6.571  -3.212 -34.962  1.00  0.00     0.015 A 
HETATM   20  C   UNL     1      -4.109  -4.044 -33.863  1.00  0.00     0.030 A 
HETATM   21  N   UNL     1      -3.877  -1.606 -33.298  1.00  0.00    -0.364 N 
HETATM   22  C   UNL     1      -4.968  -4.963 -34.471  1.00  0.00     0.002 A 
HETATM   23  C   UNL     1      -6.182  -4.556 -35.015  1.00  0.00     0.001 A 
HETATM   24  H   UNL     1      -2.976  -1.635 -32.840  1.00  0.00     0.165 HD
HETATM   25  C   UNL     1      -4.638  -0.482 -33.479  1.00  0.00     0.106 A 
ENDBRANCH   2  16
TORSDOF 4
ENDMDL
MODEL 3
REMARK VINA RESULT:      -8.0      6.409      9.482
REMARK  4 active torsions:
REMARK  status: ('A' for Active; 'I' for Inactive)
REMARK    1  A    between atoms: C_4  and  C_5 
REMARK    2  A    between atoms: C_5  and  C_6 
REMARK       I    between atoms: C_6  and  N_7 
REMARK    3  A    between atoms: N_7  and  N_8 
REMARK       I    between atoms: N_8  and  C_9 
REMARK    4  A    between atoms: C_9  and  C_10 
ROOT
HETATM    1  N   UNL     1      -3.763   3.014 -31.441  1.00  0.00    -0.263 N 
HETATM    2  C   UNL     1      -3.802   1.631 -31.455  1.00  0.00     0.272 C 
HETATM    3  O   UNL     1      -2.825   0.960 -31.125  1.00  0.00    -0.266 OA
HETATM    4  H   UNL     1      -4.516   3.594 -31.799  1.00  0.00     0.190 HD
ENDROOT
BRANCH   1   5
HETATM    5  N   UNL     1      -2.538   3.655 -31.221  1.00  0.00    -0.267 N 
HETATM    6  C   UNL     1      -2.176   4.668 -32.084  1.00  0.00     0.240 C 
HETATM    7  O   UNL     1      -2.951   5.108 -32.936  1.00  0.00    -0.271 OA
HETATM    8  H   UNL     1      -1.879   3.189 -30.595  1.00  0.00     0.190 HD
BRANCH   6   9
HETATM    9  C   UNL     1      -0.735   5.128 -31.985  1.00  0.00     0.150 C 
BRANCH   9  10
HETATM   10  C   UNL     1      -0.501   5.987 -30.781  1.00  0.00    -0.008 A 
HETATM   11  S   UNL     1       0.476   5.418 -29.495  1.00  0.00    -0.099 SA
HETATM   12  C   UNL     1       0.311   6.880 -28.625  1.00  0.00    -0.021 A 
HETATM   13  C   UNL     1       0.988   7.057 -27.310  1.00  0.00     0.056 C 
HETATM   14  C   UNL     1      -0.494   7.779 -29.294  1.00  0.00     0.015 A 
HETATM   15  C   UNL     1      -0.959   7.266 -30.538  1.00  0.00     0.016 A 
ENDBRANCH   9  10
ENDBRANCH   6   9
ENDBRANCH   1   5
BRANCH   2  16
HETATM   16  C   UNL     1      -5.067   1.043 -31.898  1.00  0.00     0.061 A 
HETATM   17  C   UNL     1      -5.227  -0.099 -32.757  1.00  0.00     0.008 A 
HETATM   18  C   UNL     1      -6.596  -0.308 -32.941  1.00  0.00     0.043 A 
HETATM   19  C   UNL     1      -4.332  -0.983 -33.398  1.00  0.00     0.015 A 
HETATM   20  C   UNL     1      -7.111  -1.343 -33.730  1.00  0.00     0.030 A 
HETATM   21  N   UNL     1      -7.251   0.665 -32.225  1.00  0.00    -0.364 N 
HETATM   22  C   UNL     1      -6.199  -2.201 -34.351  1.00  0.00     0.002 A 
HETATM   23  C   UNL     1      -4.828  -2.027 -34.188  1.00  0.00     0.001 A 
HETATM   24  H   UNL     1      -8.256   0.760 -32.182  1.00  0.00     0.165 HD
HETATM   25  C   UNL     1      -6.349   1.479 -31.593  1.00  0.00     0.106 A 
ENDBRANCH   2  16
TORSDOF 4
ENDMDL
MODEL 4
REMARK VINA RESULT:      -7.9      6.148      9.057
REMARK  4 active torsions:
REMARK  status: ('A' for Active; 'I' for Inactive)
REMARK    1  A    between atoms: C_4  and  C_5 
REMARK    2  A    between atoms: C_5  and  C_6 
REMARK       I    between atoms: C_6  and  N_7 
REMARK    3  A    between atoms: N_7  and  N_8 
REMARK       I    between atoms: N_8  and  C_9 
REMARK    4  A    between atoms: C_9  and  C_10 
ROOT
HETATM    1  N   UNL     1      -3.313   2.712 -31.480  1.00  0.00    -0.263 N 
HETATM    2  C   UNL     1      -4.351   1.800 -31.412  1.00  0.00     0.272 C 
HETATM    3  O   UNL     1      -5.460   2.124 -30.987  1.00  0.00    -0.266 OA
HETATM    4  H   UNL     1      -2.364   2.455 -31.733  1.00  0.00     0.190 HD
ENDROOT
BRANCH   1   5
HETATM    5  N   UNL     1      -3.477   3.971 -30.889  1.00  0.00    -0.267 N 
HETATM    6  C   UNL     1      -3.415   5.080 -31.707  1.00  0.00     0.240 C 
HETATM    7  O   UNL     1      -3.364   4.983 -32.936  1.00  0.00    -0.271 OA
HETATM    8  H   UNL     1      -3.393   4.018 -29.873  1.00  0.00     0.190 HD
BRANCH   6   9
HETATM    9  C   UNL     1      -3.308   6.413 -30.995  1.00  0.00     0.150 C 
BRANCH   9  10
HETATM   10  C   UNL     1      -1.898   6.725 -30.596  1.00  0.00    -0.008 A 
HETATM   11  S   UNL     1      -1.576   7.494 -29.101  1.00  0.00    -0.099 SA
HETATM   12  C   UNL     1       0.113   7.435 -29.350  1.00  0.00    -0.021 A 
HETATM   13  C   UNL     1       1.047   7.977 -28.322  1.00  0.00     0.056 C 
HETATM   14  C   UNL     1       0.427   6.858 -30.563  1.00  0.00     0.015 A 
HETATM   15  C   UNL     1      -0.732   6.445 -31.280  1.00  0.00     0.016 A 
ENDBRANCH   9  10
ENDBRANCH   6   9
ENDBRANCH   1   5
BRANCH   2  16
HETATM   16  C   UNL     1      -4.028   0.446 -31.863  1.00  0.00     0.061 A 
HETATM   17  C   UNL     1      -4.736  -0.320 -32.855  1.00  0.00     0.008 A 
HETATM   18  C   UNL     1      -4.108  -1.562 -32.964  1.00  0.00     0.043 A 
HETATM   19  C   UNL     1      -5.857  -0.070 -33.676  1.00  0.00     0.015 A 
HETATM   20  C   UNL     1      -4.543  -2.562 -33.842  1.00  0.00     0.030 A 
HETATM   21  N   UNL     1      -3.059  -1.563 -32.078  1.00  0.00    -0.364 N 
HETATM   22  C   UNL     1      -5.655  -2.284 -34.642  1.00  0.00     0.002 A 
HETATM   23  C   UNL     1      -6.304  -1.056 -34.563  1.00  0.00     0.001 A 
HETATM   24  H   UNL     1      -2.430  -2.342 -31.940  1.00  0.00     0.165 HD
HETATM   25  C   UNL     1      -2.996  -0.366 -31.414  1.00  0.00     0.106 A 
ENDBRANCH   2  16
TORSDOF 4
ENDMDL
MODEL 5
REMARK VINA RESULT:      -7.9      5.533      7.525
REMARK  4 active torsions:
REMARK  status: ('A' for Active; 'I' for Inactive)
REMARK    1  A    between atoms: C_4  and  C_5 
REMARK    2  A    between atoms: C_5  and  C_6 
REMARK       I    between atoms: C_6  and  N_7 
REMARK    3  A    between atoms: N_7  and  N_8 
REMARK       I    between atoms: N_8  and  C_9 
REMARK    4  A    between atoms: C_9  and  C_10 
ROOT
HETATM    1  N   UNL     1      -4.683   0.319 -31.102  1.00  0.00    -0.263 N 
HETATM    2  C   UNL     1      -3.481  -0.319 -31.352  1.00  0.00     0.272 C 
HETATM    3  O   UNL     1      -2.409   0.183 -31.013  1.00  0.00    -0.266 OA
HETATM    4  H   UNL     1      -5.575  -0.020 -31.453  1.00  0.00     0.190 HD
ENDROOT
BRANCH   1   5
HETATM    5  N   UNL     1      -4.666   1.634 -30.620  1.00  0.00    -0.267 N 
HETATM    6  C   UNL     1      -5.164   2.626 -31.438  1.00  0.00     0.240 C 
HETATM    7  O   UNL     1      -5.741   2.371 -32.498  1.00  0.00    -0.271 OA
HETATM    8  H   UNL     1      -4.077   1.819 -29.807  1.00  0.00     0.190 HD
BRANCH   6   9
HETATM    9  C   UNL     1      -4.862   4.046 -31.001  1.00  0.00     0.150 C 
BRANCH   9  10
HETATM   10  C   UNL     1      -3.581   4.554 -31.589  1.00  0.00    -0.008 A 
HETATM   11  S   UNL     1      -2.841   5.961 -30.953  1.00  0.00    -0.099 SA
HETATM   12  C   UNL     1      -1.518   5.840 -32.027  1.00  0.00    -0.021 A 
HETATM   13  C   UNL     1      -0.413   6.839 -31.980  1.00  0.00     0.056 C 
HETATM   14  C   UNL     1      -1.648   4.756 -32.871  1.00  0.00     0.015 A 
HETATM   15  C   UNL     1      -2.835   4.012 -32.616  1.00  0.00     0.016 A 
ENDBRANCH   9  10
ENDBRANCH   6   9
ENDBRANCH   1   5
BRANCH   2  16
HETATM   16  C   UNL     1      -3.583  -1.602 -32.047  1.00  0.00     0.061 A 
HETATM   17  C   UNL     1      -4.481  -1.926 -33.123  1.00  0.00     0.008 A 
HETATM   18  C   UNL     1      -4.262  -3.259 -33.476  1.00  0.00     0.043 A 
HETATM   19  C   UNL     1      -5.464  -1.206 -33.835  1.00  0.00     0.015 A 
HETATM   20  C   UNL     1      -4.973  -3.905 -34.494  1.00  0.00     0.030 A 
HETATM   21  N   UNL     1      -3.271  -3.736 -32.653  1.00  0.00    -0.364 N 
HETATM   22  C   UNL     1      -5.939  -3.166 -35.181  1.00  0.00     0.002 A 
HETATM   23  C   UNL     1      -6.183  -1.834 -34.859  1.00  0.00     0.001 A 
HETATM   24  H   UNL     1      -2.911  -4.681 -32.683  1.00  0.00     0.165 HD
HETATM   25  C   UNL     1      -2.852  -2.755 -31.794  1.00  0.00     0.106 A 
ENDBRANCH   2  16
TORSDOF 4
ENDMDL
MODEL 6
REMARK VINA RESULT:      -7.8      5.882      8.954
REMARK  4 active torsions:
REMARK  status: ('A' for Active; 'I' for Inactive)
REMARK    1  A    between atoms: C_4  and  C_5 
REMARK    2  A    between atoms: C_5  and  C_6 
REMARK       I    between atoms: C_6  and  N_7 
REMARK    3  A    between atoms: N_7  and  N_8 
REMARK       I    between atoms: N_8  and  C_9 
REMARK    4  A    between atoms: C_9  and  C_10 
ROOT
HETATM    1  N   UNL     1      -3.845   2.852 -32.527  1.00  0.00    -0.263 N 
HETATM    2  C   UNL     1      -3.913   1.553 -32.056  1.00  0.00     0.272 C 
HETATM    3  O   UNL     1      -3.007   1.072 -31.376  1.00  0.00    -0.266 OA
HETATM    4  H   UNL     1      -4.526   3.246 -33.170  1.00  0.00     0.190 HD
ENDROOT
BRANCH   1   5
HETATM    5  N   UNL     1      -2.649   3.566 -32.378  1.00  0.00    -0.267 N 
HETATM    6  C   UNL     1      -2.481   4.706 -33.135  1.00  0.00     0.240 C 
HETATM    7  O   UNL     1      -3.395   5.180 -33.814  1.00  0.00    -0.271 OA
HETATM    8  H   UNL     1      -1.880   3.084 -31.911  1.00  0.00     0.190 HD
BRANCH   6   9
HETATM    9  C   UNL     1      -1.076   5.275 -33.157  1.00  0.00     0.150 C 
BRANCH   9  10
HETATM   10  C   UNL     1      -0.727   5.959 -31.871  1.00  0.00    -0.008 A 
HETATM   11  S   UNL     1      -1.653   7.293 -31.327  1.00  0.00    -0.099 SA
HETATM   12  C   UNL     1      -0.734   7.439 -29.893  1.00  0.00    -0.021 A 
HETATM   13  C   UNL     1      -1.062   8.492 -28.891  1.00  0.00     0.056 C 
HETATM   14  C   UNL     1       0.275   6.501 -29.840  1.00  0.00     0.015 A 
HETATM   15  C   UNL     1       0.278   5.645 -30.979  1.00  0.00     0.016 A 
ENDBRANCH   9  10
ENDBRANCH   6   9
ENDBRANCH   1   5
BRANCH   2  16
HETATM   16  C   UNL     1      -5.115   0.809 -32.435  1.00  0.00     0.061 A 
HETATM   17  C   UNL     1      -5.162  -0.434 -33.157  1.00  0.00     0.008 A 
HETATM   18  C   UNL     1      -6.505  -0.781 -33.323  1.00  0.00     0.043 A 
HETATM   19  C   UNL     1      -4.184  -1.304 -33.684  1.00  0.00     0.015 A 
HETATM   20  C   UNL     1      -6.916  -1.942 -33.989  1.00  0.00     0.030 A 
HETATM   21  N   UNL     1      -7.253   0.206 -32.730  1.00  0.00    -0.364 N 
HETATM   22  C   UNL     1      -5.923  -2.783 -34.500  1.00  0.00     0.002 A 
HETATM   23  C   UNL     1      -4.575  -2.472 -34.351  1.00  0.00     0.001 A 
HETATM   24  H   UNL     1      -8.263   0.218 -32.703  1.00  0.00     0.165 HD
HETATM   25  C   UNL     1      -6.435   1.164 -32.191  1.00  0.00     0.106 A 
ENDBRANCH   2  16
TORSDOF 4
ENDMDL
MODEL 7
REMARK VINA RESULT:      -7.6      2.113      2.751
REMARK  4 active torsions:
REMARK  status: ('A' for Active; 'I' for Inactive)
REMARK    1  A    between atoms: C_4  and  C_5 
REMARK    2  A    between atoms: C_5  and  C_6 
REMARK       I    between atoms: C_6  and  N_7 
REMARK    3  A    between atoms: N_7  and  N_8 
REMARK       I    between atoms: N_8  and  C_9 
REMARK    4  A    between atoms: C_9  and  C_10 
ROOT
HETATM    1  N   UNL     1      -6.127   1.354 -33.970  1.00  0.00    -0.263 N 
HETATM    2  C   UNL     1      -6.599   0.063 -33.810  1.00  0.00     0.272 C 
HETATM    3  O   UNL     1      -7.806  -0.174 -33.751  1.00  0.00    -0.266 OA
HETATM    4  H   UNL     1      -5.142   1.594 -33.925  1.00  0.00     0.190 HD
ENDROOT
BRANCH   1   5
HETATM    5  N   UNL     1      -7.030   2.422 -33.881  1.00  0.00    -0.267 N 
HETATM    6  C   UNL     1      -7.179   3.039 -32.657  1.00  0.00     0.240 C 
HETATM    7  O   UNL     1      -6.450   2.774 -31.698  1.00  0.00    -0.271 OA
HETATM    8  H   UNL     1      -7.695   2.528 -34.648  1.00  0.00     0.190 HD
BRANCH   6   9
HETATM    9  C   UNL     1      -8.360   3.982 -32.539  1.00  0.00     0.150 C 
BRANCH   9  10
HETATM   10  C   UNL     1      -9.595   3.415 -33.170  1.00  0.00    -0.008 A 
HETATM   11  S   UNL     1     -10.238   4.124 -34.591  1.00  0.00    -0.099 SA
HETATM   12  C   UNL     1     -11.484   2.960 -34.696  1.00  0.00    -0.021 A 
HETATM   13  C   UNL     1     -12.470   3.007 -35.813  1.00  0.00     0.056 C 
HETATM   14  C   UNL     1     -11.425   2.058 -33.653  1.00  0.00     0.015 A 
HETATM   15  C   UNL     1     -10.334   2.318 -32.776  1.00  0.00     0.016 A 
ENDBRANCH   9  10
ENDBRANCH   6   9
ENDBRANCH   1   5
BRANCH   2  16
HETATM   16  C   UNL     1      -5.571  -0.973 -33.707  1.00  0.00     0.061 A 
HETATM   17  C   UNL     1      -5.685  -2.340 -34.143  1.00  0.00     0.008 A 
HETATM   18  C   UNL     1      -4.485  -2.986 -33.837  1.00  0.00     0.043 A 
HETATM   19  C   UNL     1      -6.699  -3.091 -34.774  1.00  0.00     0.015 A 
HETATM   20  C   UNL     1      -4.253  -4.337 -34.124  1.00  0.00     0.030 A 
HETATM   21  N   UNL     1      -3.668  -2.059 -33.239  1.00  0.00    -0.364 N 
HETATM   22  C   UNL     1      -5.276  -5.053 -34.750  1.00  0.00     0.002 A 
HETATM   23  C   UNL     1      -6.484  -4.441 -35.073  1.00  0.00     0.001 A 
HETATM   24  H   UNL     1      -2.734  -2.253 -32.906  1.00  0.00     0.165 HD
HETATM   25  C   UNL     1      -4.303  -0.847 -33.157  1.00  0.00     0.106 A 
ENDBRANCH   2  16
TORSDOF 4
ENDMDL
MODEL 8
REMARK VINA RESULT:      -7.5      5.601      8.328
REMARK  4 active torsions:
REMARK  status: ('A' for Active; 'I' for Inactive)
REMARK    1  A    between atoms: C_4  and  C_5 
REMARK    2  A    between atoms: C_5  and  C_6 
REMARK       I    between atoms: C_6  and  N_7 
REMARK    3  A    between atoms: N_7  and  N_8 
REMARK       I    between atoms: N_8  and  C_9 
REMARK    4  A    between atoms: C_9  and  C_10 
ROOT
HETATM    1  N   UNL     1      -4.684   3.424 -32.865  1.00  0.00    -0.263 N 
HETATM    2  C   UNL     1      -4.563   4.476 -33.756  1.00  0.00     0.272 C 
HETATM    3  O   UNL     1      -5.505   4.820 -34.470  1.00  0.00    -0.266 OA
HETATM    4  H   UNL     1      -3.902   3.054 -32.334  1.00  0.00     0.190 HD
ENDROOT
BRANCH   1   5
HETATM    5  N   UNL     1      -5.836   2.628 -32.908  1.00  0.00    -0.267 N 
HETATM    6  C   UNL     1      -6.124   1.852 -31.806  1.00  0.00     0.240 C 
HETATM    7  O   UNL     1      -5.488   1.949 -30.754  1.00  0.00    -0.271 OA
HETATM    8  H   UNL     1      -6.260   2.481 -33.825  1.00  0.00     0.190 HD
BRANCH   6   9
HETATM    9  C   UNL     1      -7.201   0.804 -32.007  1.00  0.00     0.150 C 
BRANCH   9  10
HETATM   10  C   UNL     1      -6.771  -0.267 -32.963  1.00  0.00    -0.008 A 
HETATM   11  S   UNL     1      -5.219  -0.977 -32.817  1.00  0.00    -0.099 SA
HETATM   12  C   UNL     1      -5.508  -2.050 -34.115  1.00  0.00    -0.021 A 
HETATM   13  C   UNL     1      -4.467  -3.033 -34.529  1.00  0.00     0.056 C 
HETATM   14  C   UNL     1      -6.758  -1.856 -34.665  1.00  0.00     0.015 A 
HETATM   15  C   UNL     1      -7.488  -0.830 -33.998  1.00  0.00     0.016 A 
ENDBRANCH   9  10
ENDBRANCH   6   9
ENDBRANCH   1   5
BRANCH   2  16
HETATM   16  C   UNL     1      -3.251   5.123 -33.789  1.00  0.00     0.061 A 
HETATM   17  C   UNL     1      -2.596   5.790 -32.696  1.00  0.00     0.008 A 
HETATM   18  C   UNL     1      -1.376   6.282 -33.164  1.00  0.00     0.043 A 
HETATM   19  C   UNL     1      -2.927   6.021 -31.343  1.00  0.00     0.015 A 
HETATM   20  C   UNL     1      -0.479   6.991 -32.357  1.00  0.00     0.030 A 
HETATM   21  N   UNL     1      -1.283   5.933 -34.490  1.00  0.00    -0.364 N 
HETATM   22  C   UNL     1      -0.835   7.203 -31.022  1.00  0.00     0.002 A 
HETATM   23  C   UNL     1      -2.041   6.725 -30.519  1.00  0.00     0.001 A 
HETATM   24  H   UNL     1      -0.502   6.166 -35.087  1.00  0.00     0.165 HD
HETATM   25  C   UNL     1      -2.397   5.236 -34.878  1.00  0.00     0.106 A 
ENDBRANCH   2  16
TORSDOF 4
ENDMDL
MODEL 9
REMARK VINA RESULT:      -7.4      9.523     12.138
REMARK  4 active torsions:
REMARK  status: ('A' for Active; 'I' for Inactive)
REMARK    1  A    between atoms: C_4  and  C_5 
REMARK    2  A    between atoms: C_5  and  C_6 
REMARK       I    between atoms: C_6  and  N_7 
REMARK    3  A    between atoms: N_7  and  N_8 
REMARK       I    between atoms: N_8  and  C_9 
REMARK    4  A    between atoms: C_9  and  C_10 
ROOT
HETATM    1  N   UNL     1      -0.363   7.176 -31.400  1.00  0.00    -0.263 N 
HETATM    2  C   UNL     1      -1.257   7.102 -30.347  1.00  0.00     0.272 C 
HETATM    3  O   UNL     1      -2.042   6.159 -30.241  1.00  0.00    -0.266 OA
HETATM    4  H   UNL     1       0.229   7.984 -31.570  1.00  0.00     0.190 HD
ENDROOT
BRANCH   1   5
HETATM    5  N   UNL     1      -0.478   6.260 -32.454  1.00  0.00    -0.267 N 
HETATM    6  C   UNL     1      -1.148   6.665 -33.589  1.00  0.00     0.240 C 
HETATM    7  O   UNL     1      -1.514   7.832 -33.751  1.00  0.00    -0.271 OA
HETATM    8  H   UNL     1      -0.278   5.283 -32.238  1.00  0.00     0.190 HD
BRANCH   6   9
HETATM    9  C   UNL     1      -1.497   5.563 -34.570  1.00  0.00     0.150 C 
BRANCH   9  10
HETATM   10  C   UNL     1      -2.860   4.996 -34.316  1.00  0.00    -0.008 A 
HETATM   11  S   UNL     1      -3.133   3.989 -32.958  1.00  0.00    -0.099 SA
HETATM   12  C   UNL     1      -4.796   3.832 -33.318  1.00  0.00    -0.021 A 
HETATM   13  C   UNL     1      -5.686   3.023 -32.437  1.00  0.00     0.056 C 
HETATM   14  C   UNL     1      -5.134   4.518 -34.466  1.00  0.00     0.015 A 
HETATM   15  C   UNL     1      -4.018   5.192 -35.040  1.00  0.00     0.016 A 
ENDBRANCH   9  10
ENDBRANCH   6   9
ENDBRANCH   1   5
BRANCH   2  16
HETATM   16  C   UNL     1      -1.205   8.214 -29.398  1.00  0.00     0.061 A 
HETATM   17  C   UNL     1      -0.202   8.436 -28.391  1.00  0.00     0.008 A 
HETATM   18  C   UNL     1      -0.544   9.597 -27.695  1.00  0.00     0.043 A 
HETATM   19  C   UNL     1       0.974   7.756 -28.006  1.00  0.00     0.015 A 
HETATM   20  C   UNL     1       0.220  10.106 -26.638  1.00  0.00     0.030 A 
HETATM   21  N   UNL     1      -1.709  10.070 -28.249  1.00  0.00    -0.364 N 
HETATM   22  C   UNL     1       1.378   9.411 -26.281  1.00  0.00     0.002 A 
HETATM   23  C   UNL     1       1.754   8.252 -26.954  1.00  0.00     0.001 A 
HETATM   24  H   UNL     1      -2.192  10.901 -27.936  1.00  0.00     0.165 HD
HETATM   25  C   UNL     1      -2.115   9.255 -29.272  1.00  0.00     0.106 A 
ENDBRANCH   2  16
TORSDOF 4
ENDMDL
MODEL 10
REMARK VINA RESULT:      -7.4     14.007     15.358
REMARK  4 active torsions:
REMARK  status: ('A' for Active; 'I' for Inactive)
REMARK    1  A    between atoms: C_4  and  C_5 
REMARK    2  A    between atoms: C_5  and  C_6 
REMARK       I    between atoms: C_6  and  N_7 
REMARK    3  A    between atoms: N_7  and  N_8 
REMARK       I    between atoms: N_8  and  C_9 
REMARK    4  A    between atoms: C_9  and  C_10 
ROOT
HETATM    1  N   UNL     1      -3.591 -13.605 -39.079  1.00  0.00    -0.263 N 
HETATM    2  C   UNL     1      -2.663 -12.950 -38.290  1.00  0.00     0.272 C 
HETATM    3  O   UNL     1      -2.653 -11.723 -38.199  1.00  0.00    -0.266 OA
HETATM    4  H   UNL     1      -3.566 -14.605 -39.252  1.00  0.00     0.190 HD
ENDROOT
BRANCH   1   5
HETATM    5  N   UNL     1      -4.413 -12.850 -39.927  1.00  0.00    -0.267 N 
HETATM    6  C   UNL     1      -5.672 -12.516 -39.474  1.00  0.00     0.240 C 
HETATM    7  O   UNL     1      -6.028 -12.737 -38.314  1.00  0.00    -0.271 OA
HETATM    8  H   UNL     1      -4.136 -12.796 -40.908  1.00  0.00     0.190 HD
BRANCH   6   9
HETATM    9  C   UNL     1      -6.617 -11.960 -40.520  1.00  0.00     0.150 C 
BRANCH   9  10
HETATM   10  C   UNL     1      -7.957 -12.629 -40.478  1.00  0.00    -0.008 A 
HETATM   11  S   UNL     1      -8.086 -14.315 -40.746  1.00  0.00    -0.099 SA
HETATM   12  C   UNL     1      -9.774 -14.302 -40.486  1.00  0.00    -0.021 A 
HETATM   13  C   UNL     1     -10.561 -15.565 -40.566  1.00  0.00     0.056 C 
HETATM   14  C   UNL     1     -10.236 -13.030 -40.219  1.00  0.00     0.015 A 
HETATM   15  C   UNL     1      -9.188 -12.065 -40.211  1.00  0.00     0.016 A 
ENDBRANCH   9  10
ENDBRANCH   6   9
ENDBRANCH   1   5
BRANCH   2  16
HETATM   16  C   UNL     1      -1.708 -13.815 -37.596  1.00  0.00     0.061 A 
HETATM   17  C   UNL     1      -0.518 -14.400 -38.155  1.00  0.00     0.008 A 
HETATM   18  C   UNL     1       0.089 -15.168 -37.158  1.00  0.00     0.043 A 
HETATM   19  C   UNL     1       0.104 -14.347 -39.420  1.00  0.00     0.015 A 
HETATM   20  C   UNL     1       1.275 -15.883 -37.363  1.00  0.00     0.030 A 
HETATM   21  N   UNL     1      -0.692 -15.060 -36.034  1.00  0.00    -0.364 N 
HETATM   22  C   UNL     1       1.867 -15.810 -38.627  1.00  0.00     0.002 A 
HETATM   23  C   UNL     1       1.293 -15.052 -39.644  1.00  0.00     0.001 A 
HETATM   24  H   UNL     1      -0.495 -15.520 -35.156  1.00  0.00     0.165 HD
HETATM   25  C   UNL     1      -1.771 -14.251 -36.279  1.00  0.00     0.106 A 
ENDBRANCH   2  16
TORSDOF 4
ENDMDL
