MODEL 1
REMARK VINA RESULT:      -8.2      0.000      0.000
REMARK  7 active torsions:
REMARK  status: ('A' for Active; 'I' for Inactive)
REMARK    1  A    between atoms: S_2  and  C_3 
REMARK    2  A    between atoms: C_3  and  C_4 
REMARK    3  A    between atoms: C_4  and  C_5 
REMARK    4  A    between atoms: C_5  and  N_6 
REMARK    5  A    between atoms: C_5  and  C_10 
REMARK       I    between atoms: N_6  and  C_7 
REMARK       I    between atoms: C_7  and  N_8 
REMARK       I    between atoms: C_10  and  N_11 
REMARK    6  A    between atoms: N_11  and  N_12 
REMARK       I    between atoms: N_12  and  C_13 
REMARK    7  A    between atoms: C_13  and  C_14 
ROOT
HETATM    1  C   UNL     1      -2.075   4.621 -31.853  1.00  0.00     0.259 C 
HETATM    2  N   UNL     1      -2.802   3.663 -31.179  1.00  0.00    -0.265 N 
HETATM    3  O   UNL     1      -1.777   4.505 -33.044  1.00  0.00    -0.269 OA
HETATM    4  H   UNL     1      -3.180   3.800 -30.238  1.00  0.00     0.190 HD
ENDROOT
BRANCH   2   5
HETATM    5  N   UNL     1      -3.238   2.542 -31.889  1.00  0.00    -0.263 N 
HETATM    6  C   UNL     1      -4.332   1.820 -31.440  1.00  0.00     0.278 C 
HETATM    7  O   UNL     1      -4.914   2.165 -30.411  1.00  0.00    -0.265 OA
HETATM    8  H   UNL     1      -2.793   2.358 -32.787  1.00  0.00     0.190 HD
BRANCH   6   9
HETATM    9  C   UNL     1      -4.706   0.667 -32.251  1.00  0.00     0.097 A 
HETATM   10  S   UNL     1      -3.519  -0.446 -32.793  1.00  0.00    -0.082 SA
HETATM   11  C   UNL     1      -4.672  -1.458 -33.562  1.00  0.00     0.017 A 
HETATM   12  C   UNL     1      -5.965  -0.949 -33.430  1.00  0.00     0.004 A 
HETATM   13  C   UNL     1      -4.411  -2.658 -34.252  1.00  0.00     0.020 A 
HETATM   14  C   UNL     1      -5.964   0.282 -32.676  1.00  0.00     0.068 A 
HETATM   15  C   UNL     1      -7.024  -1.687 -34.023  1.00  0.00     0.014 A 
HETATM   16 CL   UNL     1      -7.428   1.133 -32.363  1.00  0.00    -0.082 Cl
HETATM   17  C   UNL     1      -6.772  -2.881 -34.706  1.00  0.00     0.001 A 
HETATM   18  C   UNL     1      -5.476  -3.360 -34.818  1.00  0.00     0.001 A 
ENDBRANCH   6   9
ENDBRANCH   2   5
BRANCH   1  19
HETATM   19  C   UNL     1      -1.683   5.846 -31.010  1.00  0.00     0.180 C 
BRANCH  19  20
HETATM   20  C   UNL     1      -0.956   6.917 -31.837  1.00  0.00     0.045 C 
BRANCH  20  21
HETATM   21  C   UNL     1      -1.768   8.149 -32.246  1.00  0.00     0.076 C 
BRANCH  21  22
HETATM   22  S   UNL     1      -2.441   9.060 -30.821  1.00  0.00    -0.173 SA
HETATM   23  C   UNL     1      -4.192   8.657 -31.037  1.00  0.00     0.089 C 
ENDBRANCH  21  22
ENDBRANCH  20  21
ENDBRANCH  19  20
BRANCH  19  24
HETATM   24  N   UNL     1      -0.818   5.341 -29.944  1.00  0.00    -0.330 N 
HETATM   25  C   UNL     1       0.418   4.837 -30.180  1.00  0.00     0.314 C 
HETATM   26  N   UNL     1       1.036   4.421 -29.047  1.00  0.00    -0.352 N 
HETATM   27  O   UNL     1       0.951   4.752 -31.275  1.00  0.00    -0.248 OA
HETATM   28  H   UNL     1       0.867   4.959 -28.210  1.00  0.00     0.160 HD
HETATM   29  H   UNL     1       2.003   4.161 -29.196  1.00  0.00     0.160 HD
HETATM   30  H   UNL     1      -1.243   5.181 -29.039  1.00  0.00     0.165 HD
ENDBRANCH  19  24
ENDBRANCH   1  19
TORSDOF 7
ENDMDL
MODEL 2
REMARK VINA RESULT:      -8.1      1.369      1.686
REMARK  7 active torsions:
REMARK  status: ('A' for Active; 'I' for Inactive)
REMARK    1  A    between atoms: S_2  and  C_3 
REMARK    2  A    between atoms: C_3  and  C_4 
REMARK    3  A    between atoms: C_4  and  C_5 
REMARK    4  A    between atoms: C_5  and  N_6 
REMARK    5  A    between atoms: C_5  and  C_10 
REMARK       I    between atoms: N_6  and  C_7 
REMARK       I    between atoms: C_7  and  N_8 
REMARK       I    between atoms: C_10  and  N_11 
REMARK    6  A    between atoms: N_11  and  N_12 
REMARK       I    between atoms: N_12  and  C_13 
REMARK    7  A    between atoms: C_13  and  C_14 
ROOT
HETATM    1  C   UNL     1      -2.000   4.695 -31.734  1.00  0.00     0.259 C 
HETATM    2  N   UNL     1      -2.739   3.758 -31.044  1.00  0.00    -0.265 N 
HETATM    3  O   UNL     1      -1.730   4.570 -32.931  1.00  0.00    -0.269 OA
HETATM    4  H   UNL     1      -3.093   3.906 -30.095  1.00  0.00     0.190 HD
ENDROOT
BRANCH   2   5
HETATM    5  N   UNL     1      -3.221   2.649 -31.744  1.00  0.00    -0.263 N 
HETATM    6  C   UNL     1      -4.351   1.985 -31.294  1.00  0.00     0.278 C 
HETATM    7  O   UNL     1      -4.924   2.370 -30.275  1.00  0.00    -0.265 OA
HETATM    8  H   UNL     1      -2.779   2.434 -32.636  1.00  0.00     0.190 HD
BRANCH   6   9
HETATM    9  C   UNL     1      -4.772   0.840 -32.094  1.00  0.00     0.097 A 
HETATM   10  S   UNL     1      -6.293   0.835 -32.885  1.00  0.00    -0.082 SA
HETATM   11  C   UNL     1      -6.031  -0.700 -33.602  1.00  0.00     0.017 A 
HETATM   12  C   UNL     1      -4.794  -1.232 -33.231  1.00  0.00     0.004 A 
HETATM   13  C   UNL     1      -6.909  -1.389 -34.462  1.00  0.00     0.020 A 
HETATM   14  C   UNL     1      -4.085  -0.331 -32.355  1.00  0.00     0.068 A 
HETATM   15  C   UNL     1      -4.445  -2.506 -33.753  1.00  0.00     0.014 A 
HETATM   16 CL   UNL     1      -2.528  -0.735 -31.738  1.00  0.00    -0.082 Cl
HETATM   17  C   UNL     1      -5.311  -3.193 -34.609  1.00  0.00     0.001 A 
HETATM   18  C   UNL     1      -6.532  -2.637 -34.960  1.00  0.00     0.001 A 
ENDBRANCH   6   9
ENDBRANCH   2   5
BRANCH   1  19
HETATM   19  C   UNL     1      -1.555   5.908 -30.902  1.00  0.00     0.180 C 
BRANCH  19  20
HETATM   20  C   UNL     1      -0.827   6.964 -31.747  1.00  0.00     0.045 C 
BRANCH  20  21
HETATM   21  C   UNL     1      -1.674   8.109 -32.310  1.00  0.00     0.076 C 
BRANCH  21  22
HETATM   22  S   UNL     1      -3.129   8.485 -31.282  1.00  0.00    -0.173 SA
HETATM   23  C   UNL     1      -2.323   9.506 -30.024  1.00  0.00     0.089 C 
ENDBRANCH  21  22
ENDBRANCH  20  21
ENDBRANCH  19  20
BRANCH  19  24
HETATM   24  N   UNL     1      -0.672   5.382 -29.861  1.00  0.00    -0.330 N 
HETATM   25  C   UNL     1       0.538   4.835 -30.135  1.00  0.00     0.314 C 
HETATM   26  N   UNL     1       1.179   4.405 -29.021  1.00  0.00    -0.352 N 
HETATM   27  O   UNL     1       1.031   4.725 -31.246  1.00  0.00    -0.248 OA
HETATM   28  H   UNL     1       1.057   4.953 -28.182  1.00  0.00     0.160 HD
HETATM   29  H   UNL     1       2.132   4.111 -29.200  1.00  0.00     0.160 HD
HETATM   30  H   UNL     1      -1.071   5.241 -28.941  1.00  0.00     0.165 HD
ENDBRANCH  19  24
ENDBRANCH   1  19
TORSDOF 7
ENDMDL
MODEL 3
REMARK VINA RESULT:      -8.0      2.978      3.843
REMARK  7 active torsions:
REMARK  status: ('A' for Active; 'I' for Inactive)
REMARK    1  A    between atoms: S_2  and  C_3 
REMARK    2  A    between atoms: C_3  and  C_4 
REMARK    3  A    between atoms: C_4  and  C_5 
REMARK    4  A    between atoms: C_5  and  N_6 
REMARK    5  A    between atoms: C_5  and  C_10 
REMARK       I    between atoms: N_6  and  C_7 
REMARK       I    between atoms: C_7  and  N_8 
REMARK       I    between atoms: C_10  and  N_11 
REMARK    6  A    between atoms: N_11  and  N_12 
REMARK       I    between atoms: N_12  and  C_13 
REMARK    7  A    between atoms: C_13  and  C_14 
ROOT
HETATM    1  C   UNL     1      -6.093   3.314 -30.419  1.00  0.00     0.259 C 
HETATM    2  N   UNL     1      -5.159   2.979 -31.376  1.00  0.00    -0.265 N 
HETATM    3  O   UNL     1      -6.916   2.501 -29.989  1.00  0.00    -0.269 OA
HETATM    4  H   UNL     1      -4.383   3.590 -31.644  1.00  0.00     0.190 HD
ENDROOT
BRANCH   2   5
HETATM    5  N   UNL     1      -5.132   1.663 -31.843  1.00  0.00    -0.263 N 
HETATM    6  C   UNL     1      -5.592   1.371 -33.117  1.00  0.00     0.278 C 
HETATM    7  O   UNL     1      -6.030   2.273 -33.833  1.00  0.00    -0.265 OA
HETATM    8  H   UNL     1      -4.665   0.972 -31.259  1.00  0.00     0.190 HD
BRANCH   6   9
HETATM    9  C   UNL     1      -5.522  -0.032 -33.509  1.00  0.00     0.097 A 
HETATM   10  S   UNL     1      -4.108  -0.956 -33.213  1.00  0.00    -0.082 SA
HETATM   11  C   UNL     1      -4.788  -2.394 -33.854  1.00  0.00     0.017 A 
HETATM   12  C   UNL     1      -6.088  -2.180 -34.317  1.00  0.00     0.004 A 
HETATM   13  C   UNL     1      -4.169  -3.656 -33.932  1.00  0.00     0.020 A 
HETATM   14  C   UNL     1      -6.492  -0.809 -34.116  1.00  0.00     0.068 A 
HETATM   15  C   UNL     1      -6.775  -3.289 -34.878  1.00  0.00     0.014 A 
HETATM   16 CL   UNL     1      -8.052  -0.262 -34.599  1.00  0.00    -0.082 Cl
HETATM   17  C   UNL     1      -6.167  -4.546 -34.955  1.00  0.00     0.001 A 
HETATM   18  C   UNL     1      -4.875  -4.726 -34.485  1.00  0.00     0.001 A 
ENDBRANCH   6   9
ENDBRANCH   2   5
BRANCH   1  19
HETATM   19  C   UNL     1      -6.018   4.766 -29.923  1.00  0.00     0.180 C 
BRANCH  19  20
HETATM   20  C   UNL     1      -5.300   5.690 -30.919  1.00  0.00     0.045 C 
BRANCH  20  21
HETATM   21  C   UNL     1      -3.936   6.241 -30.498  1.00  0.00     0.076 C 
BRANCH  21  22
HETATM   22  S   UNL     1      -2.584   5.697 -31.589  1.00  0.00    -0.173 SA
HETATM   23  C   UNL     1      -1.430   7.062 -31.299  1.00  0.00     0.089 C 
ENDBRANCH  21  22
ENDBRANCH  20  21
ENDBRANCH  19  20
BRANCH  19  24
HETATM   24  N   UNL     1      -5.298   4.721 -28.650  1.00  0.00    -0.330 N 
HETATM   25  C   UNL     1      -5.598   5.535 -27.609  1.00  0.00     0.314 C 
HETATM   26  N   UNL     1      -4.796   5.326 -26.536  1.00  0.00    -0.352 N 
HETATM   27  O   UNL     1      -6.484   6.375 -27.599  1.00  0.00    -0.248 OA
HETATM   28  H   UNL     1      -4.508   4.375 -26.359  1.00  0.00     0.160 HD
HETATM   29  H   UNL     1      -5.092   5.838 -25.714  1.00  0.00     0.160 HD
HETATM   30  H   UNL     1      -4.424   4.208 -28.630  1.00  0.00     0.165 HD
ENDBRANCH  19  24
ENDBRANCH   1  19
TORSDOF 7
ENDMDL
MODEL 4
REMARK VINA RESULT:      -8.0      2.349      3.221
REMARK  7 active torsions:
REMARK  status: ('A' for Active; 'I' for Inactive)
REMARK    1  A    between atoms: S_2  and  C_3 
REMARK    2  A    between atoms: C_3  and  C_4 
REMARK    3  A    between atoms: C_4  and  C_5 
REMARK    4  A    between atoms: C_5  and  N_6 
REMARK    5  A    between atoms: C_5  and  C_10 
REMARK       I    between atoms: N_6  and  C_7 
REMARK       I    between atoms: C_7  and  N_8 
REMARK       I    between atoms: C_10  and  N_11 
REMARK    6  A    between atoms: N_11  and  N_12 
REMARK       I    between atoms: N_12  and  C_13 
REMARK    7  A    between atoms: C_13  and  C_14 
ROOT
HETATM    1  C   UNL     1      -3.544   3.639 -31.674  1.00  0.00     0.259 C 
HETATM    2  N   UNL     1      -4.542   3.291 -32.558  1.00  0.00    -0.265 N 
HETATM    3  O   UNL     1      -2.706   2.828 -31.273  1.00  0.00    -0.269 OA
HETATM    4  H   UNL     1      -5.158   3.972 -33.010  1.00  0.00     0.190 HD
ENDROOT
BRANCH   2   5
HETATM    5  N   UNL     1      -4.575   1.979 -33.035  1.00  0.00    -0.263 N 
HETATM    6  C   UNL     1      -5.530   1.094 -32.560  1.00  0.00     0.278 C 
HETATM    7  O   UNL     1      -6.343   1.465 -31.713  1.00  0.00    -0.265 OA
HETATM    8  H   UNL     1      -3.955   1.749 -33.809  1.00  0.00     0.190 HD
BRANCH   6   9
HETATM    9  C   UNL     1      -5.480  -0.252 -33.120  1.00  0.00     0.097 A 
HETATM   10  S   UNL     1      -4.050  -1.192 -33.019  1.00  0.00    -0.082 SA
HETATM   11  C   UNL     1      -4.764  -2.549 -33.786  1.00  0.00     0.017 A 
HETATM   12  C   UNL     1      -6.090  -2.293 -34.144  1.00  0.00     0.004 A 
HETATM   13  C   UNL     1      -4.148  -3.788 -34.050  1.00  0.00     0.020 A 
HETATM   14  C   UNL     1      -6.483  -0.960 -33.757  1.00  0.00     0.068 A 
HETATM   15  C   UNL     1      -6.807  -3.334 -34.791  1.00  0.00     0.014 A 
HETATM   16 CL   UNL     1      -8.070  -0.373 -34.079  1.00  0.00    -0.082 Cl
HETATM   17  C   UNL     1      -6.202  -4.567 -35.053  1.00  0.00     0.001 A 
HETATM   18  C   UNL     1      -4.884  -4.790 -34.684  1.00  0.00     0.001 A 
ENDBRANCH   6   9
ENDBRANCH   2   5
BRANCH   1  19
HETATM   19  C   UNL     1      -3.549   5.115 -31.242  1.00  0.00     0.180 C 
BRANCH  19  20
HETATM   20  C   UNL     1      -2.134   5.710 -31.175  1.00  0.00     0.045 C 
BRANCH  20  21
HETATM   21  C   UNL     1      -1.341   5.768 -32.483  1.00  0.00     0.076 C 
BRANCH  21  22
HETATM   22  S   UNL     1      -2.241   6.614 -33.820  1.00  0.00    -0.173 SA
HETATM   23  C   UNL     1      -2.474   5.205 -34.931  1.00  0.00     0.089 C 
ENDBRANCH  21  22
ENDBRANCH  20  21
ENDBRANCH  19  20
BRANCH  19  24
HETATM   24  N   UNL     1      -4.186   5.148 -29.926  1.00  0.00    -0.330 N 
HETATM   25  C   UNL     1      -5.527   5.047 -29.758  1.00  0.00     0.314 C 
HETATM   26  N   UNL     1      -5.896   5.112 -28.455  1.00  0.00    -0.352 N 
HETATM   27  O   UNL     1      -6.345   4.912 -30.654  1.00  0.00    -0.248 OA
HETATM   28  H   UNL     1      -5.275   4.686 -27.782  1.00  0.00     0.160 HD
HETATM   29  H   UNL     1      -6.878   4.912 -28.311  1.00  0.00     0.160 HD
HETATM   30  H   UNL     1      -3.621   5.459 -29.145  1.00  0.00     0.165 HD
ENDBRANCH  19  24
ENDBRANCH   1  19
TORSDOF 7
ENDMDL
MODEL 5
REMARK VINA RESULT:      -7.8      2.464      3.282
REMARK  7 active torsions:
REMARK  status: ('A' for Active; 'I' for Inactive)
REMARK    1  A    between atoms: S_2  and  C_3 
REMARK    2  A    between atoms: C_3  and  C_4 
REMARK    3  A    between atoms: C_4  and  C_5 
REMARK    4  A    between atoms: C_5  and  N_6 
REMARK    5  A    between atoms: C_5  and  C_10 
REMARK       I    between atoms: N_6  and  C_7 
REMARK       I    between atoms: C_7  and  N_8 
REMARK       I    between atoms: C_10  and  N_11 
REMARK    6  A    between atoms: N_11  and  N_12 
REMARK       I    between atoms: N_12  and  C_13 
REMARK    7  A    between atoms: C_13  and  C_14 
ROOT
HETATM    1  C   UNL     1      -1.466   5.260 -31.457  1.00  0.00     0.259 C 
HETATM    2  N   UNL     1      -2.660   4.704 -31.051  1.00  0.00    -0.265 N 
HETATM    3  O   UNL     1      -0.777   4.763 -32.351  1.00  0.00    -0.269 OA
HETATM    4  H   UNL     1      -3.312   5.170 -30.415  1.00  0.00     0.190 HD
ENDROOT
BRANCH   2   5
HETATM    5  N   UNL     1      -3.111   3.556 -31.705  1.00  0.00    -0.263 N 
HETATM    6  C   UNL     1      -4.304   2.964 -31.322  1.00  0.00     0.278 C 
HETATM    7  O   UNL     1      -4.961   3.449 -30.400  1.00  0.00    -0.265 OA
HETATM    8  H   UNL     1      -2.591   3.254 -32.527  1.00  0.00     0.190 HD
BRANCH   6   9
HETATM    9  C   UNL     1      -4.687   1.770 -32.067  1.00  0.00     0.097 A 
HETATM   10  S   UNL     1      -6.003   1.805 -33.164  1.00  0.00    -0.082 SA
HETATM   11  C   UNL     1      -5.785   0.171 -33.638  1.00  0.00     0.017 A 
HETATM   12  C   UNL     1      -4.723  -0.421 -32.952  1.00  0.00     0.004 A 
HETATM   13  C   UNL     1      -6.545  -0.538 -34.589  1.00  0.00     0.020 A 
HETATM   14  C   UNL     1      -4.105   0.515 -32.044  1.00  0.00     0.068 A 
HETATM   15  C   UNL     1      -4.429  -1.779 -33.246  1.00  0.00     0.014 A 
HETATM   16 CL   UNL     1      -2.768   0.051 -31.064  1.00  0.00    -0.082 Cl
HETATM   17  C   UNL     1      -5.177  -2.488 -34.191  1.00  0.00     0.001 A 
HETATM   18  C   UNL     1      -6.225  -1.870 -34.856  1.00  0.00     0.001 A 
ENDBRANCH   6   9
ENDBRANCH   2   5
BRANCH   1  19
HETATM   19  C   UNL     1      -1.071   6.551 -30.721  1.00  0.00     0.180 C 
BRANCH  19  20
HETATM   20  C   UNL     1      -0.478   6.275 -29.330  1.00  0.00     0.045 C 
BRANCH  20  21
HETATM   21  C   UNL     1       0.536   7.288 -28.793  1.00  0.00     0.076 C 
BRANCH  21  22
HETATM   22  S   UNL     1       0.246   7.725 -27.050  1.00  0.00    -0.173 SA
HETATM   23  C   UNL     1      -0.523   6.181 -26.502  1.00  0.00     0.089 C 
ENDBRANCH  21  22
ENDBRANCH  20  21
ENDBRANCH  19  20
BRANCH  19  24
HETATM   24  N   UNL     1      -2.296   7.344 -30.611  1.00  0.00    -0.330 N 
HETATM   25  C   UNL     1      -2.577   8.377 -31.443  1.00  0.00     0.314 C 
HETATM   26  N   UNL     1      -3.759   8.973 -31.152  1.00  0.00    -0.352 N 
HETATM   27  O   UNL     1      -1.871   8.758 -32.363  1.00  0.00    -0.248 OA
HETATM   28  H   UNL     1      -4.505   8.376 -30.827  1.00  0.00     0.160 HD
HETATM   29  H   UNL     1      -4.036   9.661 -31.841  1.00  0.00     0.160 HD
HETATM   30  H   UNL     1      -2.841   7.240 -29.764  1.00  0.00     0.165 HD
ENDBRANCH  19  24
ENDBRANCH   1  19
TORSDOF 7
ENDMDL
MODEL 6
REMARK VINA RESULT:      -7.8      2.858      3.870
REMARK  7 active torsions:
REMARK  status: ('A' for Active; 'I' for Inactive)
REMARK    1  A    between atoms: S_2  and  C_3 
REMARK    2  A    between atoms: C_3  and  C_4 
REMARK    3  A    between atoms: C_4  and  C_5 
REMARK    4  A    between atoms: C_5  and  N_6 
REMARK    5  A    between atoms: C_5  and  C_10 
REMARK       I    between atoms: N_6  and  C_7 
REMARK       I    between atoms: C_7  and  N_8 
REMARK       I    between atoms: C_10  and  N_11 
REMARK    6  A    between atoms: N_11  and  N_12 
REMARK       I    between atoms: N_12  and  C_13 
REMARK    7  A    between atoms: C_13  and  C_14 
ROOT
HETATM    1  C   UNL     1      -5.924   4.441 -30.946  1.00  0.00     0.259 C 
HETATM    2  N   UNL     1      -5.217   3.339 -30.515  1.00  0.00    -0.265 N 
HETATM    3  O   UNL     1      -6.712   4.389 -31.894  1.00  0.00    -0.269 OA
HETATM    4  H   UNL     1      -4.669   3.323 -29.651  1.00  0.00     0.190 HD
ENDROOT
BRANCH   2   5
HETATM    5  N   UNL     1      -5.433   2.120 -31.162  1.00  0.00    -0.263 N 
HETATM    6  C   UNL     1      -4.478   1.619 -32.033  1.00  0.00     0.278 C 
HETATM    7  O   UNL     1      -3.443   2.255 -32.239  1.00  0.00    -0.265 OA
HETATM    8  H   UNL     1      -6.250   1.582 -30.880  1.00  0.00     0.190 HD
BRANCH   6   9
HETATM    9  C   UNL     1      -4.798   0.341 -32.657  1.00  0.00     0.097 A 
HETATM   10  S   UNL     1      -6.287   0.113 -33.476  1.00  0.00    -0.082 SA
HETATM   11  C   UNL     1      -5.904  -1.493 -33.941  1.00  0.00     0.017 A 
HETATM   12  C   UNL     1      -4.651  -1.877 -33.460  1.00  0.00     0.004 A 
HETATM   13  C   UNL     1      -6.706  -2.361 -34.706  1.00  0.00     0.020 A 
HETATM   14  C   UNL     1      -4.030  -0.808 -32.716  1.00  0.00     0.068 A 
HETATM   15  C   UNL     1      -4.204  -3.189 -33.770  1.00  0.00     0.014 A 
HETATM   16 CL   UNL     1      -2.475  -1.007 -32.004  1.00  0.00    -0.082 Cl
HETATM   17  C   UNL     1      -4.994  -4.055 -34.532  1.00  0.00     0.001 A 
HETATM   18  C   UNL     1      -6.234  -3.643 -34.996  1.00  0.00     0.001 A 
ENDBRANCH   6   9
ENDBRANCH   2   5
BRANCH   1  19
HETATM   19  C   UNL     1      -5.667   5.728 -30.146  1.00  0.00     0.180 C 
BRANCH  19  20
HETATM   20  C   UNL     1      -4.741   6.704 -30.888  1.00  0.00     0.045 C 
BRANCH  20  21
HETATM   21  C   UNL     1      -3.235   6.459 -30.771  1.00  0.00     0.076 C 
BRANCH  21  22
HETATM   22  S   UNL     1      -2.511   5.753 -32.285  1.00  0.00    -0.173 SA
HETATM   23  C   UNL     1      -0.971   5.111 -31.582  1.00  0.00     0.089 C 
ENDBRANCH  21  22
ENDBRANCH  20  21
ENDBRANCH  19  20
BRANCH  19  24
HETATM   24  N   UNL     1      -5.063   5.303 -28.882  1.00  0.00    -0.330 N 
HETATM   25  C   UNL     1      -5.457   5.792 -27.681  1.00  0.00     0.314 C 
HETATM   26  N   UNL     1      -4.754   5.265 -26.649  1.00  0.00    -0.352 N 
HETATM   27  O   UNL     1      -6.342   6.614 -27.507  1.00  0.00    -0.248 OA
HETATM   28  H   UNL     1      -4.480   4.296 -26.728  1.00  0.00     0.160 HD
HETATM   29  H   UNL     1      -5.123   5.528 -25.743  1.00  0.00     0.160 HD
HETATM   30  H   UNL     1      -4.194   4.785 -28.935  1.00  0.00     0.165 HD
ENDBRANCH  19  24
ENDBRANCH   1  19
TORSDOF 7
ENDMDL
MODEL 7
REMARK VINA RESULT:      -7.6      3.101      4.059
REMARK  7 active torsions:
REMARK  status: ('A' for Active; 'I' for Inactive)
REMARK    1  A    between atoms: S_2  and  C_3 
REMARK    2  A    between atoms: C_3  and  C_4 
REMARK    3  A    between atoms: C_4  and  C_5 
REMARK    4  A    between atoms: C_5  and  N_6 
REMARK    5  A    between atoms: C_5  and  C_10 
REMARK       I    between atoms: N_6  and  C_7 
REMARK       I    between atoms: C_7  and  N_8 
REMARK       I    between atoms: C_10  and  N_11 
REMARK    6  A    between atoms: N_11  and  N_12 
REMARK       I    between atoms: N_12  and  C_13 
REMARK    7  A    between atoms: C_13  and  C_14 
ROOT
HETATM    1  C   UNL     1      -5.617   3.234 -30.461  1.00  0.00     0.259 C 
HETATM    2  N   UNL     1      -6.708   2.561 -30.966  1.00  0.00    -0.265 N 
HETATM    3  O   UNL     1      -4.489   2.736 -30.437  1.00  0.00    -0.269 OA
HETATM    4  H   UNL     1      -7.619   3.001 -31.125  1.00  0.00     0.190 HD
ENDROOT
BRANCH   2   5
HETATM    5  N   UNL     1      -6.511   1.283 -31.495  1.00  0.00    -0.263 N 
HETATM    6  C   UNL     1      -6.325   1.119 -32.859  1.00  0.00     0.278 C 
HETATM    7  O   UNL     1      -6.340   2.102 -33.602  1.00  0.00    -0.265 OA
HETATM    8  H   UNL     1      -6.401   0.517 -30.833  1.00  0.00     0.190 HD
BRANCH   6   9
HETATM    9  C   UNL     1      -6.128  -0.253 -33.311  1.00  0.00     0.097 A 
HETATM   10  S   UNL     1      -7.415  -1.136 -34.021  1.00  0.00    -0.082 SA
HETATM   11  C   UNL     1      -6.443  -2.518 -34.312  1.00  0.00     0.017 A 
HETATM   12  C   UNL     1      -5.137  -2.329 -33.854  1.00  0.00     0.004 A 
HETATM   13  C   UNL     1      -6.848  -3.718 -34.928  1.00  0.00     0.020 A 
HETATM   14  C   UNL     1      -4.976  -1.018 -33.273  1.00  0.00     0.068 A 
HETATM   15  C   UNL     1      -4.220  -3.399 -34.029  1.00  0.00     0.014 A 
HETATM   16 CL   UNL     1      -3.463  -0.514 -32.622  1.00  0.00    -0.082 Cl
HETATM   17  C   UNL     1      -4.615  -4.591 -34.643  1.00  0.00     0.001 A 
HETATM   18  C   UNL     1      -5.919  -4.747 -35.088  1.00  0.00     0.001 A 
ENDBRANCH   6   9
ENDBRANCH   2   5
BRANCH   1  19
HETATM   19  C   UNL     1      -5.913   4.653 -29.949  1.00  0.00     0.180 C 
BRANCH  19  20
HETATM   20  C   UNL     1      -5.491   5.738 -30.952  1.00  0.00     0.045 C 
BRANCH  20  21
HETATM   21  C   UNL     1      -4.008   6.112 -30.987  1.00  0.00     0.076 C 
BRANCH  21  22
HETATM   22  S   UNL     1      -3.339   6.202 -32.677  1.00  0.00    -0.173 SA
HETATM   23  C   UNL     1      -2.224   7.611 -32.459  1.00  0.00     0.089 C 
ENDBRANCH  21  22
ENDBRANCH  20  21
ENDBRANCH  19  20
BRANCH  19  24
HETATM   24  N   UNL     1      -5.173   4.792 -28.695  1.00  0.00    -0.330 N 
HETATM   25  C   UNL     1      -5.630   5.526 -27.651  1.00  0.00     0.314 C 
HETATM   26  N   UNL     1      -4.777   5.523 -26.598  1.00  0.00    -0.352 N 
HETATM   27  O   UNL     1      -6.687   6.137 -27.624  1.00  0.00    -0.248 OA
HETATM   28  H   UNL     1      -4.270   4.667 -26.423  1.00  0.00     0.160 HD
HETATM   29  H   UNL     1      -5.165   5.962 -25.772  1.00  0.00     0.160 HD
HETATM   30  H   UNL     1      -4.203   4.497 -28.694  1.00  0.00     0.165 HD
ENDBRANCH  19  24
ENDBRANCH   1  19
TORSDOF 7
ENDMDL
MODEL 8
REMARK VINA RESULT:      -7.6      2.568      3.112
REMARK  7 active torsions:
REMARK  status: ('A' for Active; 'I' for Inactive)
REMARK    1  A    between atoms: S_2  and  C_3 
REMARK    2  A    between atoms: C_3  and  C_4 
REMARK    3  A    between atoms: C_4  and  C_5 
REMARK    4  A    between atoms: C_5  and  N_6 
REMARK    5  A    between atoms: C_5  and  C_10 
REMARK       I    between atoms: N_6  and  C_7 
REMARK       I    between atoms: C_7  and  N_8 
REMARK       I    between atoms: C_10  and  N_11 
REMARK    6  A    between atoms: N_11  and  N_12 
REMARK       I    between atoms: N_12  and  C_13 
REMARK    7  A    between atoms: C_13  and  C_14 
ROOT
HETATM    1  C   UNL     1      -3.472   3.609 -31.726  1.00  0.00     0.259 C 
HETATM    2  N   UNL     1      -4.648   2.903 -31.599  1.00  0.00    -0.265 N 
HETATM    3  O   UNL     1      -2.447   3.105 -32.194  1.00  0.00    -0.269 OA
HETATM    4  H   UNL     1      -5.541   3.335 -31.347  1.00  0.00     0.190 HD
ENDROOT
BRANCH   2   5
HETATM    5  N   UNL     1      -4.679   1.581 -32.048  1.00  0.00    -0.263 N 
HETATM    6  C   UNL     1      -5.424   1.247 -33.168  1.00  0.00     0.278 C 
HETATM    7  O   UNL     1      -6.064   2.117 -33.760  1.00  0.00    -0.265 OA
HETATM    8  H   UNL     1      -4.053   0.920 -31.592  1.00  0.00     0.190 HD
BRANCH   6   9
HETATM    9  C   UNL     1      -5.390  -0.159 -33.555  1.00  0.00     0.097 A 
HETATM   10  S   UNL     1      -4.017  -1.128 -33.218  1.00  0.00    -0.082 SA
HETATM   11  C   UNL     1      -4.728  -2.544 -33.875  1.00  0.00     0.017 A 
HETATM   12  C   UNL     1      -6.007  -2.288 -34.374  1.00  0.00     0.004 A 
HETATM   13  C   UNL     1      -4.149  -3.827 -33.933  1.00  0.00     0.020 A 
HETATM   14  C   UNL     1      -6.369  -0.904 -34.187  1.00  0.00     0.068 A 
HETATM   15  C   UNL     1      -6.714  -3.376 -34.951  1.00  0.00     0.014 A 
HETATM   16 CL   UNL     1      -7.896  -0.307 -34.713  1.00  0.00    -0.082 Cl
HETATM   17  C   UNL     1      -6.147  -4.652 -35.009  1.00  0.00     0.001 A 
HETATM   18  C   UNL     1      -4.876  -4.874 -34.503  1.00  0.00     0.001 A 
ENDBRANCH   6   9
ENDBRANCH   2   5
BRANCH   1  19
HETATM   19  C   UNL     1      -3.542   5.071 -31.256  1.00  0.00     0.180 C 
BRANCH  19  20
HETATM   20  C   UNL     1      -4.885   5.409 -30.590  1.00  0.00     0.045 C 
BRANCH  20  21
HETATM   21  C   UNL     1      -5.753   6.468 -31.274  1.00  0.00     0.076 C 
BRANCH  21  22
HETATM   22  S   UNL     1      -7.369   5.822 -31.809  1.00  0.00    -0.173 SA
HETATM   23  C   UNL     1      -6.943   5.388 -33.514  1.00  0.00     0.089 C 
ENDBRANCH  21  22
ENDBRANCH  20  21
ENDBRANCH  19  20
BRANCH  19  24
HETATM   24  N   UNL     1      -3.338   5.889 -32.452  1.00  0.00    -0.330 N 
HETATM   25  C   UNL     1      -2.130   6.401 -32.793  1.00  0.00     0.314 C 
HETATM   26  N   UNL     1      -2.177   7.134 -33.932  1.00  0.00    -0.352 N 
HETATM   27  O   UNL     1      -1.092   6.241 -32.171  1.00  0.00    -0.248 OA
HETATM   28  H   UNL     1      -2.807   6.817 -34.655  1.00  0.00     0.160 HD
HETATM   29  H   UNL     1      -1.262   7.413 -34.262  1.00  0.00     0.160 HD
HETATM   30  H   UNL     1      -4.165   6.246 -32.916  1.00  0.00     0.165 HD
ENDBRANCH  19  24
ENDBRANCH   1  19
TORSDOF 7
ENDMDL
MODEL 9
REMARK VINA RESULT:      -7.4      3.617      9.350
REMARK  7 active torsions:
REMARK  status: ('A' for Active; 'I' for Inactive)
REMARK    1  A    between atoms: S_2  and  C_3 
REMARK    2  A    between atoms: C_3  and  C_4 
REMARK    3  A    between atoms: C_4  and  C_5 
REMARK    4  A    between atoms: C_5  and  N_6 
REMARK    5  A    between atoms: C_5  and  C_10 
REMARK       I    between atoms: N_6  and  C_7 
REMARK       I    between atoms: C_7  and  N_8 
REMARK       I    between atoms: C_10  and  N_11 
REMARK    6  A    between atoms: N_11  and  N_12 
REMARK       I    between atoms: N_12  and  C_13 
REMARK    7  A    between atoms: C_13  and  C_14 
ROOT
HETATM    1  C   UNL     1      -6.839   1.156 -33.071  1.00  0.00     0.259 C 
HETATM    2  N   UNL     1      -6.186   2.123 -33.805  1.00  0.00    -0.265 N 
HETATM    3  O   UNL     1      -6.578   0.941 -31.885  1.00  0.00    -0.269 OA
HETATM    4  H   UNL     1      -6.478   2.414 -34.742  1.00  0.00     0.190 HD
ENDROOT
BRANCH   2   5
HETATM    5  N   UNL     1      -5.220   2.902 -33.163  1.00  0.00    -0.263 N 
HETATM    6  C   UNL     1      -4.989   4.202 -33.581  1.00  0.00     0.278 C 
HETATM    7  O   UNL     1      -5.632   4.667 -34.524  1.00  0.00    -0.265 OA
HETATM    8  H   UNL     1      -4.791   2.513 -32.325  1.00  0.00     0.190 HD
BRANCH   6   9
HETATM    9  C   UNL     1      -3.960   4.930 -32.847  1.00  0.00     0.097 A 
HETATM   10  S   UNL     1      -4.252   5.490 -31.252  1.00  0.00    -0.082 SA
HETATM   11  C   UNL     1      -2.672   6.134 -31.080  1.00  0.00     0.017 A 
HETATM   12  C   UNL     1      -1.915   5.947 -32.239  1.00  0.00     0.004 A 
HETATM   13  C   UNL     1      -2.145   6.779 -29.943  1.00  0.00     0.020 A 
HETATM   14  C   UNL     1      -2.678   5.257 -33.250  1.00  0.00     0.068 A 
HETATM   15  C   UNL     1      -0.582   6.435 -32.237  1.00  0.00     0.014 A 
HETATM   16 CL   UNL     1      -1.992   4.895 -34.788  1.00  0.00    -0.082 Cl
HETATM   17  C   UNL     1      -0.052   7.073 -31.111  1.00  0.00     0.001 A 
HETATM   18  C   UNL     1      -0.829   7.242 -29.975  1.00  0.00     0.001 A 
ENDBRANCH   6   9
ENDBRANCH   2   5
BRANCH   1  19
HETATM   19  C   UNL     1      -7.922   0.383 -33.840  1.00  0.00     0.180 C 
BRANCH  19  20
HETATM   20  C   UNL     1      -7.328  -0.632 -34.828  1.00  0.00     0.045 C 
BRANCH  20  21
HETATM   21  C   UNL     1      -7.134  -2.063 -34.322  1.00  0.00     0.076 C 
BRANCH  21  22
HETATM   22  S   UNL     1      -5.578  -2.814 -34.896  1.00  0.00    -0.173 SA
HETATM   23  C   UNL     1      -6.116  -4.541 -34.971  1.00  0.00     0.089 C 
ENDBRANCH  21  22
ENDBRANCH  20  21
ENDBRANCH  19  20
BRANCH  19  24
HETATM   24  N   UNL     1      -8.711   1.392 -34.549  1.00  0.00    -0.330 N 
HETATM   25  C   UNL     1      -9.986   1.699 -34.204  1.00  0.00     0.314 C 
HETATM   26  N   UNL     1     -10.525   2.653 -35.002  1.00  0.00    -0.352 N 
HETATM   27  O   UNL     1     -10.612   1.197 -33.285  1.00  0.00    -0.248 OA
HETATM   28  H   UNL     1      -9.906   3.381 -35.328  1.00  0.00     0.160 HD
HETATM   29  H   UNL     1     -11.427   2.979 -34.677  1.00  0.00     0.160 HD
HETATM   30  H   UNL     1      -8.358   1.713 -35.442  1.00  0.00     0.165 HD
ENDBRANCH  19  24
ENDBRANCH   1  19
TORSDOF 7
ENDMDL
MODEL 10
REMARK VINA RESULT:      -7.0      3.374      9.101
REMARK  7 active torsions:
REMARK  status: ('A' for Active; 'I' for Inactive)
REMARK    1  A    between atoms: S_2  and  C_3 
REMARK    2  A    between atoms: C_3  and  C_4 
REMARK    3  A    between atoms: C_4  and  C_5 
REMARK    4  A    between atoms: C_5  and  N_6 
REMARK    5  A    between atoms: C_5  and  C_10 
REMARK       I    between atoms: N_6  and  C_7 
REMARK       I    between atoms: C_7  and  N_8 
REMARK       I    between atoms: C_10  and  N_11 
REMARK    6  A    between atoms: N_11  and  N_12 
REMARK       I    between atoms: N_12  and  C_13 
REMARK    7  A    between atoms: C_13  and  C_14 
ROOT
HETATM    1  C   UNL     1      -6.563   0.577 -33.485  1.00  0.00     0.259 C 
HETATM    2  N   UNL     1      -6.014   1.064 -32.319  1.00  0.00    -0.265 N 
HETATM    3  O   UNL     1      -6.428   1.152 -34.568  1.00  0.00    -0.269 OA
HETATM    4  H   UNL     1      -5.992   0.536 -31.442  1.00  0.00     0.190 HD
ENDROOT
BRANCH   2   5
HETATM    5  N   UNL     1      -5.252   2.233 -32.384  1.00  0.00    -0.263 N 
HETATM    6  C   UNL     1      -4.866   2.873 -31.217  1.00  0.00     0.278 C 
HETATM    7  O   UNL     1      -5.200   2.412 -30.125  1.00  0.00    -0.265 OA
HETATM    8  H   UNL     1      -4.912   2.516 -33.300  1.00  0.00     0.190 HD
BRANCH   6   9
HETATM    9  C   UNL     1      -4.075   4.086 -31.392  1.00  0.00     0.097 A 
HETATM   10  S   UNL     1      -2.674   4.083 -32.381  1.00  0.00    -0.082 SA
HETATM   11  C   UNL     1      -2.375   5.755 -32.138  1.00  0.00     0.017 A 
HETATM   12  C   UNL     1      -3.325   6.325 -31.289  1.00  0.00     0.004 A 
HETATM   13  C   UNL     1      -1.325   6.511 -32.695  1.00  0.00     0.020 A 
HETATM   14  C   UNL     1      -4.294   5.344 -30.863  1.00  0.00     0.068 A 
HETATM   15  C   UNL     1      -3.198   7.709 -30.998  1.00  0.00     0.014 A 
HETATM   16 CL   UNL     1      -5.583   5.772 -29.803  1.00  0.00    -0.082 Cl
HETATM   17  C   UNL     1      -2.161   8.466 -31.551  1.00  0.00     0.001 A 
HETATM   18  C   UNL     1      -1.234   7.871 -32.392  1.00  0.00     0.001 A 
ENDBRANCH   6   9
ENDBRANCH   2   5
BRANCH   1  19
HETATM   19  C   UNL     1      -7.339  -0.741 -33.333  1.00  0.00     0.180 C 
BRANCH  19  20
HETATM   20  C   UNL     1      -6.892  -1.805 -34.347  1.00  0.00     0.045 C 
BRANCH  20  21
HETATM   21  C   UNL     1      -5.401  -2.149 -34.382  1.00  0.00     0.076 C 
BRANCH  21  22
HETATM   22  S   UNL     1      -5.088  -3.939 -34.503  1.00  0.00    -0.173 SA
HETATM   23  C   UNL     1      -6.601  -4.425 -35.369  1.00  0.00     0.089 C 
ENDBRANCH  21  22
ENDBRANCH  20  21
ENDBRANCH  19  20
BRANCH  19  24
HETATM   24  N   UNL     1      -8.750  -0.404 -33.527  1.00  0.00    -0.330 N 
HETATM   25  C   UNL     1      -9.503   0.177 -32.562  1.00  0.00     0.314 C 
HETATM   26  N   UNL     1     -10.782   0.389 -32.957  1.00  0.00    -0.352 N 
HETATM   27  O   UNL     1      -9.111   0.491 -31.449  1.00  0.00    -0.248 OA
HETATM   28  H   UNL     1     -10.927   0.643 -33.924  1.00  0.00     0.160 HD
HETATM   29  H   UNL     1     -11.317   0.935 -32.292  1.00  0.00     0.160 HD
HETATM   30  H   UNL     1      -9.216  -0.806 -34.331  1.00  0.00     0.165 HD
ENDBRANCH  19  24
ENDBRANCH   1  19
TORSDOF 7
ENDMDL
