MODEL 1
REMARK VINA RESULT:      -9.2      0.000      0.000
REMARK  6 active torsions:
REMARK  status: ('A' for Active; 'I' for Inactive)
REMARK    1  A    between atoms: C_2  and  O_3 
REMARK    2  A    between atoms: O_3  and  C_4 
REMARK    3  A    between atoms: C_7  and  N_8 
REMARK    4  A    between atoms: N_8  and  C_9 
REMARK    5  A    between atoms: C_10  and  C_11 
REMARK    6  A    between atoms: C_14  and  C_15 
ROOT
HETATM    1  C   UNL     1      -7.522   3.757 -29.762  1.00  0.00     0.113 C 
HETATM    2  C   UNL     1      -6.341   4.291 -30.132  1.00  0.00     0.082 C 
HETATM    3  C   UNL     1      -6.004   5.718 -29.733  1.00  0.00     0.024 C 
HETATM    4  N   UNL     1      -5.724   6.903 -29.402  1.00  0.00    -0.096 N 
ENDROOT
BRANCH   2   5
HETATM    5  C   UNL     1      -5.416   3.553 -30.949  1.00  0.00     0.119 A 
HETATM    6  S   UNL     1      -4.248   4.385 -31.934  1.00  0.00    -0.078 SA
HETATM    7  C   UNL     1      -3.645   2.894 -32.509  1.00  0.00     0.084 A 
HETATM    8  C   UNL     1      -4.329   1.850 -31.929  1.00  0.00     0.081 A 
HETATM    9  N   UNL     1      -5.327   2.232 -31.039  1.00  0.00    -0.239 NA
BRANCH   8  10
HETATM   10  C   UNL     1      -4.145   0.447 -32.202  1.00  0.00     0.070 A 
HETATM   11  C   UNL     1      -3.007  -0.292 -31.564  1.00  0.00     0.301 A 
HETATM   12  O   UNL     1      -2.241   0.230 -30.758  1.00  0.00    -0.259 OA
HETATM   13  O   UNL     1      -2.832  -1.629 -31.917  1.00  0.00    -0.274 OA
HETATM   14  C   UNL     1      -3.704  -2.290 -32.795  1.00  0.00     0.089 A 
HETATM   15  C   UNL     1      -4.786  -1.619 -33.351  1.00  0.00     0.000 A 
HETATM   16  C   UNL     1      -3.444  -3.628 -33.078  1.00  0.00     0.039 A 
HETATM   17  C   UNL     1      -5.636  -2.309 -34.218  1.00  0.00     0.033 A 
HETATM   18  C   UNL     1      -4.976  -0.216 -33.028  1.00  0.00     0.034 A 
HETATM   19  C   UNL     1      -5.385  -3.653 -34.509  1.00  0.00     0.012 A 
HETATM   20  C   UNL     1      -4.293  -4.315 -33.943  1.00  0.00     0.022 A 
HETATM   21 BR   UNL     1      -6.536  -4.586 -35.684  1.00  0.00    -0.051 Br
ENDBRANCH   8  10
ENDBRANCH   2   5
BRANCH   1  22
HETATM   22  N   UNL     1      -8.024   2.522 -30.101  1.00  0.00    -0.364 N 
HETATM   23  H   UNL     1      -7.900   1.802 -29.383  1.00  0.00     0.165 HD
BRANCH  22  24
HETATM   24  C   UNL     1      -8.812   2.137 -31.195  1.00  0.00     0.032 A 
HETATM   25  C   UNL     1      -9.804   3.020 -31.645  1.00  0.00     0.032 A 
HETATM   26  C   UNL     1     -10.633   2.690 -32.720  1.00  0.00     0.039 A 
HETATM   27  C   UNL     1     -10.486   1.470 -33.376  1.00  0.00     0.068 A 
HETATM   28  C   UNL     1      -9.531   0.565 -32.918  1.00  0.00     0.039 A 
HETATM   29  C   UNL     1      -8.708   0.895 -31.831  1.00  0.00     0.032 A 
BRANCH  27  30
HETATM   30  O   UNL     1     -11.339   1.274 -34.425  1.00  0.00    -0.352 OA
BRANCH  30  31
HETATM   31  C   UNL     1     -12.733   1.356 -34.137  1.00  0.00     0.171 C 
HETATM   32  C   UNL     1     -13.193  -0.014 -33.669  1.00  0.00     0.034 C 
ENDBRANCH  30  31
ENDBRANCH  27  30
ENDBRANCH  22  24
ENDBRANCH   1  22
TORSDOF 6
ENDMDL
MODEL 2
REMARK VINA RESULT:      -8.7      2.741      6.462
REMARK  6 active torsions:
REMARK  status: ('A' for Active; 'I' for Inactive)
REMARK    1  A    between atoms: C_2  and  O_3 
REMARK    2  A    between atoms: O_3  and  C_4 
REMARK    3  A    between atoms: C_7  and  N_8 
REMARK    4  A    between atoms: N_8  and  C_9 
REMARK    5  A    between atoms: C_10  and  C_11 
REMARK    6  A    between atoms: C_14  and  C_15 
ROOT
HETATM    1  C   UNL     1      -3.297   1.945 -31.266  1.00  0.00     0.113 C 
HETATM    2  C   UNL     1      -3.666   3.234 -31.405  1.00  0.00     0.082 C 
HETATM    3  C   UNL     1      -2.600   4.309 -31.544  1.00  0.00     0.024 C 
HETATM    4  N   UNL     1      -1.716   5.202 -31.659  1.00  0.00    -0.096 N 
ENDROOT
BRANCH   2   5
HETATM    5  C   UNL     1      -5.050   3.619 -31.365  1.00  0.00     0.119 A 
HETATM    6  S   UNL     1      -5.676   4.529 -30.021  1.00  0.00    -0.078 SA
HETATM    7  C   UNL     1      -7.232   4.532 -30.725  1.00  0.00     0.084 A 
HETATM    8  C   UNL     1      -7.209   3.870 -31.932  1.00  0.00     0.081 A 
HETATM    9  N   UNL     1      -5.965   3.362 -32.291  1.00  0.00    -0.239 NA
BRANCH   8  10
HETATM   10  C   UNL     1      -8.335   3.618 -32.794  1.00  0.00     0.070 A 
HETATM   11  C   UNL     1      -8.607   4.534 -33.950  1.00  0.00     0.301 A 
HETATM   12  O   UNL     1      -7.874   5.473 -34.243  1.00  0.00    -0.259 OA
HETATM   13  O   UNL     1      -9.750   4.286 -34.709  1.00  0.00    -0.274 OA
HETATM   14  C   UNL     1     -10.598   3.198 -34.450  1.00  0.00     0.089 A 
HETATM   15  C   UNL     1     -10.321   2.322 -33.408  1.00  0.00     0.000 A 
HETATM   16  C   UNL     1     -11.710   3.037 -35.272  1.00  0.00     0.039 A 
HETATM   17  C   UNL     1     -11.185   1.248 -33.180  1.00  0.00     0.033 A 
HETATM   18  C   UNL     1      -9.156   2.573 -32.579  1.00  0.00     0.034 A 
HETATM   19  C   UNL     1     -12.304   1.076 -34.000  1.00  0.00     0.012 A 
HETATM   20  C   UNL     1     -12.571   1.965 -35.044  1.00  0.00     0.022 A 
HETATM   21 BR   UNL     1     -13.474  -0.377 -33.690  1.00  0.00    -0.051 Br
ENDBRANCH   8  10
ENDBRANCH   2   5
BRANCH   1  22
HETATM   22  N   UNL     1      -4.115   0.860 -31.047  1.00  0.00    -0.364 N 
HETATM   23  H   UNL     1      -4.335   0.687 -30.062  1.00  0.00     0.165 HD
BRANCH  22  24
HETATM   24  C   UNL     1      -4.815   0.058 -31.960  1.00  0.00     0.032 A 
HETATM   25  C   UNL     1      -4.085  -0.628 -32.940  1.00  0.00     0.032 A 
HETATM   26  C   UNL     1      -4.723  -1.430 -33.890  1.00  0.00     0.039 A 
HETATM   27  C   UNL     1      -6.109  -1.570 -33.878  1.00  0.00     0.068 A 
HETATM   28  C   UNL     1      -6.853  -0.866 -32.933  1.00  0.00     0.039 A 
HETATM   29  C   UNL     1      -6.209  -0.053 -31.989  1.00  0.00     0.032 A 
BRANCH  27  30
HETATM   30  O   UNL     1      -6.612  -2.399 -34.839  1.00  0.00    -0.352 OA
BRANCH  30  31
HETATM   31  C   UNL     1      -5.748  -3.435 -35.303  1.00  0.00     0.171 C 
HETATM   32  C   UNL     1      -6.319  -4.762 -34.837  1.00  0.00     0.034 C 
ENDBRANCH  30  31
ENDBRANCH  27  30
ENDBRANCH  22  24
ENDBRANCH   1  22
TORSDOF 6
ENDMDL
MODEL 3
REMARK VINA RESULT:      -8.6      4.454      7.577
REMARK  6 active torsions:
REMARK  status: ('A' for Active; 'I' for Inactive)
REMARK    1  A    between atoms: C_2  and  O_3 
REMARK    2  A    between atoms: O_3  and  C_4 
REMARK    3  A    between atoms: C_7  and  N_8 
REMARK    4  A    between atoms: N_8  and  C_9 
REMARK    5  A    between atoms: C_10  and  C_11 
REMARK    6  A    between atoms: C_14  and  C_15 
ROOT
HETATM    1  C   UNL     1      -7.393   1.501 -31.229  1.00  0.00     0.113 C 
HETATM    2  C   UNL     1      -7.655   2.820 -31.315  1.00  0.00     0.082 C 
HETATM    3  C   UNL     1      -9.058   3.328 -31.022  1.00  0.00     0.024 C 
HETATM    4  N   UNL     1     -10.222   3.749 -30.779  1.00  0.00    -0.096 N 
ENDROOT
BRANCH   2   5
HETATM    5  C   UNL     1      -6.646   3.753 -31.737  1.00  0.00     0.119 A 
HETATM    6  S   UNL     1      -6.860   4.694 -33.184  1.00  0.00    -0.078 SA
HETATM    7  C   UNL     1      -5.340   5.436 -32.949  1.00  0.00     0.084 A 
HETATM    8  C   UNL     1      -4.753   4.961 -31.798  1.00  0.00     0.081 A 
HETATM    9  N   UNL     1      -5.504   4.012 -31.112  1.00  0.00    -0.239 NA
BRANCH   8  10
HETATM   10  C   UNL     1      -3.448   5.307 -31.294  1.00  0.00     0.070 A 
HETATM   11  C   UNL     1      -2.259   4.474 -31.673  1.00  0.00     0.301 A 
HETATM   12  O   UNL     1      -2.329   3.529 -32.452  1.00  0.00    -0.259 OA
HETATM   13  O   UNL     1      -1.034   4.810 -31.101  1.00  0.00    -0.274 OA
HETATM   14  C   UNL     1      -0.886   5.910 -30.242  1.00  0.00     0.089 A 
HETATM   15  C   UNL     1      -1.977   6.709 -29.927  1.00  0.00     0.000 A 
HETATM   16  C   UNL     1       0.384   6.162 -29.729  1.00  0.00     0.039 A 
HETATM   17  C   UNL     1      -1.793   7.798 -29.072  1.00  0.00     0.033 A 
HETATM   18  C   UNL     1      -3.274   6.366 -30.481  1.00  0.00     0.034 A 
HETATM   19  C   UNL     1      -0.523   8.061 -28.552  1.00  0.00     0.012 A 
HETATM   20  C   UNL     1       0.566   7.249 -28.875  1.00  0.00     0.022 A 
HETATM   21 BR   UNL     1      -0.275   9.534 -27.392  1.00  0.00    -0.051 Br
ENDBRANCH   8  10
ENDBRANCH   2   5
BRANCH   1  22
HETATM   22  N   UNL     1      -6.214   0.861 -31.537  1.00  0.00    -0.364 N 
HETATM   23  H   UNL     1      -5.443   1.058 -30.891  1.00  0.00     0.165 HD
BRANCH  22  24
HETATM   24  C   UNL     1      -5.947  -0.131 -32.492  1.00  0.00     0.032 A 
HETATM   25  C   UNL     1      -7.023  -0.669 -33.211  1.00  0.00     0.032 A 
HETATM   26  C   UNL     1      -6.828  -1.671 -34.164  1.00  0.00     0.039 A 
HETATM   27  C   UNL     1      -5.548  -2.155 -34.427  1.00  0.00     0.068 A 
HETATM   28  C   UNL     1      -4.472  -1.657 -33.696  1.00  0.00     0.039 A 
HETATM   29  C   UNL     1      -4.674  -0.659 -32.730  1.00  0.00     0.032 A 
BRANCH  27  30
HETATM   30  O   UNL     1      -5.484  -3.115 -35.397  1.00  0.00    -0.352 OA
BRANCH  30  31
HETATM   31  C   UNL     1      -5.966  -4.411 -35.044  1.00  0.00     0.171 C 
HETATM   32  C   UNL     1      -4.839  -5.152 -34.345  1.00  0.00     0.034 C 
ENDBRANCH  30  31
ENDBRANCH  27  30
ENDBRANCH  22  24
ENDBRANCH   1  22
TORSDOF 6
ENDMDL
MODEL 4
REMARK VINA RESULT:      -8.3      3.661      6.538
REMARK  6 active torsions:
REMARK  status: ('A' for Active; 'I' for Inactive)
REMARK    1  A    between atoms: C_2  and  O_3 
REMARK    2  A    between atoms: O_3  and  C_4 
REMARK    3  A    between atoms: C_7  and  N_8 
REMARK    4  A    between atoms: N_8  and  C_9 
REMARK    5  A    between atoms: C_10  and  C_11 
REMARK    6  A    between atoms: C_14  and  C_15 
ROOT
HETATM    1  C   UNL     1      -6.155  -1.804 -34.958  1.00  0.00     0.113 C 
HETATM    2  C   UNL     1      -5.182  -2.301 -34.169  1.00  0.00     0.082 C 
HETATM    3  C   UNL     1      -4.825  -3.776 -34.256  1.00  0.00     0.024 C 
HETATM    4  N   UNL     1      -4.529  -5.000 -34.326  1.00  0.00    -0.096 N 
ENDROOT
BRANCH   2   5
HETATM    5  C   UNL     1      -4.513  -1.472 -33.204  1.00  0.00     0.119 A 
HETATM    6  S   UNL     1      -3.347  -2.155 -32.109  1.00  0.00    -0.078 SA
HETATM    7  C   UNL     1      -3.096  -0.625 -31.393  1.00  0.00     0.084 A 
HETATM    8  C   UNL     1      -3.878   0.324 -32.013  1.00  0.00     0.081 A 
HETATM    9  N   UNL     1      -4.673  -0.164 -33.045  1.00  0.00    -0.239 NA
BRANCH   8  10
HETATM   10  C   UNL     1      -3.983   1.716 -31.657  1.00  0.00     0.070 A 
HETATM   11  C   UNL     1      -4.968   2.144 -30.611  1.00  0.00     0.301 A 
HETATM   12  O   UNL     1      -5.665   1.350 -29.986  1.00  0.00    -0.259 OA
HETATM   13  O   UNL     1      -5.080   3.510 -30.356  1.00  0.00    -0.274 OA
HETATM   14  C   UNL     1      -4.276   4.459 -31.005  1.00  0.00     0.089 A 
HETATM   15  C   UNL     1      -3.330   4.060 -31.941  1.00  0.00     0.000 A 
HETATM   16  C   UNL     1      -4.463   5.799 -30.673  1.00  0.00     0.039 A 
HETATM   17  C   UNL     1      -2.544   5.031 -32.565  1.00  0.00     0.033 A 
HETATM   18  C   UNL     1      -3.212   2.646 -32.252  1.00  0.00     0.034 A 
HETATM   19  C   UNL     1      -2.722   6.378 -32.239  1.00  0.00     0.012 A 
HETATM   20  C   UNL     1      -3.678   6.767 -31.297  1.00  0.00     0.022 A 
HETATM   21 BR   UNL     1      -1.659   7.693 -33.086  1.00  0.00    -0.051 Br
ENDBRANCH   8  10
ENDBRANCH   2   5
BRANCH   1  22
HETATM   22  N   UNL     1      -6.662  -0.525 -34.956  1.00  0.00    -0.364 N 
HETATM   23  H   UNL     1      -6.169   0.128 -35.572  1.00  0.00     0.165 HD
BRANCH  22  24
HETATM   24  C   UNL     1      -7.832  -0.018 -34.371  1.00  0.00     0.032 A 
HETATM   25  C   UNL     1      -8.372   1.169 -34.884  1.00  0.00     0.032 A 
HETATM   26  C   UNL     1      -9.526   1.736 -34.337  1.00  0.00     0.039 A 
HETATM   27  C   UNL     1     -10.172   1.123 -33.265  1.00  0.00     0.068 A 
HETATM   28  C   UNL     1      -9.628  -0.038 -32.719  1.00  0.00     0.039 A 
HETATM   29  C   UNL     1      -8.463  -0.597 -33.265  1.00  0.00     0.032 A 
BRANCH  27  30
HETATM   30  O   UNL     1     -11.302   1.759 -32.835  1.00  0.00    -0.352 OA
BRANCH  30  31
HETATM   31  C   UNL     1     -12.380   1.842 -33.766  1.00  0.00     0.171 C 
HETATM   32  C   UNL     1     -13.071   0.490 -33.801  1.00  0.00     0.034 C 
ENDBRANCH  30  31
ENDBRANCH  27  30
ENDBRANCH  22  24
ENDBRANCH   1  22
TORSDOF 6
ENDMDL
MODEL 5
REMARK VINA RESULT:      -8.2      3.071      7.254
REMARK  6 active torsions:
REMARK  status: ('A' for Active; 'I' for Inactive)
REMARK    1  A    between atoms: C_2  and  O_3 
REMARK    2  A    between atoms: O_3  and  C_4 
REMARK    3  A    between atoms: C_7  and  N_8 
REMARK    4  A    between atoms: N_8  and  C_9 
REMARK    5  A    between atoms: C_10  and  C_11 
REMARK    6  A    between atoms: C_14  and  C_15 
ROOT
HETATM    1  C   UNL     1      -5.631   2.209 -30.645  1.00  0.00     0.113 C 
HETATM    2  C   UNL     1      -5.987   3.438 -31.070  1.00  0.00     0.082 C 
HETATM    3  C   UNL     1      -5.291   4.661 -30.497  1.00  0.00     0.024 C 
HETATM    4  N   UNL     1      -4.713   5.677 -30.021  1.00  0.00    -0.096 N 
ENDROOT
BRANCH   2   5
HETATM    5  C   UNL     1      -7.056   3.616 -32.015  1.00  0.00     0.119 A 
HETATM    6  S   UNL     1      -7.018   4.929 -33.154  1.00  0.00    -0.078 SA
HETATM    7  C   UNL     1      -8.519   4.435 -33.801  1.00  0.00     0.084 A 
HETATM    8  C   UNL     1      -8.969   3.308 -33.151  1.00  0.00     0.081 A 
HETATM    9  N   UNL     1      -8.128   2.845 -32.144  1.00  0.00    -0.239 NA
BRANCH   8  10
HETATM   10  C   UNL     1     -10.219   2.627 -33.377  1.00  0.00     0.070 A 
HETATM   11  C   UNL     1     -10.256   1.414 -34.257  1.00  0.00     0.301 A 
HETATM   12  O   UNL     1      -9.250   0.924 -34.760  1.00  0.00    -0.259 OA
HETATM   13  O   UNL     1     -11.501   0.837 -34.500  1.00  0.00    -0.274 OA
HETATM   14  C   UNL     1     -12.679   1.325 -33.913  1.00  0.00     0.089 A 
HETATM   15  C   UNL     1     -12.639   2.422 -33.061  1.00  0.00     0.000 A 
HETATM   16  C   UNL     1     -13.870   0.672 -34.217  1.00  0.00     0.039 A 
HETATM   17  C   UNL     1     -13.829   2.879 -32.492  1.00  0.00     0.033 A 
HETATM   18  C   UNL     1     -11.361   3.065 -32.814  1.00  0.00     0.034 A 
HETATM   19  C   UNL     1     -15.031   2.230 -32.788  1.00  0.00     0.012 A 
HETATM   20  C   UNL     1     -15.058   1.130 -33.648  1.00  0.00     0.022 A 
HETATM   21 BR   UNL     1     -16.643   2.852 -32.019  1.00  0.00    -0.051 Br
ENDBRANCH   8  10
ENDBRANCH   2   5
BRANCH   1  22
HETATM   22  N   UNL     1      -6.204   1.006 -30.989  1.00  0.00    -0.364 N 
HETATM   23  H   UNL     1      -7.130   0.846 -30.583  1.00  0.00     0.165 HD
BRANCH  22  24
HETATM   24  C   UNL     1      -5.794   0.046 -31.926  1.00  0.00     0.032 A 
HETATM   25  C   UNL     1      -6.584  -0.152 -33.066  1.00  0.00     0.032 A 
HETATM   26  C   UNL     1      -6.240  -1.104 -34.029  1.00  0.00     0.039 A 
HETATM   27  C   UNL     1      -5.092  -1.879 -33.877  1.00  0.00     0.068 A 
HETATM   28  C   UNL     1      -4.316  -1.721 -32.731  1.00  0.00     0.039 A 
HETATM   29  C   UNL     1      -4.671  -0.772 -31.761  1.00  0.00     0.032 A 
BRANCH  27  30
HETATM   30  O   UNL     1      -4.850  -2.756 -34.896  1.00  0.00    -0.352 OA
BRANCH  30  31
HETATM   31  C   UNL     1      -5.087  -4.135 -34.619  1.00  0.00     0.171 C 
HETATM   32  C   UNL     1      -6.454  -4.494 -35.175  1.00  0.00     0.034 C 
ENDBRANCH  30  31
ENDBRANCH  27  30
ENDBRANCH  22  24
ENDBRANCH   1  22
TORSDOF 6
ENDMDL
MODEL 6
REMARK VINA RESULT:      -8.0      3.102      6.226
REMARK  6 active torsions:
REMARK  status: ('A' for Active; 'I' for Inactive)
REMARK    1  A    between atoms: C_2  and  O_3 
REMARK    2  A    between atoms: O_3  and  C_4 
REMARK    3  A    between atoms: C_7  and  N_8 
REMARK    4  A    between atoms: N_8  and  C_9 
REMARK    5  A    between atoms: C_10  and  C_11 
REMARK    6  A    between atoms: C_14  and  C_15 
ROOT
HETATM    1  C   UNL     1      -6.171   6.094 -33.177  1.00  0.00     0.113 C 
HETATM    2  C   UNL     1      -7.128   5.601 -32.366  1.00  0.00     0.082 C 
HETATM    3  C   UNL     1      -8.287   6.489 -31.945  1.00  0.00     0.024 C 
HETATM    4  N   UNL     1      -9.249   7.226 -31.594  1.00  0.00    -0.096 N 
ENDROOT
BRANCH   2   5
HETATM    5  C   UNL     1      -7.041   4.264 -31.843  1.00  0.00     0.119 A 
HETATM    6  S   UNL     1      -7.789   3.858 -30.326  1.00  0.00    -0.078 SA
HETATM    7  C   UNL     1      -7.234   2.249 -30.463  1.00  0.00     0.084 A 
HETATM    8  C   UNL     1      -6.533   2.086 -31.636  1.00  0.00     0.081 A 
HETATM    9  N   UNL     1      -6.435   3.232 -32.417  1.00  0.00    -0.239 NA
BRANCH   8  10
HETATM   10  C   UNL     1      -5.866   0.888 -32.078  1.00  0.00     0.070 A 
HETATM   11  C   UNL     1      -4.434   0.651 -31.701  1.00  0.00     0.301 A 
HETATM   12  O   UNL     1      -3.803   1.409 -30.972  1.00  0.00    -0.259 OA
HETATM   13  O   UNL     1      -3.816  -0.488 -32.215  1.00  0.00    -0.274 OA
HETATM   14  C   UNL     1      -4.503  -1.415 -33.014  1.00  0.00     0.089 A 
HETATM   15  C   UNL     1      -5.842  -1.220 -33.326  1.00  0.00     0.000 A 
HETATM   16  C   UNL     1      -3.794  -2.523 -33.471  1.00  0.00     0.039 A 
HETATM   17  C   UNL     1      -6.496  -2.165 -34.120  1.00  0.00     0.033 A 
HETATM   18  C   UNL     1      -6.506  -0.027 -32.832  1.00  0.00     0.034 A 
HETATM   19  C   UNL     1      -5.794  -3.281 -34.584  1.00  0.00     0.012 A 
HETATM   20  C   UNL     1      -4.447  -3.465 -34.264  1.00  0.00     0.022 A 
HETATM   21 BR   UNL     1      -6.679  -4.559 -35.662  1.00  0.00    -0.051 Br
ENDBRANCH   8  10
ENDBRANCH   2   5
BRANCH   1  22
HETATM   22  N   UNL     1      -5.018   5.466 -33.589  1.00  0.00    -0.364 N 
HETATM   23  H   UNL     1      -5.073   5.048 -34.523  1.00  0.00     0.165 HD
BRANCH  22  24
HETATM   24  C   UNL     1      -3.743   5.446 -33.006  1.00  0.00     0.032 A 
HETATM   25  C   UNL     1      -2.674   6.001 -33.723  1.00  0.00     0.032 A 
HETATM   26  C   UNL     1      -1.376   5.999 -33.205  1.00  0.00     0.039 A 
HETATM   27  C   UNL     1      -1.117   5.445 -31.953  1.00  0.00     0.068 A 
HETATM   28  C   UNL     1      -2.161   4.856 -31.244  1.00  0.00     0.039 A 
HETATM   29  C   UNL     1      -3.461   4.851 -31.772  1.00  0.00     0.032 A 
BRANCH  27  30
HETATM   30  O   UNL     1       0.185   5.525 -31.547  1.00  0.00    -0.352 OA
BRANCH  30  31
HETATM   31  C   UNL     1       0.660   6.820 -31.184  1.00  0.00     0.171 C 
HETATM   32  C   UNL     1       0.327   7.045 -29.719  1.00  0.00     0.034 C 
ENDBRANCH  30  31
ENDBRANCH  27  30
ENDBRANCH  22  24
ENDBRANCH   1  22
TORSDOF 6
ENDMDL
MODEL 7
REMARK VINA RESULT:      -8.0      4.264      6.773
REMARK  6 active torsions:
REMARK  status: ('A' for Active; 'I' for Inactive)
REMARK    1  A    between atoms: C_2  and  O_3 
REMARK    2  A    between atoms: O_3  and  C_4 
REMARK    3  A    between atoms: C_7  and  N_8 
REMARK    4  A    between atoms: N_8  and  C_9 
REMARK    5  A    between atoms: C_10  and  C_11 
REMARK    6  A    between atoms: C_14  and  C_15 
ROOT
HETATM    1  C   UNL     1      -8.692   0.361 -34.801  1.00  0.00     0.113 C 
HETATM    2  C   UNL     1      -7.591  -0.024 -34.126  1.00  0.00     0.082 C 
HETATM    3  C   UNL     1      -7.099  -1.458 -34.245  1.00  0.00     0.024 C 
HETATM    4  N   UNL     1      -6.692  -2.647 -34.343  1.00  0.00    -0.096 N 
ENDROOT
BRANCH   2   5
HETATM    5  C   UNL     1      -6.903   0.883 -33.249  1.00  0.00     0.119 A 
HETATM    6  S   UNL     1      -7.042   0.720 -31.523  1.00  0.00    -0.078 SA
HETATM    7  C   UNL     1      -6.023   2.072 -31.294  1.00  0.00     0.084 A 
HETATM    8  C   UNL     1      -5.616   2.570 -32.511  1.00  0.00     0.081 A 
HETATM    9  N   UNL     1      -6.113   1.885 -33.615  1.00  0.00    -0.239 NA
BRANCH   8  10
HETATM   10  C   UNL     1      -4.796   3.735 -32.730  1.00  0.00     0.070 A 
HETATM   11  C   UNL     1      -5.211   4.756 -33.747  1.00  0.00     0.301 A 
HETATM   12  O   UNL     1      -6.263   4.682 -34.375  1.00  0.00    -0.259 OA
HETATM   13  O   UNL     1      -4.346   5.825 -33.971  1.00  0.00    -0.274 OA
HETATM   14  C   UNL     1      -3.154   5.987 -33.249  1.00  0.00     0.089 A 
HETATM   15  C   UNL     1      -2.791   5.066 -32.274  1.00  0.00     0.000 A 
HETATM   16  C   UNL     1      -2.364   7.094 -33.546  1.00  0.00     0.039 A 
HETATM   17  C   UNL     1      -1.600   5.260 -31.571  1.00  0.00     0.033 A 
HETATM   18  C   UNL     1      -3.656   3.923 -32.040  1.00  0.00     0.034 A 
HETATM   19  C   UNL     1      -0.799   6.368 -31.860  1.00  0.00     0.012 A 
HETATM   20  C   UNL     1      -1.175   7.286 -32.844  1.00  0.00     0.022 A 
HETATM   21 BR   UNL     1       0.815   6.628 -30.910  1.00  0.00    -0.051 Br
ENDBRANCH   8  10
ENDBRANCH   2   5
BRANCH   1  22
HETATM   22  N   UNL     1      -9.322   1.583 -34.747  1.00  0.00    -0.364 N 
HETATM   23  H   UNL     1      -8.910   2.299 -35.353  1.00  0.00     0.165 HD
BRANCH  22  24
HETATM   24  C   UNL     1     -10.521   1.955 -34.122  1.00  0.00     0.032 A 
HETATM   25  C   UNL     1     -11.552   1.009 -34.044  1.00  0.00     0.032 A 
HETATM   26  C   UNL     1     -12.777   1.320 -33.448  1.00  0.00     0.039 A 
HETATM   27  C   UNL     1     -12.997   2.587 -32.909  1.00  0.00     0.068 A 
HETATM   28  C   UNL     1     -11.996   3.550 -33.011  1.00  0.00     0.039 A 
HETATM   29  C   UNL     1     -10.772   3.237 -33.621  1.00  0.00     0.032 A 
BRANCH  27  30
HETATM   30  O   UNL     1     -14.223   2.761 -32.333  1.00  0.00    -0.352 OA
BRANCH  30  31
HETATM   31  C   UNL     1     -15.257   1.872 -32.753  1.00  0.00     0.171 C 
HETATM   32  C   UNL     1     -16.584   2.449 -32.291  1.00  0.00     0.034 C 
ENDBRANCH  30  31
ENDBRANCH  27  30
ENDBRANCH  22  24
ENDBRANCH   1  22
TORSDOF 6
ENDMDL
MODEL 8
REMARK VINA RESULT:      -7.9      3.063      7.090
REMARK  6 active torsions:
REMARK  status: ('A' for Active; 'I' for Inactive)
REMARK    1  A    between atoms: C_2  and  O_3 
REMARK    2  A    between atoms: O_3  and  C_4 
REMARK    3  A    between atoms: C_7  and  N_8 
REMARK    4  A    between atoms: N_8  and  C_9 
REMARK    5  A    between atoms: C_10  and  C_11 
REMARK    6  A    between atoms: C_14  and  C_15 
ROOT
HETATM    1  C   UNL     1      -4.691   2.699 -30.872  1.00  0.00     0.113 C 
HETATM    2  C   UNL     1      -4.881   3.946 -31.344  1.00  0.00     0.082 C 
HETATM    3  C   UNL     1      -3.846   5.023 -31.059  1.00  0.00     0.024 C 
HETATM    4  N   UNL     1      -2.988   5.917 -30.822  1.00  0.00    -0.096 N 
ENDROOT
BRANCH   2   5
HETATM    5  C   UNL     1      -6.075   4.293 -32.066  1.00  0.00     0.119 A 
HETATM    6  S   UNL     1      -5.980   5.194 -33.551  1.00  0.00    -0.078 SA
HETATM    7  C   UNL     1      -7.681   5.170 -33.695  1.00  0.00     0.084 A 
HETATM    8  C   UNL     1      -8.238   4.481 -32.641  1.00  0.00     0.081 A 
HETATM    9  N   UNL     1      -7.319   3.980 -31.725  1.00  0.00    -0.239 NA
BRANCH   8  10
HETATM   10  C   UNL     1      -9.643   4.293 -32.385  1.00  0.00     0.070 A 
HETATM   11  C   UNL     1     -10.321   5.105 -31.323  1.00  0.00     0.301 A 
HETATM   12  O   UNL     1      -9.745   5.982 -30.685  1.00  0.00    -0.259 OA
HETATM   13  O   UNL     1     -11.663   4.833 -31.066  1.00  0.00    -0.274 OA
HETATM   14  C   UNL     1     -12.384   3.876 -31.796  1.00  0.00     0.089 A 
HETATM   15  C   UNL     1     -11.770   3.155 -32.812  1.00  0.00     0.000 A 
HETATM   16  C   UNL     1     -13.723   3.686 -31.465  1.00  0.00     0.039 A 
HETATM   17  C   UNL     1     -12.519   2.213 -33.521  1.00  0.00     0.033 A 
HETATM   18  C   UNL     1     -10.363   3.393 -33.082  1.00  0.00     0.034 A 
HETATM   19  C   UNL     1     -13.863   2.014 -33.197  1.00  0.00     0.012 A 
HETATM   20  C   UNL     1     -14.469   2.745 -32.173  1.00  0.00     0.022 A 
HETATM   21 BR   UNL     1     -14.876   0.736 -34.156  1.00  0.00    -0.051 Br
ENDBRANCH   8  10
ENDBRANCH   2   5
BRANCH   1  22
HETATM   22  N   UNL     1      -5.553   1.630 -30.961  1.00  0.00    -0.364 N 
HETATM   23  H   UNL     1      -6.284   1.613 -30.244  1.00  0.00     0.165 HD
BRANCH  22  24
HETATM   24  C   UNL     1      -5.684   0.657 -31.963  1.00  0.00     0.032 A 
HETATM   25  C   UNL     1      -6.967   0.373 -32.452  1.00  0.00     0.032 A 
HETATM   26  C   UNL     1      -7.168  -0.596 -33.438  1.00  0.00     0.039 A 
HETATM   27  C   UNL     1      -6.088  -1.302 -33.964  1.00  0.00     0.068 A 
HETATM   28  C   UNL     1      -4.811  -1.059 -33.463  1.00  0.00     0.039 A 
HETATM   29  C   UNL     1      -4.615  -0.093 -32.465  1.00  0.00     0.032 A 
BRANCH  27  30
HETATM   30  O   UNL     1      -6.409  -2.204 -34.938  1.00  0.00    -0.352 OA
BRANCH  30  31
HETATM   31  C   UNL     1      -5.644  -3.407 -34.971  1.00  0.00     0.171 C 
HETATM   32  C   UNL     1      -6.591  -4.554 -35.275  1.00  0.00     0.034 C 
ENDBRANCH  30  31
ENDBRANCH  27  30
ENDBRANCH  22  24
ENDBRANCH   1  22
TORSDOF 6
ENDMDL
MODEL 9
REMARK VINA RESULT:      -7.9      4.797      7.572
REMARK  6 active torsions:
REMARK  status: ('A' for Active; 'I' for Inactive)
REMARK    1  A    between atoms: C_2  and  O_3 
REMARK    2  A    between atoms: O_3  and  C_4 
REMARK    3  A    between atoms: C_7  and  N_8 
REMARK    4  A    between atoms: N_8  and  C_9 
REMARK    5  A    between atoms: C_10  and  C_11 
REMARK    6  A    between atoms: C_14  and  C_15 
ROOT
HETATM    1  C   UNL     1      -8.272   3.494 -33.968  1.00  0.00     0.113 C 
HETATM    2  C   UNL     1      -8.632   4.741 -33.603  1.00  0.00     0.082 C 
HETATM    3  C   UNL     1     -10.056   5.214 -33.849  1.00  0.00     0.024 C 
HETATM    4  N   UNL     1     -11.237   5.607 -34.053  1.00  0.00    -0.096 N 
ENDROOT
BRANCH   2   5
HETATM    5  C   UNL     1      -7.677   5.653 -33.037  1.00  0.00     0.119 A 
HETATM    6  S   UNL     1      -8.197   7.165 -32.350  1.00  0.00    -0.078 SA
HETATM    7  C   UNL     1      -6.582   7.569 -31.970  1.00  0.00     0.084 A 
HETATM    8  C   UNL     1      -5.735   6.555 -32.356  1.00  0.00     0.081 A 
HETATM    9  N   UNL     1      -6.365   5.468 -32.954  1.00  0.00    -0.239 NA
BRANCH   8  10
HETATM   10  C   UNL     1      -4.297   6.550 -32.252  1.00  0.00     0.070 A 
HETATM   11  C   UNL     1      -3.468   6.124 -33.426  1.00  0.00     0.301 A 
HETATM   12  O   UNL     1      -3.954   5.828 -34.514  1.00  0.00    -0.259 OA
HETATM   13  O   UNL     1      -2.087   6.069 -33.249  1.00  0.00    -0.274 OA
HETATM   14  C   UNL     1      -1.473   6.442 -32.044  1.00  0.00     0.089 A 
HETATM   15  C   UNL     1      -2.237   6.881 -30.970  1.00  0.00     0.000 A 
HETATM   16  C   UNL     1      -0.085   6.356 -31.973  1.00  0.00     0.039 A 
HETATM   17  C   UNL     1      -1.592   7.248 -29.786  1.00  0.00     0.033 A 
HETATM   18  C   UNL     1      -3.681   6.919 -31.113  1.00  0.00     0.034 A 
HETATM   19  C   UNL     1      -0.200   7.166 -29.704  1.00  0.00     0.012 A 
HETATM   20  C   UNL     1       0.557   6.722 -30.791  1.00  0.00     0.022 A 
HETATM   21 BR   UNL     1       0.672   7.661 -28.100  1.00  0.00    -0.051 Br
ENDBRANCH   8  10
ENDBRANCH   2   5
BRANCH   1  22
HETATM   22  N   UNL     1      -7.018   2.931 -33.898  1.00  0.00    -0.364 N 
HETATM   23  H   UNL     1      -6.275   3.583 -33.631  1.00  0.00     0.165 HD
BRANCH  22  24
HETATM   24  C   UNL     1      -6.626   1.587 -33.980  1.00  0.00     0.032 A 
HETATM   25  C   UNL     1      -7.306   0.749 -34.874  1.00  0.00     0.032 A 
HETATM   26  C   UNL     1      -6.976  -0.604 -34.993  1.00  0.00     0.039 A 
HETATM   27  C   UNL     1      -5.951  -1.149 -34.221  1.00  0.00     0.068 A 
HETATM   28  C   UNL     1      -5.290  -0.339 -33.301  1.00  0.00     0.039 A 
HETATM   29  C   UNL     1      -5.633   1.016 -33.178  1.00  0.00     0.032 A 
BRANCH  27  30
HETATM   30  O   UNL     1      -5.707  -2.475 -34.445  1.00  0.00    -0.352 OA
BRANCH  30  31
HETATM   31  C   UNL     1      -6.846  -3.304 -34.667  1.00  0.00     0.171 C 
HETATM   32  C   UNL     1      -6.374  -4.565 -35.370  1.00  0.00     0.034 C 
ENDBRANCH  30  31
ENDBRANCH  27  30
ENDBRANCH  22  24
ENDBRANCH   1  22
TORSDOF 6
ENDMDL
MODEL 10
REMARK VINA RESULT:      -7.6      2.033      2.356
REMARK  6 active torsions:
REMARK  status: ('A' for Active; 'I' for Inactive)
REMARK    1  A    between atoms: C_2  and  O_3 
REMARK    2  A    between atoms: O_3  and  C_4 
REMARK    3  A    between atoms: C_7  and  N_8 
REMARK    4  A    between atoms: N_8  and  C_9 
REMARK    5  A    between atoms: C_10  and  C_11 
REMARK    6  A    between atoms: C_14  and  C_15 
ROOT
HETATM    1  C   UNL     1      -9.147   4.724 -31.329  1.00  0.00     0.113 C 
HETATM    2  C   UNL     1      -7.850   5.006 -31.094  1.00  0.00     0.082 C 
HETATM    3  C   UNL     1      -7.486   6.077 -30.079  1.00  0.00     0.024 C 
HETATM    4  N   UNL     1      -7.183   6.967 -29.237  1.00  0.00    -0.096 N 
ENDROOT
BRANCH   2   5
HETATM    5  C   UNL     1      -6.803   4.350 -31.829  1.00  0.00     0.119 A 
HETATM    6  S   UNL     1      -5.806   5.247 -32.936  1.00  0.00    -0.078 SA
HETATM    7  C   UNL     1      -4.936   3.830 -33.329  1.00  0.00     0.084 A 
HETATM    8  C   UNL     1      -5.418   2.762 -32.606  1.00  0.00     0.081 A 
HETATM    9  N   UNL     1      -6.472   3.067 -31.752  1.00  0.00    -0.239 NA
BRANCH   8  10
HETATM   10  C   UNL     1      -4.978   1.393 -32.701  1.00  0.00     0.070 A 
HETATM   11  C   UNL     1      -3.713   0.969 -32.017  1.00  0.00     0.301 A 
HETATM   12  O   UNL     1      -3.047   1.727 -31.317  1.00  0.00    -0.259 OA
HETATM   13  O   UNL     1      -3.295  -0.348 -32.200  1.00  0.00    -0.274 OA
HETATM   14  C   UNL     1      -4.040  -1.271 -32.950  1.00  0.00     0.089 A 
HETATM   15  C   UNL     1      -5.237  -0.891 -33.546  1.00  0.00     0.000 A 
HETATM   16  C   UNL     1      -3.537  -2.564 -33.066  1.00  0.00     0.039 A 
HETATM   17  C   UNL     1      -5.955  -1.837 -34.281  1.00  0.00     0.033 A 
HETATM   18  C   UNL     1      -5.682   0.483 -33.400  1.00  0.00     0.034 A 
HETATM   19  C   UNL     1      -5.460  -3.138 -34.404  1.00  0.00     0.012 A 
HETATM   20  C   UNL     1      -4.255  -3.506 -33.801  1.00  0.00     0.022 A 
HETATM   21 BR   UNL     1      -6.432  -4.417 -35.403  1.00  0.00    -0.051 Br
ENDBRANCH   8  10
ENDBRANCH   2   5
BRANCH   1  22
HETATM   22  N   UNL     1      -9.658   3.852 -32.263  1.00  0.00    -0.364 N 
HETATM   23  H   UNL     1      -8.950   3.362 -32.818  1.00  0.00     0.165 HD
BRANCH  22  24
HETATM   24  C   UNL     1     -10.975   3.415 -32.464  1.00  0.00     0.032 A 
HETATM   25  C   UNL     1     -12.003   4.045 -31.749  1.00  0.00     0.032 A 
HETATM   26  C   UNL     1     -13.334   3.646 -31.891  1.00  0.00     0.039 A 
HETATM   27  C   UNL     1     -13.671   2.610 -32.759  1.00  0.00     0.068 A 
HETATM   28  C   UNL     1     -12.658   1.949 -33.451  1.00  0.00     0.039 A 
HETATM   29  C   UNL     1     -11.321   2.344 -33.296  1.00  0.00     0.032 A 
BRANCH  27  30
HETATM   30  O   UNL     1     -15.006   2.330 -32.830  1.00  0.00    -0.352 OA
BRANCH  30  31
HETATM   31  C   UNL     1     -15.867   3.116 -32.007  1.00  0.00     0.171 C 
HETATM   32  C   UNL     1     -17.292   2.646 -32.241  1.00  0.00     0.034 C 
ENDBRANCH  30  31
ENDBRANCH  27  30
ENDBRANCH  22  24
ENDBRANCH   1  22
TORSDOF 6
ENDMDL
