MODEL 1
REMARK VINA RESULT:      -8.9      0.000      0.000
REMARK  11 active torsions:
REMARK  status: ('A' for Active; 'I' for Inactive)
REMARK    1  A    between atoms: C_2  and  O_3 
REMARK    2  A    between atoms: O_3  and  C_4 
REMARK    3  A    between atoms: C_5  and  O_6 
REMARK    4  A    between atoms: C_9  and  C_10 
REMARK    5  A    between atoms: N_11  and  C_12 
REMARK    6  A    between atoms: C_12  and  C_13 
REMARK    7  A    between atoms: C_13  and  C_14 
REMARK    8  A    between atoms: C_14  and  N_15 
REMARK    9  A    between atoms: C_27  and  O_28 
REMARK   10  A    between atoms: C_27  and  C_29 
REMARK   11  A    between atoms: C_30  and  C_31 
ROOT
HETATM    1  C   UNL     1      -7.246   2.795 -32.508  1.00  0.00     0.161 C 
HETATM    2  N   UNL     1      -6.960   4.232 -32.514  1.00  0.00    -0.332 N 
HETATM    3  C   UNL     1      -6.803   4.761 -31.253  1.00  0.00     0.295 C 
HETATM    4  O   UNL     1      -6.598   5.928 -30.981  1.00  0.00    -0.264 OA
HETATM    5  C   UNL     1      -6.992   2.368 -31.084  1.00  0.00     0.058 C 
HETATM    6  C   UNL     1      -6.932   3.598 -30.266  1.00  0.00     0.250 C 
HETATM    7  O   UNL     1      -6.954   3.686 -29.060  1.00  0.00    -0.282 OA
HETATM    8  C   UNL     1      -6.638   1.179 -30.572  1.00  0.00     0.078 C 
ENDROOT
BRANCH   1   9
HETATM    9  C   UNL     1      -8.668   2.532 -32.979  1.00  0.00    -0.028 A 
HETATM   10  C   UNL     1      -8.933   1.397 -33.766  1.00  0.00     0.012 A 
HETATM   11  C   UNL     1     -10.221   1.144 -34.238  1.00  0.00     0.040 A 
HETATM   12  C   UNL     1     -11.244   2.033 -33.943  1.00  0.00     0.099 A 
HETATM   13  C   UNL     1     -11.019   3.175 -33.174  1.00  0.00     0.102 A 
HETATM   14  C   UNL     1      -9.737   3.405 -32.668  1.00  0.00     0.049 A 
BRANCH  12  15
HETATM   15  O   UNL     1     -12.489   1.765 -34.439  1.00  0.00    -0.358 OA
HETATM   16  H   UNL     1     -12.361   1.539 -35.381  1.00  0.00     0.218 HD
ENDBRANCH  12  15
BRANCH  13  17
HETATM   17  O   UNL     1     -12.115   3.977 -32.993  1.00  0.00    -0.349 OA
BRANCH  17  18
HETATM   18  C   UNL     1     -12.634   4.085 -31.669  1.00  0.00     0.171 C 
HETATM   19  C   UNL     1     -13.979   3.383 -31.630  1.00  0.00     0.034 C 
ENDBRANCH  17  18
ENDBRANCH  13  17
ENDBRANCH   1   9
BRANCH   2  20
HETATM   20  C   UNL     1      -6.687   4.971 -33.736  1.00  0.00     0.129 C 
BRANCH  20  21
HETATM   21  C   UNL     1      -5.302   4.738 -34.343  1.00  0.00     0.048 C 
BRANCH  21  22
HETATM   22  C   UNL     1      -4.183   4.284 -33.403  1.00  0.00     0.236 C 
BRANCH  22  23
HETATM   23  N   UNL     1      -3.028   5.240 -33.299  1.00  0.00    -0.067 N 
HETATM   24  H   UNL     1      -2.403   4.893 -32.542  1.00  0.00     0.280 HD
HETATM   25  C   UNL     1      -2.219   5.417 -34.573  1.00  0.00     0.261 C 
HETATM   26  C   UNL     1      -1.077   6.412 -34.334  1.00  0.00     0.195 C 
HETATM   27  O   UNL     1      -1.579   7.671 -33.873  1.00  0.00    -0.388 OA
HETATM   28  C   UNL     1      -2.270   7.532 -32.626  1.00  0.00     0.195 C 
HETATM   29  C   UNL     1      -3.483   6.610 -32.782  1.00  0.00     0.261 C 
ENDBRANCH  22  23
ENDBRANCH  21  22
ENDBRANCH  20  21
ENDBRANCH   2  20
BRANCH   8  30
HETATM   30  O   UNL     1      -6.358   0.991 -29.232  1.00  0.00    -0.360 OA
HETATM   31  H   UNL     1      -6.989   0.357 -28.834  1.00  0.00     0.217 HD
ENDBRANCH   8  30
BRANCH   8  32
HETATM   32  C   UNL     1      -6.442  -0.006 -31.386  1.00  0.00     0.038 C 
HETATM   33  C   UNL     1      -5.609  -0.078 -32.437  1.00  0.00     0.014 C 
BRANCH  33  34
HETATM   34  C   UNL     1      -5.582  -1.253 -33.311  1.00  0.00    -0.036 A 
HETATM   35  C   UNL     1      -6.782  -1.711 -33.868  1.00  0.00     0.011 A 
HETATM   36  C   UNL     1      -6.795  -2.843 -34.684  1.00  0.00     0.001 A 
HETATM   37  C   UNL     1      -5.606  -3.518 -34.955  1.00  0.00     0.000 A 
HETATM   38  C   UNL     1      -4.405  -3.062 -34.412  1.00  0.00     0.001 A 
HETATM   39  C   UNL     1      -4.392  -1.932 -33.590  1.00  0.00     0.011 A 
ENDBRANCH  33  34
ENDBRANCH   8  32
TORSDOF 11
ENDMDL
MODEL 2
REMARK VINA RESULT:      -8.7      2.661      5.948
REMARK  11 active torsions:
REMARK  status: ('A' for Active; 'I' for Inactive)
REMARK    1  A    between atoms: C_2  and  O_3 
REMARK    2  A    between atoms: O_3  and  C_4 
REMARK    3  A    between atoms: C_5  and  O_6 
REMARK    4  A    between atoms: C_9  and  C_10 
REMARK    5  A    between atoms: N_11  and  C_12 
REMARK    6  A    between atoms: C_12  and  C_13 
REMARK    7  A    between atoms: C_13  and  C_14 
REMARK    8  A    between atoms: C_14  and  N_15 
REMARK    9  A    between atoms: C_27  and  O_28 
REMARK   10  A    between atoms: C_27  and  C_29 
REMARK   11  A    between atoms: C_30  and  C_31 
ROOT
HETATM    1  C   UNL     1      -7.029   2.017 -31.987  1.00  0.00     0.161 C 
HETATM    2  N   UNL     1      -7.932   2.951 -31.306  1.00  0.00    -0.332 N 
HETATM    3  C   UNL     1      -8.872   3.506 -32.143  1.00  0.00     0.295 C 
HETATM    4  O   UNL     1      -9.709   4.334 -31.838  1.00  0.00    -0.264 OA
HETATM    5  C   UNL     1      -7.659   1.809 -33.342  1.00  0.00     0.058 C 
HETATM    6  C   UNL     1      -8.663   2.879 -33.523  1.00  0.00     0.250 C 
HETATM    7  O   UNL     1      -9.234   3.192 -34.542  1.00  0.00    -0.282 OA
HETATM    8  C   UNL     1      -7.586   0.777 -34.196  1.00  0.00     0.078 C 
ENDROOT
BRANCH   1   9
HETATM    9  C   UNL     1      -5.620   2.588 -32.050  1.00  0.00    -0.028 A 
HETATM   10  C   UNL     1      -4.596   1.973 -31.310  1.00  0.00     0.012 A 
HETATM   11  C   UNL     1      -3.300   2.488 -31.323  1.00  0.00     0.040 A 
HETATM   12  C   UNL     1      -3.027   3.631 -32.060  1.00  0.00     0.099 A 
HETATM   13  C   UNL     1      -4.019   4.277 -32.800  1.00  0.00     0.102 A 
HETATM   14  C   UNL     1      -5.307   3.735 -32.818  1.00  0.00     0.049 A 
BRANCH  12  15
HETATM   15  O   UNL     1      -1.751   4.122 -32.035  1.00  0.00    -0.358 OA
HETATM   16  H   UNL     1      -1.825   5.045 -31.725  1.00  0.00     0.218 HD
ENDBRANCH  12  15
BRANCH  13  17
HETATM   17  O   UNL     1      -3.612   5.412 -33.450  1.00  0.00    -0.349 OA
BRANCH  17  18
HETATM   18  C   UNL     1      -3.386   5.316 -34.855  1.00  0.00     0.171 C 
HETATM   19  C   UNL     1      -1.896   5.145 -35.085  1.00  0.00     0.034 C 
ENDBRANCH  17  18
ENDBRANCH  13  17
ENDBRANCH   1   9
BRANCH   2  20
HETATM   20  C   UNL     1      -7.939   3.119 -29.862  1.00  0.00     0.129 C 
BRANCH  20  21
HETATM   21  C   UNL     1      -7.491   4.495 -29.364  1.00  0.00     0.048 C 
BRANCH  21  22
HETATM   22  C   UNL     1      -6.011   4.675 -29.017  1.00  0.00     0.236 C 
BRANCH  22  23
HETATM   23  N   UNL     1      -5.661   6.024 -28.453  1.00  0.00    -0.067 N 
HETATM   24  H   UNL     1      -4.907   6.425 -29.049  1.00  0.00     0.280 HD
HETATM   25  C   UNL     1      -6.813   7.010 -28.372  1.00  0.00     0.261 C 
HETATM   26  C   UNL     1      -6.326   8.339 -27.783  1.00  0.00     0.195 C 
HETATM   27  O   UNL     1      -5.734   8.143 -26.494  1.00  0.00    -0.388 OA
HETATM   28  C   UNL     1      -4.591   7.282 -26.569  1.00  0.00     0.195 C 
HETATM   29  C   UNL     1      -4.994   5.895 -27.079  1.00  0.00     0.261 C 
ENDBRANCH  22  23
ENDBRANCH  21  22
ENDBRANCH  20  21
ENDBRANCH   2  20
BRANCH   8  30
HETATM   30  O   UNL     1      -8.312   0.720 -35.370  1.00  0.00    -0.360 OA
HETATM   31  H   UNL     1      -9.235   0.449 -35.191  1.00  0.00     0.217 HD
ENDBRANCH   8  30
BRANCH   8  32
HETATM   32  C   UNL     1      -6.797  -0.414 -33.933  1.00  0.00     0.038 C 
HETATM   33  C   UNL     1      -6.269  -1.201 -34.884  1.00  0.00     0.014 C 
BRANCH  33  34
HETATM   34  C   UNL     1      -5.625  -2.473 -34.551  1.00  0.00    -0.036 A 
HETATM   35  C   UNL     1      -4.436  -2.458 -33.813  1.00  0.00     0.011 A 
HETATM   36  C   UNL     1      -3.783  -3.652 -33.501  1.00  0.00     0.001 A 
HETATM   37  C   UNL     1      -4.320  -4.868 -33.920  1.00  0.00     0.000 A 
HETATM   38  C   UNL     1      -5.510  -4.891 -34.648  1.00  0.00     0.001 A 
HETATM   39  C   UNL     1      -6.162  -3.697 -34.964  1.00  0.00     0.011 A 
ENDBRANCH  33  34
ENDBRANCH   8  32
TORSDOF 11
ENDMDL
MODEL 3
REMARK VINA RESULT:      -8.6      1.559      2.254
REMARK  11 active torsions:
REMARK  status: ('A' for Active; 'I' for Inactive)
REMARK    1  A    between atoms: C_2  and  O_3 
REMARK    2  A    between atoms: O_3  and  C_4 
REMARK    3  A    between atoms: C_5  and  O_6 
REMARK    4  A    between atoms: C_9  and  C_10 
REMARK    5  A    between atoms: N_11  and  C_12 
REMARK    6  A    between atoms: C_12  and  C_13 
REMARK    7  A    between atoms: C_13  and  C_14 
REMARK    8  A    between atoms: C_14  and  N_15 
REMARK    9  A    between atoms: C_27  and  O_28 
REMARK   10  A    between atoms: C_27  and  C_29 
REMARK   11  A    between atoms: C_30  and  C_31 
ROOT
HETATM    1  C   UNL     1      -6.261   3.324 -32.825  1.00  0.00     0.161 C 
HETATM    2  N   UNL     1      -5.605   4.635 -32.804  1.00  0.00    -0.332 N 
HETATM    3  C   UNL     1      -5.460   5.150 -31.537  1.00  0.00     0.295 C 
HETATM    4  O   UNL     1      -4.986   6.232 -31.248  1.00  0.00    -0.264 OA
HETATM    5  C   UNL     1      -6.293   2.898 -31.379  1.00  0.00     0.058 C 
HETATM    6  C   UNL     1      -6.005   4.099 -30.567  1.00  0.00     0.250 C 
HETATM    7  O   UNL     1      -6.140   4.234 -29.372  1.00  0.00    -0.282 OA
HETATM    8  C   UNL     1      -6.328   1.678 -30.822  1.00  0.00     0.078 C 
ENDROOT
BRANCH   1   9
HETATM    9  C   UNL     1      -7.638   3.426 -33.463  1.00  0.00    -0.028 A 
HETATM   10  C   UNL     1      -8.172   4.695 -33.746  1.00  0.00     0.012 A 
HETATM   11  C   UNL     1      -9.444   4.823 -34.303  1.00  0.00     0.040 A 
HETATM   12  C   UNL     1     -10.195   3.686 -34.561  1.00  0.00     0.099 A 
HETATM   13  C   UNL     1      -9.705   2.410 -34.284  1.00  0.00     0.102 A 
HETATM   14  C   UNL     1      -8.414   2.281 -33.764  1.00  0.00     0.049 A 
BRANCH  12  15
HETATM   15  O   UNL     1     -11.446   3.849 -35.089  1.00  0.00    -0.358 OA
HETATM   16  H   UNL     1     -11.873   4.548 -34.556  1.00  0.00     0.218 HD
ENDBRANCH  12  15
BRANCH  13  17
HETATM   17  O   UNL     1     -10.570   1.383 -34.559  1.00  0.00    -0.349 OA
BRANCH  17  18
HETATM   18  C   UNL     1     -11.227   0.768 -33.453  1.00  0.00     0.171 C 
HETATM   19  C   UNL     1     -12.707   0.674 -33.773  1.00  0.00     0.034 C 
ENDBRANCH  17  18
ENDBRANCH  13  17
ENDBRANCH   1   9
BRANCH   2  20
HETATM   20  C   UNL     1      -5.009   5.231 -33.988  1.00  0.00     0.129 C 
BRANCH  20  21
HETATM   21  C   UNL     1      -3.519   4.942 -34.183  1.00  0.00     0.048 C 
BRANCH  21  22
HETATM   22  C   UNL     1      -2.538   6.093 -33.949  1.00  0.00     0.236 C 
BRANCH  22  23
HETATM   23  N   UNL     1      -2.183   6.328 -32.507  1.00  0.00    -0.067 N 
HETATM   24  H   UNL     1      -3.027   6.112 -31.939  1.00  0.00     0.280 HD
HETATM   25  C   UNL     1      -1.009   5.515 -31.989  1.00  0.00     0.261 C 
HETATM   26  C   UNL     1      -0.752   5.847 -30.514  1.00  0.00     0.195 C 
HETATM   27  O   UNL     1      -0.516   7.248 -30.336  1.00  0.00    -0.388 OA
HETATM   28  C   UNL     1      -1.650   8.023 -30.741  1.00  0.00     0.195 C 
HETATM   29  C   UNL     1      -1.942   7.817 -32.230  1.00  0.00     0.261 C 
ENDBRANCH  22  23
ENDBRANCH  21  22
ENDBRANCH  20  21
ENDBRANCH   2  20
BRANCH   8  30
HETATM   30  O   UNL     1      -6.263   1.473 -29.457  1.00  0.00    -0.360 OA
HETATM   31  H   UNL     1      -6.802   2.139 -28.983  1.00  0.00     0.217 HD
ENDBRANCH   8  30
BRANCH   8  32
HETATM   32  C   UNL     1      -6.361   0.453 -31.600  1.00  0.00     0.038 C 
HETATM   33  C   UNL     1      -5.331  -0.017 -32.323  1.00  0.00     0.014 C 
BRANCH  33  34
HETATM   34  C   UNL     1      -5.486  -1.169 -33.213  1.00  0.00    -0.036 A 
HETATM   35  C   UNL     1      -4.357  -1.928 -33.542  1.00  0.00     0.011 A 
HETATM   36  C   UNL     1      -4.466  -3.017 -34.408  1.00  0.00     0.001 A 
HETATM   37  C   UNL     1      -5.706  -3.358 -34.945  1.00  0.00     0.000 A 
HETATM   38  C   UNL     1      -6.838  -2.611 -34.614  1.00  0.00     0.001 A 
HETATM   39  C   UNL     1      -6.729  -1.518 -33.751  1.00  0.00     0.011 A 
ENDBRANCH  33  34
ENDBRANCH   8  32
TORSDOF 11
ENDMDL
MODEL 4
REMARK VINA RESULT:      -8.5      2.265      4.308
REMARK  11 active torsions:
REMARK  status: ('A' for Active; 'I' for Inactive)
REMARK    1  A    between atoms: C_2  and  O_3 
REMARK    2  A    between atoms: O_3  and  C_4 
REMARK    3  A    between atoms: C_5  and  O_6 
REMARK    4  A    between atoms: C_9  and  C_10 
REMARK    5  A    between atoms: N_11  and  C_12 
REMARK    6  A    between atoms: C_12  and  C_13 
REMARK    7  A    between atoms: C_13  and  C_14 
REMARK    8  A    between atoms: C_14  and  N_15 
REMARK    9  A    between atoms: C_27  and  O_28 
REMARK   10  A    between atoms: C_27  and  C_29 
REMARK   11  A    between atoms: C_30  and  C_31 
ROOT
HETATM    1  C   UNL     1      -5.170   2.396 -32.886  1.00  0.00     0.161 C 
HETATM    2  N   UNL     1      -4.677   3.721 -33.274  1.00  0.00    -0.332 N 
HETATM    3  C   UNL     1      -3.540   4.097 -32.597  1.00  0.00     0.295 C 
HETATM    4  O   UNL     1      -2.955   5.158 -32.704  1.00  0.00    -0.264 OA
HETATM    5  C   UNL     1      -4.057   1.812 -32.052  1.00  0.00     0.058 C 
HETATM    6  C   UNL     1      -3.155   2.926 -31.692  1.00  0.00     0.250 C 
HETATM    7  O   UNL     1      -2.268   2.922 -30.869  1.00  0.00    -0.282 OA
HETATM    8  C   UNL     1      -3.712   0.537 -31.815  1.00  0.00     0.078 C 
ENDROOT
BRANCH   1   9
HETATM    9  C   UNL     1      -6.492   2.515 -32.143  1.00  0.00    -0.028 A 
HETATM   10  C   UNL     1      -6.484   2.810 -30.769  1.00  0.00     0.012 A 
HETATM   11  C   UNL     1      -7.678   2.897 -30.053  1.00  0.00     0.040 A 
HETATM   12  C   UNL     1      -8.882   2.669 -30.703  1.00  0.00     0.099 A 
HETATM   13  C   UNL     1      -8.931   2.364 -32.063  1.00  0.00     0.102 A 
HETATM   14  C   UNL     1      -7.737   2.318 -32.787  1.00  0.00     0.049 A 
BRANCH  12  15
HETATM   15  O   UNL     1     -10.032   2.742 -29.967  1.00  0.00    -0.358 OA
HETATM   16  H   UNL     1      -9.799   3.227 -29.152  1.00  0.00     0.218 HD
ENDBRANCH  12  15
BRANCH  13  17
HETATM   17  O   UNL     1     -10.186   2.132 -32.561  1.00  0.00    -0.349 OA
BRANCH  17  18
HETATM   18  C   UNL     1     -10.333   1.061 -33.491  1.00  0.00     0.171 C 
HETATM   19  C   UNL     1     -10.146  -0.246 -32.742  1.00  0.00     0.034 C 
ENDBRANCH  17  18
ENDBRANCH  13  17
ENDBRANCH   1   9
BRANCH   2  20
HETATM   20  C   UNL     1      -5.233   4.467 -34.391  1.00  0.00     0.129 C 
BRANCH  20  21
HETATM   21  C   UNL     1      -6.493   5.275 -34.072  1.00  0.00     0.048 C 
BRANCH  21  22
HETATM   22  C   UNL     1      -6.480   6.139 -32.810  1.00  0.00     0.236 C 
BRANCH  22  23
HETATM   23  N   UNL     1      -7.663   5.942 -31.904  1.00  0.00    -0.067 N 
HETATM   24  H   UNL     1      -7.737   4.923 -31.705  1.00  0.00     0.280 HD
HETATM   25  C   UNL     1      -7.607   6.705 -30.592  1.00  0.00     0.261 C 
HETATM   26  C   UNL     1      -8.866   6.419 -29.765  1.00  0.00     0.195 C 
HETATM   27  O   UNL     1     -10.050   6.755 -30.498  1.00  0.00    -0.388 OA
HETATM   28  C   UNL     1     -10.160   5.979 -31.696  1.00  0.00     0.195 C 
HETATM   29  C   UNL     1      -8.977   6.257 -32.629  1.00  0.00     0.261 C 
ENDBRANCH  22  23
ENDBRANCH  21  22
ENDBRANCH  20  21
ENDBRANCH   2  20
BRANCH   8  30
HETATM   30  O   UNL     1      -2.592   0.185 -31.086  1.00  0.00    -0.360 OA
HETATM   31  H   UNL     1      -2.127  -0.565 -31.511  1.00  0.00     0.217 HD
ENDBRANCH   8  30
BRANCH   8  32
HETATM   32  C   UNL     1      -4.437  -0.595 -32.364  1.00  0.00     0.038 C 
HETATM   33  C   UNL     1      -3.908  -1.506 -33.196  1.00  0.00     0.014 C 
BRANCH  33  34
HETATM   34  C   UNL     1      -4.739  -2.526 -33.840  1.00  0.00    -0.036 A 
HETATM   35  C   UNL     1      -4.214  -3.810 -34.025  1.00  0.00     0.011 A 
HETATM   36  C   UNL     1      -4.970  -4.797 -34.659  1.00  0.00     0.001 A 
HETATM   37  C   UNL     1      -6.259  -4.508 -35.103  1.00  0.00     0.000 A 
HETATM   38  C   UNL     1      -6.793  -3.233 -34.913  1.00  0.00     0.001 A 
HETATM   39  C   UNL     1      -6.034  -2.242 -34.284  1.00  0.00     0.011 A 
ENDBRANCH  33  34
ENDBRANCH   8  32
TORSDOF 11
ENDMDL
MODEL 5
REMARK VINA RESULT:      -8.3      2.560      5.755
REMARK  11 active torsions:
REMARK  status: ('A' for Active; 'I' for Inactive)
REMARK    1  A    between atoms: C_2  and  O_3 
REMARK    2  A    between atoms: O_3  and  C_4 
REMARK    3  A    between atoms: C_5  and  O_6 
REMARK    4  A    between atoms: C_9  and  C_10 
REMARK    5  A    between atoms: N_11  and  C_12 
REMARK    6  A    between atoms: C_12  and  C_13 
REMARK    7  A    between atoms: C_13  and  C_14 
REMARK    8  A    between atoms: C_14  and  N_15 
REMARK    9  A    between atoms: C_27  and  O_28 
REMARK   10  A    between atoms: C_27  and  C_29 
REMARK   11  A    between atoms: C_30  and  C_31 
ROOT
HETATM    1  C   UNL     1      -6.733   2.927 -32.355  1.00  0.00     0.161 C 
HETATM    2  N   UNL     1      -7.420   3.841 -31.438  1.00  0.00    -0.332 N 
HETATM    3  C   UNL     1      -8.653   4.245 -31.896  1.00  0.00     0.295 C 
HETATM    4  O   UNL     1      -9.404   5.028 -31.347  1.00  0.00    -0.264 OA
HETATM    5  C   UNL     1      -7.784   2.554 -33.370  1.00  0.00     0.058 C 
HETATM    6  C   UNL     1      -8.892   3.521 -33.222  1.00  0.00     0.250 C 
HETATM    7  O   UNL     1      -9.823   3.699 -33.975  1.00  0.00    -0.282 OA
HETATM    8  C   UNL     1      -7.917   1.461 -34.137  1.00  0.00     0.078 C 
ENDROOT
BRANCH   1   9
HETATM    9  C   UNL     1      -5.510   3.600 -32.962  1.00  0.00    -0.028 A 
HETATM   10  C   UNL     1      -5.642   4.302 -34.173  1.00  0.00     0.012 A 
HETATM   11  C   UNL     1      -4.535   4.904 -34.770  1.00  0.00     0.040 A 
HETATM   12  C   UNL     1      -3.290   4.791 -34.170  1.00  0.00     0.099 A 
HETATM   13  C   UNL     1      -3.116   4.094 -32.974  1.00  0.00     0.102 A 
HETATM   14  C   UNL     1      -4.233   3.527 -32.357  1.00  0.00     0.049 A 
BRANCH  12  15
HETATM   15  O   UNL     1      -2.222   5.377 -34.793  1.00  0.00    -0.358 OA
HETATM   16  H   UNL     1      -2.597   6.061 -35.381  1.00  0.00     0.218 HD
ENDBRANCH  12  15
BRANCH  13  17
HETATM   17  O   UNL     1      -1.826   4.037 -32.518  1.00  0.00    -0.349 OA
BRANCH  17  18
HETATM   18  C   UNL     1      -1.517   4.772 -31.336  1.00  0.00     0.171 C 
HETATM   19  C   UNL     1      -0.411   5.758 -31.665  1.00  0.00     0.034 C 
ENDBRANCH  17  18
ENDBRANCH  13  17
ENDBRANCH   1   9
BRANCH   2  20
HETATM   20  C   UNL     1      -6.922   4.131 -30.104  1.00  0.00     0.129 C 
BRANCH  20  21
HETATM   21  C   UNL     1      -6.619   5.606 -29.828  1.00  0.00     0.048 C 
BRANCH  21  22
HETATM   22  C   UNL     1      -5.242   6.134 -30.235  1.00  0.00     0.236 C 
BRANCH  22  23
HETATM   23  N   UNL     1      -4.280   6.319 -29.095  1.00  0.00    -0.067 N 
HETATM   24  H   UNL     1      -3.828   5.399 -28.917  1.00  0.00     0.280 HD
HETATM   25  C   UNL     1      -3.207   7.370 -29.318  1.00  0.00     0.261 C 
HETATM   26  C   UNL     1      -2.297   7.460 -28.087  1.00  0.00     0.195 C 
HETATM   27  O   UNL     1      -3.055   7.750 -26.907  1.00  0.00    -0.388 OA
HETATM   28  C   UNL     1      -4.014   6.722 -26.636  1.00  0.00     0.195 C 
HETATM   29  C   UNL     1      -5.021   6.608 -27.784  1.00  0.00     0.261 C 
ENDBRANCH  22  23
ENDBRANCH  21  22
ENDBRANCH  20  21
ENDBRANCH   2  20
BRANCH   8  30
HETATM   30  O   UNL     1      -9.008   1.246 -34.957  1.00  0.00    -0.360 OA
HETATM   31  H   UNL     1      -9.274   2.078 -35.400  1.00  0.00     0.217 HD
ENDBRANCH   8  30
BRANCH   8  32
HETATM   32  C   UNL     1      -6.966   0.364 -34.124  1.00  0.00     0.038 C 
HETATM   33  C   UNL     1      -7.134  -0.796 -34.778  1.00  0.00     0.014 C 
BRANCH  33  34
HETATM   34  C   UNL     1      -6.214  -1.920 -34.589  1.00  0.00    -0.036 A 
HETATM   35  C   UNL     1      -6.629  -3.205 -34.956  1.00  0.00     0.011 A 
HETATM   36  C   UNL     1      -5.786  -4.301 -34.765  1.00  0.00     0.001 A 
HETATM   37  C   UNL     1      -4.520  -4.116 -34.212  1.00  0.00     0.000 A 
HETATM   38  C   UNL     1      -4.095  -2.837 -33.853  1.00  0.00     0.001 A 
HETATM   39  C   UNL     1      -4.940  -1.740 -34.039  1.00  0.00     0.011 A 
ENDBRANCH  33  34
ENDBRANCH   8  32
TORSDOF 11
ENDMDL
MODEL 6
REMARK VINA RESULT:      -7.7      3.845      8.870
REMARK  11 active torsions:
REMARK  status: ('A' for Active; 'I' for Inactive)
REMARK    1  A    between atoms: C_2  and  O_3 
REMARK    2  A    between atoms: O_3  and  C_4 
REMARK    3  A    between atoms: C_5  and  O_6 
REMARK    4  A    between atoms: C_9  and  C_10 
REMARK    5  A    between atoms: N_11  and  C_12 
REMARK    6  A    between atoms: C_12  and  C_13 
REMARK    7  A    between atoms: C_13  and  C_14 
REMARK    8  A    between atoms: C_14  and  N_15 
REMARK    9  A    between atoms: C_27  and  O_28 
REMARK   10  A    between atoms: C_27  and  C_29 
REMARK   11  A    between atoms: C_30  and  C_31 
ROOT
HETATM    1  C   UNL     1      -3.623   5.582 -30.853  1.00  0.00     0.161 C 
HETATM    2  N   UNL     1      -4.203   4.411 -31.519  1.00  0.00    -0.332 N 
HETATM    3  C   UNL     1      -4.219   4.518 -32.890  1.00  0.00     0.295 C 
HETATM    4  O   UNL     1      -4.679   3.708 -33.671  1.00  0.00    -0.264 OA
HETATM    5  C   UNL     1      -3.000   6.378 -31.972  1.00  0.00     0.058 C 
HETATM    6  C   UNL     1      -3.547   5.848 -33.239  1.00  0.00     0.250 C 
HETATM    7  O   UNL     1      -3.466   6.339 -34.342  1.00  0.00    -0.282 OA
HETATM    8  C   UNL     1      -1.977   7.246 -31.969  1.00  0.00     0.078 C 
ENDROOT
BRANCH   1   9
HETATM    9  C   UNL     1      -4.692   6.342 -30.083  1.00  0.00    -0.028 A 
HETATM   10  C   UNL     1      -5.774   6.904 -30.783  1.00  0.00     0.012 A 
HETATM   11  C   UNL     1      -6.755   7.632 -30.111  1.00  0.00     0.040 A 
HETATM   12  C   UNL     1      -6.649   7.819 -28.741  1.00  0.00     0.099 A 
HETATM   13  C   UNL     1      -5.585   7.286 -28.012  1.00  0.00     0.102 A 
HETATM   14  C   UNL     1      -4.625   6.522 -28.681  1.00  0.00     0.049 A 
BRANCH  12  15
HETATM   15  O   UNL     1      -7.618   8.555 -28.116  1.00  0.00    -0.358 OA
HETATM   16  H   UNL     1      -7.712   9.373 -28.640  1.00  0.00     0.218 HD
ENDBRANCH  12  15
BRANCH  13  17
HETATM   17  O   UNL     1      -5.593   7.580 -26.674  1.00  0.00    -0.349 OA
BRANCH  17  18
HETATM   18  C   UNL     1      -4.684   8.578 -26.218  1.00  0.00     0.171 C 
HETATM   19  C   UNL     1      -3.469   7.882 -25.633  1.00  0.00     0.034 C 
ENDBRANCH  17  18
ENDBRANCH  13  17
ENDBRANCH   1   9
BRANCH   2  20
HETATM   20  C   UNL     1      -4.548   3.194 -30.802  1.00  0.00     0.129 C 
BRANCH  20  21
HETATM   21  C   UNL     1      -6.043   2.988 -30.549  1.00  0.00     0.048 C 
BRANCH  21  22
HETATM   22  C   UNL     1      -6.657   1.654 -30.979  1.00  0.00     0.236 C 
BRANCH  22  23
HETATM   23  N   UNL     1      -6.247   1.189 -32.348  1.00  0.00    -0.067 N 
HETATM   24  H   UNL     1      -5.459   1.792 -32.660  1.00  0.00     0.280 HD
HETATM   25  C   UNL     1      -5.828  -0.268 -32.437  1.00  0.00     0.261 C 
HETATM   26  C   UNL     1      -5.437  -0.614 -33.879  1.00  0.00     0.195 C 
HETATM   27  O   UNL     1      -6.512  -0.339 -34.783  1.00  0.00    -0.388 OA
HETATM   28  C   UNL     1      -6.861   1.050 -34.773  1.00  0.00     0.195 C 
HETATM   29  C   UNL     1      -7.342   1.475 -33.383  1.00  0.00     0.261 C 
ENDBRANCH  22  23
ENDBRANCH  21  22
ENDBRANCH  20  21
ENDBRANCH   2  20
BRANCH   8  30
HETATM   30  O   UNL     1      -1.478   7.824 -33.121  1.00  0.00    -0.360 OA
HETATM   31  H   UNL     1      -0.506   7.717 -33.166  1.00  0.00     0.217 HD
ENDBRANCH   8  30
BRANCH   8  32
HETATM   32  C   UNL     1      -1.246   7.605 -30.767  1.00  0.00     0.038 C 
HETATM   33  C   UNL     1      -0.394   6.791 -30.124  1.00  0.00     0.014 C 
BRANCH  33  34
HETATM   34  C   UNL     1       0.182   7.159 -28.828  1.00  0.00    -0.036 A 
HETATM   35  C   UNL     1      -0.220   6.461 -27.684  1.00  0.00     0.011 A 
HETATM   36  C   UNL     1       0.290   6.804 -26.431  1.00  0.00     0.001 A 
HETATM   37  C   UNL     1       1.213   7.842 -26.317  1.00  0.00     0.000 A 
HETATM   38  C   UNL     1       1.627   8.536 -27.454  1.00  0.00     0.001 A 
HETATM   39  C   UNL     1       1.112   8.197 -28.708  1.00  0.00     0.011 A 
ENDBRANCH  33  34
ENDBRANCH   8  32
TORSDOF 11
ENDMDL
MODEL 7
REMARK VINA RESULT:      -7.6      3.153      5.446
REMARK  11 active torsions:
REMARK  status: ('A' for Active; 'I' for Inactive)
REMARK    1  A    between atoms: C_2  and  O_3 
REMARK    2  A    between atoms: O_3  and  C_4 
REMARK    3  A    between atoms: C_5  and  O_6 
REMARK    4  A    between atoms: C_9  and  C_10 
REMARK    5  A    between atoms: N_11  and  C_12 
REMARK    6  A    between atoms: C_12  and  C_13 
REMARK    7  A    between atoms: C_13  and  C_14 
REMARK    8  A    between atoms: C_14  and  N_15 
REMARK    9  A    between atoms: C_27  and  O_28 
REMARK   10  A    between atoms: C_27  and  C_29 
REMARK   11  A    between atoms: C_30  and  C_31 
ROOT
HETATM    1  C   UNL     1      -5.579   3.535 -31.885  1.00  0.00     0.161 C 
HETATM    2  N   UNL     1      -4.362   4.242 -32.297  1.00  0.00    -0.332 N 
HETATM    3  C   UNL     1      -3.209   3.540 -32.029  1.00  0.00     0.295 C 
HETATM    4  O   UNL     1      -2.072   3.917 -32.236  1.00  0.00    -0.264 OA
HETATM    5  C   UNL     1      -5.107   2.141 -31.552  1.00  0.00     0.058 C 
HETATM    6  C   UNL     1      -3.636   2.199 -31.429  1.00  0.00     0.250 C 
HETATM    7  O   UNL     1      -2.898   1.355 -30.973  1.00  0.00    -0.282 OA
HETATM    8  C   UNL     1      -5.755   0.966 -31.570  1.00  0.00     0.078 C 
ENDROOT
BRANCH   1   9
HETATM    9  C   UNL     1      -6.243   4.250 -30.718  1.00  0.00    -0.028 A 
HETATM   10  C   UNL     1      -7.612   4.561 -30.792  1.00  0.00     0.012 A 
HETATM   11  C   UNL     1      -8.244   5.242 -29.752  1.00  0.00     0.040 A 
HETATM   12  C   UNL     1      -7.506   5.633 -28.644  1.00  0.00     0.099 A 
HETATM   13  C   UNL     1      -6.144   5.354 -28.539  1.00  0.00     0.102 A 
HETATM   14  C   UNL     1      -5.522   4.635 -29.563  1.00  0.00     0.049 A 
BRANCH  12  15
HETATM   15  O   UNL     1      -8.152   6.317 -27.652  1.00  0.00    -0.358 OA
HETATM   16  H   UNL     1      -7.727   7.195 -27.610  1.00  0.00     0.218 HD
ENDBRANCH  12  15
BRANCH  13  17
HETATM   17  O   UNL     1      -5.539   5.830 -27.406  1.00  0.00    -0.349 OA
BRANCH  17  18
HETATM   18  C   UNL     1      -4.694   6.970 -27.545  1.00  0.00     0.171 C 
HETATM   19  C   UNL     1      -3.577   6.860 -26.524  1.00  0.00     0.034 C 
ENDBRANCH  17  18
ENDBRANCH  13  17
ENDBRANCH   1   9
BRANCH   2  20
HETATM   20  C   UNL     1      -4.395   5.470 -33.074  1.00  0.00     0.129 C 
BRANCH  20  21
HETATM   21  C   UNL     1      -4.202   6.756 -32.268  1.00  0.00     0.048 C 
BRANCH  21  22
HETATM   22  C   UNL     1      -2.836   7.441 -32.344  1.00  0.00     0.236 C 
BRANCH  22  23
HETATM   23  N   UNL     1      -1.788   6.849 -31.443  1.00  0.00    -0.067 N 
HETATM   24  H   UNL     1      -2.016   5.841 -31.320  1.00  0.00     0.280 HD
HETATM   25  C   UNL     1      -0.359   6.981 -31.940  1.00  0.00     0.261 C 
HETATM   26  C   UNL     1       0.607   6.341 -30.935  1.00  0.00     0.195 C 
HETATM   27  O   UNL     1       0.464   6.929 -29.638  1.00  0.00    -0.388 OA
HETATM   28  C   UNL     1      -0.857   6.735 -29.120  1.00  0.00     0.195 C 
HETATM   29  C   UNL     1      -1.895   7.412 -30.021  1.00  0.00     0.261 C 
ENDBRANCH  22  23
ENDBRANCH  21  22
ENDBRANCH  20  21
ENDBRANCH   2  20
BRANCH   8  30
HETATM   30  O   UNL     1      -5.131  -0.240 -31.315  1.00  0.00    -0.360 OA
HETATM   31  H   UNL     1      -5.219  -0.841 -32.083  1.00  0.00     0.217 HD
ENDBRANCH   8  30
BRANCH   8  32
HETATM   32  C   UNL     1      -7.155   0.840 -31.932  1.00  0.00     0.038 C 
HETATM   33  C   UNL     1      -7.636   0.993 -33.176  1.00  0.00     0.014 C 
BRANCH  33  34
HETATM   34  C   UNL     1      -9.076   1.013 -33.442  1.00  0.00    -0.036 A 
HETATM   35  C   UNL     1      -9.609   2.054 -34.210  1.00  0.00     0.011 A 
HETATM   36  C   UNL     1     -10.981   2.117 -34.460  1.00  0.00     0.001 A 
HETATM   37  C   UNL     1     -11.826   1.134 -33.949  1.00  0.00     0.000 A 
HETATM   38  C   UNL     1     -11.301   0.087 -33.190  1.00  0.00     0.001 A 
HETATM   39  C   UNL     1      -9.928   0.027 -32.935  1.00  0.00     0.011 A 
ENDBRANCH  33  34
ENDBRANCH   8  32
TORSDOF 11
ENDMDL
MODEL 8
REMARK VINA RESULT:      -7.6      2.222      7.920
REMARK  11 active torsions:
REMARK  status: ('A' for Active; 'I' for Inactive)
REMARK    1  A    between atoms: C_2  and  O_3 
REMARK    2  A    between atoms: O_3  and  C_4 
REMARK    3  A    between atoms: C_5  and  O_6 
REMARK    4  A    between atoms: C_9  and  C_10 
REMARK    5  A    between atoms: N_11  and  C_12 
REMARK    6  A    between atoms: C_12  and  C_13 
REMARK    7  A    between atoms: C_13  and  C_14 
REMARK    8  A    between atoms: C_14  and  N_15 
REMARK    9  A    between atoms: C_27  and  O_28 
REMARK   10  A    between atoms: C_27  and  C_29 
REMARK   11  A    between atoms: C_30  and  C_31 
ROOT
HETATM    1  C   UNL     1      -6.185   2.283 -32.199  1.00  0.00     0.161 C 
HETATM    2  N   UNL     1      -7.610   1.988 -32.374  1.00  0.00    -0.332 N 
HETATM    3  C   UNL     1      -8.365   2.277 -31.261  1.00  0.00     0.295 C 
HETATM    4  O   UNL     1      -9.560   2.090 -31.132  1.00  0.00    -0.264 OA
HETATM    5  C   UNL     1      -6.119   3.065 -30.911  1.00  0.00     0.058 C 
HETATM    6  C   UNL     1      -7.414   2.878 -30.224  1.00  0.00     0.250 C 
HETATM    7  O   UNL     1      -7.692   3.161 -29.080  1.00  0.00    -0.282 OA
HETATM    8  C   UNL     1      -5.229   3.970 -30.477  1.00  0.00     0.078 C 
ENDROOT
BRANCH   1   9
HETATM    9  C   UNL     1      -5.373   0.996 -32.174  1.00  0.00    -0.028 A 
HETATM   10  C   UNL     1      -4.443   0.790 -31.141  1.00  0.00     0.012 A 
HETATM   11  C   UNL     1      -3.663  -0.366 -31.106  1.00  0.00     0.040 A 
HETATM   12  C   UNL     1      -3.795  -1.310 -32.113  1.00  0.00     0.099 A 
HETATM   13  C   UNL     1      -4.700  -1.137 -33.162  1.00  0.00     0.102 A 
HETATM   14  C   UNL     1      -5.509   0.002 -33.172  1.00  0.00     0.049 A 
BRANCH  12  15
HETATM   15  O   UNL     1      -3.001  -2.421 -32.059  1.00  0.00    -0.358 OA
HETATM   16  H   UNL     1      -3.139  -2.891 -32.904  1.00  0.00     0.218 HD
ENDBRANCH  12  15
BRANCH  13  17
HETATM   17  O   UNL     1      -4.697  -2.134 -34.101  1.00  0.00    -0.349 OA
BRANCH  17  18
HETATM   18  C   UNL     1      -5.902  -2.346 -34.833  1.00  0.00     0.171 C 
HETATM   19  C   UNL     1      -6.195  -3.835 -34.842  1.00  0.00     0.034 C 
ENDBRANCH  17  18
ENDBRANCH  13  17
ENDBRANCH   1   9
BRANCH   2  20
HETATM   20  C   UNL     1      -8.179   1.609 -33.657  1.00  0.00     0.129 C 
BRANCH  20  21
HETATM   21  C   UNL     1      -9.474   2.332 -34.034  1.00  0.00     0.048 C 
BRANCH  21  22
HETATM   22  C   UNL     1     -10.733   1.481 -34.217  1.00  0.00     0.236 C 
BRANCH  22  23
HETATM   23  N   UNL     1     -11.890   1.880 -33.343  1.00  0.00    -0.067 N 
HETATM   24  H   UNL     1     -11.764   1.406 -32.425  1.00  0.00     0.280 HD
HETATM   25  C   UNL     1     -12.046   3.374 -33.119  1.00  0.00     0.261 C 
HETATM   26  C   UNL     1     -13.255   3.645 -32.217  1.00  0.00     0.195 C 
HETATM   27  O   UNL     1     -14.450   3.088 -32.776  1.00  0.00    -0.388 OA
HETATM   28  C   UNL     1     -14.349   1.666 -32.913  1.00  0.00     0.195 C 
HETATM   29  C   UNL     1     -13.208   1.295 -33.865  1.00  0.00     0.261 C 
ENDBRANCH  22  23
ENDBRANCH  21  22
ENDBRANCH  20  21
ENDBRANCH   2  20
BRANCH   8  30
HETATM   30  O   UNL     1      -5.379   4.661 -29.289  1.00  0.00    -0.360 OA
HETATM   31  H   UNL     1      -6.127   4.298 -28.772  1.00  0.00     0.217 HD
ENDBRANCH   8  30
BRANCH   8  32
HETATM   32  C   UNL     1      -4.063   4.367 -31.246  1.00  0.00     0.038 C 
HETATM   33  C   UNL     1      -4.052   5.354 -32.155  1.00  0.00     0.014 C 
BRANCH  33  34
HETATM   34  C   UNL     1      -2.887   5.592 -33.010  1.00  0.00    -0.036 A 
HETATM   35  C   UNL     1      -1.998   6.619 -32.674  1.00  0.00     0.011 A 
HETATM   36  C   UNL     1      -0.892   6.888 -33.482  1.00  0.00     0.001 A 
HETATM   37  C   UNL     1      -0.665   6.126 -34.626  1.00  0.00     0.000 A 
HETATM   38  C   UNL     1      -1.542   5.094 -34.963  1.00  0.00     0.001 A 
HETATM   39  C   UNL     1      -2.652   4.828 -34.157  1.00  0.00     0.011 A 
ENDBRANCH  33  34
ENDBRANCH   8  32
TORSDOF 11
ENDMDL
MODEL 9
REMARK VINA RESULT:      -7.6      2.329      7.881
REMARK  11 active torsions:
REMARK  status: ('A' for Active; 'I' for Inactive)
REMARK    1  A    between atoms: C_2  and  O_3 
REMARK    2  A    between atoms: O_3  and  C_4 
REMARK    3  A    between atoms: C_5  and  O_6 
REMARK    4  A    between atoms: C_9  and  C_10 
REMARK    5  A    between atoms: N_11  and  C_12 
REMARK    6  A    between atoms: C_12  and  C_13 
REMARK    7  A    between atoms: C_13  and  C_14 
REMARK    8  A    between atoms: C_14  and  N_15 
REMARK    9  A    between atoms: C_27  and  O_28 
REMARK   10  A    between atoms: C_27  and  C_29 
REMARK   11  A    between atoms: C_30  and  C_31 
ROOT
HETATM    1  C   UNL     1      -7.058   3.379 -32.504  1.00  0.00     0.161 C 
HETATM    2  N   UNL     1      -8.515   3.540 -32.521  1.00  0.00    -0.332 N 
HETATM    3  C   UNL     1      -9.073   3.574 -31.264  1.00  0.00     0.295 C 
HETATM    4  O   UNL     1     -10.257   3.661 -31.003  1.00  0.00    -0.264 OA
HETATM    5  C   UNL     1      -6.676   3.582 -31.060  1.00  0.00     0.058 C 
HETATM    6  C   UNL     1      -7.918   3.486 -30.264  1.00  0.00     0.250 C 
HETATM    7  O   UNL     1      -8.020   3.384 -29.063  1.00  0.00    -0.282 OA
HETATM    8  C   UNL     1      -5.529   4.005 -30.505  1.00  0.00     0.078 C 
ENDROOT
BRANCH   1   9
HETATM    9  C   UNL     1      -6.666   2.015 -33.054  1.00  0.00    -0.028 A 
HETATM   10  C   UNL     1      -6.968   1.700 -34.390  1.00  0.00     0.012 A 
HETATM   11  C   UNL     1      -6.648   0.448 -34.915  1.00  0.00     0.040 A 
HETATM   12  C   UNL     1      -6.044  -0.500 -34.102  1.00  0.00     0.099 A 
HETATM   13  C   UNL     1      -5.737  -0.229 -32.768  1.00  0.00     0.102 A 
HETATM   14  C   UNL     1      -6.021   1.040 -32.256  1.00  0.00     0.049 A 
BRANCH  12  15
HETATM   15  O   UNL     1      -5.762  -1.723 -34.643  1.00  0.00    -0.358 OA
HETATM   16  H   UNL     1      -6.590  -2.029 -35.062  1.00  0.00     0.218 HD
ENDBRANCH  12  15
BRANCH  13  17
HETATM   17  O   UNL     1      -5.174  -1.269 -32.079  1.00  0.00    -0.349 OA
BRANCH  17  18
HETATM   18  C   UNL     1      -3.777  -1.190 -31.801  1.00  0.00     0.171 C 
HETATM   19  C   UNL     1      -3.169  -2.560 -32.036  1.00  0.00     0.034 C 
ENDBRANCH  17  18
ENDBRANCH  13  17
ENDBRANCH   1   9
BRANCH   2  20
HETATM   20  C   UNL     1      -9.258   3.821 -33.739  1.00  0.00     0.129 C 
BRANCH  20  21
HETATM   21  C   UNL     1     -10.339   2.798 -34.094  1.00  0.00     0.048 C 
BRANCH  21  22
HETATM   22  C   UNL     1     -11.765   3.315 -34.293  1.00  0.00     0.236 C 
BRANCH  22  23
HETATM   23  N   UNL     1     -12.827   2.502 -33.606  1.00  0.00    -0.067 N 
HETATM   24  H   UNL     1     -12.345   1.824 -32.981  1.00  0.00     0.280 HD
HETATM   25  C   UNL     1     -13.832   3.303 -32.797  1.00  0.00     0.261 C 
HETATM   26  C   UNL     1     -14.856   2.360 -32.152  1.00  0.00     0.195 C 
HETATM   27  O   UNL     1     -15.518   1.566 -33.142  1.00  0.00    -0.388 OA
HETATM   28  C   UNL     1     -14.591   0.740 -33.855  1.00  0.00     0.195 C 
HETATM   29  C   UNL     1     -13.566   1.600 -34.602  1.00  0.00     0.261 C 
ENDBRANCH  22  23
ENDBRANCH  21  22
ENDBRANCH  20  21
ENDBRANCH   2  20
BRANCH   8  30
HETATM   30  O   UNL     1      -5.385   4.219 -29.148  1.00  0.00    -0.360 OA
HETATM   31  H   UNL     1      -6.227   4.533 -28.758  1.00  0.00     0.217 HD
ENDBRANCH   8  30
BRANCH   8  32
HETATM   32  C   UNL     1      -4.354   4.352 -31.284  1.00  0.00     0.038 C 
HETATM   33  C   UNL     1      -4.215   5.486 -31.988  1.00  0.00     0.014 C 
BRANCH  33  34
HETATM   34  C   UNL     1      -3.073   5.696 -32.880  1.00  0.00    -0.036 A 
HETATM   35  C   UNL     1      -2.900   4.840 -33.974  1.00  0.00     0.011 A 
HETATM   36  C   UNL     1      -1.808   4.998 -34.828  1.00  0.00     0.001 A 
HETATM   37  C   UNL     1      -0.886   6.018 -34.598  1.00  0.00     0.000 A 
HETATM   38  C   UNL     1      -1.057   6.881 -33.515  1.00  0.00     0.001 A 
HETATM   39  C   UNL     1      -2.147   6.721 -32.657  1.00  0.00     0.011 A 
ENDBRANCH  33  34
ENDBRANCH   8  32
TORSDOF 11
ENDMDL
MODEL 10
REMARK VINA RESULT:      -7.5      2.762      4.768
REMARK  11 active torsions:
REMARK  status: ('A' for Active; 'I' for Inactive)
REMARK    1  A    between atoms: C_2  and  O_3 
REMARK    2  A    between atoms: O_3  and  C_4 
REMARK    3  A    between atoms: C_5  and  O_6 
REMARK    4  A    between atoms: C_9  and  C_10 
REMARK    5  A    between atoms: N_11  and  C_12 
REMARK    6  A    between atoms: C_12  and  C_13 
REMARK    7  A    between atoms: C_13  and  C_14 
REMARK    8  A    between atoms: C_14  and  N_15 
REMARK    9  A    between atoms: C_27  and  O_28 
REMARK   10  A    between atoms: C_27  and  C_29 
REMARK   11  A    between atoms: C_30  and  C_31 
ROOT
HETATM    1  C   UNL     1      -8.288   3.008 -32.582  1.00  0.00     0.161 C 
HETATM    2  N   UNL     1      -8.167   4.469 -32.608  1.00  0.00    -0.332 N 
HETATM    3  C   UNL     1      -7.860   5.010 -31.381  1.00  0.00     0.295 C 
HETATM    4  O   UNL     1      -7.742   6.193 -31.125  1.00  0.00    -0.264 OA
HETATM    5  C   UNL     1      -7.751   2.612 -31.229  1.00  0.00     0.058 C 
HETATM    6  C   UNL     1      -7.691   3.841 -30.410  1.00  0.00     0.250 C 
HETATM    7  O   UNL     1      -7.518   3.925 -29.215  1.00  0.00    -0.282 OA
HETATM    8  C   UNL     1      -7.187   1.470 -30.808  1.00  0.00     0.078 C 
ENDROOT
BRANCH   1   9
HETATM    9  C   UNL     1      -9.732   2.587 -32.813  1.00  0.00    -0.028 A 
HETATM   10  C   UNL     1      -9.997   1.394 -33.507  1.00  0.00     0.012 A 
HETATM   11  C   UNL     1     -11.309   0.996 -33.761  1.00  0.00     0.040 A 
HETATM   12  C   UNL     1     -12.360   1.797 -33.340  1.00  0.00     0.099 A 
HETATM   13  C   UNL     1     -12.138   2.994 -32.657  1.00  0.00     0.102 A 
HETATM   14  C   UNL     1     -10.823   3.370 -32.368  1.00  0.00     0.049 A 
BRANCH  12  15
HETATM   15  O   UNL     1     -13.633   1.387 -33.623  1.00  0.00    -0.358 OA
HETATM   16  H   UNL     1     -13.544   0.659 -34.267  1.00  0.00     0.218 HD
ENDBRANCH  12  15
BRANCH  13  17
HETATM   17  O   UNL     1     -13.268   3.697 -32.334  1.00  0.00    -0.349 OA
BRANCH  17  18
HETATM   18  C   UNL     1     -13.614   3.780 -30.953  1.00  0.00     0.171 C 
HETATM   19  C   UNL     1     -13.693   5.247 -30.572  1.00  0.00     0.034 C 
ENDBRANCH  17  18
ENDBRANCH  13  17
ENDBRANCH   1   9
BRANCH   2  20
HETATM   20  C   UNL     1      -8.189   5.234 -33.844  1.00  0.00     0.129 C 
BRANCH  20  21
HETATM   21  C   UNL     1      -9.377   6.186 -34.000  1.00  0.00     0.048 C 
BRANCH  21  22
HETATM   22  C   UNL     1     -10.161   6.130 -35.313  1.00  0.00     0.236 C 
BRANCH  22  23
HETATM   23  N   UNL     1     -11.486   6.840 -35.281  1.00  0.00    -0.067 N 
HETATM   24  H   UNL     1     -11.566   7.309 -34.356  1.00  0.00     0.280 HD
HETATM   25  C   UNL     1     -11.696   7.865 -36.382  1.00  0.00     0.261 C 
HETATM   26  C   UNL     1     -13.078   8.513 -36.238  1.00  0.00     0.195 C 
HETATM   27  O   UNL     1     -14.115   7.526 -36.259  1.00  0.00    -0.388 OA
HETATM   28  C   UNL     1     -13.978   6.602 -35.173  1.00  0.00     0.195 C 
HETATM   29  C   UNL     1     -12.651   5.843 -35.274  1.00  0.00     0.261 C 
ENDBRANCH  22  23
ENDBRANCH  21  22
ENDBRANCH  20  21
ENDBRANCH   2  20
BRANCH   8  30
HETATM   30  O   UNL     1      -6.665   1.314 -29.537  1.00  0.00    -0.360 OA
HETATM   31  H   UNL     1      -5.718   1.069 -29.582  1.00  0.00     0.217 HD
ENDBRANCH   8  30
BRANCH   8  32
HETATM   32  C   UNL     1      -7.001   0.314 -31.666  1.00  0.00     0.038 C 
HETATM   33  C   UNL     1      -5.816  -0.089 -32.153  1.00  0.00     0.014 C 
BRANCH  33  34
HETATM   34  C   UNL     1      -5.724  -1.164 -33.143  1.00  0.00    -0.036 A 
HETATM   35  C   UNL     1      -6.882  -1.567 -33.817  1.00  0.00     0.011 A 
HETATM   36  C   UNL     1      -6.833  -2.606 -34.748  1.00  0.00     0.001 A 
HETATM   37  C   UNL     1      -5.622  -3.242 -35.016  1.00  0.00     0.000 A 
HETATM   38  C   UNL     1      -4.461  -2.839 -34.355  1.00  0.00     0.001 A 
HETATM   39  C   UNL     1      -4.511  -1.803 -33.420  1.00  0.00     0.011 A 
ENDBRANCH  33  34
ENDBRANCH   8  32
TORSDOF 11
ENDMDL
