MODEL 1
REMARK VINA RESULT:      -9.2      0.000      0.000
REMARK  6 active torsions:
REMARK  status: ('A' for Active; 'I' for Inactive)
REMARK    1  A    between atoms: O_2  and  C_3 
REMARK    2  A    between atoms: C_5  and  C_6 
REMARK       I    between atoms: C_6  and  N_7 
REMARK    3  A    between atoms: N_7  and  C_8 
REMARK    4  A    between atoms: C_10  and  C_11 
REMARK    5  A    between atoms: C_11  and  C_12 
REMARK    6  A    between atoms: C_12  and  C_13 
ROOT
HETATM    1  C   UNL     1     -10.874   1.557 -33.134  1.00  0.00     0.725 A 
HETATM    2  N   UNL     1      -9.925   1.948 -33.948  1.00  0.00    -0.046 NA
HETATM    3  C   UNL     1      -9.057   0.881 -33.957  1.00  0.00     0.166 A 
HETATM    4  N   UNL     1      -9.422  -0.146 -33.177  1.00  0.00    -0.144 NA
HETATM    5  N   UNL     1     -10.581   0.307 -32.664  1.00  0.00    -0.106 N 
HETATM    6  H   UNL     1     -11.131  -0.256 -32.023  1.00  0.00     0.208 HD
ENDROOT
BRANCH   1   7
HETATM    7  N   UNL     1     -11.986   2.288 -32.808  1.00  0.00    -0.152 N 
HETATM    8  C   UNL     1     -13.258   1.794 -32.999  1.00  0.00     0.270 C 
HETATM    9  O   UNL     1     -13.502   0.690 -33.483  1.00  0.00    -0.267 OA
HETATM   10  H   UNL     1     -11.806   3.226 -32.483  1.00  0.00     0.187 HD
BRANCH   8  11
HETATM   11  C   UNL     1     -14.376   2.697 -32.605  1.00  0.00     0.035 A 
HETATM   12  C   UNL     1     -15.680   2.188 -32.635  1.00  0.00     0.053 A 
HETATM   13  C   UNL     1     -16.768   2.990 -32.279  1.00  0.00     0.069 A 
HETATM   14  C   UNL     1     -16.545   4.311 -31.884  1.00  0.00     0.037 A 
HETATM   15  C   UNL     1     -15.244   4.819 -31.835  1.00  0.00     0.004 A 
HETATM   16  C   UNL     1     -14.159   4.016 -32.190  1.00  0.00     0.017 A 
BRANCH  13  17
HETATM   17  O   UNL     1     -17.985   2.372 -32.361  1.00  0.00    -0.356 OA
HETATM   18  C   UNL     1     -19.028   3.081 -33.018  1.00  0.00     0.210 C 
ENDBRANCH  13  17
ENDBRANCH   8  11
ENDBRANCH   1   7
BRANCH   3  19
HETATM   19  C   UNL     1      -7.805   0.860 -34.760  1.00  0.00     0.087 C 
BRANCH  19  20
HETATM   20  C   UNL     1      -7.436  -0.541 -35.250  1.00  0.00     0.048 C 
BRANCH  20  21
HETATM   21  C   UNL     1      -6.211  -1.078 -34.577  1.00  0.00    -0.030 A 
HETATM   22  C   UNL     1      -5.783  -2.444 -34.542  1.00  0.00    -0.002 A 
HETATM   23  C   UNL     1      -4.590  -2.491 -33.819  1.00  0.00     0.042 A 
HETATM   24  C   UNL     1      -6.300  -3.648 -35.062  1.00  0.00     0.014 A 
HETATM   25  C   UNL     1      -3.887  -3.680 -33.593  1.00  0.00     0.030 A 
HETATM   26  N   UNL     1      -4.307  -1.204 -33.425  1.00  0.00    -0.365 N 
HETATM   27  C   UNL     1      -4.422  -4.859 -34.121  1.00  0.00     0.002 A 
HETATM   28  C   UNL     1      -5.611  -4.847 -34.845  1.00  0.00     0.001 A 
HETATM   29  H   UNL     1      -3.497  -0.939 -32.883  1.00  0.00     0.165 HD
HETATM   30  C   UNL     1      -5.274  -0.346 -33.873  1.00  0.00     0.096 A 
ENDBRANCH  20  21
ENDBRANCH  19  20
ENDBRANCH   3  19
TORSDOF 6
ENDMDL
MODEL 2
REMARK VINA RESULT:      -9.1      2.780      3.871
REMARK  6 active torsions:
REMARK  status: ('A' for Active; 'I' for Inactive)
REMARK    1  A    between atoms: O_2  and  C_3 
REMARK    2  A    between atoms: C_5  and  C_6 
REMARK       I    between atoms: C_6  and  N_7 
REMARK    3  A    between atoms: N_7  and  C_8 
REMARK    4  A    between atoms: C_10  and  C_11 
REMARK    5  A    between atoms: C_11  and  C_12 
REMARK    6  A    between atoms: C_12  and  C_13 
ROOT
HETATM    1  C   UNL     1      -7.581   1.134 -31.942  1.00  0.00     0.725 A 
HETATM    2  N   UNL     1      -6.308   1.085 -32.249  1.00  0.00    -0.046 NA
HETATM    3  C   UNL     1      -5.758   0.381 -31.204  1.00  0.00     0.166 A 
HETATM    4  N   UNL     1      -6.631   0.002 -30.261  1.00  0.00    -0.144 NA
HETATM    5  N   UNL     1      -7.784   0.491 -30.752  1.00  0.00    -0.106 N 
HETATM    6  H   UNL     1      -8.665   0.360 -30.264  1.00  0.00     0.208 HD
ENDROOT
BRANCH   1   7
HETATM    7  N   UNL     1      -8.555   1.732 -32.698  1.00  0.00    -0.152 N 
HETATM    8  C   UNL     1      -9.669   1.041 -33.122  1.00  0.00     0.270 C 
HETATM    9  O   UNL     1      -9.875  -0.147 -32.881  1.00  0.00    -0.267 OA
HETATM   10  H   UNL     1      -8.364   2.685 -32.971  1.00  0.00     0.187 HD
BRANCH   8  11
HETATM   11  C   UNL     1     -10.644   1.814 -33.941  1.00  0.00     0.035 A 
HETATM   12  C   UNL     1     -11.949   1.318 -34.060  1.00  0.00     0.053 A 
HETATM   13  C   UNL     1     -12.906   1.999 -34.818  1.00  0.00     0.069 A 
HETATM   14  C   UNL     1     -12.553   3.190 -35.456  1.00  0.00     0.037 A 
HETATM   15  C   UNL     1     -11.258   3.699 -35.326  1.00  0.00     0.004 A 
HETATM   16  C   UNL     1     -10.304   3.018 -34.568  1.00  0.00     0.017 A 
BRANCH  13  17
HETATM   17  O   UNL     1     -14.135   1.401 -34.857  1.00  0.00    -0.356 OA
HETATM   18  C   UNL     1     -14.333   0.274 -34.015  1.00  0.00     0.210 C 
ENDBRANCH  13  17
ENDBRANCH   8  11
ENDBRANCH   1   7
BRANCH   3  19
HETATM   19  C   UNL     1      -4.307   0.065 -31.114  1.00  0.00     0.087 C 
BRANCH  19  20
HETATM   20  C   UNL     1      -3.701  -0.340 -32.459  1.00  0.00     0.048 C 
BRANCH  20  21
HETATM   21  C   UNL     1      -3.691  -1.824 -32.658  1.00  0.00    -0.030 A 
HETATM   22  C   UNL     1      -4.499  -2.569 -33.575  1.00  0.00    -0.002 A 
HETATM   23  C   UNL     1      -4.156  -3.915 -33.437  1.00  0.00     0.042 A 
HETATM   24  C   UNL     1      -5.493  -2.223 -34.513  1.00  0.00     0.014 A 
HETATM   25  C   UNL     1      -4.754  -4.931 -34.192  1.00  0.00     0.030 A 
HETATM   26  N   UNL     1      -3.180  -3.985 -32.470  1.00  0.00    -0.365 N 
HETATM   27  C   UNL     1      -5.735  -4.559 -35.116  1.00  0.00     0.002 A 
HETATM   28  C   UNL     1      -6.102  -3.226 -35.277  1.00  0.00     0.001 A 
HETATM   29  H   UNL     1      -2.743  -4.842 -32.163  1.00  0.00     0.165 HD
HETATM   30  C   UNL     1      -2.893  -2.735 -31.994  1.00  0.00     0.096 A 
ENDBRANCH  20  21
ENDBRANCH  19  20
ENDBRANCH   3  19
TORSDOF 6
ENDMDL
MODEL 3
REMARK VINA RESULT:      -9.0      6.523      9.370
REMARK  6 active torsions:
REMARK  status: ('A' for Active; 'I' for Inactive)
REMARK    1  A    between atoms: O_2  and  C_3 
REMARK    2  A    between atoms: C_5  and  C_6 
REMARK       I    between atoms: C_6  and  N_7 
REMARK    3  A    between atoms: N_7  and  C_8 
REMARK    4  A    between atoms: C_10  and  C_11 
REMARK    5  A    between atoms: C_11  and  C_12 
REMARK    6  A    between atoms: C_12  and  C_13 
ROOT
HETATM    1  C   UNL     1      -5.465   2.205 -32.755  1.00  0.00     0.725 A 
HETATM    2  N   UNL     1      -5.856   1.353 -33.672  1.00  0.00    -0.046 NA
HETATM    3  C   UNL     1      -6.742   0.547 -32.997  1.00  0.00     0.166 A 
HETATM    4  N   UNL     1      -6.909   0.855 -31.703  1.00  0.00    -0.144 NA
HETATM    5  N   UNL     1      -6.088   1.913 -31.573  1.00  0.00    -0.106 N 
HETATM    6  H   UNL     1      -5.990   2.401 -30.688  1.00  0.00     0.208 HD
ENDROOT
BRANCH   1   7
HETATM    7  N   UNL     1      -4.576   3.228 -32.955  1.00  0.00    -0.152 N 
HETATM    8  C   UNL     1      -3.357   3.261 -32.315  1.00  0.00     0.270 C 
HETATM    9  O   UNL     1      -2.975   2.409 -31.515  1.00  0.00    -0.267 OA
HETATM   10  H   UNL     1      -4.905   3.976 -33.547  1.00  0.00     0.187 HD
BRANCH   8  11
HETATM   11  C   UNL     1      -2.491   4.434 -32.621  1.00  0.00     0.035 A 
HETATM   12  C   UNL     1      -1.615   4.890 -31.627  1.00  0.00     0.053 A 
HETATM   13  C   UNL     1      -0.781   5.987 -31.857  1.00  0.00     0.069 A 
HETATM   14  C   UNL     1      -0.822   6.630 -33.095  1.00  0.00     0.037 A 
HETATM   15  C   UNL     1      -1.680   6.170 -34.098  1.00  0.00     0.004 A 
HETATM   16  C   UNL     1      -2.511   5.073 -33.867  1.00  0.00     0.017 A 
BRANCH  13  17
HETATM   17  O   UNL     1       0.015   6.331 -30.800  1.00  0.00    -0.356 OA
HETATM   18  C   UNL     1       0.351   5.300 -29.881  1.00  0.00     0.210 C 
ENDBRANCH  13  17
ENDBRANCH   8  11
ENDBRANCH   1   7
BRANCH   3  19
HETATM   19  C   UNL     1      -7.460  -0.586 -33.640  1.00  0.00     0.087 C 
BRANCH  19  20
HETATM   20  C   UNL     1      -6.757  -1.099 -34.898  1.00  0.00     0.048 C 
BRANCH  20  21
HETATM   21  C   UNL     1      -6.058  -2.403 -34.670  1.00  0.00    -0.030 A 
HETATM   22  C   UNL     1      -4.973  -2.646 -33.768  1.00  0.00    -0.002 A 
HETATM   23  C   UNL     1      -4.640  -3.998 -33.868  1.00  0.00     0.042 A 
HETATM   24  C   UNL     1      -4.243  -1.840 -32.871  1.00  0.00     0.014 A 
HETATM   25  C   UNL     1      -3.616  -4.584 -33.115  1.00  0.00     0.030 A 
HETATM   26  N   UNL     1      -5.486  -4.554 -34.799  1.00  0.00    -0.365 N 
HETATM   27  C   UNL     1      -2.909  -3.762 -32.232  1.00  0.00     0.002 A 
HETATM   28  C   UNL     1      -3.215  -2.409 -32.110  1.00  0.00     0.001 A 
HETATM   29  H   UNL     1      -5.471  -5.526 -35.075  1.00  0.00     0.165 HD
HETATM   30  C   UNL     1      -6.342  -3.606 -35.289  1.00  0.00     0.096 A 
ENDBRANCH  20  21
ENDBRANCH  19  20
ENDBRANCH   3  19
TORSDOF 6
ENDMDL
MODEL 4
REMARK VINA RESULT:      -8.8      6.284      9.439
REMARK  6 active torsions:
REMARK  status: ('A' for Active; 'I' for Inactive)
REMARK    1  A    between atoms: O_2  and  C_3 
REMARK    2  A    between atoms: C_5  and  C_6 
REMARK       I    between atoms: C_6  and  N_7 
REMARK    3  A    between atoms: N_7  and  C_8 
REMARK    4  A    between atoms: C_10  and  C_11 
REMARK    5  A    between atoms: C_11  and  C_12 
REMARK    6  A    between atoms: C_12  and  C_13 
ROOT
HETATM    1  C   UNL     1      -5.449   3.570 -33.354  1.00  0.00     0.725 A 
HETATM    2  N   UNL     1      -5.556   2.273 -33.503  1.00  0.00    -0.046 NA
HETATM    3  C   UNL     1      -6.826   2.116 -34.006  1.00  0.00     0.166 A 
HETATM    4  N   UNL     1      -7.511   3.257 -34.165  1.00  0.00    -0.144 NA
HETATM    5  N   UNL     1      -6.615   4.168 -33.744  1.00  0.00    -0.106 N 
HETATM    6  H   UNL     1      -6.828   5.161 -33.748  1.00  0.00     0.208 HD
ENDROOT
BRANCH   1   7
HETATM    7  N   UNL     1      -4.339   4.223 -32.884  1.00  0.00    -0.152 N 
HETATM    8  C   UNL     1      -3.732   5.228 -33.604  1.00  0.00     0.270 C 
HETATM    9  O   UNL     1      -4.109   5.606 -34.711  1.00  0.00    -0.267 OA
HETATM   10  H   UNL     1      -3.970   3.872 -32.012  1.00  0.00     0.187 HD
BRANCH   8  11
HETATM   11  C   UNL     1      -2.532   5.848 -32.975  1.00  0.00     0.035 A 
HETATM   12  C   UNL     1      -1.623   5.012 -32.314  1.00  0.00     0.053 A 
HETATM   13  C   UNL     1      -0.481   5.538 -31.704  1.00  0.00     0.069 A 
HETATM   14  C   UNL     1      -0.247   6.913 -31.761  1.00  0.00     0.037 A 
HETATM   15  C   UNL     1      -1.140   7.751 -32.434  1.00  0.00     0.004 A 
HETATM   16  C   UNL     1      -2.279   7.223 -33.044  1.00  0.00     0.017 A 
BRANCH  13  17
HETATM   17  O   UNL     1       0.315   4.613 -31.088  1.00  0.00    -0.356 OA
HETATM   18  C   UNL     1       0.708   4.887 -29.749  1.00  0.00     0.210 C 
ENDBRANCH  13  17
ENDBRANCH   8  11
ENDBRANCH   1   7
BRANCH   3  19
HETATM   19  C   UNL     1      -7.406   0.789 -34.345  1.00  0.00     0.087 C 
BRANCH  19  20
HETATM   20  C   UNL     1      -7.311  -0.214 -33.195  1.00  0.00     0.048 C 
BRANCH  20  21
HETATM   21  C   UNL     1      -6.113  -1.104 -33.309  1.00  0.00    -0.030 A 
HETATM   22  C   UNL     1      -6.057  -2.387 -33.942  1.00  0.00    -0.002 A 
HETATM   23  C   UNL     1      -4.747  -2.854 -33.825  1.00  0.00     0.042 A 
HETATM   24  C   UNL     1      -7.001  -3.195 -34.607  1.00  0.00     0.014 A 
HETATM   25  C   UNL     1      -4.333  -4.088 -34.342  1.00  0.00     0.030 A 
HETATM   26  N   UNL     1      -4.035  -1.895 -33.143  1.00  0.00    -0.365 N 
HETATM   27  C   UNL     1      -5.290  -4.869 -34.998  1.00  0.00     0.002 A 
HETATM   28  C   UNL     1      -6.605  -4.432 -35.129  1.00  0.00     0.001 A 
HETATM   29  H   UNL     1      -3.054  -1.967 -32.914  1.00  0.00     0.165 HD
HETATM   30  C   UNL     1      -4.845  -0.838 -32.827  1.00  0.00     0.096 A 
ENDBRANCH  20  21
ENDBRANCH  19  20
ENDBRANCH   3  19
TORSDOF 6
ENDMDL
MODEL 5
REMARK VINA RESULT:      -8.7      6.629      9.480
REMARK  6 active torsions:
REMARK  status: ('A' for Active; 'I' for Inactive)
REMARK    1  A    between atoms: O_2  and  C_3 
REMARK    2  A    between atoms: C_5  and  C_6 
REMARK       I    between atoms: C_6  and  N_7 
REMARK    3  A    between atoms: N_7  and  C_8 
REMARK    4  A    between atoms: C_10  and  C_11 
REMARK    5  A    between atoms: C_11  and  C_12 
REMARK    6  A    between atoms: C_12  and  C_13 
ROOT
HETATM    1  C   UNL     1      -4.798   3.710 -32.565  1.00  0.00     0.725 A 
HETATM    2  N   UNL     1      -5.341   2.606 -32.114  1.00  0.00    -0.046 NA
HETATM    3  C   UNL     1      -6.199   2.240 -33.125  1.00  0.00     0.166 A 
HETATM    4  N   UNL     1      -6.218   3.073 -34.175  1.00  0.00    -0.144 NA
HETATM    5  N   UNL     1      -5.318   4.000 -33.797  1.00  0.00    -0.106 N 
HETATM    6  H   UNL     1      -5.087   4.788 -34.394  1.00  0.00     0.208 HD
ENDROOT
BRANCH   1   7
HETATM    7  N   UNL     1      -3.855   4.453 -31.906  1.00  0.00    -0.152 N 
HETATM    8  C   UNL     1      -2.586   4.627 -32.415  1.00  0.00     0.270 C 
HETATM    9  O   UNL     1      -2.192   4.130 -33.468  1.00  0.00    -0.267 OA
HETATM   10  H   UNL     1      -4.136   4.804 -31.003  1.00  0.00     0.187 HD
BRANCH   8  11
HETATM   11  C   UNL     1      -1.661   5.456 -31.592  1.00  0.00     0.035 A 
HETATM   12  C   UNL     1      -2.208   6.252 -30.578  1.00  0.00     0.053 A 
HETATM   13  C   UNL     1      -1.389   7.052 -29.776  1.00  0.00     0.069 A 
HETATM   14  C   UNL     1      -0.010   7.048 -29.989  1.00  0.00     0.037 A 
HETATM   15  C   UNL     1       0.545   6.242 -30.987  1.00  0.00     0.004 A 
HETATM   16  C   UNL     1      -0.274   5.443 -31.786  1.00  0.00     0.017 A 
BRANCH  13  17
HETATM   17  O   UNL     1      -2.053   7.785 -28.832  1.00  0.00    -0.356 OA
HETATM   18  C   UNL     1      -3.425   7.475 -28.620  1.00  0.00     0.210 C 
ENDBRANCH  13  17
ENDBRANCH   8  11
ENDBRANCH   1   7
BRANCH   3  19
HETATM   19  C   UNL     1      -7.049   1.021 -33.066  1.00  0.00     0.087 C 
BRANCH  19  20
HETATM   20  C   UNL     1      -6.835   0.088 -34.260  1.00  0.00     0.048 C 
BRANCH  20  21
HETATM   21  C   UNL     1      -5.742  -0.906 -34.020  1.00  0.00    -0.030 A 
HETATM   22  C   UNL     1      -5.781  -2.308 -34.310  1.00  0.00    -0.002 A 
HETATM   23  C   UNL     1      -4.548  -2.847 -33.939  1.00  0.00     0.042 A 
HETATM   24  C   UNL     1      -6.753  -3.170 -34.858  1.00  0.00     0.014 A 
HETATM   25  C   UNL     1      -4.238  -4.204 -34.090  1.00  0.00     0.030 A 
HETATM   26  N   UNL     1      -3.791  -1.814 -33.437  1.00  0.00    -0.365 N 
HETATM   27  C   UNL     1      -5.220  -5.036 -34.637  1.00  0.00     0.002 A 
HETATM   28  C   UNL     1      -6.460  -4.530 -35.016  1.00  0.00     0.001 A 
HETATM   29  H   UNL     1      -2.847  -1.915 -33.091  1.00  0.00     0.165 HD
HETATM   30  C   UNL     1      -4.497  -0.643 -33.480  1.00  0.00     0.096 A 
ENDBRANCH  20  21
ENDBRANCH  19  20
ENDBRANCH   3  19
TORSDOF 6
ENDMDL
MODEL 6
REMARK VINA RESULT:      -8.7      5.556      8.854
REMARK  6 active torsions:
REMARK  status: ('A' for Active; 'I' for Inactive)
REMARK    1  A    between atoms: O_2  and  C_3 
REMARK    2  A    between atoms: C_5  and  C_6 
REMARK       I    between atoms: C_6  and  N_7 
REMARK    3  A    between atoms: N_7  and  C_8 
REMARK    4  A    between atoms: C_10  and  C_11 
REMARK    5  A    between atoms: C_11  and  C_12 
REMARK    6  A    between atoms: C_12  and  C_13 
ROOT
HETATM    1  C   UNL     1      -6.594   3.703 -33.890  1.00  0.00     0.725 A 
HETATM    2  N   UNL     1      -6.900   2.509 -34.334  1.00  0.00    -0.046 NA
HETATM    3  C   UNL     1      -8.188   2.327 -33.890  1.00  0.00     0.166 A 
HETATM    4  N   UNL     1      -8.688   3.351 -33.183  1.00  0.00    -0.144 NA
HETATM    5  N   UNL     1      -7.656   4.214 -33.197  1.00  0.00    -0.106 N 
HETATM    6  H   UNL     1      -7.718   5.120 -32.742  1.00  0.00     0.208 HD
ENDROOT
BRANCH   1   7
HETATM    7  N   UNL     1      -5.397   4.339 -34.093  1.00  0.00    -0.152 N 
HETATM    8  C   UNL     1      -4.637   4.802 -33.041  1.00  0.00     0.270 C 
HETATM    9  O   UNL     1      -4.963   4.706 -31.860  1.00  0.00    -0.267 OA
HETATM   10  H   UNL     1      -5.151   4.496 -35.059  1.00  0.00     0.187 HD
BRANCH   8  11
HETATM   11  C   UNL     1      -3.360   5.478 -33.407  1.00  0.00     0.035 A 
HETATM   12  C   UNL     1      -3.094   6.736 -32.852  1.00  0.00     0.053 A 
HETATM   13  C   UNL     1      -1.914   7.418 -33.161  1.00  0.00     0.069 A 
HETATM   14  C   UNL     1      -0.992   6.831 -34.029  1.00  0.00     0.037 A 
HETATM   15  C   UNL     1      -1.243   5.568 -34.573  1.00  0.00     0.004 A 
HETATM   16  C   UNL     1      -2.421   4.888 -34.261  1.00  0.00     0.017 A 
BRANCH  13  17
HETATM   17  O   UNL     1      -1.785   8.639 -32.559  1.00  0.00    -0.356 OA
HETATM   18  C   UNL     1      -2.328   8.776 -31.253  1.00  0.00     0.210 C 
ENDBRANCH  13  17
ENDBRANCH   8  11
ENDBRANCH   1   7
BRANCH   3  19
HETATM   19  C   UNL     1      -8.974   1.094 -34.161  1.00  0.00     0.087 C 
BRANCH  19  20
HETATM   20  C   UNL     1      -8.912   0.084 -33.014  1.00  0.00     0.048 C 
BRANCH  20  21
HETATM   21  C   UNL     1      -7.506  -0.273 -32.642  1.00  0.00    -0.030 A 
HETATM   22  C   UNL     1      -6.620  -1.129 -33.370  1.00  0.00    -0.002 A 
HETATM   23  C   UNL     1      -5.412  -1.173 -32.672  1.00  0.00     0.042 A 
HETATM   24  C   UNL     1      -6.732  -1.871 -34.564  1.00  0.00     0.014 A 
HETATM   25  C   UNL     1      -4.310  -1.919 -33.108  1.00  0.00     0.030 A 
HETATM   26  N   UNL     1      -5.561  -0.379 -31.559  1.00  0.00    -0.365 N 
HETATM   27  C   UNL     1      -4.449  -2.645 -34.295  1.00  0.00     0.002 A 
HETATM   28  C   UNL     1      -5.641  -2.624 -35.015  1.00  0.00     0.001 A 
HETATM   29  H   UNL     1      -4.840  -0.225 -30.868  1.00  0.00     0.165 HD
HETATM   30  C   UNL     1      -6.815   0.167 -31.529  1.00  0.00     0.096 A 
ENDBRANCH  20  21
ENDBRANCH  19  20
ENDBRANCH   3  19
TORSDOF 6
ENDMDL
MODEL 7
REMARK VINA RESULT:      -8.6      7.825     11.430
REMARK  6 active torsions:
REMARK  status: ('A' for Active; 'I' for Inactive)
REMARK    1  A    between atoms: O_2  and  C_3 
REMARK    2  A    between atoms: C_5  and  C_6 
REMARK       I    between atoms: C_6  and  N_7 
REMARK    3  A    between atoms: N_7  and  C_8 
REMARK    4  A    between atoms: C_10  and  C_11 
REMARK    5  A    between atoms: C_11  and  C_12 
REMARK    6  A    between atoms: C_12  and  C_13 
ROOT
HETATM    1  C   UNL     1      -3.285   2.692 -31.614  1.00  0.00     0.725 A 
HETATM    2  N   UNL     1      -2.470   3.582 -32.125  1.00  0.00    -0.046 NA
HETATM    3  C   UNL     1      -2.928   4.768 -31.602  1.00  0.00     0.166 A 
HETATM    4  N   UNL     1      -3.996   4.652 -30.799  1.00  0.00    -0.144 NA
HETATM    5  N   UNL     1      -4.204   3.323 -30.821  1.00  0.00    -0.106 N 
HETATM    6  H   UNL     1      -4.957   2.897 -30.290  1.00  0.00     0.208 HD
ENDROOT
BRANCH   1   7
HETATM    7  N   UNL     1      -3.222   1.342 -31.837  1.00  0.00    -0.152 N 
HETATM    8  C   UNL     1      -4.218   0.673 -32.514  1.00  0.00     0.270 C 
HETATM    9  O   UNL     1      -5.234   1.210 -32.951  1.00  0.00    -0.267 OA
HETATM   10  H   UNL     1      -2.433   0.872 -31.417  1.00  0.00     0.187 HD
BRANCH   8  11
HETATM   11  C   UNL     1      -4.022  -0.794 -32.682  1.00  0.00     0.035 A 
HETATM   12  C   UNL     1      -4.625  -1.423 -33.779  1.00  0.00     0.053 A 
HETATM   13  C   UNL     1      -4.478  -2.797 -33.985  1.00  0.00     0.069 A 
HETATM   14  C   UNL     1      -3.716  -3.546 -33.087  1.00  0.00     0.037 A 
HETATM   15  C   UNL     1      -3.097  -2.922 -32.000  1.00  0.00     0.004 A 
HETATM   16  C   UNL     1      -3.244  -1.550 -31.797  1.00  0.00     0.017 A 
BRANCH  13  17
HETATM   17  O   UNL     1      -5.125  -3.282 -35.088  1.00  0.00    -0.356 OA
HETATM   18  C   UNL     1      -6.462  -3.732 -34.907  1.00  0.00     0.210 C 
ENDBRANCH  13  17
ENDBRANCH   8  11
ENDBRANCH   1   7
BRANCH   3  19
HETATM   19  C   UNL     1      -2.301   6.083 -31.901  1.00  0.00     0.087 C 
BRANCH  19  20
HETATM   20  C   UNL     1      -0.775   6.010 -31.981  1.00  0.00     0.048 C 
BRANCH  20  21
HETATM   21  C   UNL     1      -0.140   5.826 -30.638  1.00  0.00    -0.030 A 
HETATM   22  C   UNL     1      -0.123   6.772 -29.563  1.00  0.00    -0.002 A 
HETATM   23  C   UNL     1       0.565   6.184 -28.500  1.00  0.00     0.042 A 
HETATM   24  C   UNL     1      -0.632   8.075 -29.394  1.00  0.00     0.014 A 
HETATM   25  C   UNL     1       0.767   6.834 -27.276  1.00  0.00     0.030 A 
HETATM   26  N   UNL     1       0.956   4.932 -28.915  1.00  0.00    -0.365 N 
HETATM   27  C   UNL     1       0.250   8.126 -27.136  1.00  0.00     0.002 A 
HETATM   28  C   UNL     1      -0.439   8.740 -28.177  1.00  0.00     0.001 A 
HETATM   29  H   UNL     1       1.475   4.279 -28.345  1.00  0.00     0.165 HD
HETATM   30  C   UNL     1       0.539   4.706 -30.198  1.00  0.00     0.096 A 
ENDBRANCH  20  21
ENDBRANCH  19  20
ENDBRANCH   3  19
TORSDOF 6
ENDMDL
MODEL 8
REMARK VINA RESULT:      -8.6      1.817      2.961
REMARK  6 active torsions:
REMARK  status: ('A' for Active; 'I' for Inactive)
REMARK    1  A    between atoms: O_2  and  C_3 
REMARK    2  A    between atoms: C_5  and  C_6 
REMARK       I    between atoms: C_6  and  N_7 
REMARK    3  A    between atoms: N_7  and  C_8 
REMARK    4  A    between atoms: C_10  and  C_11 
REMARK    5  A    between atoms: C_11  and  C_12 
REMARK    6  A    between atoms: C_12  and  C_13 
ROOT
HETATM    1  C   UNL     1      -8.771   1.260 -32.343  1.00  0.00     0.725 A 
HETATM    2  N   UNL     1      -8.015   0.311 -31.847  1.00  0.00    -0.046 NA
HETATM    3  C   UNL     1      -6.742   0.807 -32.002  1.00  0.00     0.166 A 
HETATM    4  N   UNL     1      -6.677   2.015 -32.581  1.00  0.00    -0.144 NA
HETATM    5  N   UNL     1      -7.979   2.283 -32.787  1.00  0.00    -0.106 N 
HETATM    6  H   UNL     1      -8.279   3.154 -33.214  1.00  0.00     0.208 HD
ENDROOT
BRANCH   1   7
HETATM    7  N   UNL     1     -10.139   1.231 -32.401  1.00  0.00    -0.152 N 
HETATM    8  C   UNL     1     -10.821   1.560 -33.552  1.00  0.00     0.270 C 
HETATM    9  O   UNL     1     -10.279   1.918 -34.595  1.00  0.00    -0.267 OA
HETATM   10  H   UNL     1     -10.604   1.014 -31.532  1.00  0.00     0.187 HD
BRANCH   8  11
HETATM   11  C   UNL     1     -12.308   1.489 -33.473  1.00  0.00     0.035 A 
HETATM   12  C   UNL     1     -12.995   2.578 -32.922  1.00  0.00     0.053 A 
HETATM   13  C   UNL     1     -14.389   2.566 -32.819  1.00  0.00     0.069 A 
HETATM   14  C   UNL     1     -15.099   1.455 -33.279  1.00  0.00     0.037 A 
HETATM   15  C   UNL     1     -14.420   0.373 -33.847  1.00  0.00     0.004 A 
HETATM   16  C   UNL     1     -13.029   0.388 -33.949  1.00  0.00     0.017 A 
BRANCH  13  17
HETATM   17  O   UNL     1     -14.930   3.687 -32.254  1.00  0.00    -0.356 OA
HETATM   18  C   UNL     1     -16.323   3.661 -31.971  1.00  0.00     0.210 C 
ENDBRANCH  13  17
ENDBRANCH   8  11
ENDBRANCH   1   7
BRANCH   3  19
HETATM   19  C   UNL     1      -5.525   0.068 -31.572  1.00  0.00     0.087 C 
BRANCH  19  20
HETATM   20  C   UNL     1      -4.547  -0.187 -32.720  1.00  0.00     0.048 C 
BRANCH  20  21
HETATM   21  C   UNL     1      -4.281  -1.646 -32.931  1.00  0.00    -0.030 A 
HETATM   22  C   UNL     1      -5.015  -2.535 -33.779  1.00  0.00    -0.002 A 
HETATM   23  C   UNL     1      -4.419  -3.794 -33.682  1.00  0.00     0.042 A 
HETATM   24  C   UNL     1      -6.133  -2.386 -34.624  1.00  0.00     0.014 A 
HETATM   25  C   UNL     1      -4.882  -4.909 -34.390  1.00  0.00     0.030 A 
HETATM   26  N   UNL     1      -3.366  -3.675 -32.804  1.00  0.00    -0.365 N 
HETATM   27  C   UNL     1      -5.992  -4.732 -35.221  1.00  0.00     0.002 A 
HETATM   28  C   UNL     1      -6.611  -3.491 -35.339  1.00  0.00     0.001 A 
HETATM   29  H   UNL     1      -2.753  -4.433 -32.543  1.00  0.00     0.165 HD
HETATM   30  C   UNL     1      -3.274  -2.389 -32.346  1.00  0.00     0.096 A 
ENDBRANCH  20  21
ENDBRANCH  19  20
ENDBRANCH   3  19
TORSDOF 6
ENDMDL
MODEL 9
REMARK VINA RESULT:      -8.6      6.344      9.498
REMARK  6 active torsions:
REMARK  status: ('A' for Active; 'I' for Inactive)
REMARK    1  A    between atoms: O_2  and  C_3 
REMARK    2  A    between atoms: C_5  and  C_6 
REMARK       I    between atoms: C_6  and  N_7 
REMARK    3  A    between atoms: N_7  and  C_8 
REMARK    4  A    between atoms: C_10  and  C_11 
REMARK    5  A    between atoms: C_11  and  C_12 
REMARK    6  A    between atoms: C_12  and  C_13 
ROOT
HETATM    1  C   UNL     1      -5.415   3.122 -31.687  1.00  0.00     0.725 A 
HETATM    2  N   UNL     1      -5.791   2.299 -32.636  1.00  0.00    -0.046 NA
HETATM    3  C   UNL     1      -6.772   1.548 -32.033  1.00  0.00     0.166 A 
HETATM    4  N   UNL     1      -7.012   1.861 -30.752  1.00  0.00    -0.144 NA
HETATM    5  N   UNL     1      -6.138   2.865 -30.555  1.00  0.00    -0.106 N 
HETATM    6  H   UNL     1      -6.074   3.343 -29.661  1.00  0.00     0.208 HD
ENDROOT
BRANCH   1   7
HETATM    7  N   UNL     1      -4.452   4.088 -31.814  1.00  0.00    -0.152 N 
HETATM    8  C   UNL     1      -3.122   3.767 -31.974  1.00  0.00     0.270 C 
HETATM    9  O   UNL     1      -2.690   2.616 -31.998  1.00  0.00    -0.267 OA
HETATM   10  H   UNL     1      -4.780   5.038 -31.718  1.00  0.00     0.187 HD
BRANCH   8  11
HETATM   11  C   UNL     1      -2.183   4.917 -32.096  1.00  0.00     0.035 A 
HETATM   12  C   UNL     1      -1.466   5.310 -30.958  1.00  0.00     0.053 A 
HETATM   13  C   UNL     1      -0.573   6.384 -31.012  1.00  0.00     0.069 A 
HETATM   14  C   UNL     1      -0.394   7.065 -32.217  1.00  0.00     0.037 A 
HETATM   15  C   UNL     1      -1.093   6.667 -33.360  1.00  0.00     0.004 A 
HETATM   16  C   UNL     1      -1.983   5.593 -33.305  1.00  0.00     0.017 A 
BRANCH  13  17
HETATM   17  O   UNL     1       0.053   6.666 -29.830  1.00  0.00    -0.356 OA
HETATM   18  C   UNL     1       0.477   5.562 -29.042  1.00  0.00     0.210 C 
ENDBRANCH  13  17
ENDBRANCH   8  11
ENDBRANCH   1   7
BRANCH   3  19
HETATM   19  C   UNL     1      -7.511   0.465 -32.735  1.00  0.00     0.087 C 
BRANCH  19  20
HETATM   20  C   UNL     1      -6.876   0.081 -34.072  1.00  0.00     0.048 C 
BRANCH  20  21
HETATM   21  C   UNL     1      -5.773  -0.920 -33.915  1.00  0.00    -0.030 A 
HETATM   22  C   UNL     1      -5.824  -2.310 -34.258  1.00  0.00    -0.002 A 
HETATM   23  C   UNL     1      -4.577  -2.860 -33.957  1.00  0.00     0.042 A 
HETATM   24  C   UNL     1      -6.816  -3.152 -34.798  1.00  0.00     0.014 A 
HETATM   25  C   UNL     1      -4.271  -4.209 -34.173  1.00  0.00     0.030 A 
HETATM   26  N   UNL     1      -3.800  -1.845 -33.447  1.00  0.00    -0.365 N 
HETATM   27  C   UNL     1      -5.274  -5.022 -34.711  1.00  0.00     0.002 A 
HETATM   28  C   UNL     1      -6.529  -4.504 -35.020  1.00  0.00     0.001 A 
HETATM   29  H   UNL     1      -2.843  -1.957 -33.143  1.00  0.00     0.165 HD
HETATM   30  C   UNL     1      -4.508  -0.675 -33.416  1.00  0.00     0.096 A 
ENDBRANCH  20  21
ENDBRANCH  19  20
ENDBRANCH   3  19
TORSDOF 6
ENDMDL
MODEL 10
REMARK VINA RESULT:      -8.4      6.473      8.951
REMARK  6 active torsions:
REMARK  status: ('A' for Active; 'I' for Inactive)
REMARK    1  A    between atoms: O_2  and  C_3 
REMARK    2  A    between atoms: C_5  and  C_6 
REMARK       I    between atoms: C_6  and  N_7 
REMARK    3  A    between atoms: N_7  and  C_8 
REMARK    4  A    between atoms: C_10  and  C_11 
REMARK    5  A    between atoms: C_11  and  C_12 
REMARK    6  A    between atoms: C_12  and  C_13 
ROOT
HETATM    1  C   UNL     1      -5.055   3.485 -30.706  1.00  0.00     0.725 A 
HETATM    2  N   UNL     1      -5.580   2.873 -31.739  1.00  0.00    -0.046 NA
HETATM    3  C   UNL     1      -6.220   1.794 -31.176  1.00  0.00     0.166 A 
HETATM    4  N   UNL     1      -6.105   1.706 -29.843  1.00  0.00    -0.144 NA
HETATM    5  N   UNL     1      -5.360   2.792 -29.567  1.00  0.00    -0.106 N 
HETATM    6  H   UNL     1      -5.097   3.025 -28.614  1.00  0.00     0.208 HD
ENDROOT
BRANCH   1   7
HETATM    7  N   UNL     1      -4.318   4.638 -30.762  1.00  0.00    -0.152 N 
HETATM    8  C   UNL     1      -4.706   5.777 -30.090  1.00  0.00     0.270 C 
HETATM    9  O   UNL     1      -5.729   5.863 -29.414  1.00  0.00    -0.267 OA
HETATM   10  H   UNL     1      -3.517   4.609 -31.374  1.00  0.00     0.187 HD
BRANCH   8  11
HETATM   11  C   UNL     1      -3.813   6.960 -30.241  1.00  0.00     0.035 A 
HETATM   12  C   UNL     1      -3.209   7.180 -31.486  1.00  0.00     0.053 A 
HETATM   13  C   UNL     1      -2.360   8.272 -31.686  1.00  0.00     0.069 A 
HETATM   14  C   UNL     1      -2.119   9.153 -30.631  1.00  0.00     0.037 A 
HETATM   15  C   UNL     1      -2.732   8.950 -29.391  1.00  0.00     0.004 A 
HETATM   16  C   UNL     1      -3.581   7.860 -29.194  1.00  0.00     0.017 A 
BRANCH  13  17
HETATM   17  O   UNL     1      -1.832   8.362 -32.944  1.00  0.00    -0.356 OA
HETATM   18  C   UNL     1      -1.775   7.166 -33.709  1.00  0.00     0.210 C 
ENDBRANCH  13  17
ENDBRANCH   8  11
ENDBRANCH   1   7
BRANCH   3  19
HETATM   19  C   UNL     1      -6.978   0.793 -31.973  1.00  0.00     0.087 C 
BRANCH  19  20
HETATM   20  C   UNL     1      -6.418   0.608 -33.384  1.00  0.00     0.048 C 
BRANCH  20  21
HETATM   21  C   UNL     1      -5.444  -0.527 -33.468  1.00  0.00    -0.030 A 
HETATM   22  C   UNL     1      -5.707  -1.845 -33.961  1.00  0.00    -0.002 A 
HETATM   23  C   UNL     1      -4.519  -2.571 -33.867  1.00  0.00     0.042 A 
HETATM   24  C   UNL     1      -6.848  -2.489 -34.481  1.00  0.00     0.014 A 
HETATM   25  C   UNL     1      -4.414  -3.908 -34.271  1.00  0.00     0.030 A 
HETATM   26  N   UNL     1      -3.572  -1.729 -33.334  1.00  0.00    -0.365 N 
HETATM   27  C   UNL     1      -5.561  -4.522 -34.783  1.00  0.00     0.002 A 
HETATM   28  C   UNL     1      -6.762  -3.826 -34.888  1.00  0.00     0.001 A 
HETATM   29  H   UNL     1      -2.613  -1.989 -33.154  1.00  0.00     0.165 HD
HETATM   30  C   UNL     1      -4.116  -0.497 -33.089  1.00  0.00     0.096 A 
ENDBRANCH  20  21
ENDBRANCH  19  20
ENDBRANCH   3  19
TORSDOF 6
ENDMDL
