MODEL 1
REMARK VINA RESULT:      -8.4      0.000      0.000
REMARK  4 active torsions:
REMARK  status: ('A' for Active; 'I' for Inactive)
REMARK    1  A    between atoms: C_4  and  C_5 
REMARK    2  A    between atoms: C_7  and  C_8 
REMARK       I    between atoms: C_8  and  N_9 
REMARK    3  A    between atoms: N_9  and  C_10 
REMARK    4  A    between atoms: C_13  and  N_14 
ROOT
HETATM    1  C   UNL     1      -5.267   1.930 -32.281  1.00  0.00     0.252 C 
HETATM    2  N   UNL     1      -4.434   2.901 -32.793  1.00  0.00    -0.352 N 
HETATM    3  O   UNL     1      -5.486   1.799 -31.082  1.00  0.00    -0.268 OA
HETATM    4  H   UNL     1      -4.443   3.028 -33.799  1.00  0.00     0.163 HD
ENDROOT
BRANCH   1   5
HETATM    5  C   UNL     1      -5.952   1.028 -33.256  1.00  0.00     0.032 A 
HETATM    6  C   UNL     1      -5.650  -0.336 -33.376  1.00  0.00     0.031 A 
HETATM    7  C   UNL     1      -6.323  -1.143 -34.309  1.00  0.00    -0.001 A 
HETATM    8  C   UNL     1      -7.322  -0.564 -35.105  1.00  0.00     0.014 A 
HETATM    9  C   UNL     1      -7.640   0.788 -34.982  1.00  0.00     0.002 A 
HETATM   10  C   UNL     1      -6.957   1.581 -34.060  1.00  0.00     0.017 A 
BRANCH   7  11
HETATM   11  C   UNL     1      -5.996  -2.557 -34.452  1.00  0.00     0.086 A 
HETATM   12  O   UNL     1      -4.767  -2.943 -33.992  1.00  0.00    -0.315 OA
HETATM   13  C   UNL     1      -4.633  -4.274 -34.256  1.00  0.00     0.050 A 
HETATM   14  C   UNL     1      -3.356  -4.904 -33.865  1.00  0.00     0.076 C 
HETATM   15  C   UNL     1      -5.773  -4.754 -34.860  1.00  0.00     0.035 A 
HETATM   16  C   UNL     1      -6.649  -3.649 -34.991  1.00  0.00     0.040 A 
ENDBRANCH   7  11
ENDBRANCH   1   5
BRANCH   2  17
HETATM   17  C   UNL     1      -3.686   3.903 -32.043  1.00  0.00     0.084 C 
HETATM   18  C   UNL     1      -2.264   4.134 -32.567  1.00  0.00     0.027 C 
HETATM   19  C   UNL     1      -2.168   5.108 -33.739  1.00  0.00     0.035 C 
HETATM   20  C   UNL     1      -2.954   6.404 -33.539  1.00  0.00     0.183 C 
HETATM   21  C   UNL     1      -4.349   6.244 -32.936  1.00  0.00     0.035 C 
HETATM   22  C   UNL     1      -4.437   5.220 -31.804  1.00  0.00     0.027 C 
BRANCH  20  23
HETATM   23  N   UNL     1      -2.159   7.294 -32.634  1.00  0.00    -0.075 N 
HETATM   24  H   UNL     1      -2.749   7.836 -31.991  1.00  0.00     0.274 HD
HETATM   25  H   UNL     1      -1.498   6.746 -32.068  1.00  0.00     0.274 HD
HETATM   26  H   UNL     1      -1.598   7.962 -33.181  1.00  0.00     0.274 HD
ENDBRANCH  20  23
ENDBRANCH   2  17
TORSDOF 4
ENDMDL
MODEL 2
REMARK VINA RESULT:      -8.2      1.794      2.508
REMARK  4 active torsions:
REMARK  status: ('A' for Active; 'I' for Inactive)
REMARK    1  A    between atoms: C_4  and  C_5 
REMARK    2  A    between atoms: C_7  and  C_8 
REMARK       I    between atoms: C_8  and  N_9 
REMARK    3  A    between atoms: N_9  and  C_10 
REMARK    4  A    between atoms: C_13  and  N_14 
ROOT
HETATM    1  C   UNL     1      -6.592   3.887 -33.884  1.00  0.00     0.252 C 
HETATM    2  N   UNL     1      -5.239   4.117 -33.754  1.00  0.00    -0.352 N 
HETATM    3  O   UNL     1      -7.388   4.753 -34.225  1.00  0.00    -0.268 OA
HETATM    4  H   UNL     1      -4.647   3.305 -33.622  1.00  0.00     0.163 HD
ENDROOT
BRANCH   1   5
HETATM    5  C   UNL     1      -7.081   2.499 -33.625  1.00  0.00     0.032 A 
HETATM    6  C   UNL     1      -6.333   1.355 -33.944  1.00  0.00     0.031 A 
HETATM    7  C   UNL     1      -6.837   0.070 -33.679  1.00  0.00    -0.001 A 
HETATM    8  C   UNL     1      -8.094  -0.050 -33.070  1.00  0.00     0.014 A 
HETATM    9  C   UNL     1      -8.837   1.082 -32.736  1.00  0.00     0.002 A 
HETATM   10  C   UNL     1      -8.332   2.352 -33.013  1.00  0.00     0.017 A 
BRANCH   7  11
HETATM   11  C   UNL     1      -6.073  -1.122 -34.029  1.00  0.00     0.086 A 
HETATM   12  O   UNL     1      -6.786  -2.164 -34.556  1.00  0.00    -0.315 OA
HETATM   13  C   UNL     1      -5.912  -3.188 -34.771  1.00  0.00     0.050 A 
HETATM   14  C   UNL     1      -6.475  -4.440 -35.315  1.00  0.00     0.076 C 
HETATM   15  C   UNL     1      -4.639  -2.807 -34.410  1.00  0.00     0.035 A 
HETATM   16  C   UNL     1      -4.742  -1.480 -33.928  1.00  0.00     0.040 A 
ENDBRANCH   7  11
ENDBRANCH   1   5
BRANCH   2  17
HETATM   17  C   UNL     1      -4.535   5.374 -33.979  1.00  0.00     0.084 C 
HETATM   18  C   UNL     1      -3.923   5.977 -32.709  1.00  0.00     0.027 C 
HETATM   19  C   UNL     1      -2.555   5.413 -32.332  1.00  0.00     0.035 C 
HETATM   20  C   UNL     1      -1.569   5.336 -33.498  1.00  0.00     0.183 C 
HETATM   21  C   UNL     1      -2.145   4.823 -34.818  1.00  0.00     0.035 C 
HETATM   22  C   UNL     1      -3.541   5.353 -35.149  1.00  0.00     0.027 C 
BRANCH  20  23
HETATM   23  N   UNL     1      -1.022   6.710 -33.735  1.00  0.00    -0.075 N 
HETATM   24  H   UNL     1      -1.455   7.419 -33.131  1.00  0.00     0.274 HD
HETATM   25  H   UNL     1      -0.007   6.734 -33.571  1.00  0.00     0.274 HD
HETATM   26  H   UNL     1      -1.171   6.998 -34.712  1.00  0.00     0.274 HD
ENDBRANCH  20  23
ENDBRANCH   2  17
TORSDOF 4
ENDMDL
MODEL 3
REMARK VINA RESULT:      -8.0      3.956      5.813
REMARK  4 active torsions:
REMARK  status: ('A' for Active; 'I' for Inactive)
REMARK    1  A    between atoms: C_4  and  C_5 
REMARK    2  A    between atoms: C_7  and  C_8 
REMARK       I    between atoms: C_8  and  N_9 
REMARK    3  A    between atoms: N_9  and  C_10 
REMARK    4  A    between atoms: C_13  and  N_14 
ROOT
HETATM    1  C   UNL     1      -9.783   0.654 -33.278  1.00  0.00     0.252 C 
HETATM    2  N   UNL     1     -10.193   1.913 -33.661  1.00  0.00    -0.352 N 
HETATM    3  O   UNL     1     -10.537  -0.175 -32.784  1.00  0.00    -0.268 OA
HETATM    4  H   UNL     1      -9.537   2.465 -34.201  1.00  0.00     0.163 HD
ENDROOT
BRANCH   1   5
HETATM    5  C   UNL     1      -8.353   0.295 -33.520  1.00  0.00     0.032 A 
HETATM    6  C   UNL     1      -7.934  -1.008 -33.827  1.00  0.00     0.031 A 
HETATM    7  C   UNL     1      -6.577  -1.295 -34.047  1.00  0.00    -0.001 A 
HETATM    8  C   UNL     1      -5.646  -0.248 -33.977  1.00  0.00     0.014 A 
HETATM    9  C   UNL     1      -6.055   1.054 -33.688  1.00  0.00     0.002 A 
HETATM   10  C   UNL     1      -7.404   1.324 -33.460  1.00  0.00     0.017 A 
BRANCH   7  11
HETATM   11  C   UNL     1      -6.135  -2.653 -34.344  1.00  0.00     0.086 A 
HETATM   12  O   UNL     1      -4.890  -2.996 -33.892  1.00  0.00    -0.315 OA
HETATM   13  C   UNL     1      -4.644  -4.272 -34.305  1.00  0.00     0.050 A 
HETATM   14  C   UNL     1      -3.331  -4.845 -33.950  1.00  0.00     0.076 C 
HETATM   15  C   UNL     1      -5.729  -4.762 -34.997  1.00  0.00     0.035 A 
HETATM   16  C   UNL     1      -6.686  -3.719 -35.027  1.00  0.00     0.040 A 
ENDBRANCH   7  11
ENDBRANCH   1   5
BRANCH   2  17
HETATM   17  C   UNL     1     -11.536   2.472 -33.548  1.00  0.00     0.084 C 
HETATM   18  C   UNL     1     -11.562   3.927 -33.066  1.00  0.00     0.027 C 
HETATM   19  C   UNL     1     -11.347   4.966 -34.164  1.00  0.00     0.035 C 
HETATM   20  C   UNL     1     -12.190   4.732 -35.418  1.00  0.00     0.183 C 
HETATM   21  C   UNL     1     -12.273   3.283 -35.897  1.00  0.00     0.035 C 
HETATM   22  C   UNL     1     -12.428   2.252 -34.778  1.00  0.00     0.027 C 
BRANCH  20  23
HETATM   23  N   UNL     1     -13.583   5.206 -35.136  1.00  0.00    -0.075 N 
HETATM   24  H   UNL     1     -13.740   5.408 -34.141  1.00  0.00     0.274 HD
HETATM   25  H   UNL     1     -13.794   6.061 -35.667  1.00  0.00     0.274 HD
HETATM   26  H   UNL     1     -14.274   4.500 -35.424  1.00  0.00     0.274 HD
ENDBRANCH  20  23
ENDBRANCH   2  17
TORSDOF 4
ENDMDL
MODEL 4
REMARK VINA RESULT:      -8.0      2.693      8.057
REMARK  4 active torsions:
REMARK  status: ('A' for Active; 'I' for Inactive)
REMARK    1  A    between atoms: C_4  and  C_5 
REMARK    2  A    between atoms: C_7  and  C_8 
REMARK       I    between atoms: C_8  and  N_9 
REMARK    3  A    between atoms: N_9  and  C_10 
REMARK    4  A    between atoms: C_13  and  N_14 
ROOT
HETATM    1  C   UNL     1      -5.112   2.222 -32.075  1.00  0.00     0.252 C 
HETATM    2  N   UNL     1      -5.521   1.283 -32.998  1.00  0.00    -0.352 N 
HETATM    3  O   UNL     1      -5.295   2.099 -30.870  1.00  0.00    -0.268 OA
HETATM    4  H   UNL     1      -5.186   1.398 -33.948  1.00  0.00     0.163 HD
ENDROOT
BRANCH   1   5
HETATM    5  C   UNL     1      -4.383   3.420 -32.591  1.00  0.00     0.032 A 
HETATM    6  C   UNL     1      -3.187   3.886 -32.027  1.00  0.00     0.031 A 
HETATM    7  C   UNL     1      -2.538   5.018 -32.549  1.00  0.00    -0.001 A 
HETATM    8  C   UNL     1      -3.097   5.662 -33.662  1.00  0.00     0.014 A 
HETATM    9  C   UNL     1      -4.279   5.196 -34.239  1.00  0.00     0.002 A 
HETATM   10  C   UNL     1      -4.919   4.078 -33.705  1.00  0.00     0.017 A 
BRANCH   7  11
HETATM   11  C   UNL     1      -1.306   5.520 -31.951  1.00  0.00     0.086 A 
HETATM   12  O   UNL     1      -0.716   4.714 -31.016  1.00  0.00    -0.315 OA
HETATM   13  C   UNL     1       0.382   5.371 -30.548  1.00  0.00     0.050 A 
HETATM   14  C   UNL     1       1.165   4.692 -29.496  1.00  0.00     0.076 C 
HETATM   15  C   UNL     1       0.520   6.581 -31.189  1.00  0.00     0.035 A 
HETATM   16  C   UNL     1      -0.569   6.680 -32.089  1.00  0.00     0.040 A 
ENDBRANCH   7  11
ENDBRANCH   1   5
BRANCH   2  17
HETATM   17  C   UNL     1      -6.220   0.031 -32.729  1.00  0.00     0.084 C 
HETATM   18  C   UNL     1      -7.415  -0.221 -33.655  1.00  0.00     0.027 C 
HETATM   19  C   UNL     1      -7.057  -0.846 -35.001  1.00  0.00     0.035 C 
HETATM   20  C   UNL     1      -6.109  -2.042 -34.901  1.00  0.00     0.183 C 
HETATM   21  C   UNL     1      -4.944  -1.881 -33.925  1.00  0.00     0.035 C 
HETATM   22  C   UNL     1      -5.311  -1.199 -32.606  1.00  0.00     0.027 C 
BRANCH  20  23
HETATM   23  N   UNL     1      -6.909  -3.234 -34.474  1.00  0.00    -0.075 N 
HETATM   24  H   UNL     1      -6.429  -4.122 -34.662  1.00  0.00     0.274 HD
HETATM   25  H   UNL     1      -7.116  -3.195 -33.467  1.00  0.00     0.274 HD
HETATM   26  H   UNL     1      -7.815  -3.259 -34.962  1.00  0.00     0.274 HD
ENDBRANCH  20  23
ENDBRANCH   2  17
TORSDOF 4
ENDMDL
MODEL 5
REMARK VINA RESULT:      -7.8      4.550      6.384
REMARK  4 active torsions:
REMARK  status: ('A' for Active; 'I' for Inactive)
REMARK    1  A    between atoms: C_4  and  C_5 
REMARK    2  A    between atoms: C_7  and  C_8 
REMARK       I    between atoms: C_8  and  N_9 
REMARK    3  A    between atoms: N_9  and  C_10 
REMARK    4  A    between atoms: C_13  and  N_14 
ROOT
HETATM    1  C   UNL     1     -10.604   0.750 -33.297  1.00  0.00     0.252 C 
HETATM    2  N   UNL     1     -10.879   1.995 -33.821  1.00  0.00    -0.352 N 
HETATM    3  O   UNL     1     -11.441  -0.141 -33.212  1.00  0.00    -0.268 OA
HETATM    4  H   UNL     1     -10.088   2.605 -33.993  1.00  0.00     0.163 HD
ENDROOT
BRANCH   1   5
HETATM    5  C   UNL     1      -9.203   0.488 -32.849  1.00  0.00     0.032 A 
HETATM    6  C   UNL     1      -8.350  -0.415 -33.502  1.00  0.00     0.031 A 
HETATM    7  C   UNL     1      -7.039  -0.626 -33.043  1.00  0.00    -0.001 A 
HETATM    8  C   UNL     1      -6.589   0.099 -31.931  1.00  0.00     0.014 A 
HETATM    9  C   UNL     1      -7.425   1.009 -31.284  1.00  0.00     0.002 A 
HETATM   10  C   UNL     1      -8.727   1.203 -31.743  1.00  0.00     0.017 A 
BRANCH   7  11
HETATM   11  C   UNL     1      -6.156  -1.580 -33.705  1.00  0.00     0.086 A 
HETATM   12  O   UNL     1      -6.765  -2.638 -34.323  1.00  0.00    -0.315 OA
HETATM   13  C   UNL     1      -5.782  -3.431 -34.836  1.00  0.00     0.050 A 
HETATM   14  C   UNL     1      -6.212  -4.660 -35.530  1.00  0.00     0.076 C 
HETATM   15  C   UNL     1      -4.546  -2.881 -34.575  1.00  0.00     0.035 A 
HETATM   16  C   UNL     1      -4.787  -1.693 -33.843  1.00  0.00     0.040 A 
ENDBRANCH   7  11
ENDBRANCH   1   5
BRANCH   2  17
HETATM   17  C   UNL     1     -12.157   2.467 -34.342  1.00  0.00     0.084 C 
HETATM   18  C   UNL     1     -13.063   3.099 -33.279  1.00  0.00     0.027 C 
HETATM   19  C   UNL     1     -12.772   4.569 -32.987  1.00  0.00     0.035 C 
HETATM   20  C   UNL     1     -12.615   5.435 -34.237  1.00  0.00     0.183 C 
HETATM   21  C   UNL     1     -11.793   4.819 -35.368  1.00  0.00     0.035 C 
HETATM   22  C   UNL     1     -12.056   3.331 -35.606  1.00  0.00     0.027 C 
BRANCH  20  23
HETATM   23  N   UNL     1     -13.983   5.733 -34.769  1.00  0.00    -0.075 N 
HETATM   24  H   UNL     1     -14.266   6.707 -34.613  1.00  0.00     0.274 HD
HETATM   25  H   UNL     1     -14.031   5.550 -35.781  1.00  0.00     0.274 HD
HETATM   26  H   UNL     1     -14.687   5.127 -34.326  1.00  0.00     0.274 HD
ENDBRANCH  20  23
ENDBRANCH   2  17
TORSDOF 4
ENDMDL
MODEL 6
REMARK VINA RESULT:      -7.8      2.938      4.020
REMARK  4 active torsions:
REMARK  status: ('A' for Active; 'I' for Inactive)
REMARK    1  A    between atoms: C_4  and  C_5 
REMARK    2  A    between atoms: C_7  and  C_8 
REMARK       I    between atoms: C_8  and  N_9 
REMARK    3  A    between atoms: N_9  and  C_10 
REMARK    4  A    between atoms: C_13  and  N_14 
ROOT
HETATM    1  C   UNL     1      -2.735   3.697 -32.045  1.00  0.00     0.252 C 
HETATM    2  N   UNL     1      -2.219   4.449 -31.012  1.00  0.00    -0.352 N 
HETATM    3  O   UNL     1      -2.492   3.924 -33.224  1.00  0.00    -0.268 OA
HETATM    4  H   UNL     1      -2.348   4.088 -30.073  1.00  0.00     0.163 HD
ENDROOT
BRANCH   1   5
HETATM    5  C   UNL     1      -3.599   2.534 -31.683  1.00  0.00     0.032 A 
HETATM    6  C   UNL     1      -3.437   1.258 -32.244  1.00  0.00     0.031 A 
HETATM    7  C   UNL     1      -4.276   0.195 -31.869  1.00  0.00    -0.001 A 
HETATM    8  C   UNL     1      -5.268   0.426 -30.905  1.00  0.00     0.014 A 
HETATM    9  C   UNL     1      -5.427   1.687 -30.331  1.00  0.00     0.002 A 
HETATM   10  C   UNL     1      -4.595   2.737 -30.719  1.00  0.00     0.017 A 
BRANCH   7  11
HETATM   11  C   UNL     1      -4.125  -1.127 -32.466  1.00  0.00     0.086 A 
HETATM   12  O   UNL     1      -4.868  -1.372 -33.588  1.00  0.00    -0.315 OA
HETATM   13  C   UNL     1      -4.627  -2.660 -33.964  1.00  0.00     0.050 A 
HETATM   14  C   UNL     1      -5.354  -3.155 -35.149  1.00  0.00     0.076 C 
HETATM   15  C   UNL     1      -3.717  -3.239 -33.109  1.00  0.00     0.035 A 
HETATM   16  C   UNL     1      -3.397  -2.255 -32.142  1.00  0.00     0.040 A 
ENDBRANCH   7  11
ENDBRANCH   1   5
BRANCH   2  17
HETATM   17  C   UNL     1      -1.336   5.605 -31.121  1.00  0.00     0.084 C 
HETATM   18  C   UNL     1      -1.845   6.844 -30.374  1.00  0.00     0.027 C 
HETATM   19  C   UNL     1      -1.507   6.873 -28.885  1.00  0.00     0.035 C 
HETATM   20  C   UNL     1      -0.050   6.534 -28.569  1.00  0.00     0.183 C 
HETATM   21  C   UNL     1       0.540   5.360 -29.350  1.00  0.00     0.035 C 
HETATM   22  C   UNL     1       0.142   5.315 -30.826  1.00  0.00     0.027 C 
BRANCH  20  23
HETATM   23  N   UNL     1       0.782   7.746 -28.859  1.00  0.00    -0.075 N 
HETATM   24  H   UNL     1       0.216   8.592 -28.997  1.00  0.00     0.274 HD
HETATM   25  H   UNL     1       1.442   7.930 -28.092  1.00  0.00     0.274 HD
HETATM   26  H   UNL     1       1.346   7.606 -29.708  1.00  0.00     0.274 HD
ENDBRANCH  20  23
ENDBRANCH   2  17
TORSDOF 4
ENDMDL
MODEL 7
REMARK VINA RESULT:      -7.4      3.341      5.626
REMARK  4 active torsions:
REMARK  status: ('A' for Active; 'I' for Inactive)
REMARK    1  A    between atoms: C_4  and  C_5 
REMARK    2  A    between atoms: C_7  and  C_8 
REMARK       I    between atoms: C_8  and  N_9 
REMARK    3  A    between atoms: N_9  and  C_10 
REMARK    4  A    between atoms: C_13  and  N_14 
ROOT
HETATM    1  C   UNL     1      -8.112   1.777 -31.951  1.00  0.00     0.252 C 
HETATM    2  N   UNL     1      -9.105   1.620 -32.894  1.00  0.00    -0.352 N 
HETATM    3  O   UNL     1      -8.300   2.305 -30.862  1.00  0.00    -0.268 OA
HETATM    4  H   UNL     1      -8.890   1.033 -33.692  1.00  0.00     0.163 HD
ENDROOT
BRANCH   1   5
HETATM    5  C   UNL     1      -6.758   1.237 -32.282  1.00  0.00     0.032 A 
HETATM    6  C   UNL     1      -6.557  -0.047 -32.812  1.00  0.00     0.031 A 
HETATM    7  C   UNL     1      -5.264  -0.508 -33.108  1.00  0.00    -0.001 A 
HETATM    8  C   UNL     1      -4.175   0.346 -32.885  1.00  0.00     0.014 A 
HETATM    9  C   UNL     1      -4.366   1.630 -32.373  1.00  0.00     0.002 A 
HETATM   10  C   UNL     1      -5.654   2.073 -32.073  1.00  0.00     0.017 A 
BRANCH   7  11
HETATM   11  C   UNL     1      -5.049  -1.850 -33.638  1.00  0.00     0.086 A 
HETATM   12  O   UNL     1      -6.093  -2.402 -34.328  1.00  0.00    -0.315 OA
HETATM   13  C   UNL     1      -5.719  -3.660 -34.696  1.00  0.00     0.050 A 
HETATM   14  C   UNL     1      -6.714  -4.461 -35.436  1.00  0.00     0.076 C 
HETATM   15  C   UNL     1      -4.434  -3.915 -34.271  1.00  0.00     0.035 A 
HETATM   16  C   UNL     1      -4.004  -2.752 -33.586  1.00  0.00     0.040 A 
ENDBRANCH   7  11
ENDBRANCH   1   5
BRANCH   2  17
HETATM   17  C   UNL     1     -10.497   2.039 -32.783  1.00  0.00     0.084 C 
HETATM   18  C   UNL     1     -10.707   3.545 -32.973  1.00  0.00     0.027 C 
HETATM   19  C   UNL     1     -10.809   3.995 -34.429  1.00  0.00     0.035 C 
HETATM   20  C   UNL     1     -11.751   3.143 -35.280  1.00  0.00     0.183 C 
HETATM   21  C   UNL     1     -11.649   1.633 -35.069  1.00  0.00     0.035 C 
HETATM   22  C   UNL     1     -11.487   1.206 -33.609  1.00  0.00     0.027 C 
BRANCH  20  23
HETATM   23  N   UNL     1     -13.157   3.558 -34.973  1.00  0.00    -0.075 N 
HETATM   24  H   UNL     1     -13.827   3.249 -35.687  1.00  0.00     0.274 HD
HETATM   25  H   UNL     1     -13.464   3.176 -34.068  1.00  0.00     0.274 HD
HETATM   26  H   UNL     1     -13.228   4.582 -34.901  1.00  0.00     0.274 HD
ENDBRANCH  20  23
ENDBRANCH   2  17
TORSDOF 4
ENDMDL
MODEL 8
REMARK VINA RESULT:      -7.4      3.952      5.905
REMARK  4 active torsions:
REMARK  status: ('A' for Active; 'I' for Inactive)
REMARK    1  A    between atoms: C_4  and  C_5 
REMARK    2  A    between atoms: C_7  and  C_8 
REMARK       I    between atoms: C_8  and  N_9 
REMARK    3  A    between atoms: N_9  and  C_10 
REMARK    4  A    between atoms: C_13  and  N_14 
ROOT
HETATM    1  C   UNL     1      -8.121   2.691 -33.633  1.00  0.00     0.252 C 
HETATM    2  N   UNL     1      -9.326   2.931 -34.259  1.00  0.00    -0.352 N 
HETATM    3  O   UNL     1      -7.613   3.471 -32.837  1.00  0.00    -0.268 OA
HETATM    4  H   UNL     1      -9.736   2.160 -34.774  1.00  0.00     0.163 HD
ENDROOT
BRANCH   1   5
HETATM    5  C   UNL     1      -7.439   1.395 -33.931  1.00  0.00     0.032 A 
HETATM    6  C   UNL     1      -6.277   0.975 -33.267  1.00  0.00     0.031 A 
HETATM    7  C   UNL     1      -5.673  -0.254 -33.582  1.00  0.00    -0.001 A 
HETATM    8  C   UNL     1      -6.266  -1.066 -34.559  1.00  0.00     0.014 A 
HETATM    9  C   UNL     1      -7.430  -0.663 -35.214  1.00  0.00     0.002 A 
HETATM   10  C   UNL     1      -8.014   0.563 -34.900  1.00  0.00     0.017 A 
BRANCH   7  11
HETATM   11  C   UNL     1      -4.452  -0.685 -32.910  1.00  0.00     0.086 A 
HETATM   12  O   UNL     1      -4.321  -2.030 -32.699  1.00  0.00    -0.315 OA
HETATM   13  C   UNL     1      -3.152  -2.224 -32.026  1.00  0.00     0.050 A 
HETATM   14  C   UNL     1      -2.816  -3.615 -31.662  1.00  0.00     0.076 C 
HETATM   15  C   UNL     1      -2.517  -1.019 -31.822  1.00  0.00     0.035 A 
HETATM   16  C   UNL     1      -3.356  -0.028 -32.387  1.00  0.00     0.040 A 
ENDBRANCH   7  11
ENDBRANCH   1   5
BRANCH   2  17
HETATM   17  C   UNL     1     -10.179   4.104 -34.105  1.00  0.00     0.084 C 
HETATM   18  C   UNL     1     -11.045   4.405 -35.333  1.00  0.00     0.027 C 
HETATM   19  C   UNL     1     -12.348   3.611 -35.404  1.00  0.00     0.035 C 
HETATM   20  C   UNL     1     -13.140   3.596 -34.097  1.00  0.00     0.183 C 
HETATM   21  C   UNL     1     -12.317   3.387 -32.826  1.00  0.00     0.035 C 
HETATM   22  C   UNL     1     -10.988   4.143 -32.800  1.00  0.00     0.027 C 
BRANCH  20  23
HETATM   23  N   UNL     1     -13.856   4.906 -33.973  1.00  0.00    -0.075 N 
HETATM   24  H   UNL     1     -13.316   5.606 -33.450  1.00  0.00     0.274 HD
HETATM   25  H   UNL     1     -14.065   5.300 -34.900  1.00  0.00     0.274 HD
HETATM   26  H   UNL     1     -14.758   4.785 -33.493  1.00  0.00     0.274 HD
ENDBRANCH  20  23
ENDBRANCH   2  17
TORSDOF 4
ENDMDL
MODEL 9
REMARK VINA RESULT:      -7.1      2.505      3.953
REMARK  4 active torsions:
REMARK  status: ('A' for Active; 'I' for Inactive)
REMARK    1  A    between atoms: C_4  and  C_5 
REMARK    2  A    between atoms: C_7  and  C_8 
REMARK       I    between atoms: C_8  and  N_9 
REMARK    3  A    between atoms: N_9  and  C_10 
REMARK    4  A    between atoms: C_13  and  N_14 
ROOT
HETATM    1  C   UNL     1      -4.130   5.522 -34.011  1.00  0.00     0.252 C 
HETATM    2  N   UNL     1      -3.544   5.928 -32.832  1.00  0.00    -0.352 N 
HETATM    3  O   UNL     1      -3.647   5.754 -35.113  1.00  0.00    -0.268 OA
HETATM    4  H   UNL     1      -3.933   5.553 -31.974  1.00  0.00     0.163 HD
ENDROOT
BRANCH   1   5
HETATM    5  C   UNL     1      -5.394   4.731 -33.914  1.00  0.00     0.032 A 
HETATM    6  C   UNL     1      -5.452   3.352 -34.163  1.00  0.00     0.031 A 
HETATM    7  C   UNL     1      -6.666   2.652 -34.056  1.00  0.00    -0.001 A 
HETATM    8  C   UNL     1      -7.818   3.354 -33.675  1.00  0.00     0.014 A 
HETATM    9  C   UNL     1      -7.767   4.723 -33.411  1.00  0.00     0.002 A 
HETATM   10  C   UNL     1      -6.558   5.409 -33.530  1.00  0.00     0.017 A 
BRANCH   7  11
HETATM   11  C   UNL     1      -6.735   1.222 -34.336  1.00  0.00     0.086 A 
HETATM   12  O   UNL     1      -5.763   0.447 -33.765  1.00  0.00    -0.315 OA
HETATM   13  C   UNL     1      -5.970  -0.835 -34.178  1.00  0.00     0.050 A 
HETATM   14  C   UNL     1      -5.011  -1.851 -33.701  1.00  0.00     0.076 C 
HETATM   15  C   UNL     1      -7.080  -0.898 -34.990  1.00  0.00     0.035 A 
HETATM   16  C   UNL     1      -7.570   0.427 -35.096  1.00  0.00     0.040 A 
ENDBRANCH   7  11
ENDBRANCH   1   5
BRANCH   2  17
HETATM   17  C   UNL     1      -2.304   6.682 -32.679  1.00  0.00     0.084 C 
HETATM   18  C   UNL     1      -2.335   7.695 -31.529  1.00  0.00     0.027 C 
HETATM   19  C   UNL     1      -2.011   7.110 -30.156  1.00  0.00     0.035 C 
HETATM   20  C   UNL     1      -0.774   6.212 -30.136  1.00  0.00     0.183 C 
HETATM   21  C   UNL     1      -0.645   5.239 -31.307  1.00  0.00     0.035 C 
HETATM   22  C   UNL     1      -1.030   5.826 -32.666  1.00  0.00     0.027 C 
BRANCH  20  23
HETATM   23  N   UNL     1       0.438   7.092 -30.131  1.00  0.00    -0.075 N 
HETATM   24  H   UNL     1       0.203   8.092 -30.110  1.00  0.00     0.274 HD
HETATM   25  H   UNL     1       1.033   6.892 -29.316  1.00  0.00     0.274 HD
HETATM   26  H   UNL     1       1.014   6.924 -30.967  1.00  0.00     0.274 HD
ENDBRANCH  20  23
ENDBRANCH   2  17
TORSDOF 4
ENDMDL
MODEL 10
REMARK VINA RESULT:      -7.1      4.039      8.824
REMARK  4 active torsions:
REMARK  status: ('A' for Active; 'I' for Inactive)
REMARK    1  A    between atoms: C_4  and  C_5 
REMARK    2  A    between atoms: C_7  and  C_8 
REMARK       I    between atoms: C_8  and  N_9 
REMARK    3  A    between atoms: N_9  and  C_10 
REMARK    4  A    between atoms: C_13  and  N_14 
ROOT
HETATM    1  C   UNL     1      -3.491   2.900 -32.298  1.00  0.00     0.252 C 
HETATM    2  N   UNL     1      -4.849   3.133 -32.263  1.00  0.00    -0.352 N 
HETATM    3  O   UNL     1      -3.001   1.781 -32.210  1.00  0.00    -0.268 OA
HETATM    4  H   UNL     1      -5.160   4.068 -32.501  1.00  0.00     0.163 HD
ENDROOT
BRANCH   1   5
HETATM    5  C   UNL     1      -2.596   4.082 -32.489  1.00  0.00     0.032 A 
HETATM    6  C   UNL     1      -2.040   4.798 -31.419  1.00  0.00     0.031 A 
HETATM    7  C   UNL     1      -1.203   5.903 -31.651  1.00  0.00    -0.001 A 
HETATM    8  C   UNL     1      -0.915   6.265 -32.974  1.00  0.00     0.014 A 
HETATM    9  C   UNL     1      -1.452   5.550 -34.044  1.00  0.00     0.002 A 
HETATM   10  C   UNL     1      -2.290   4.462 -33.802  1.00  0.00     0.017 A 
BRANCH   7  11
HETATM   11  C   UNL     1      -0.640   6.664 -30.541  1.00  0.00     0.086 A 
HETATM   12  O   UNL     1      -1.463   7.595 -29.968  1.00  0.00    -0.315 OA
HETATM   13  C   UNL     1      -0.748   8.225 -28.993  1.00  0.00     0.050 A 
HETATM   14  C   UNL     1      -1.436   9.301 -28.253  1.00  0.00     0.076 C 
HETATM   15  C   UNL     1       0.520   7.692 -28.916  1.00  0.00     0.035 A 
HETATM   16  C   UNL     1       0.591   6.691 -29.915  1.00  0.00     0.040 A 
ENDBRANCH   7  11
ENDBRANCH   1   5
BRANCH   2  17
HETATM   17  C   UNL     1      -5.908   2.141 -32.114  1.00  0.00     0.084 C 
HETATM   18  C   UNL     1      -6.226   1.790 -30.656  1.00  0.00     0.027 C 
HETATM   19  C   UNL     1      -7.190   2.752 -29.965  1.00  0.00     0.035 C 
HETATM   20  C   UNL     1      -8.433   3.088 -30.789  1.00  0.00     0.183 C 
HETATM   21  C   UNL     1      -8.188   3.363 -32.272  1.00  0.00     0.035 C 
HETATM   22  C   UNL     1      -7.175   2.427 -32.932  1.00  0.00     0.027 C 
BRANCH  20  23
HETATM   23  N   UNL     1      -9.385   1.937 -30.683  1.00  0.00    -0.075 N 
HETATM   24  H   UNL     1     -10.344   2.234 -30.464  1.00  0.00     0.274 HD
HETATM   25  H   UNL     1      -9.415   1.403 -31.562  1.00  0.00     0.274 HD
HETATM   26  H   UNL     1      -9.085   1.282 -29.949  1.00  0.00     0.274 HD
ENDBRANCH  20  23
ENDBRANCH   2  17
TORSDOF 4
ENDMDL
