MODEL 1
REMARK VINA RESULT:      -9.0      0.000      0.000
REMARK  8 active torsions:
REMARK  status: ('A' for Active; 'I' for Inactive)
REMARK    1  A    between atoms: C_4  and  O_5 
REMARK    2  A    between atoms: O_5  and  C_6 
REMARK    3  A    between atoms: C_8  and  C_9 
REMARK    4  A    between atoms: C_9  and  N_10 
REMARK    5  A    between atoms: C_9  and  C_14 
REMARK       I    between atoms: N_10  and  C_11 
REMARK       I    between atoms: C_11  and  N_12 
REMARK    6  A    between atoms: C_14  and  C_15 
REMARK       I    between atoms: C_15  and  N_16 
REMARK    7  A    between atoms: N_16  and  N_17 
REMARK       I    between atoms: N_17  and  C_18 
REMARK    8  A    between atoms: C_18  and  C_19 
ROOT
HETATM    1  C   UNL     1      -4.722   3.465 -32.327  1.00  0.00     0.128 C 
ENDROOT
BRANCH   1   2
HETATM    2  C   UNL     1      -3.524   4.276 -32.812  1.00  0.00    -0.032 A 
HETATM    3  C   UNL     1      -2.279   4.250 -32.160  1.00  0.00     0.046 A 
HETATM    4  C   UNL     1      -1.203   5.008 -32.630  1.00  0.00     0.076 A 
HETATM    5  C   UNL     1      -1.337   5.772 -33.790  1.00  0.00     0.037 A 
HETATM    6  C   UNL     1      -2.569   5.829 -34.436  1.00  0.00     0.003 A 
HETATM    7  C   UNL     1      -3.655   5.102 -33.944  1.00  0.00     0.009 A 
BRANCH   4   8
HETATM    8  O   UNL     1      -0.021   4.886 -31.937  1.00  0.00    -0.311 OA
BRANCH   8   9
HETATM    9  C   UNL     1       0.161   5.652 -30.807  1.00  0.00     0.076 A 
HETATM   10  C   UNL     1      -0.114   7.021 -30.752  1.00  0.00     0.037 A 
HETATM   11  C   UNL     1       0.067   7.716 -29.554  1.00  0.00     0.003 A 
HETATM   12  C   UNL     1       0.497   7.041 -28.411  1.00  0.00     0.000 A 
HETATM   13  C   UNL     1       0.740   5.669 -28.460  1.00  0.00     0.003 A 
HETATM   14  C   UNL     1       0.566   4.973 -29.657  1.00  0.00     0.037 A 
ENDBRANCH   8   9
ENDBRANCH   4   8
ENDBRANCH   1   2
BRANCH   1  15
HETATM   15  N   UNL     1      -5.902   4.286 -32.075  1.00  0.00    -0.334 N 
HETATM   16  C   UNL     1      -7.145   3.843 -32.415  1.00  0.00     0.314 C 
HETATM   17  N   UNL     1      -8.120   4.683 -31.988  1.00  0.00    -0.352 N 
HETATM   18  O   UNL     1      -7.394   2.820 -33.034  1.00  0.00    -0.248 OA
HETATM   19  H   UNL     1      -7.898   5.667 -31.964  1.00  0.00     0.160 HD
HETATM   20  H   UNL     1      -9.041   4.453 -32.338  1.00  0.00     0.160 HD
HETATM   21  H   UNL     1      -5.886   4.798 -31.199  1.00  0.00     0.165 HD
ENDBRANCH   1  15
BRANCH   1  22
HETATM   22  C   UNL     1      -4.389   2.602 -31.098  1.00  0.00     0.134 C 
BRANCH  22  23
HETATM   23  C   UNL     1      -4.412   1.129 -31.445  1.00  0.00     0.238 C 
HETATM   24  N   UNL     1      -5.652   0.655 -31.823  1.00  0.00    -0.267 N 
HETATM   25  H   UNL     1      -6.361   1.283 -32.199  1.00  0.00     0.190 HD
HETATM   26  O   UNL     1      -3.408   0.419 -31.379  1.00  0.00    -0.272 OA
BRANCH  24  27
HETATM   27  N   UNL     1      -5.718  -0.655 -32.304  1.00  0.00    -0.262 N 
HETATM   28  C   UNL     1      -5.854  -0.861 -33.663  1.00  0.00     0.288 C 
HETATM   29  O   UNL     1      -6.086   0.041 -34.464  1.00  0.00    -0.264 OA
HETATM   30  H   UNL     1      -5.354  -1.408 -31.714  1.00  0.00     0.190 HD
BRANCH  28  31
HETATM   31  C   UNL     1      -5.694  -2.289 -34.082  1.00  0.00     0.125 A 
HETATM   32  N   UNL     1      -4.468  -2.844 -33.871  1.00  0.00    -0.255 NA
HETATM   33  C   UNL     1      -4.322  -4.135 -34.234  1.00  0.00     0.117 A 
HETATM   34  C   UNL     1      -5.334  -4.897 -34.799  1.00  0.00     0.019 A 
HETATM   35  C   UNL     1      -6.576  -4.302 -35.007  1.00  0.00     0.004 A 
HETATM   36  C   UNL     1      -6.766  -2.972 -34.644  1.00  0.00     0.037 A 
ENDBRANCH  28  31
ENDBRANCH  24  27
ENDBRANCH  22  23
ENDBRANCH   1  22
TORSDOF 8
ENDMDL
MODEL 2
REMARK VINA RESULT:      -9.0      2.318      8.667
REMARK  8 active torsions:
REMARK  status: ('A' for Active; 'I' for Inactive)
REMARK    1  A    between atoms: C_4  and  O_5 
REMARK    2  A    between atoms: O_5  and  C_6 
REMARK    3  A    between atoms: C_8  and  C_9 
REMARK    4  A    between atoms: C_9  and  N_10 
REMARK    5  A    between atoms: C_9  and  C_14 
REMARK       I    between atoms: N_10  and  C_11 
REMARK       I    between atoms: C_11  and  N_12 
REMARK    6  A    between atoms: C_14  and  C_15 
REMARK       I    between atoms: C_15  and  N_16 
REMARK    7  A    between atoms: N_16  and  N_17 
REMARK       I    between atoms: N_17  and  C_18 
REMARK    8  A    between atoms: C_18  and  C_19 
ROOT
HETATM    1  C   UNL     1      -7.714   2.690 -33.250  1.00  0.00     0.128 C 
ENDROOT
BRANCH   1   2
HETATM    2  C   UNL     1      -6.970   1.463 -32.729  1.00  0.00    -0.032 A 
HETATM    3  C   UNL     1      -6.125   0.690 -33.543  1.00  0.00     0.046 A 
HETATM    4  C   UNL     1      -5.462  -0.431 -33.034  1.00  0.00     0.076 A 
HETATM    5  C   UNL     1      -5.596  -0.773 -31.688  1.00  0.00     0.037 A 
HETATM    6  C   UNL     1      -6.447  -0.034 -30.872  1.00  0.00     0.003 A 
HETATM    7  C   UNL     1      -7.140   1.063 -31.390  1.00  0.00     0.009 A 
BRANCH   4   8
HETATM    8  O   UNL     1      -4.634  -1.099 -33.906  1.00  0.00    -0.311 OA
BRANCH   8   9
HETATM    9  C   UNL     1      -4.911  -2.416 -34.198  1.00  0.00     0.076 A 
HETATM   10  C   UNL     1      -4.053  -3.472 -33.881  1.00  0.00     0.037 A 
HETATM   11  C   UNL     1      -4.427  -4.783 -34.183  1.00  0.00     0.003 A 
HETATM   12  C   UNL     1      -5.664  -5.039 -34.776  1.00  0.00     0.000 A 
HETATM   13  C   UNL     1      -6.533  -3.986 -35.062  1.00  0.00     0.003 A 
HETATM   14  C   UNL     1      -6.158  -2.675 -34.768  1.00  0.00     0.037 A 
ENDBRANCH   8   9
ENDBRANCH   4   8
ENDBRANCH   1   2
BRANCH   1  15
HETATM   15  N   UNL     1      -8.739   2.362 -34.234  1.00  0.00    -0.334 N 
HETATM   16  C   UNL     1     -10.037   2.189 -33.857  1.00  0.00     0.314 C 
HETATM   17  N   UNL     1     -10.858   2.018 -34.922  1.00  0.00    -0.352 N 
HETATM   18  O   UNL     1     -10.452   2.178 -32.709  1.00  0.00    -0.248 OA
HETATM   19  H   UNL     1     -10.474   1.543 -35.725  1.00  0.00     0.160 HD
HETATM   20  H   UNL     1     -11.804   1.756 -34.673  1.00  0.00     0.160 HD
HETATM   21  H   UNL     1      -8.642   2.836 -35.126  1.00  0.00     0.165 HD
ENDBRANCH   1  15
BRANCH   1  22
HETATM   22  C   UNL     1      -6.760   3.766 -33.798  1.00  0.00     0.134 C 
BRANCH  22  23
HETATM   23  C   UNL     1      -5.689   4.110 -32.784  1.00  0.00     0.238 C 
HETATM   24  N   UNL     1      -4.409   3.776 -33.177  1.00  0.00    -0.267 N 
HETATM   25  H   UNL     1      -4.171   3.680 -34.164  1.00  0.00     0.190 HD
HETATM   26  O   UNL     1      -5.950   4.629 -31.699  1.00  0.00    -0.272 OA
BRANCH  24  27
HETATM   27  N   UNL     1      -3.357   4.202 -32.362  1.00  0.00    -0.262 N 
HETATM   28  C   UNL     1      -2.182   4.625 -32.954  1.00  0.00     0.288 C 
HETATM   29  O   UNL     1      -1.945   4.496 -34.152  1.00  0.00    -0.264 OA
HETATM   30  H   UNL     1      -3.571   4.492 -31.404  1.00  0.00     0.190 HD
BRANCH  28  31
HETATM   31  C   UNL     1      -1.216   5.260 -32.004  1.00  0.00     0.125 A 
HETATM   32  N   UNL     1      -0.850   4.511 -30.927  1.00  0.00    -0.255 NA
HETATM   33  C   UNL     1       0.032   5.073 -30.075  1.00  0.00     0.117 A 
HETATM   34  C   UNL     1       0.563   6.343 -30.241  1.00  0.00     0.019 A 
HETATM   35  C   UNL     1       0.169   7.088 -31.350  1.00  0.00     0.004 A 
HETATM   36  C   UNL     1      -0.738   6.541 -32.253  1.00  0.00     0.037 A 
ENDBRANCH  28  31
ENDBRANCH  24  27
ENDBRANCH  22  23
ENDBRANCH   1  22
TORSDOF 8
ENDMDL
MODEL 3
REMARK VINA RESULT:      -9.0      2.921      8.423
REMARK  8 active torsions:
REMARK  status: ('A' for Active; 'I' for Inactive)
REMARK    1  A    between atoms: C_4  and  O_5 
REMARK    2  A    between atoms: O_5  and  C_6 
REMARK    3  A    between atoms: C_8  and  C_9 
REMARK    4  A    between atoms: C_9  and  N_10 
REMARK    5  A    between atoms: C_9  and  C_14 
REMARK       I    between atoms: N_10  and  C_11 
REMARK       I    between atoms: C_11  and  N_12 
REMARK    6  A    between atoms: C_14  and  C_15 
REMARK       I    between atoms: C_15  and  N_16 
REMARK    7  A    between atoms: N_16  and  N_17 
REMARK       I    between atoms: N_17  and  C_18 
REMARK    8  A    between atoms: C_18  and  C_19 
ROOT
HETATM    1  C   UNL     1      -9.468   1.888 -32.397  1.00  0.00     0.128 C 
ENDROOT
BRANCH   1   2
HETATM    2  C   UNL     1      -8.239   0.990 -32.279  1.00  0.00    -0.032 A 
HETATM    3  C   UNL     1      -7.619   0.407 -33.397  1.00  0.00     0.046 A 
HETATM    4  C   UNL     1      -6.497  -0.414 -33.251  1.00  0.00     0.076 A 
HETATM    5  C   UNL     1      -5.945  -0.630 -31.989  1.00  0.00     0.037 A 
HETATM    6  C   UNL     1      -6.559  -0.080 -30.867  1.00  0.00     0.003 A 
HETATM    7  C   UNL     1      -7.703   0.709 -31.008  1.00  0.00     0.009 A 
BRANCH   4   8
HETATM    8  O   UNL     1      -5.948  -0.909 -34.412  1.00  0.00    -0.311 OA
BRANCH   8   9
HETATM    9  C   UNL     1      -5.663  -2.254 -34.483  1.00  0.00     0.076 A 
HETATM   10  C   UNL     1      -4.404  -2.792 -34.202  1.00  0.00     0.037 A 
HETATM   11  C   UNL     1      -4.210  -4.173 -34.266  1.00  0.00     0.003 A 
HETATM   12  C   UNL     1      -5.276  -5.016 -34.585  1.00  0.00     0.000 A 
HETATM   13  C   UNL     1      -6.540  -4.480 -34.833  1.00  0.00     0.003 A 
HETATM   14  C   UNL     1      -6.734  -3.100 -34.777  1.00  0.00     0.037 A 
ENDBRANCH   8   9
ENDBRANCH   4   8
ENDBRANCH   1   2
BRANCH   1  15
HETATM   15  N   UNL     1      -9.955   2.012 -33.767  1.00  0.00    -0.334 N 
HETATM   16  C   UNL     1     -11.088   1.369 -34.164  1.00  0.00     0.314 C 
HETATM   17  N   UNL     1     -11.450   1.706 -35.426  1.00  0.00    -0.352 N 
HETATM   18  O   UNL     1     -11.729   0.573 -33.496  1.00  0.00    -0.248 OA
HETATM   19  H   UNL     1     -10.705   1.914 -36.076  1.00  0.00     0.160 HD
HETATM   20  H   UNL     1     -12.208   1.148 -35.799  1.00  0.00     0.160 HD
HETATM   21  H   UNL     1      -9.857   2.937 -34.172  1.00  0.00     0.165 HD
ENDBRANCH   1  15
BRANCH   1  22
HETATM   22  C   UNL     1      -9.243   3.277 -31.774  1.00  0.00     0.134 C 
BRANCH  22  23
HETATM   23  C   UNL     1      -8.072   3.982 -32.426  1.00  0.00     0.238 C 
HETATM   24  N   UNL     1      -7.018   4.238 -31.574  1.00  0.00    -0.267 N 
HETATM   25  H   UNL     1      -6.878   3.682 -30.731  1.00  0.00     0.190 HD
HETATM   26  O   UNL     1      -8.077   4.308 -33.614  1.00  0.00    -0.272 OA
BRANCH  24  27
HETATM   27  N   UNL     1      -5.845   4.747 -32.140  1.00  0.00    -0.262 N 
HETATM   28  C   UNL     1      -4.725   3.940 -32.193  1.00  0.00     0.288 C 
HETATM   29  O   UNL     1      -4.648   2.853 -31.625  1.00  0.00    -0.264 OA
HETATM   30  H   UNL     1      -5.919   5.549 -32.770  1.00  0.00     0.190 HD
BRANCH  28  31
HETATM   31  C   UNL     1      -3.606   4.505 -33.009  1.00  0.00     0.125 A 
HETATM   32  N   UNL     1      -3.935   4.958 -34.251  1.00  0.00    -0.255 NA
HETATM   33  C   UNL     1      -2.932   5.481 -34.986  1.00  0.00     0.117 A 
HETATM   34  C   UNL     1      -1.620   5.571 -34.547  1.00  0.00     0.019 A 
HETATM   35  C   UNL     1      -1.311   5.097 -33.274  1.00  0.00     0.004 A 
HETATM   36  C   UNL     1      -2.320   4.551 -32.485  1.00  0.00     0.037 A 
ENDBRANCH  28  31
ENDBRANCH  24  27
ENDBRANCH  22  23
ENDBRANCH   1  22
TORSDOF 8
ENDMDL
MODEL 4
REMARK VINA RESULT:      -9.0      1.675      2.463
REMARK  8 active torsions:
REMARK  status: ('A' for Active; 'I' for Inactive)
REMARK    1  A    between atoms: C_4  and  O_5 
REMARK    2  A    between atoms: O_5  and  C_6 
REMARK    3  A    between atoms: C_8  and  C_9 
REMARK    4  A    between atoms: C_9  and  N_10 
REMARK    5  A    between atoms: C_9  and  C_14 
REMARK       I    between atoms: N_10  and  C_11 
REMARK       I    between atoms: C_11  and  N_12 
REMARK    6  A    between atoms: C_14  and  C_15 
REMARK       I    between atoms: C_15  and  N_16 
REMARK    7  A    between atoms: N_16  and  N_17 
REMARK       I    between atoms: N_17  and  C_18 
REMARK    8  A    between atoms: C_18  and  C_19 
ROOT
HETATM    1  C   UNL     1      -6.660   3.454 -32.362  1.00  0.00     0.128 C 
ENDROOT
BRANCH   1   2
HETATM    2  C   UNL     1      -5.356   3.975 -32.958  1.00  0.00    -0.032 A 
HETATM    3  C   UNL     1      -4.118   3.834 -32.308  1.00  0.00     0.046 A 
HETATM    4  C   UNL     1      -2.942   4.327 -32.883  1.00  0.00     0.076 A 
HETATM    5  C   UNL     1      -2.975   4.930 -34.140  1.00  0.00     0.037 A 
HETATM    6  C   UNL     1      -4.195   5.100 -34.789  1.00  0.00     0.003 A 
HETATM    7  C   UNL     1      -5.375   4.642 -34.198  1.00  0.00     0.009 A 
BRANCH   4   8
HETATM    8  O   UNL     1      -1.780   4.109 -32.178  1.00  0.00    -0.311 OA
BRANCH   8   9
HETATM    9  C   UNL     1      -1.248   5.149 -31.450  1.00  0.00     0.076 A 
HETATM   10  C   UNL     1       0.118   5.440 -31.407  1.00  0.00     0.037 A 
HETATM   11  C   UNL     1       0.570   6.536 -30.669  1.00  0.00     0.003 A 
HETATM   12  C   UNL     1      -0.341   7.351 -29.996  1.00  0.00     0.000 A 
HETATM   13  C   UNL     1      -1.707   7.078 -30.066  1.00  0.00     0.003 A 
HETATM   14  C   UNL     1      -2.161   5.980 -30.798  1.00  0.00     0.037 A 
ENDBRANCH   8   9
ENDBRANCH   4   8
ENDBRANCH   1   2
BRANCH   1  15
HETATM   15  N   UNL     1      -6.461   2.341 -31.439  1.00  0.00    -0.334 N 
HETATM   16  C   UNL     1      -6.638   2.506 -30.099  1.00  0.00     0.314 C 
HETATM   17  N   UNL     1      -6.535   1.336 -29.423  1.00  0.00    -0.352 N 
HETATM   18  O   UNL     1      -6.860   3.566 -29.533  1.00  0.00    -0.248 OA
HETATM   19  H   UNL     1      -5.892   0.650 -29.790  1.00  0.00     0.160 HD
HETATM   20  H   UNL     1      -6.529   1.443 -28.416  1.00  0.00     0.160 HD
HETATM   21  H   UNL     1      -6.791   1.442 -31.778  1.00  0.00     0.165 HD
ENDBRANCH   1  15
BRANCH   1  22
HETATM   22  C   UNL     1      -7.694   3.087 -33.440  1.00  0.00     0.134 C 
BRANCH  22  23
HETATM   23  C   UNL     1      -7.655   1.606 -33.749  1.00  0.00     0.238 C 
HETATM   24  N   UNL     1      -6.733   1.251 -34.712  1.00  0.00    -0.267 N 
HETATM   25  H   UNL     1      -5.920   1.837 -34.901  1.00  0.00     0.190 HD
HETATM   26  O   UNL     1      -8.398   0.796 -33.194  1.00  0.00    -0.272 OA
BRANCH  24  27
HETATM   27  N   UNL     1      -6.533  -0.113 -34.938  1.00  0.00    -0.262 N 
HETATM   28  C   UNL     1      -5.543  -0.770 -34.232  1.00  0.00     0.288 C 
HETATM   29  O   UNL     1      -4.716  -0.191 -33.533  1.00  0.00    -0.264 OA
HETATM   30  H   UNL     1      -7.295  -0.652 -35.357  1.00  0.00     0.190 HD
BRANCH  28  31
HETATM   31  C   UNL     1      -5.566  -2.257 -34.390  1.00  0.00     0.125 A 
HETATM   32  N   UNL     1      -4.390  -2.905 -34.159  1.00  0.00    -0.255 NA
HETATM   33  C   UNL     1      -4.409  -4.248 -34.288  1.00  0.00     0.117 A 
HETATM   34  C   UNL     1      -5.538  -4.974 -34.637  1.00  0.00     0.019 A 
HETATM   35  C   UNL     1      -6.725  -4.285 -34.871  1.00  0.00     0.004 A 
HETATM   36  C   UNL     1      -6.746  -2.899 -34.747  1.00  0.00     0.037 A 
ENDBRANCH  28  31
ENDBRANCH  24  27
ENDBRANCH  22  23
ENDBRANCH   1  22
TORSDOF 8
ENDMDL
MODEL 5
REMARK VINA RESULT:      -8.8      2.509      9.692
REMARK  8 active torsions:
REMARK  status: ('A' for Active; 'I' for Inactive)
REMARK    1  A    between atoms: C_4  and  O_5 
REMARK    2  A    between atoms: O_5  and  C_6 
REMARK    3  A    between atoms: C_8  and  C_9 
REMARK    4  A    between atoms: C_9  and  N_10 
REMARK    5  A    between atoms: C_9  and  C_14 
REMARK       I    between atoms: N_10  and  C_11 
REMARK       I    between atoms: C_11  and  N_12 
REMARK    6  A    between atoms: C_14  and  C_15 
REMARK       I    between atoms: C_15  and  N_16 
REMARK    7  A    between atoms: N_16  and  N_17 
REMARK       I    between atoms: N_17  and  C_18 
REMARK    8  A    between atoms: C_18  and  C_19 
ROOT
HETATM    1  C   UNL     1      -4.257   3.531 -31.880  1.00  0.00     0.128 C 
ENDROOT
BRANCH   1   2
HETATM    2  C   UNL     1      -4.931   2.162 -31.846  1.00  0.00    -0.032 A 
HETATM    3  C   UNL     1      -5.305   1.475 -33.014  1.00  0.00     0.046 A 
HETATM    4  C   UNL     1      -5.924   0.223 -32.945  1.00  0.00     0.076 A 
HETATM    5  C   UNL     1      -6.140  -0.386 -31.710  1.00  0.00     0.037 A 
HETATM    6  C   UNL     1      -5.799   0.290 -30.541  1.00  0.00     0.003 A 
HETATM    7  C   UNL     1      -5.215   1.557 -30.608  1.00  0.00     0.009 A 
BRANCH   4   8
HETATM    8  O   UNL     1      -6.220  -0.378 -34.148  1.00  0.00    -0.311 OA
BRANCH   8   9
HETATM    9  C   UNL     1      -5.879  -1.700 -34.322  1.00  0.00     0.076 A 
HETATM   10  C   UNL     1      -4.582  -2.192 -34.149  1.00  0.00     0.037 A 
HETATM   11  C   UNL     1      -4.330  -3.555 -34.314  1.00  0.00     0.003 A 
HETATM   12  C   UNL     1      -5.374  -4.427 -34.627  1.00  0.00     0.000 A 
HETATM   13  C   UNL     1      -6.673  -3.940 -34.768  1.00  0.00     0.003 A 
HETATM   14  C   UNL     1      -6.926  -2.577 -34.610  1.00  0.00     0.037 A 
ENDBRANCH   8   9
ENDBRANCH   4   8
ENDBRANCH   1   2
BRANCH   1  15
HETATM   15  N   UNL     1      -5.086   4.561 -32.497  1.00  0.00    -0.334 N 
HETATM   16  C   UNL     1      -5.566   5.602 -31.762  1.00  0.00     0.314 C 
HETATM   17  N   UNL     1      -6.203   6.519 -32.532  1.00  0.00    -0.352 N 
HETATM   18  O   UNL     1      -5.461   5.731 -30.552  1.00  0.00    -0.248 OA
HETATM   19  H   UNL     1      -6.695   6.173 -33.342  1.00  0.00     0.160 HD
HETATM   20  H   UNL     1      -6.685   7.235 -32.003  1.00  0.00     0.160 HD
HETATM   21  H   UNL     1      -4.805   4.830 -33.435  1.00  0.00     0.165 HD
ENDBRANCH   1  15
BRANCH   1  22
HETATM   22  C   UNL     1      -2.868   3.486 -32.540  1.00  0.00     0.134 C 
BRANCH  22  23
HETATM   23  C   UNL     1      -1.962   4.559 -31.974  1.00  0.00     0.238 C 
HETATM   24  N   UNL     1      -2.258   4.926 -30.678  1.00  0.00    -0.267 N 
HETATM   25  H   UNL     1      -2.754   4.291 -30.053  1.00  0.00     0.190 HD
HETATM   26  O   UNL     1      -1.051   5.066 -32.630  1.00  0.00    -0.272 OA
BRANCH  24  27
HETATM   27  N   UNL     1      -1.371   5.798 -30.040  1.00  0.00    -0.262 N 
HETATM   28  C   UNL     1      -1.768   7.100 -29.805  1.00  0.00     0.288 C 
HETATM   29  O   UNL     1      -2.795   7.588 -30.269  1.00  0.00    -0.264 OA
HETATM   30  H   UNL     1      -0.607   5.397 -29.490  1.00  0.00     0.190 HD
BRANCH  28  31
HETATM   31  C   UNL     1      -0.833   7.873 -28.929  1.00  0.00     0.125 A 
HETATM   32  N   UNL     1      -1.393   8.859 -28.174  1.00  0.00    -0.255 NA
HETATM   33  C   UNL     1      -0.556   9.550 -27.371  1.00  0.00     0.117 A 
HETATM   34  C   UNL     1       0.807   9.309 -27.287  1.00  0.00     0.019 A 
HETATM   35  C   UNL     1       1.352   8.297 -28.074  1.00  0.00     0.004 A 
HETATM   36  C   UNL     1       0.521   7.561 -28.913  1.00  0.00     0.037 A 
ENDBRANCH  28  31
ENDBRANCH  24  27
ENDBRANCH  22  23
ENDBRANCH   1  22
TORSDOF 8
ENDMDL
MODEL 6
REMARK VINA RESULT:      -8.7      3.093      9.794
REMARK  8 active torsions:
REMARK  status: ('A' for Active; 'I' for Inactive)
REMARK    1  A    between atoms: C_4  and  O_5 
REMARK    2  A    between atoms: O_5  and  C_6 
REMARK    3  A    between atoms: C_8  and  C_9 
REMARK    4  A    between atoms: C_9  and  N_10 
REMARK    5  A    between atoms: C_9  and  C_14 
REMARK       I    between atoms: N_10  and  C_11 
REMARK       I    between atoms: C_11  and  N_12 
REMARK    6  A    between atoms: C_14  and  C_15 
REMARK       I    between atoms: C_15  and  N_16 
REMARK    7  A    between atoms: N_16  and  N_17 
REMARK       I    between atoms: N_17  and  C_18 
REMARK    8  A    between atoms: C_18  and  C_19 
ROOT
HETATM    1  C   UNL     1      -3.208   4.381 -32.807  1.00  0.00     0.128 C 
ENDROOT
BRANCH   1   2
HETATM    2  C   UNL     1      -4.540   3.690 -33.085  1.00  0.00    -0.032 A 
HETATM    3  C   UNL     1      -4.833   2.397 -32.619  1.00  0.00     0.046 A 
HETATM    4  C   UNL     1      -6.064   1.794 -32.895  1.00  0.00     0.076 A 
HETATM    5  C   UNL     1      -7.043   2.490 -33.603  1.00  0.00     0.037 A 
HETATM    6  C   UNL     1      -6.763   3.762 -34.093  1.00  0.00     0.003 A 
HETATM    7  C   UNL     1      -5.520   4.351 -33.850  1.00  0.00     0.009 A 
BRANCH   4   8
HETATM    8  O   UNL     1      -6.260   0.538 -32.366  1.00  0.00    -0.311 OA
BRANCH   8   9
HETATM    9  C   UNL     1      -5.972  -0.557 -33.148  1.00  0.00     0.076 A 
HETATM   10  C   UNL     1      -4.707  -1.148 -33.211  1.00  0.00     0.037 A 
HETATM   11  C   UNL     1      -4.509  -2.279 -34.006  1.00  0.00     0.003 A 
HETATM   12  C   UNL     1      -5.576  -2.831 -34.716  1.00  0.00     0.000 A 
HETATM   13  C   UNL     1      -6.845  -2.260 -34.626  1.00  0.00     0.003 A 
HETATM   14  C   UNL     1      -7.044  -1.126 -33.837  1.00  0.00     0.037 A 
ENDBRANCH   8   9
ENDBRANCH   4   8
ENDBRANCH   1   2
BRANCH   1  15
HETATM   15  N   UNL     1      -2.294   4.336 -33.944  1.00  0.00    -0.334 N 
HETATM   16  C   UNL     1      -1.826   5.483 -34.507  1.00  0.00     0.314 C 
HETATM   17  N   UNL     1      -0.894   5.239 -35.462  1.00  0.00    -0.352 N 
HETATM   18  O   UNL     1      -2.180   6.616 -34.220  1.00  0.00    -0.248 OA
HETATM   19  H   UNL     1      -1.000   4.392 -36.000  1.00  0.00     0.160 HD
HETATM   20  H   UNL     1      -0.624   6.059 -35.991  1.00  0.00     0.160 HD
HETATM   21  H   UNL     1      -1.598   3.598 -33.902  1.00  0.00     0.165 HD
ENDBRANCH   1  15
BRANCH   1  22
HETATM   22  C   UNL     1      -2.522   3.846 -31.538  1.00  0.00     0.134 C 
BRANCH  22  23
HETATM   23  C   UNL     1      -1.506   4.836 -31.011  1.00  0.00     0.238 C 
HETATM   24  N   UNL     1      -2.002   5.709 -30.065  1.00  0.00    -0.267 N 
HETATM   25  H   UNL     1      -2.822   5.469 -29.508  1.00  0.00     0.190 HD
HETATM   26  O   UNL     1      -0.341   4.862 -31.410  1.00  0.00    -0.272 OA
BRANCH  24  27
HETATM   27  N   UNL     1      -1.087   6.548 -29.423  1.00  0.00    -0.262 N 
HETATM   28  C   UNL     1      -1.469   7.188 -28.259  1.00  0.00     0.288 C 
HETATM   29  O   UNL     1      -2.623   7.193 -27.839  1.00  0.00    -0.264 OA
HETATM   30  H   UNL     1      -0.092   6.429 -29.629  1.00  0.00     0.190 HD
BRANCH  28  31
HETATM   31  C   UNL     1      -0.348   7.878 -27.548  1.00  0.00     0.125 A 
HETATM   32  N   UNL     1      -0.561   8.176 -26.236  1.00  0.00    -0.255 NA
HETATM   33  C   UNL     1       0.452   8.786 -25.586  1.00  0.00     0.117 A 
HETATM   34  C   UNL     1       1.661   9.116 -26.179  1.00  0.00     0.019 A 
HETATM   35  C   UNL     1       1.850   8.804 -27.523  1.00  0.00     0.004 A 
HETATM   36  C   UNL     1       0.828   8.172 -28.227  1.00  0.00     0.037 A 
ENDBRANCH  28  31
ENDBRANCH  24  27
ENDBRANCH  22  23
ENDBRANCH   1  22
TORSDOF 8
ENDMDL
MODEL 7
REMARK VINA RESULT:      -8.7      1.841      2.108
REMARK  8 active torsions:
REMARK  status: ('A' for Active; 'I' for Inactive)
REMARK    1  A    between atoms: C_4  and  O_5 
REMARK    2  A    between atoms: O_5  and  C_6 
REMARK    3  A    between atoms: C_8  and  C_9 
REMARK    4  A    between atoms: C_9  and  N_10 
REMARK    5  A    between atoms: C_9  and  C_14 
REMARK       I    between atoms: N_10  and  C_11 
REMARK       I    between atoms: C_11  and  N_12 
REMARK    6  A    between atoms: C_14  and  C_15 
REMARK       I    between atoms: C_15  and  N_16 
REMARK    7  A    between atoms: N_16  and  N_17 
REMARK       I    between atoms: N_17  and  C_18 
REMARK    8  A    between atoms: C_18  and  C_19 
ROOT
HETATM    1  C   UNL     1      -5.205   5.336 -31.448  1.00  0.00     0.128 C 
ENDROOT
BRANCH   1   2
HETATM    2  C   UNL     1      -3.949   5.303 -32.316  1.00  0.00    -0.032 A 
HETATM    3  C   UNL     1      -2.669   5.074 -31.785  1.00  0.00     0.046 A 
HETATM    4  C   UNL     1      -1.540   5.054 -32.609  1.00  0.00     0.076 A 
HETATM    5  C   UNL     1      -1.675   5.216 -33.988  1.00  0.00     0.037 A 
HETATM    6  C   UNL     1      -2.932   5.467 -34.530  1.00  0.00     0.003 A 
HETATM    7  C   UNL     1      -4.055   5.526 -33.702  1.00  0.00     0.009 A 
BRANCH   4   8
HETATM    8  O   UNL     1      -0.338   4.791 -31.992  1.00  0.00    -0.311 OA
BRANCH   8   9
HETATM    9  C   UNL     1       0.028   5.560 -30.911  1.00  0.00     0.076 A 
HETATM   10  C   UNL     1      -0.044   6.955 -30.898  1.00  0.00     0.037 A 
HETATM   11  C   UNL     1       0.316   7.657 -29.746  1.00  0.00     0.003 A 
HETATM   12  C   UNL     1       0.723   6.967 -28.603  1.00  0.00     0.000 A 
HETATM   13  C   UNL     1       0.763   5.572 -28.607  1.00  0.00     0.003 A 
HETATM   14  C   UNL     1       0.410   4.869 -29.760  1.00  0.00     0.037 A 
ENDBRANCH   8   9
ENDBRANCH   4   8
ENDBRANCH   1   2
BRANCH   1  15
HETATM   15  N   UNL     1      -4.967   4.875 -30.084  1.00  0.00    -0.334 N 
HETATM   16  C   UNL     1      -5.584   5.475 -29.029  1.00  0.00     0.314 C 
HETATM   17  N   UNL     1      -5.341   4.829 -27.862  1.00  0.00    -0.352 N 
HETATM   18  O   UNL     1      -6.278   6.479 -29.083  1.00  0.00    -0.248 OA
HETATM   19  H   UNL     1      -4.441   4.383 -27.764  1.00  0.00     0.160 HD
HETATM   20  H   UNL     1      -5.674   5.322 -27.043  1.00  0.00     0.160 HD
HETATM   21  H   UNL     1      -4.890   3.868 -29.982  1.00  0.00     0.165 HD
ENDBRANCH   1  15
BRANCH   1  22
HETATM   22  C   UNL     1      -6.378   4.571 -32.084  1.00  0.00     0.134 C 
BRANCH  22  23
HETATM   23  C   UNL     1      -6.127   3.078 -32.066  1.00  0.00     0.238 C 
HETATM   24  N   UNL     1      -6.093   2.493 -33.315  1.00  0.00    -0.267 N 
HETATM   25  H   UNL     1      -5.870   3.042 -34.145  1.00  0.00     0.190 HD
HETATM   26  O   UNL     1      -5.982   2.445 -31.019  1.00  0.00    -0.272 OA
BRANCH  24  27
HETATM   27  N   UNL     1      -5.714   1.150 -33.385  1.00  0.00    -0.262 N 
HETATM   28  C   UNL     1      -6.619   0.225 -33.870  1.00  0.00     0.288 C 
HETATM   29  O   UNL     1      -7.798   0.486 -34.093  1.00  0.00    -0.264 OA
HETATM   30  H   UNL     1      -4.716   0.927 -33.386  1.00  0.00     0.190 HD
BRANCH  28  31
HETATM   31  C   UNL     1      -6.035  -1.133 -34.103  1.00  0.00     0.125 A 
HETATM   32  N   UNL     1      -4.728  -1.295 -33.754  1.00  0.00    -0.255 NA
HETATM   33  C   UNL     1      -4.201  -2.521 -33.950  1.00  0.00     0.117 A 
HETATM   34  C   UNL     1      -4.910  -3.590 -34.478  1.00  0.00     0.019 A 
HETATM   35  C   UNL     1      -6.243  -3.395 -34.829  1.00  0.00     0.004 A 
HETATM   36  C   UNL     1      -6.823  -2.144 -34.641  1.00  0.00     0.037 A 
ENDBRANCH  28  31
ENDBRANCH  24  27
ENDBRANCH  22  23
ENDBRANCH   1  22
TORSDOF 8
ENDMDL
MODEL 8
REMARK VINA RESULT:      -8.7      2.426      9.417
REMARK  8 active torsions:
REMARK  status: ('A' for Active; 'I' for Inactive)
REMARK    1  A    between atoms: C_4  and  O_5 
REMARK    2  A    between atoms: O_5  and  C_6 
REMARK    3  A    between atoms: C_8  and  C_9 
REMARK    4  A    between atoms: C_9  and  N_10 
REMARK    5  A    between atoms: C_9  and  C_14 
REMARK       I    between atoms: N_10  and  C_11 
REMARK       I    between atoms: C_11  and  N_12 
REMARK    6  A    between atoms: C_14  and  C_15 
REMARK       I    between atoms: C_15  and  N_16 
REMARK    7  A    between atoms: N_16  and  N_17 
REMARK       I    between atoms: N_17  and  C_18 
REMARK    8  A    between atoms: C_18  and  C_19 
ROOT
HETATM    1  C   UNL     1      -5.680   3.602 -32.183  1.00  0.00     0.128 C 
ENDROOT
BRANCH   1   2
HETATM    2  C   UNL     1      -5.633   2.084 -32.025  1.00  0.00    -0.032 A 
HETATM    3  C   UNL     1      -5.101   1.237 -33.012  1.00  0.00     0.046 A 
HETATM    4  C   UNL     1      -5.077  -0.149 -32.836  1.00  0.00     0.076 A 
HETATM    5  C   UNL     1      -5.543  -0.713 -31.648  1.00  0.00     0.037 A 
HETATM    6  C   UNL     1      -6.097   0.107 -30.669  1.00  0.00     0.003 A 
HETATM    7  C   UNL     1      -6.155   1.490 -30.861  1.00  0.00     0.009 A 
BRANCH   4   8
HETATM    8  O   UNL     1      -4.505  -0.884 -33.849  1.00  0.00    -0.311 OA
BRANCH   8   9
HETATM    9  C   UNL     1      -5.035  -2.120 -34.144  1.00  0.00     0.076 A 
HETATM   10  C   UNL     1      -6.328  -2.307 -34.640  1.00  0.00     0.037 A 
HETATM   11  C   UNL     1      -6.774  -3.595 -34.944  1.00  0.00     0.003 A 
HETATM   12  C   UNL     1      -5.924  -4.688 -34.776  1.00  0.00     0.000 A 
HETATM   13  C   UNL     1      -4.623  -4.497 -34.312  1.00  0.00     0.003 A 
HETATM   14  C   UNL     1      -4.176  -3.212 -34.001  1.00  0.00     0.037 A 
ENDBRANCH   8   9
ENDBRANCH   4   8
ENDBRANCH   1   2
BRANCH   1  15
HETATM   15  N   UNL     1      -6.630   4.040 -33.200  1.00  0.00    -0.334 N 
HETATM   16  C   UNL     1      -7.382   5.161 -33.014  1.00  0.00     0.314 C 
HETATM   17  N   UNL     1      -8.107   5.477 -34.116  1.00  0.00    -0.352 N 
HETATM   18  O   UNL     1      -7.431   5.827 -31.992  1.00  0.00    -0.248 OA
HETATM   19  H   UNL     1      -8.433   4.710 -34.685  1.00  0.00     0.160 HD
HETATM   20  H   UNL     1      -8.774   6.223 -33.967  1.00  0.00     0.160 HD
HETATM   21  H   UNL     1      -6.313   3.927 -34.158  1.00  0.00     0.165 HD
ENDBRANCH   1  15
BRANCH   1  22
HETATM   22  C   UNL     1      -4.290   4.209 -32.441  1.00  0.00     0.134 C 
BRANCH  22  23
HETATM   23  C   UNL     1      -3.738   4.854 -31.188  1.00  0.00     0.238 C 
HETATM   24  N   UNL     1      -2.361   4.912 -31.139  1.00  0.00    -0.267 N 
HETATM   25  H   UNL     1      -1.805   4.889 -31.993  1.00  0.00     0.190 HD
HETATM   26  O   UNL     1      -4.465   5.275 -30.287  1.00  0.00    -0.272 OA
BRANCH  24  27
HETATM   27  N   UNL     1      -1.786   5.630 -30.087  1.00  0.00    -0.262 N 
HETATM   28  C   UNL     1      -0.456   5.417 -29.781  1.00  0.00     0.288 C 
HETATM   29  O   UNL     1       0.214   4.512 -30.272  1.00  0.00    -0.264 OA
HETATM   30  H   UNL     1      -2.240   6.496 -29.786  1.00  0.00     0.190 HD
BRANCH  28  31
HETATM   31  C   UNL     1       0.105   6.389 -28.792  1.00  0.00     0.125 A 
HETATM   32  N   UNL     1      -0.099   6.097 -27.477  1.00  0.00    -0.255 NA
HETATM   33  C   UNL     1       0.417   6.964 -26.581  1.00  0.00     0.117 A 
HETATM   34  C   UNL     1       1.122   8.106 -26.930  1.00  0.00     0.019 A 
HETATM   35  C   UNL     1       1.312   8.382 -28.282  1.00  0.00     0.004 A 
HETATM   36  C   UNL     1       0.796   7.510 -29.237  1.00  0.00     0.037 A 
ENDBRANCH  28  31
ENDBRANCH  24  27
ENDBRANCH  22  23
ENDBRANCH   1  22
TORSDOF 8
ENDMDL
MODEL 9
REMARK VINA RESULT:      -8.6      2.168      8.378
REMARK  8 active torsions:
REMARK  status: ('A' for Active; 'I' for Inactive)
REMARK    1  A    between atoms: C_4  and  O_5 
REMARK    2  A    between atoms: O_5  and  C_6 
REMARK    3  A    between atoms: C_8  and  C_9 
REMARK    4  A    between atoms: C_9  and  N_10 
REMARK    5  A    between atoms: C_9  and  C_14 
REMARK       I    between atoms: N_10  and  C_11 
REMARK       I    between atoms: C_11  and  N_12 
REMARK    6  A    between atoms: C_14  and  C_15 
REMARK       I    between atoms: C_15  and  N_16 
REMARK    7  A    between atoms: N_16  and  N_17 
REMARK       I    between atoms: N_17  and  C_18 
REMARK    8  A    between atoms: C_18  and  C_19 
ROOT
HETATM    1  C   UNL     1      -7.270   2.667 -32.115  1.00  0.00     0.128 C 
ENDROOT
BRANCH   1   2
HETATM    2  C   UNL     1      -7.090   1.559 -33.149  1.00  0.00    -0.032 A 
HETATM    3  C   UNL     1      -5.974   0.704 -33.155  1.00  0.00     0.046 A 
HETATM    4  C   UNL     1      -5.840  -0.298 -34.120  1.00  0.00     0.076 A 
HETATM    5  C   UNL     1      -6.842  -0.496 -35.070  1.00  0.00     0.037 A 
HETATM    6  C   UNL     1      -7.943   0.355 -35.095  1.00  0.00     0.003 A 
HETATM    7  C   UNL     1      -8.059   1.382 -34.154  1.00  0.00     0.009 A 
BRANCH   4   8
HETATM    8  O   UNL     1      -4.726  -1.100 -34.017  1.00  0.00    -0.311 OA
BRANCH   8   9
HETATM    9  C   UNL     1      -4.882  -2.461 -34.147  1.00  0.00     0.076 A 
HETATM   10  C   UNL     1      -5.978  -3.055 -34.778  1.00  0.00     0.037 A 
HETATM   11  C   UNL     1      -6.041  -4.445 -34.896  1.00  0.00     0.003 A 
HETATM   12  C   UNL     1      -5.001  -5.237 -34.406  1.00  0.00     0.000 A 
HETATM   13  C   UNL     1      -3.893  -4.641 -33.804  1.00  0.00     0.003 A 
HETATM   14  C   UNL     1      -3.831  -3.252 -33.680  1.00  0.00     0.037 A 
ENDBRANCH   8   9
ENDBRANCH   4   8
ENDBRANCH   1   2
BRANCH   1  15
HETATM   15  N   UNL     1      -6.785   3.963 -32.577  1.00  0.00    -0.334 N 
HETATM   16  C   UNL     1      -7.654   4.922 -33.002  1.00  0.00     0.314 C 
HETATM   17  N   UNL     1      -7.029   6.095 -33.268  1.00  0.00    -0.352 N 
HETATM   18  O   UNL     1      -8.858   4.780 -33.146  1.00  0.00    -0.248 OA
HETATM   19  H   UNL     1      -6.086   6.041 -33.625  1.00  0.00     0.160 HD
HETATM   20  H   UNL     1      -7.623   6.785 -33.712  1.00  0.00     0.160 HD
HETATM   21  H   UNL     1      -6.003   4.339 -32.049  1.00  0.00     0.165 HD
ENDBRANCH   1  15
BRANCH   1  22
HETATM   22  C   UNL     1      -6.647   2.308 -30.755  1.00  0.00     0.134 C 
BRANCH  22  23
HETATM   23  C   UNL     1      -5.418   3.148 -30.481  1.00  0.00     0.238 C 
HETATM   24  N   UNL     1      -4.235   2.577 -30.903  1.00  0.00    -0.267 N 
HETATM   25  H   UNL     1      -4.226   1.879 -31.647  1.00  0.00     0.190 HD
HETATM   26  O   UNL     1      -5.478   4.240 -29.915  1.00  0.00    -0.272 OA
BRANCH  24  27
HETATM   27  N   UNL     1      -3.080   3.360 -30.823  1.00  0.00    -0.262 N 
HETATM   28  C   UNL     1      -2.641   4.020 -31.954  1.00  0.00     0.288 C 
HETATM   29  O   UNL     1      -3.113   3.832 -33.072  1.00  0.00    -0.264 OA
HETATM   30  H   UNL     1      -2.775   3.682 -29.901  1.00  0.00     0.190 HD
BRANCH  28  31
HETATM   31  C   UNL     1      -1.534   4.994 -31.700  1.00  0.00     0.125 A 
HETATM   32  N   UNL     1      -0.592   4.611 -30.793  1.00  0.00    -0.255 NA
HETATM   33  C   UNL     1       0.416   5.480 -30.570  1.00  0.00     0.117 A 
HETATM   34  C   UNL     1       0.529   6.709 -31.202  1.00  0.00     0.019 A 
HETATM   35  C   UNL     1      -0.450   7.076 -32.122  1.00  0.00     0.004 A 
HETATM   36  C   UNL     1      -1.505   6.206 -32.380  1.00  0.00     0.037 A 
ENDBRANCH  28  31
ENDBRANCH  24  27
ENDBRANCH  22  23
ENDBRANCH   1  22
TORSDOF 8
ENDMDL
MODEL 10
REMARK VINA RESULT:      -8.6      4.261      8.024
REMARK  8 active torsions:
REMARK  status: ('A' for Active; 'I' for Inactive)
REMARK    1  A    between atoms: C_4  and  O_5 
REMARK    2  A    between atoms: O_5  and  C_6 
REMARK    3  A    between atoms: C_8  and  C_9 
REMARK    4  A    between atoms: C_9  and  N_10 
REMARK    5  A    between atoms: C_9  and  C_14 
REMARK       I    between atoms: N_10  and  C_11 
REMARK       I    between atoms: C_11  and  N_12 
REMARK    6  A    between atoms: C_14  and  C_15 
REMARK       I    between atoms: C_15  and  N_16 
REMARK    7  A    between atoms: N_16  and  N_17 
REMARK       I    between atoms: N_17  and  C_18 
REMARK    8  A    between atoms: C_18  and  C_19 
ROOT
HETATM    1  C   UNL     1      -6.081   2.853 -32.393  1.00  0.00     0.128 C 
ENDROOT
BRANCH   1   2
HETATM    2  C   UNL     1      -5.432   1.496 -32.132  1.00  0.00    -0.032 A 
HETATM    3  C   UNL     1      -5.018   0.644 -33.171  1.00  0.00     0.046 A 
HETATM    4  C   UNL     1      -4.430  -0.594 -32.895  1.00  0.00     0.076 A 
HETATM    5  C   UNL     1      -4.201  -0.984 -31.576  1.00  0.00     0.037 A 
HETATM    6  C   UNL     1      -4.625  -0.164 -30.534  1.00  0.00     0.003 A 
HETATM    7  C   UNL     1      -5.247   1.056 -30.808  1.00  0.00     0.009 A 
BRANCH   4   8
HETATM    8  O   UNL     1      -4.033  -1.337 -33.984  1.00  0.00    -0.311 OA
BRANCH   8   9
HETATM    9  C   UNL     1      -4.715  -2.497 -34.272  1.00  0.00     0.076 A 
HETATM   10  C   UNL     1      -4.150  -3.770 -34.166  1.00  0.00     0.037 A 
HETATM   11  C   UNL     1      -4.924  -4.898 -34.446  1.00  0.00     0.003 A 
HETATM   12  C   UNL     1      -6.265  -4.755 -34.806  1.00  0.00     0.000 A 
HETATM   13  C   UNL     1      -6.837  -3.485 -34.879  1.00  0.00     0.003 A 
HETATM   14  C   UNL     1      -6.063  -2.356 -34.607  1.00  0.00     0.037 A 
ENDBRANCH   8   9
ENDBRANCH   4   8
ENDBRANCH   1   2
BRANCH   1  15
HETATM   15  N   UNL     1      -5.132   3.861 -32.851  1.00  0.00    -0.334 N 
HETATM   16  C   UNL     1      -5.499   4.799 -33.768  1.00  0.00     0.314 C 
HETATM   17  N   UNL     1      -4.527   5.722 -33.971  1.00  0.00    -0.352 N 
HETATM   18  O   UNL     1      -6.565   4.836 -34.364  1.00  0.00    -0.248 OA
HETATM   19  H   UNL     1      -3.572   5.406 -33.893  1.00  0.00     0.160 HD
HETATM   20  H   UNL     1      -4.715   6.353 -34.741  1.00  0.00     0.160 HD
HETATM   21  H   UNL     1      -4.516   4.227 -32.131  1.00  0.00     0.165 HD
ENDBRANCH   1  15
BRANCH   1  22
HETATM   22  C   UNL     1      -6.875   3.366 -31.180  1.00  0.00     0.134 C 
BRANCH  22  23
HETATM   23  C   UNL     1      -8.366   3.281 -31.430  1.00  0.00     0.238 C 
HETATM   24  N   UNL     1      -8.713   3.187 -32.763  1.00  0.00    -0.267 N 
HETATM   25  H   UNL     1      -8.054   2.824 -33.451  1.00  0.00     0.190 HD
HETATM   26  O   UNL     1      -9.191   3.311 -30.517  1.00  0.00    -0.272 OA
BRANCH  24  27
HETATM   27  N   UNL     1     -10.058   2.950 -33.060  1.00  0.00    -0.262 N 
HETATM   28  C   UNL     1     -10.479   1.650 -33.259  1.00  0.00     0.288 C 
HETATM   29  O   UNL     1      -9.710   0.697 -33.351  1.00  0.00    -0.264 OA
HETATM   30  H   UNL     1     -10.742   3.671 -32.817  1.00  0.00     0.190 HD
BRANCH  28  31
HETATM   31  C   UNL     1     -11.965   1.499 -33.351  1.00  0.00     0.125 A 
HETATM   32  N   UNL     1     -12.702   2.611 -33.075  1.00  0.00    -0.255 NA
HETATM   33  C   UNL     1     -14.041   2.483 -33.171  1.00  0.00     0.117 A 
HETATM   34  C   UNL     1     -14.681   1.305 -33.524  1.00  0.00     0.019 A 
HETATM   35  C   UNL     1     -13.903   0.183 -33.798  1.00  0.00     0.004 A 
HETATM   36  C   UNL     1     -12.517   0.275 -33.711  1.00  0.00     0.037 A 
ENDBRANCH  28  31
ENDBRANCH  24  27
ENDBRANCH  22  23
ENDBRANCH   1  22
TORSDOF 8
ENDMDL
