MODEL 1
REMARK VINA RESULT:      -7.5      0.000      0.000
REMARK  2 active torsions:
REMARK  status: ('A' for Active; 'I' for Inactive)
REMARK    1  A    between atoms: C_2  and  C_3 
REMARK    2  A    between atoms: C_4  and  N_5 
ROOT
HETATM    1  N   UNL     1      -5.588   1.095 -32.003  1.00  0.00    -0.321 N 
HETATM    2  C   UNL     1      -5.877   1.307 -30.629  1.00  0.00     0.141 C 
HETATM    3  N   UNL     1      -6.268   0.352 -29.836  1.00  0.00    -0.380 N 
HETATM    4  H   UNL     1      -6.449   0.553 -28.863  1.00  0.00     0.158 HD
HETATM    5  H   UNL     1      -6.360  -0.583 -30.205  1.00  0.00     0.158 HD
HETATM    6  S   UNL     1      -5.627   2.928 -30.126  1.00  0.00    -0.086 SA
HETATM    7  C   UNL     1      -5.400   3.491 -31.870  1.00  0.00     0.093 C 
HETATM    8  C   UNL     1      -4.901   2.242 -32.638  1.00  0.00     0.121 C 
HETATM    9  C   UNL     1      -4.401   4.613 -32.050  1.00  0.00     0.158 C 
HETATM   10  S   UNL     1      -2.827   3.838 -32.326  1.00  0.00     0.147 S 
HETATM   11  O   UNL     1      -2.023   3.971 -31.131  1.00  0.00    -0.228 OA
HETATM   12  O   UNL     1      -2.352   4.236 -33.634  1.00  0.00    -0.228 OA
HETATM   13  C   UNL     1      -3.388   2.160 -32.437  1.00  0.00     0.167 C 
ENDROOT
BRANCH   1  14
HETATM   14  C   UNL     1      -5.934  -0.000 -32.813  1.00  0.00     0.043 A 
HETATM   15  C   UNL     1      -7.258  -0.226 -33.268  1.00  0.00    -0.028 A 
HETATM   16  C   UNL     1      -7.524  -1.381 -34.039  1.00  0.00     0.010 A 
HETATM   17  C   UNL     1      -6.518  -2.283 -34.374  1.00  0.00     0.001 A 
HETATM   18  C   UNL     1      -5.222  -2.053 -33.946  1.00  0.00     0.002 A 
HETATM   19  C   UNL     1      -4.937  -0.927 -33.174  1.00  0.00     0.030 A 
BRANCH  15  20
HETATM   20  C   UNL     1      -8.404   0.760 -33.041  1.00  0.00     0.013 C 
HETATM   21  C   UNL     1      -9.722   0.044 -32.726  1.00  0.00     0.015 C 
HETATM   22  C   UNL     1      -8.581   1.703 -34.237  1.00  0.00     0.015 C 
ENDBRANCH  15  20
ENDBRANCH   1  14
TORSDOF 2
ENDMDL
MODEL 2
REMARK VINA RESULT:      -7.2      1.848      2.483
REMARK  2 active torsions:
REMARK  status: ('A' for Active; 'I' for Inactive)
REMARK    1  A    between atoms: C_2  and  C_3 
REMARK    2  A    between atoms: C_4  and  N_5 
ROOT
HETATM    1  N   UNL     1      -5.533   2.000 -31.916  1.00  0.00    -0.321 N 
HETATM    2  C   UNL     1      -6.405   2.415 -30.874  1.00  0.00     0.141 C 
HETATM    3  N   UNL     1      -6.499   1.783 -29.741  1.00  0.00    -0.380 N 
HETATM    4  H   UNL     1      -7.126   2.126 -29.028  1.00  0.00     0.158 HD
HETATM    5  H   UNL     1      -5.921   0.969 -29.585  1.00  0.00     0.158 HD
HETATM    6  S   UNL     1      -7.285   3.837 -31.254  1.00  0.00    -0.086 SA
HETATM    7  C   UNL     1      -6.727   3.777 -33.014  1.00  0.00     0.093 C 
HETATM    8  C   UNL     1      -5.382   3.009 -32.987  1.00  0.00     0.121 C 
HETATM    9  C   UNL     1      -6.511   5.129 -33.658  1.00  0.00     0.158 C 
HETATM   10  S   UNL     1      -4.812   5.554 -33.363  1.00  0.00     0.147 S 
HETATM   11  O   UNL     1      -4.754   6.577 -32.342  1.00  0.00    -0.228 OA
HETATM   12  O   UNL     1      -4.153   5.694 -34.644  1.00  0.00    -0.228 OA
HETATM   13  C   UNL     1      -4.288   4.020 -32.645  1.00  0.00     0.167 C 
ENDROOT
BRANCH   1  14
HETATM   14  C   UNL     1      -4.884   0.763 -32.075  1.00  0.00     0.043 A 
HETATM   15  C   UNL     1      -5.410  -0.277 -32.884  1.00  0.00    -0.028 A 
HETATM   16  C   UNL     1      -4.715  -1.506 -32.948  1.00  0.00     0.010 A 
HETATM   17  C   UNL     1      -3.525  -1.709 -32.255  1.00  0.00     0.001 A 
HETATM   18  C   UNL     1      -3.001  -0.688 -31.481  1.00  0.00     0.002 A 
HETATM   19  C   UNL     1      -3.675   0.530 -31.392  1.00  0.00     0.030 A 
BRANCH  15  20
HETATM   20  C   UNL     1      -6.651  -0.112 -33.761  1.00  0.00     0.013 C 
HETATM   21  C   UNL     1      -7.946  -0.205 -32.946  1.00  0.00     0.015 C 
HETATM   22  C   UNL     1      -6.669  -1.128 -34.910  1.00  0.00     0.015 C 
ENDBRANCH  15  20
ENDBRANCH   1  14
TORSDOF 2
ENDMDL
MODEL 3
REMARK VINA RESULT:      -7.1      2.484      3.590
REMARK  2 active torsions:
REMARK  status: ('A' for Active; 'I' for Inactive)
REMARK    1  A    between atoms: C_2  and  C_3 
REMARK    2  A    between atoms: C_4  and  N_5 
ROOT
HETATM    1  N   UNL     1      -7.719   1.412 -32.935  1.00  0.00    -0.321 N 
HETATM    2  C   UNL     1      -8.838   1.576 -32.077  1.00  0.00     0.141 C 
HETATM    3  N   UNL     1      -9.207   0.669 -31.219  1.00  0.00    -0.380 N 
HETATM    4  H   UNL     1     -10.003   0.840 -30.623  1.00  0.00     0.158 HD
HETATM    5  H   UNL     1      -8.670  -0.184 -31.148  1.00  0.00     0.158 HD
HETATM    6  S   UNL     1      -9.623   3.090 -32.267  1.00  0.00    -0.086 SA
HETATM    7  C   UNL     1      -8.630   3.475 -33.776  1.00  0.00     0.093 C 
HETATM    8  C   UNL     1      -7.320   2.663 -33.618  1.00  0.00     0.121 C 
HETATM    9  C   UNL     1      -8.286   4.937 -33.953  1.00  0.00     0.158 C 
HETATM   10  S   UNL     1      -6.730   5.185 -33.133  1.00  0.00     0.147 S 
HETATM   11  O   UNL     1      -6.960   5.894 -31.893  1.00  0.00    -0.228 OA
HETATM   12  O   UNL     1      -5.767   5.630 -34.117  1.00  0.00    -0.228 OA
HETATM   13  C   UNL     1      -6.374   3.491 -32.750  1.00  0.00     0.167 C 
ENDROOT
BRANCH   1  14
HETATM   14  C   UNL     1      -7.023   0.233 -33.254  1.00  0.00     0.043 A 
HETATM   15  C   UNL     1      -5.846  -0.167 -32.573  1.00  0.00    -0.028 A 
HETATM   16  C   UNL     1      -5.185  -1.344 -32.992  1.00  0.00     0.010 A 
HETATM   17  C   UNL     1      -5.672  -2.122 -34.039  1.00  0.00     0.001 A 
HETATM   18  C   UNL     1      -6.832  -1.742 -34.692  1.00  0.00     0.002 A 
HETATM   19  C   UNL     1      -7.496  -0.578 -34.303  1.00  0.00     0.030 A 
BRANCH  15  20
HETATM   20  C   UNL     1      -5.295   0.563 -31.348  1.00  0.00     0.013 C 
HETATM   21  C   UNL     1      -3.781   0.371 -31.200  1.00  0.00     0.015 C 
HETATM   22  C   UNL     1      -6.015   0.134 -30.065  1.00  0.00     0.015 C 
ENDBRANCH  15  20
ENDBRANCH   1  14
TORSDOF 2
ENDMDL
MODEL 4
REMARK VINA RESULT:      -7.1      1.377      1.462
REMARK  2 active torsions:
REMARK  status: ('A' for Active; 'I' for Inactive)
REMARK    1  A    between atoms: C_2  and  C_3 
REMARK    2  A    between atoms: C_4  and  N_5 
ROOT
HETATM    1  N   UNL     1      -6.231   1.938 -31.859  1.00  0.00    -0.321 N 
HETATM    2  C   UNL     1      -6.411   2.130 -30.463  1.00  0.00     0.141 C 
HETATM    3  N   UNL     1      -6.354   1.154 -29.605  1.00  0.00    -0.380 N 
HETATM    4  H   UNL     1      -6.477   1.345 -28.621  1.00  0.00     0.158 HD
HETATM    5  H   UNL     1      -6.163   0.219 -29.938  1.00  0.00     0.158 HD
HETATM    6  S   UNL     1      -6.675   3.769 -30.034  1.00  0.00    -0.086 SA
HETATM    7  C   UNL     1      -6.861   4.259 -31.805  1.00  0.00     0.093 C 
HETATM    8  C   UNL     1      -6.058   3.204 -32.605  1.00  0.00     0.121 C 
HETATM    9  C   UNL     1      -6.336   5.638 -32.141  1.00  0.00     0.158 C 
HETATM   10  S   UNL     1      -4.636   5.423 -32.607  1.00  0.00     0.147 S 
HETATM   11  O   UNL     1      -3.791   5.898 -31.533  1.00  0.00    -0.228 OA
HETATM   12  O   UNL     1      -4.483   5.870 -33.974  1.00  0.00    -0.228 OA
HETATM   13  C   UNL     1      -4.596   3.650 -32.606  1.00  0.00     0.167 C 
ENDROOT
BRANCH   1  14
HETATM   14  C   UNL     1      -6.272   0.738 -32.591  1.00  0.00     0.043 A 
HETATM   15  C   UNL     1      -7.484   0.179 -33.072  1.00  0.00    -0.028 A 
HETATM   16  C   UNL     1      -7.436  -1.056 -33.758  1.00  0.00     0.010 A 
HETATM   17  C   UNL     1      -6.233  -1.720 -33.986  1.00  0.00     0.001 A 
HETATM   18  C   UNL     1      -5.049  -1.164 -33.534  1.00  0.00     0.002 A 
HETATM   19  C   UNL     1      -5.071   0.048 -32.844  1.00  0.00     0.030 A 
BRANCH  15  20
HETATM   20  C   UNL     1      -8.836   0.882 -32.962  1.00  0.00     0.013 C 
HETATM   21  C   UNL     1      -9.981  -0.109 -32.725  1.00  0.00     0.015 C 
HETATM   22  C   UNL     1      -9.124   1.746 -34.196  1.00  0.00     0.015 C 
ENDBRANCH  15  20
ENDBRANCH   1  14
TORSDOF 2
ENDMDL
MODEL 5
REMARK VINA RESULT:      -7.0      2.326      3.016
REMARK  2 active torsions:
REMARK  status: ('A' for Active; 'I' for Inactive)
REMARK    1  A    between atoms: C_2  and  C_3 
REMARK    2  A    between atoms: C_4  and  N_5 
ROOT
HETATM    1  N   UNL     1      -6.417   1.491 -32.359  1.00  0.00    -0.321 N 
HETATM    2  C   UNL     1      -7.673   1.449 -31.697  1.00  0.00     0.141 C 
HETATM    3  N   UNL     1      -7.971   0.545 -30.809  1.00  0.00    -0.380 N 
HETATM    4  H   UNL     1      -8.875   0.567 -30.359  1.00  0.00     0.158 HD
HETATM    5  H   UNL     1      -7.280  -0.150 -30.568  1.00  0.00     0.158 HD
HETATM    6  S   UNL     1      -8.728   2.718 -32.164  1.00  0.00    -0.086 SA
HETATM    7  C   UNL     1      -7.606   3.216 -33.543  1.00  0.00     0.093 C 
HETATM    8  C   UNL     1      -6.195   2.748 -33.108  1.00  0.00     0.121 C 
HETATM    9  C   UNL     1      -7.567   4.702 -33.826  1.00  0.00     0.158 C 
HETATM   10  S   UNL     1      -6.264   5.366 -32.818  1.00  0.00     0.147 S 
HETATM   11  O   UNL     1      -6.850   6.089 -31.711  1.00  0.00    -0.228 OA
HETATM   12  O   UNL     1      -5.272   5.952 -33.693  1.00  0.00    -0.228 OA
HETATM   13  C   UNL     1      -5.614   3.835 -32.205  1.00  0.00     0.167 C 
ENDROOT
BRANCH   1  14
HETATM   14  C   UNL     1      -5.436   0.488 -32.442  1.00  0.00     0.043 A 
HETATM   15  C   UNL     1      -5.631  -0.712 -33.171  1.00  0.00    -0.028 A 
HETATM   16  C   UNL     1      -4.607  -1.688 -33.160  1.00  0.00     0.010 A 
HETATM   17  C   UNL     1      -3.415  -1.488 -32.470  1.00  0.00     0.001 A 
HETATM   18  C   UNL     1      -3.216  -0.307 -31.774  1.00  0.00     0.002 A 
HETATM   19  C   UNL     1      -4.216   0.665 -31.760  1.00  0.00     0.030 A 
BRANCH  15  20
HETATM   20  C   UNL     1      -6.859  -0.976 -34.041  1.00  0.00     0.013 C 
HETATM   21  C   UNL     1      -6.969  -2.451 -34.444  1.00  0.00     0.015 C 
HETATM   22  C   UNL     1      -6.871  -0.081 -35.285  1.00  0.00     0.015 C 
ENDBRANCH  15  20
ENDBRANCH   1  14
TORSDOF 2
ENDMDL
MODEL 6
REMARK VINA RESULT:      -6.9      1.829      2.729
REMARK  2 active torsions:
REMARK  status: ('A' for Active; 'I' for Inactive)
REMARK    1  A    between atoms: C_2  and  C_3 
REMARK    2  A    between atoms: C_4  and  N_5 
ROOT
HETATM    1  N   UNL     1      -6.195   2.679 -32.992  1.00  0.00    -0.321 N 
HETATM    2  C   UNL     1      -7.012   3.406 -32.085  1.00  0.00     0.141 C 
HETATM    3  N   UNL     1      -7.963   2.849 -31.393  1.00  0.00    -0.380 N 
HETATM    4  H   UNL     1      -8.507   3.408 -30.752  1.00  0.00     0.158 HD
HETATM    5  H   UNL     1      -8.124   1.857 -31.492  1.00  0.00     0.158 HD
HETATM    6  S   UNL     1      -6.594   5.066 -31.977  1.00  0.00    -0.086 SA
HETATM    7  C   UNL     1      -5.452   4.928 -33.421  1.00  0.00     0.093 C 
HETATM    8  C   UNL     1      -5.013   3.442 -33.451  1.00  0.00     0.121 C 
HETATM    9  C   UNL     1      -4.221   5.804 -33.344  1.00  0.00     0.158 C 
HETATM   10  S   UNL     1      -2.969   4.834 -32.540  1.00  0.00     0.147 S 
HETATM   11  O   UNL     1      -2.799   5.316 -31.187  1.00  0.00    -0.228 OA
HETATM   12  O   UNL     1      -1.861   4.678 -33.457  1.00  0.00    -0.228 OA
HETATM   13  C   UNL     1      -3.845   3.294 -32.477  1.00  0.00     0.167 C 
ENDROOT
BRANCH   1  14
HETATM   14  C   UNL     1      -6.412   1.402 -33.538  1.00  0.00     0.043 A 
HETATM   15  C   UNL     1      -5.922   0.218 -32.929  1.00  0.00    -0.028 A 
HETATM   16  C   UNL     1      -6.147  -1.020 -33.574  1.00  0.00     0.010 A 
HETATM   17  C   UNL     1      -6.849  -1.102 -34.773  1.00  0.00     0.001 A 
HETATM   18  C   UNL     1      -7.343   0.052 -35.358  1.00  0.00     0.002 A 
HETATM   19  C   UNL     1      -7.125   1.286 -34.746  1.00  0.00     0.030 A 
BRANCH  15  20
HETATM   20  C   UNL     1      -5.234   0.198 -31.565  1.00  0.00     0.013 C 
HETATM   21  C   UNL     1      -4.069  -0.798 -31.525  1.00  0.00     0.015 C 
HETATM   22  C   UNL     1      -6.229  -0.099 -30.436  1.00  0.00     0.015 C 
ENDBRANCH  15  20
ENDBRANCH   1  14
TORSDOF 2
ENDMDL
MODEL 7
REMARK VINA RESULT:      -6.8      4.672      6.121
REMARK  2 active torsions:
REMARK  status: ('A' for Active; 'I' for Inactive)
REMARK    1  A    between atoms: C_2  and  C_3 
REMARK    2  A    between atoms: C_4  and  N_5 
ROOT
HETATM    1  N   UNL     1      -8.760   2.203 -32.841  1.00  0.00    -0.321 N 
HETATM    2  C   UNL     1      -8.620   3.399 -33.594  1.00  0.00     0.141 C 
HETATM    3  N   UNL     1      -7.468   3.836 -34.012  1.00  0.00    -0.380 N 
HETATM    4  H   UNL     1      -7.424   4.687 -34.555  1.00  0.00     0.158 HD
HETATM    5  H   UNL     1      -6.637   3.301 -33.806  1.00  0.00     0.158 HD
HETATM    6  S   UNL     1     -10.115   4.176 -33.916  1.00  0.00    -0.086 SA
HETATM    7  C   UNL     1     -11.011   3.052 -32.757  1.00  0.00     0.093 C 
HETATM    8  C   UNL     1     -10.165   1.755 -32.715  1.00  0.00     0.121 C 
HETATM    9  C   UNL     1     -12.424   2.706 -33.173  1.00  0.00     0.158 C 
HETATM   10  S   UNL     1     -12.306   1.235 -34.161  1.00  0.00     0.147 S 
HETATM   11  O   UNL     1     -12.505   1.586 -35.550  1.00  0.00    -0.228 OA
HETATM   12  O   UNL     1     -13.061   0.190 -33.506  1.00  0.00    -0.228 OA
HETATM   13  C   UNL     1     -10.583   0.901 -33.911  1.00  0.00     0.167 C 
ENDROOT
BRANCH   1  14
HETATM   14  C   UNL     1      -7.768   1.470 -32.166  1.00  0.00     0.043 A 
HETATM   15  C   UNL     1      -7.214   0.274 -32.689  1.00  0.00    -0.028 A 
HETATM   16  C   UNL     1      -6.255  -0.424 -31.920  1.00  0.00     0.010 A 
HETATM   17  C   UNL     1      -5.833   0.045 -30.679  1.00  0.00     0.001 A 
HETATM   18  C   UNL     1      -6.359   1.223 -30.177  1.00  0.00     0.002 A 
HETATM   19  C   UNL     1      -7.316   1.923 -30.912  1.00  0.00     0.030 A 
BRANCH  15  20
HETATM   20  C   UNL     1      -7.537  -0.262 -34.084  1.00  0.00     0.013 C 
HETATM   21  C   UNL     1      -7.195  -1.750 -34.220  1.00  0.00     0.015 C 
HETATM   22  C   UNL     1      -6.831   0.550 -35.176  1.00  0.00     0.015 C 
ENDBRANCH  15  20
ENDBRANCH   1  14
TORSDOF 2
ENDMDL
MODEL 8
REMARK VINA RESULT:      -6.8      3.904      5.204
REMARK  2 active torsions:
REMARK  status: ('A' for Active; 'I' for Inactive)
REMARK    1  A    between atoms: C_2  and  C_3 
REMARK    2  A    between atoms: C_4  and  N_5 
ROOT
HETATM    1  N   UNL     1      -9.001   1.403 -32.855  1.00  0.00    -0.321 N 
HETATM    2  C   UNL     1     -10.242   0.760 -33.108  1.00  0.00     0.141 C 
HETATM    3  N   UNL     1     -10.558  -0.391 -32.590  1.00  0.00    -0.380 N 
HETATM    4  H   UNL     1     -11.459  -0.799 -32.793  1.00  0.00     0.158 HD
HETATM    5  H   UNL     1      -9.902  -0.845 -31.971  1.00  0.00     0.158 HD
HETATM    6  S   UNL     1     -11.278   1.667 -34.131  1.00  0.00    -0.086 SA
HETATM    7  C   UNL     1      -9.928   2.864 -34.527  1.00  0.00     0.093 C 
HETATM    8  C   UNL     1      -8.968   2.810 -33.312  1.00  0.00     0.121 C 
HETATM    9  C   UNL     1     -10.385   4.292 -34.731  1.00  0.00     0.158 C 
HETATM   10  S   UNL     1     -10.310   5.071 -33.137  1.00  0.00     0.147 S 
HETATM   11  O   UNL     1     -11.655   5.230 -32.629  1.00  0.00    -0.228 OA
HETATM   12  O   UNL     1      -9.372   6.170 -33.216  1.00  0.00    -0.228 OA
HETATM   13  C   UNL     1      -9.530   3.751 -32.247  1.00  0.00     0.167 C 
ENDROOT
BRANCH   1  14
HETATM   14  C   UNL     1      -7.825   0.856 -32.311  1.00  0.00     0.043 A 
HETATM   15  C   UNL     1      -7.080  -0.157 -32.967  1.00  0.00    -0.028 A 
HETATM   16  C   UNL     1      -5.936  -0.683 -32.324  1.00  0.00     0.010 A 
HETATM   17  C   UNL     1      -5.519  -0.218 -31.080  1.00  0.00     0.001 A 
HETATM   18  C   UNL     1      -6.236   0.784 -30.448  1.00  0.00     0.002 A 
HETATM   19  C   UNL     1      -7.375   1.311 -31.057  1.00  0.00     0.030 A 
BRANCH  15  20
HETATM   20  C   UNL     1      -7.399  -0.655 -34.376  1.00  0.00     0.013 C 
HETATM   21  C   UNL     1      -6.730  -2.002 -34.673  1.00  0.00     0.015 C 
HETATM   22  C   UNL     1      -7.013   0.379 -35.441  1.00  0.00     0.015 C 
ENDBRANCH  15  20
ENDBRANCH   1  14
TORSDOF 2
ENDMDL
MODEL 9
REMARK VINA RESULT:      -6.7      3.860      5.287
REMARK  2 active torsions:
REMARK  status: ('A' for Active; 'I' for Inactive)
REMARK    1  A    between atoms: C_2  and  C_3 
REMARK    2  A    between atoms: C_4  and  N_5 
ROOT
HETATM    1  N   UNL     1      -7.355   1.257 -33.585  1.00  0.00    -0.321 N 
HETATM    2  C   UNL     1      -6.929   2.603 -33.748  1.00  0.00     0.141 C 
HETATM    3  N   UNL     1      -5.803   2.921 -34.318  1.00  0.00    -0.380 N 
HETATM    4  H   UNL     1      -5.552   3.893 -34.420  1.00  0.00     0.158 HD
HETATM    5  H   UNL     1      -5.209   2.185 -34.672  1.00  0.00     0.158 HD
HETATM    6  S   UNL     1      -8.057   3.748 -33.149  1.00  0.00    -0.086 SA
HETATM    7  C   UNL     1      -9.062   2.420 -32.350  1.00  0.00     0.093 C 
HETATM    8  C   UNL     1      -8.771   1.140 -33.172  1.00  0.00     0.121 C 
HETATM    9  C   UNL     1     -10.554   2.672 -32.339  1.00  0.00     0.158 C 
HETATM   10  S   UNL     1     -11.190   1.951 -33.833  1.00  0.00     0.147 S 
HETATM   11  O   UNL     1     -11.512   3.010 -34.764  1.00  0.00    -0.228 OA
HETATM   12  O   UNL     1     -12.137   0.920 -33.467  1.00  0.00    -0.228 OA
HETATM   13  C   UNL     1      -9.704   1.156 -34.383  1.00  0.00     0.167 C 
ENDROOT
BRANCH   1  14
HETATM   14  C   UNL     1      -6.597   0.079 -33.693  1.00  0.00     0.043 A 
HETATM   15  C   UNL     1      -5.601  -0.278 -32.748  1.00  0.00    -0.028 A 
HETATM   16  C   UNL     1      -4.853  -1.459 -32.962  1.00  0.00     0.010 A 
HETATM   17  C   UNL     1      -5.086  -2.281 -34.061  1.00  0.00     0.001 A 
HETATM   18  C   UNL     1      -6.071  -1.943 -34.973  1.00  0.00     0.002 A 
HETATM   19  C   UNL     1      -6.814  -0.777 -34.790  1.00  0.00     0.030 A 
BRANCH  15  20
HETATM   20  C   UNL     1      -5.347   0.504 -31.460  1.00  0.00     0.013 C 
HETATM   21  C   UNL     1      -3.914   0.315 -30.948  1.00  0.00     0.015 C 
HETATM   22  C   UNL     1      -6.357   0.134 -30.368  1.00  0.00     0.015 C 
ENDBRANCH  15  20
ENDBRANCH   1  14
TORSDOF 2
ENDMDL
MODEL 10
REMARK VINA RESULT:      -6.6      3.501      4.820
REMARK  2 active torsions:
REMARK  status: ('A' for Active; 'I' for Inactive)
REMARK    1  A    between atoms: C_2  and  C_3 
REMARK    2  A    between atoms: C_4  and  N_5 
ROOT
HETATM    1  N   UNL     1      -8.844   0.875 -33.651  1.00  0.00    -0.321 N 
HETATM    2  C   UNL     1     -10.115   0.526 -33.121  1.00  0.00     0.141 C 
HETATM    3  N   UNL     1     -10.298  -0.507 -32.351  1.00  0.00    -0.380 N 
HETATM    4  H   UNL     1     -11.220  -0.705 -31.991  1.00  0.00     0.158 HD
HETATM    5  H   UNL     1      -9.504  -1.081 -32.106  1.00  0.00     0.158 HD
HETATM    6  S   UNL     1     -11.360   1.615 -33.575  1.00  0.00    -0.086 SA
HETATM    7  C   UNL     1     -10.253   2.460 -34.788  1.00  0.00     0.093 C 
HETATM    8  C   UNL     1      -8.816   2.223 -34.260  1.00  0.00     0.121 C 
HETATM    9  C   UNL     1     -10.486   3.948 -34.932  1.00  0.00     0.158 C 
HETATM   10  S   UNL     1      -9.424   4.735 -33.747  1.00  0.00     0.147 S 
HETATM   11  O   UNL     1     -10.226   5.212 -32.642  1.00  0.00    -0.228 OA
HETATM   12  O   UNL     1      -8.501   5.588 -34.464  1.00  0.00    -0.228 OA
HETATM   13  C   UNL     1      -8.534   3.298 -33.211  1.00  0.00     0.167 C 
ENDROOT
BRANCH   1  14
HETATM   14  C   UNL     1      -7.680   0.090 -33.726  1.00  0.00     0.043 A 
HETATM   15  C   UNL     1      -6.691   0.091 -32.710  1.00  0.00    -0.028 A 
HETATM   16  C   UNL     1      -5.529  -0.693 -32.892  1.00  0.00     0.010 A 
HETATM   17  C   UNL     1      -5.347  -1.476 -34.029  1.00  0.00     0.001 A 
HETATM   18  C   UNL     1      -6.321  -1.493 -35.012  1.00  0.00     0.002 A 
HETATM   19  C   UNL     1      -7.471  -0.718 -34.861  1.00  0.00     0.030 A 
BRANCH  15  20
HETATM   20  C   UNL     1      -6.850   0.834 -31.384  1.00  0.00     0.013 C 
HETATM   21  C   UNL     1      -5.915   2.045 -31.290  1.00  0.00     0.015 C 
HETATM   22  C   UNL     1      -6.637  -0.099 -30.186  1.00  0.00     0.015 C 
ENDBRANCH  15  20
ENDBRANCH   1  14
TORSDOF 2
ENDMDL
