MODEL 1
REMARK VINA RESULT:      -9.0      0.000      0.000
REMARK  7 active torsions:
REMARK  status: ('A' for Active; 'I' for Inactive)
REMARK    1  A    between atoms: C_7  and  C_8 
REMARK    2  A    between atoms: C_11  and  N_12 
REMARK       I    between atoms: N_12  and  C_13 
REMARK    3  A    between atoms: C_13  and  C_14 
REMARK    4  A    between atoms: C_14  and  N_15 
REMARK    5  A    between atoms: N_15  and  C_16 
REMARK    6  A    between atoms: C_17  and  O_18 
REMARK    7  A    between atoms: C_22  and  N_23 
REMARK       I    between atoms: N_23  and  C_24 
ROOT
HETATM    1  N   UNL     1      -6.291   5.562 -29.166  1.00  0.00    -0.325 N 
HETATM    2  C   UNL     1      -6.158   6.862 -29.550  1.00  0.00     0.244 C 
HETATM    3  O   UNL     1      -6.005   7.662 -28.612  1.00  0.00    -0.271 OA
HETATM    4  H   UNL     1      -6.175   5.511 -28.160  1.00  0.00     0.169 HD
ENDROOT
BRANCH   2   5
HETATM    5  C   UNL     1      -6.210   7.371 -30.997  1.00  0.00     0.170 C 
HETATM    6  C   UNL     1      -6.884   8.745 -31.077  1.00  0.00     0.042 C 
BRANCH   5   7
HETATM    7  N   UNL     1      -4.949   7.425 -31.745  1.00  0.00    -0.375 N 
HETATM    8  H   UNL     1      -4.461   8.315 -31.628  1.00  0.00     0.160 HD
BRANCH   7   9
HETATM    9  C   UNL     1      -4.011   6.424 -31.979  1.00  0.00     0.064 A 
HETATM   10  C   UNL     1      -4.286   5.501 -33.020  1.00  0.00     0.094 A 
HETATM   11  C   UNL     1      -3.474   4.385 -33.213  1.00  0.00     0.041 A 
HETATM   12  C   UNL     1      -2.388   4.151 -32.364  1.00  0.00     0.032 A 
HETATM   13  C   UNL     1      -2.103   5.032 -31.327  1.00  0.00     0.037 A 
HETATM   14  C   UNL     1      -2.896   6.181 -31.170  1.00  0.00     0.061 A 
BRANCH  10  15
HETATM   15  O   UNL     1      -5.388   5.810 -33.791  1.00  0.00    -0.354 OA
HETATM   16  C   UNL     1      -6.421   4.836 -33.858  1.00  0.00     0.210 C 
ENDBRANCH  10  15
BRANCH  13  17
HETATM   17  N   UNL     1      -1.043   4.871 -30.416  1.00  0.00    -0.327 N 
HETATM   18  C   UNL     1       0.102   5.576 -30.190  1.00  0.00     0.218 C 
HETATM   19  C   UNL     1       0.546   6.663 -31.127  1.00  0.00     0.117 C 
HETATM   20  O   UNL     1       0.800   5.267 -29.221  1.00  0.00    -0.274 OA
HETATM   21  H   UNL     1      -1.092   4.057 -29.812  1.00  0.00     0.169 HD
ENDBRANCH  13  17
ENDBRANCH   7   9
ENDBRANCH   5   7
ENDBRANCH   2   5
BRANCH   1  22
HETATM   22  C   UNL     1      -6.429   4.326 -29.810  1.00  0.00     0.034 A 
HETATM   23  C   UNL     1      -7.594   3.804 -30.360  1.00  0.00     0.030 A 
HETATM   24  C   UNL     1      -7.575   2.589 -31.071  1.00  0.00     0.016 A 
HETATM   25  C   UNL     1      -6.392   1.854 -31.224  1.00  0.00    -0.000 A 
HETATM   26  C   UNL     1      -5.239   2.350 -30.603  1.00  0.00     0.016 A 
HETATM   27  C   UNL     1      -5.258   3.563 -29.909  1.00  0.00     0.030 A 
BRANCH  25  28
HETATM   28  C   UNL     1      -6.288   0.603 -32.004  1.00  0.00     0.109 A 
HETATM   29  N   UNL     1      -5.149  -0.028 -32.211  1.00  0.00    -0.240 NA
HETATM   30  C   UNL     1      -5.335  -1.117 -33.041  1.00  0.00     0.075 A 
HETATM   31  C   UNL     1      -6.645  -1.322 -33.469  1.00  0.00     0.036 A 
HETATM   32  C   UNL     1      -4.331  -2.000 -33.479  1.00  0.00     0.033 A 
HETATM   33  C   UNL     1      -6.988  -2.382 -34.329  1.00  0.00     0.028 A 
HETATM   34  S   UNL     1      -7.650  -0.105 -32.785  1.00  0.00    -0.067 SA
HETATM   35  C   UNL     1      -5.975  -3.250 -34.764  1.00  0.00    -0.061 A 
HETATM   36  C   UNL     1      -6.293  -4.393 -35.685  1.00  0.00     0.048 C 
HETATM   37  C   UNL     1      -4.659  -3.058 -34.335  1.00  0.00     0.009 A 
ENDBRANCH  25  28
ENDBRANCH   1  22
TORSDOF 7
ENDMDL
MODEL 2
REMARK VINA RESULT:      -8.8      1.820      2.462
REMARK  7 active torsions:
REMARK  status: ('A' for Active; 'I' for Inactive)
REMARK    1  A    between atoms: C_7  and  C_8 
REMARK    2  A    between atoms: C_11  and  N_12 
REMARK       I    between atoms: N_12  and  C_13 
REMARK    3  A    between atoms: C_13  and  C_14 
REMARK    4  A    between atoms: C_14  and  N_15 
REMARK    5  A    between atoms: N_15  and  C_16 
REMARK    6  A    between atoms: C_17  and  O_18 
REMARK    7  A    between atoms: C_22  and  N_23 
REMARK       I    between atoms: N_23  and  C_24 
ROOT
HETATM    1  N   UNL     1      -4.892   5.535 -29.449  1.00  0.00    -0.325 N 
HETATM    2  C   UNL     1      -4.608   6.858 -29.607  1.00  0.00     0.244 C 
HETATM    3  O   UNL     1      -4.625   7.516 -28.553  1.00  0.00    -0.271 OA
HETATM    4  H   UNL     1      -5.006   5.346 -28.460  1.00  0.00     0.169 HD
ENDROOT
BRANCH   2   5
HETATM    5  C   UNL     1      -4.311   7.550 -30.944  1.00  0.00     0.170 C 
HETATM    6  C   UNL     1      -5.122   8.842 -31.091  1.00  0.00     0.042 C 
BRANCH   5   7
HETATM    7  N   UNL     1      -2.909   7.841 -31.263  1.00  0.00    -0.375 N 
HETATM    8  H   UNL     1      -2.710   8.843 -31.282  1.00  0.00     0.160 HD
BRANCH   7   9
HETATM    9  C   UNL     1      -1.754   7.159 -30.892  1.00  0.00     0.064 A 
HETATM   10  C   UNL     1      -1.200   6.253 -31.832  1.00  0.00     0.094 A 
HETATM   11  C   UNL     1      -0.137   5.423 -31.478  1.00  0.00     0.041 A 
HETATM   12  C   UNL     1       0.381   5.460 -30.180  1.00  0.00     0.032 A 
HETATM   13  C   UNL     1      -0.152   6.329 -29.234  1.00  0.00     0.037 A 
HETATM   14  C   UNL     1      -1.189   7.197 -29.613  1.00  0.00     0.061 A 
BRANCH  10  15
HETATM   15  O   UNL     1      -1.790   6.279 -33.079  1.00  0.00    -0.354 OA
HETATM   16  C   UNL     1      -1.708   5.092 -33.856  1.00  0.00     0.210 C 
ENDBRANCH  10  15
BRANCH  13  17
HETATM   17  N   UNL     1       0.293   6.424 -27.904  1.00  0.00    -0.327 N 
HETATM   18  C   UNL     1       0.958   7.396 -27.215  1.00  0.00     0.218 C 
HETATM   19  C   UNL     1       1.551   8.584 -27.918  1.00  0.00     0.117 C 
HETATM   20  O   UNL     1       1.109   7.254 -25.999  1.00  0.00    -0.274 OA
HETATM   21  H   UNL     1       0.134   5.611 -27.318  1.00  0.00     0.169 HD
ENDBRANCH  13  17
ENDBRANCH   7   9
ENDBRANCH   5   7
ENDBRANCH   2   5
BRANCH   1  22
HETATM   22  C   UNL     1      -4.950   4.407 -30.278  1.00  0.00     0.034 A 
HETATM   23  C   UNL     1      -3.968   3.979 -31.164  1.00  0.00     0.030 A 
HETATM   24  C   UNL     1      -4.110   2.767 -31.867  1.00  0.00     0.016 A 
HETATM   25  C   UNL     1      -5.252   1.970 -31.720  1.00  0.00    -0.000 A 
HETATM   26  C   UNL     1      -6.268   2.447 -30.883  1.00  0.00     0.016 A 
HETATM   27  C   UNL     1      -6.120   3.643 -30.176  1.00  0.00     0.030 A 
BRANCH  25  28
HETATM   28  C   UNL     1      -5.442   0.663 -32.382  1.00  0.00     0.109 A 
HETATM   29  N   UNL     1      -4.448  -0.151 -32.677  1.00  0.00    -0.240 NA
HETATM   30  C   UNL     1      -4.908  -1.258 -33.365  1.00  0.00     0.075 A 
HETATM   31  C   UNL     1      -6.282  -1.289 -33.593  1.00  0.00     0.036 A 
HETATM   32  C   UNL     1      -4.115  -2.317 -33.847  1.00  0.00     0.033 A 
HETATM   33  C   UNL     1      -6.895  -2.345 -34.292  1.00  0.00     0.028 A 
HETATM   34  S   UNL     1      -6.992   0.117 -32.902  1.00  0.00    -0.067 SA
HETATM   35  C   UNL     1      -6.091  -3.390 -34.774  1.00  0.00    -0.061 A 
HETATM   36  C   UNL     1      -6.701  -4.536 -35.528  1.00  0.00     0.048 C 
HETATM   37  C   UNL     1      -4.713  -3.372 -34.545  1.00  0.00     0.009 A 
ENDBRANCH  25  28
ENDBRANCH   1  22
TORSDOF 7
ENDMDL
MODEL 3
REMARK VINA RESULT:      -8.8      3.390      8.772
REMARK  7 active torsions:
REMARK  status: ('A' for Active; 'I' for Inactive)
REMARK    1  A    between atoms: C_7  and  C_8 
REMARK    2  A    between atoms: C_11  and  N_12 
REMARK       I    between atoms: N_12  and  C_13 
REMARK    3  A    between atoms: C_13  and  C_14 
REMARK    4  A    between atoms: C_14  and  N_15 
REMARK    5  A    between atoms: N_15  and  C_16 
REMARK    6  A    between atoms: C_17  and  O_18 
REMARK    7  A    between atoms: C_22  and  N_23 
REMARK       I    between atoms: N_23  and  C_24 
ROOT
HETATM    1  N   UNL     1      -7.456   2.887 -33.926  1.00  0.00    -0.325 N 
HETATM    2  C   UNL     1      -8.234   1.795 -33.685  1.00  0.00     0.244 C 
HETATM    3  O   UNL     1      -8.841   1.367 -34.681  1.00  0.00    -0.271 OA
HETATM    4  H   UNL     1      -7.492   3.095 -34.918  1.00  0.00     0.169 HD
ENDROOT
BRANCH   2   5
HETATM    5  C   UNL     1      -8.414   1.117 -32.320  1.00  0.00     0.170 C 
HETATM    6  C   UNL     1      -9.634   0.190 -32.320  1.00  0.00     0.042 C 
BRANCH   5   7
HETATM    7  N   UNL     1      -7.270   0.383 -31.768  1.00  0.00    -0.375 N 
HETATM    8  H   UNL     1      -7.489  -0.080 -30.884  1.00  0.00     0.160 HD
BRANCH   7   9
HETATM    9  C   UNL     1      -6.282  -0.346 -32.425  1.00  0.00     0.064 A 
HETATM   10  C   UNL     1      -4.958   0.158 -32.375  1.00  0.00     0.094 A 
HETATM   11  C   UNL     1      -3.944  -0.429 -33.132  1.00  0.00     0.041 A 
HETATM   12  C   UNL     1      -4.231  -1.511 -33.970  1.00  0.00     0.032 A 
HETATM   13  C   UNL     1      -5.524  -2.017 -34.049  1.00  0.00     0.037 A 
HETATM   14  C   UNL     1      -6.528  -1.451 -33.245  1.00  0.00     0.061 A 
BRANCH  10  15
HETATM   15  O   UNL     1      -4.780   1.237 -31.533  1.00  0.00    -0.354 OA
HETATM   16  C   UNL     1      -3.442   1.647 -31.284  1.00  0.00     0.210 C 
ENDBRANCH  10  15
BRANCH  13  17
HETATM   17  N   UNL     1      -5.908  -3.090 -34.873  1.00  0.00    -0.327 N 
HETATM   18  C   UNL     1      -5.606  -4.419 -34.866  1.00  0.00     0.218 C 
HETATM   19  C   UNL     1      -4.533  -4.971 -33.971  1.00  0.00     0.117 C 
HETATM   20  O   UNL     1      -6.201  -5.161 -35.653  1.00  0.00    -0.274 OA
HETATM   21  H   UNL     1      -6.504  -2.858 -35.661  1.00  0.00     0.169 HD
ENDBRANCH  13  17
ENDBRANCH   7   9
ENDBRANCH   5   7
ENDBRANCH   2   5
BRANCH   1  22
HETATM   22  C   UNL     1      -6.572   3.684 -33.186  1.00  0.00     0.034 A 
HETATM   23  C   UNL     1      -6.787   4.195 -31.912  1.00  0.00     0.030 A 
HETATM   24  C   UNL     1      -5.773   4.900 -31.237  1.00  0.00     0.016 A 
HETATM   25  C   UNL     1      -4.527   5.134 -31.835  1.00  0.00    -0.000 A 
HETATM   26  C   UNL     1      -4.347   4.680 -33.147  1.00  0.00     0.016 A 
HETATM   27  C   UNL     1      -5.351   3.969 -33.810  1.00  0.00     0.030 A 
BRANCH  25  28
HETATM   28  C   UNL     1      -3.401   5.815 -31.166  1.00  0.00     0.109 A 
HETATM   29  N   UNL     1      -2.147   5.692 -31.553  1.00  0.00    -0.240 NA
HETATM   30  C   UNL     1      -1.300   6.369 -30.696  1.00  0.00     0.075 A 
HETATM   31  C   UNL     1      -1.924   7.027 -29.638  1.00  0.00     0.036 A 
HETATM   32  C   UNL     1       0.102   6.434 -30.804  1.00  0.00     0.033 A 
HETATM   33  C   UNL     1      -1.192   7.747 -28.676  1.00  0.00     0.028 A 
HETATM   34  S   UNL     1      -3.622   6.780 -29.755  1.00  0.00    -0.067 SA
HETATM   35  C   UNL     1       0.207   7.796 -28.792  1.00  0.00    -0.061 A 
HETATM   36  C   UNL     1       1.029   8.550 -27.787  1.00  0.00     0.048 C 
HETATM   37  C   UNL     1       0.842   7.146 -29.853  1.00  0.00     0.009 A 
ENDBRANCH  25  28
ENDBRANCH   1  22
TORSDOF 7
ENDMDL
MODEL 4
REMARK VINA RESULT:      -8.7      1.786      3.285
REMARK  7 active torsions:
REMARK  status: ('A' for Active; 'I' for Inactive)
REMARK    1  A    between atoms: C_7  and  C_8 
REMARK    2  A    between atoms: C_11  and  N_12 
REMARK       I    between atoms: N_12  and  C_13 
REMARK    3  A    between atoms: C_13  and  C_14 
REMARK    4  A    between atoms: C_14  and  N_15 
REMARK    5  A    between atoms: N_15  and  C_16 
REMARK    6  A    between atoms: C_17  and  O_18 
REMARK    7  A    between atoms: C_22  and  N_23 
REMARK       I    between atoms: N_23  and  C_24 
ROOT
HETATM    1  N   UNL     1      -6.439   5.338 -28.884  1.00  0.00    -0.325 N 
HETATM    2  C   UNL     1      -5.816   6.523 -28.634  1.00  0.00     0.244 C 
HETATM    3  O   UNL     1      -6.326   7.189 -27.718  1.00  0.00    -0.271 OA
HETATM    4  H   UNL     1      -7.183   5.217 -28.205  1.00  0.00     0.169 HD
ENDROOT
BRANCH   2   5
HETATM    5  C   UNL     1      -4.601   7.067 -29.399  1.00  0.00     0.170 C 
HETATM    6  C   UNL     1      -4.690   8.587 -29.571  1.00  0.00     0.042 C 
BRANCH   5   7
HETATM    7  N   UNL     1      -3.268   6.732 -28.884  1.00  0.00    -0.375 N 
HETATM    8  H   UNL     1      -3.306   6.168 -28.033  1.00  0.00     0.160 HD
BRANCH   7   9
HETATM    9  C   UNL     1      -2.100   6.427 -29.575  1.00  0.00     0.064 A 
HETATM   10  C   UNL     1      -0.870   6.801 -28.977  1.00  0.00     0.094 A 
HETATM   11  C   UNL     1       0.330   6.667 -29.674  1.00  0.00     0.041 A 
HETATM   12  C   UNL     1       0.330   6.182 -30.986  1.00  0.00     0.032 A 
HETATM   13  C   UNL     1      -0.863   5.821 -31.602  1.00  0.00     0.037 A 
HETATM   14  C   UNL     1      -2.062   5.912 -30.875  1.00  0.00     0.061 A 
BRANCH  10  15
HETATM   15  O   UNL     1      -0.976   7.283 -27.688  1.00  0.00    -0.354 OA
HETATM   16  C   UNL     1      -0.293   6.563 -26.672  1.00  0.00     0.210 C 
ENDBRANCH  10  15
BRANCH  13  17
HETATM   17  N   UNL     1      -0.962   5.340 -32.920  1.00  0.00    -0.327 N 
HETATM   18  C   UNL     1      -1.377   5.909 -34.087  1.00  0.00     0.218 C 
HETATM   19  C   UNL     1      -2.050   7.252 -34.105  1.00  0.00     0.117 C 
HETATM   20  O   UNL     1      -1.234   5.273 -35.135  1.00  0.00    -0.274 OA
HETATM   21  H   UNL     1      -0.716   4.365 -33.061  1.00  0.00     0.169 HD
ENDBRANCH  13  17
ENDBRANCH   7   9
ENDBRANCH   5   7
ENDBRANCH   2   5
BRANCH   1  22
HETATM   22  C   UNL     1      -6.236   4.249 -29.741  1.00  0.00     0.034 A 
HETATM   23  C   UNL     1      -5.023   3.830 -30.274  1.00  0.00     0.030 A 
HETATM   24  C   UNL     1      -4.941   2.654 -31.045  1.00  0.00     0.016 A 
HETATM   25  C   UNL     1      -6.078   1.885 -31.322  1.00  0.00    -0.000 A 
HETATM   26  C   UNL     1      -7.307   2.356 -30.843  1.00  0.00     0.016 A 
HETATM   27  C   UNL     1      -7.384   3.516 -30.067  1.00  0.00     0.030 A 
BRANCH  25  28
HETATM   28  C   UNL     1      -6.057   0.614 -32.074  1.00  0.00     0.109 A 
HETATM   29  N   UNL     1      -4.954  -0.063 -32.321  1.00  0.00    -0.240 NA
HETATM   30  C   UNL     1      -5.220  -1.164 -33.113  1.00  0.00     0.075 A 
HETATM   31  C   UNL     1      -6.556  -1.330 -33.471  1.00  0.00     0.036 A 
HETATM   32  C   UNL     1      -4.271  -2.094 -33.578  1.00  0.00     0.033 A 
HETATM   33  C   UNL     1      -6.980  -2.397 -34.286  1.00  0.00     0.028 A 
HETATM   34  S   UNL     1      -7.482  -0.062 -32.770  1.00  0.00    -0.067 SA
HETATM   35  C   UNL     1      -6.021  -3.312 -34.749  1.00  0.00    -0.061 A 
HETATM   36  C   UNL     1      -6.426  -4.463 -35.624  1.00  0.00     0.048 C 
HETATM   37  C   UNL     1      -4.680  -3.158 -34.390  1.00  0.00     0.009 A 
ENDBRANCH  25  28
ENDBRANCH   1  22
TORSDOF 7
ENDMDL
MODEL 5
REMARK VINA RESULT:      -8.6      3.360      5.847
REMARK  7 active torsions:
REMARK  status: ('A' for Active; 'I' for Inactive)
REMARK    1  A    between atoms: C_7  and  C_8 
REMARK    2  A    between atoms: C_11  and  N_12 
REMARK       I    between atoms: N_12  and  C_13 
REMARK    3  A    between atoms: C_13  and  C_14 
REMARK    4  A    between atoms: C_14  and  N_15 
REMARK    5  A    between atoms: N_15  and  C_16 
REMARK    6  A    between atoms: C_17  and  O_18 
REMARK    7  A    between atoms: C_22  and  N_23 
REMARK       I    between atoms: N_23  and  C_24 
ROOT
HETATM    1  N   UNL     1      -3.778   6.262 -33.345  1.00  0.00    -0.325 N 
HETATM    2  C   UNL     1      -2.641   6.119 -32.609  1.00  0.00     0.244 C 
HETATM    3  O   UNL     1      -1.872   7.093 -32.658  1.00  0.00    -0.271 OA
HETATM    4  H   UNL     1      -3.785   7.192 -33.749  1.00  0.00     0.169 HD
ENDROOT
BRANCH   2   5
HETATM    5  C   UNL     1      -2.265   4.878 -31.787  1.00  0.00     0.170 C 
HETATM    6  C   UNL     1      -0.943   5.088 -31.042  1.00  0.00     0.042 C 
BRANCH   5   7
HETATM    7  N   UNL     1      -3.259   4.364 -30.837  1.00  0.00    -0.375 N 
HETATM    8  H   UNL     1      -3.671   5.102 -30.262  1.00  0.00     0.160 HD
BRANCH   7   9
HETATM    9  C   UNL     1      -4.190   3.341 -30.993  1.00  0.00     0.064 A 
HETATM   10  C   UNL     1      -5.411   3.457 -30.282  1.00  0.00     0.094 A 
HETATM   11  C   UNL     1      -6.326   2.404 -30.265  1.00  0.00     0.041 A 
HETATM   12  C   UNL     1      -6.037   1.211 -30.934  1.00  0.00     0.032 A 
HETATM   13  C   UNL     1      -4.840   1.066 -31.628  1.00  0.00     0.037 A 
HETATM   14  C   UNL     1      -3.947   2.149 -31.681  1.00  0.00     0.061 A 
BRANCH  10  15
HETATM   15  O   UNL     1      -5.597   4.664 -29.640  1.00  0.00    -0.354 OA
HETATM   16  C   UNL     1      -6.919   4.978 -29.226  1.00  0.00     0.210 C 
ENDBRANCH  10  15
BRANCH  13  17
HETATM   17  N   UNL     1      -4.458  -0.099 -32.316  1.00  0.00    -0.327 N 
HETATM   18  C   UNL     1      -4.854  -0.652 -33.498  1.00  0.00     0.218 C 
HETATM   19  C   UNL     1      -6.044  -0.123 -34.246  1.00  0.00     0.117 C 
HETATM   20  O   UNL     1      -4.242  -1.636 -33.921  1.00  0.00    -0.274 OA
HETATM   21  H   UNL     1      -3.775  -0.690 -31.852  1.00  0.00     0.169 HD
ENDBRANCH  13  17
ENDBRANCH   7   9
ENDBRANCH   5   7
ENDBRANCH   2   5
BRANCH   1  22
HETATM   22  C   UNL     1      -4.937   5.508 -33.574  1.00  0.00     0.034 A 
HETATM   23  C   UNL     1      -5.029   4.335 -34.314  1.00  0.00     0.030 A 
HETATM   24  C   UNL     1      -6.239   3.619 -34.383  1.00  0.00     0.016 A 
HETATM   25  C   UNL     1      -7.394   4.077 -33.735  1.00  0.00    -0.000 A 
HETATM   26  C   UNL     1      -7.311   5.298 -33.055  1.00  0.00     0.016 A 
HETATM   27  C   UNL     1      -6.104   6.000 -32.977  1.00  0.00     0.030 A 
BRANCH  25  28
HETATM   28  C   UNL     1      -8.679   3.350 -33.718  1.00  0.00     0.109 A 
HETATM   29  N   UNL     1      -8.802   2.104 -33.304  1.00  0.00    -0.240 NA
HETATM   30  C   UNL     1     -10.097   1.654 -33.479  1.00  0.00     0.075 A 
HETATM   31  C   UNL     1     -10.979   2.579 -34.033  1.00  0.00     0.036 A 
HETATM   32  C   UNL     1     -10.572   0.368 -33.159  1.00  0.00     0.033 A 
HETATM   33  C   UNL     1     -12.327   2.262 -34.283  1.00  0.00     0.028 A 
HETATM   34  S   UNL     1     -10.135   4.049 -34.320  1.00  0.00    -0.067 SA
HETATM   35  C   UNL     1     -12.785   0.973 -33.966  1.00  0.00    -0.061 A 
HETATM   36  C   UNL     1     -14.215   0.588 -34.219  1.00  0.00     0.048 C 
HETATM   37  C   UNL     1     -11.910   0.040 -33.404  1.00  0.00     0.009 A 
ENDBRANCH  25  28
ENDBRANCH   1  22
TORSDOF 7
ENDMDL
MODEL 6
REMARK VINA RESULT:      -8.5      1.876      2.778
REMARK  7 active torsions:
REMARK  status: ('A' for Active; 'I' for Inactive)
REMARK    1  A    between atoms: C_7  and  C_8 
REMARK    2  A    between atoms: C_11  and  N_12 
REMARK       I    between atoms: N_12  and  C_13 
REMARK    3  A    between atoms: C_13  and  C_14 
REMARK    4  A    between atoms: C_14  and  N_15 
REMARK    5  A    between atoms: N_15  and  C_16 
REMARK    6  A    between atoms: C_17  and  O_18 
REMARK    7  A    between atoms: C_22  and  N_23 
REMARK       I    between atoms: N_23  and  C_24 
ROOT
HETATM    1  N   UNL     1      -6.521   6.941 -32.161  1.00  0.00    -0.325 N 
HETATM    2  C   UNL     1      -5.776   7.698 -31.308  1.00  0.00     0.244 C 
HETATM    3  O   UNL     1      -6.233   8.833 -31.094  1.00  0.00    -0.271 OA
HETATM    4  H   UNL     1      -7.356   7.462 -32.407  1.00  0.00     0.169 HD
ENDROOT
BRANCH   2   5
HETATM    5  C   UNL     1      -4.459   7.260 -30.652  1.00  0.00     0.170 C 
HETATM    6  C   UNL     1      -4.705   6.211 -29.563  1.00  0.00     0.042 C 
BRANCH   5   7
HETATM    7  N   UNL     1      -3.388   6.777 -31.532  1.00  0.00    -0.375 N 
HETATM    8  H   UNL     1      -3.452   7.162 -32.477  1.00  0.00     0.160 HD
BRANCH   7   9
HETATM    9  C   UNL     1      -2.053   6.512 -31.243  1.00  0.00     0.064 A 
HETATM   10  C   UNL     1      -1.545   5.240 -31.612  1.00  0.00     0.094 A 
HETATM   11  C   UNL     1      -0.266   4.845 -31.220  1.00  0.00     0.041 A 
HETATM   12  C   UNL     1       0.523   5.694 -30.438  1.00  0.00     0.032 A 
HETATM   13  C   UNL     1       0.044   6.941 -30.051  1.00  0.00     0.037 A 
HETATM   14  C   UNL     1      -1.225   7.351 -30.492  1.00  0.00     0.061 A 
BRANCH  10  15
HETATM   15  O   UNL     1      -2.405   4.470 -32.367  1.00  0.00    -0.354 OA
HETATM   16  C   UNL     1      -3.021   3.366 -31.718  1.00  0.00     0.210 C 
ENDBRANCH  10  15
BRANCH  13  17
HETATM   17  N   UNL     1       0.759   7.853 -29.255  1.00  0.00    -0.327 N 
HETATM   18  C   UNL     1       1.071   7.880 -27.928  1.00  0.00     0.218 C 
HETATM   19  C   UNL     1       0.459   6.905 -26.962  1.00  0.00     0.117 C 
HETATM   20  O   UNL     1       1.832   8.762 -27.521  1.00  0.00    -0.274 OA
HETATM   21  H   UNL     1       1.096   8.688 -29.722  1.00  0.00     0.169 HD
ENDBRANCH  13  17
ENDBRANCH   7   9
ENDBRANCH   5   7
ENDBRANCH   2   5
BRANCH   1  22
HETATM   22  C   UNL     1      -6.469   5.635 -32.664  1.00  0.00     0.034 A 
HETATM   23  C   UNL     1      -5.863   5.227 -33.846  1.00  0.00     0.030 A 
HETATM   24  C   UNL     1      -5.794   3.863 -34.188  1.00  0.00     0.016 A 
HETATM   25  C   UNL     1      -6.355   2.877 -33.367  1.00  0.00    -0.000 A 
HETATM   26  C   UNL     1      -7.029   3.304 -32.216  1.00  0.00     0.016 A 
HETATM   27  C   UNL     1      -7.084   4.658 -31.871  1.00  0.00     0.030 A 
BRANCH  25  28
HETATM   28  C   UNL     1      -6.271   1.427 -33.634  1.00  0.00     0.109 A 
HETATM   29  N   UNL     1      -5.213   0.697 -33.342  1.00  0.00    -0.240 NA
HETATM   30  C   UNL     1      -5.379  -0.604 -33.779  1.00  0.00     0.075 A 
HETATM   31  C   UNL     1      -6.591  -0.869 -34.411  1.00  0.00     0.036 A 
HETATM   32  C   UNL     1      -4.440  -1.644 -33.646  1.00  0.00     0.033 A 
HETATM   33  C   UNL     1      -6.899  -2.144 -34.922  1.00  0.00     0.028 A 
HETATM   34  S   UNL     1      -7.534   0.569 -34.433  1.00  0.00    -0.067 SA
HETATM   35  C   UNL     1      -5.949  -3.170 -34.789  1.00  0.00    -0.061 A 
HETATM   36  C   UNL     1      -6.233  -4.545 -35.321  1.00  0.00     0.048 C 
HETATM   37  C   UNL     1      -4.733  -2.916 -34.150  1.00  0.00     0.009 A 
ENDBRANCH  25  28
ENDBRANCH   1  22
TORSDOF 7
ENDMDL
MODEL 7
REMARK VINA RESULT:      -8.4      3.111      7.761
REMARK  7 active torsions:
REMARK  status: ('A' for Active; 'I' for Inactive)
REMARK    1  A    between atoms: C_7  and  C_8 
REMARK    2  A    between atoms: C_11  and  N_12 
REMARK       I    between atoms: N_12  and  C_13 
REMARK    3  A    between atoms: C_13  and  C_14 
REMARK    4  A    between atoms: C_14  and  N_15 
REMARK    5  A    between atoms: N_15  and  C_16 
REMARK    6  A    between atoms: C_17  and  O_18 
REMARK    7  A    between atoms: C_22  and  N_23 
REMARK       I    between atoms: N_23  and  C_24 
ROOT
HETATM    1  N   UNL     1      -9.172   3.247 -33.759  1.00  0.00    -0.325 N 
HETATM    2  C   UNL     1      -9.575   1.955 -33.912  1.00  0.00     0.244 C 
HETATM    3  O   UNL     1     -10.585   1.811 -34.619  1.00  0.00    -0.271 OA
HETATM    4  H   UNL     1      -9.772   3.839 -34.323  1.00  0.00     0.169 HD
ENDROOT
BRANCH   2   5
HETATM    5  C   UNL     1      -8.901   0.733 -33.271  1.00  0.00     0.170 C 
HETATM    6  C   UNL     1      -9.941  -0.226 -32.681  1.00  0.00     0.042 C 
BRANCH   5   7
HETATM    7  N   UNL     1      -7.968  -0.041 -34.098  1.00  0.00    -0.375 N 
HETATM    8  H   UNL     1      -8.131   0.088 -35.098  1.00  0.00     0.160 HD
BRANCH   7   9
HETATM    9  C   UNL     1      -6.620  -0.320 -33.892  1.00  0.00     0.064 A 
HETATM   10  C   UNL     1      -6.205  -1.668 -34.030  1.00  0.00     0.094 A 
HETATM   11  C   UNL     1      -4.906  -2.050 -33.691  1.00  0.00     0.041 A 
HETATM   12  C   UNL     1      -4.005  -1.106 -33.189  1.00  0.00     0.032 A 
HETATM   13  C   UNL     1      -4.391   0.220 -33.031  1.00  0.00     0.037 A 
HETATM   14  C   UNL     1      -5.684   0.606 -33.421  1.00  0.00     0.061 A 
BRANCH  10  15
HETATM   15  O   UNL     1      -7.170  -2.526 -34.516  1.00  0.00    -0.354 OA
HETATM   16  C   UNL     1      -6.750  -3.838 -34.866  1.00  0.00     0.210 C 
ENDBRANCH  10  15
BRANCH  13  17
HETATM   17  N   UNL     1      -3.560   1.234 -32.521  1.00  0.00    -0.327 N 
HETATM   18  C   UNL     1      -3.595   1.974 -31.377  1.00  0.00     0.218 C 
HETATM   19  C   UNL     1      -4.786   1.939 -30.461  1.00  0.00     0.117 C 
HETATM   20  O   UNL     1      -2.644   2.720 -31.130  1.00  0.00    -0.274 OA
HETATM   21  H   UNL     1      -2.787   1.520 -33.113  1.00  0.00     0.169 HD
ENDBRANCH  13  17
ENDBRANCH   7   9
ENDBRANCH   5   7
ENDBRANCH   2   5
BRANCH   1  22
HETATM   22  C   UNL     1      -8.111   3.909 -33.128  1.00  0.00     0.034 A 
HETATM   23  C   UNL     1      -7.999   4.191 -31.773  1.00  0.00     0.030 A 
HETATM   24  C   UNL     1      -6.829   4.775 -31.251  1.00  0.00     0.016 A 
HETATM   25  C   UNL     1      -5.753   5.115 -32.081  1.00  0.00    -0.000 A 
HETATM   26  C   UNL     1      -5.905   4.896 -33.456  1.00  0.00     0.016 A 
HETATM   27  C   UNL     1      -7.062   4.304 -33.969  1.00  0.00     0.030 A 
BRANCH  25  28
HETATM   28  C   UNL     1      -4.476   5.677 -31.596  1.00  0.00     0.109 A 
HETATM   29  N   UNL     1      -3.383   5.731 -32.331  1.00  0.00    -0.240 NA
HETATM   30  C   UNL     1      -2.322   6.225 -31.597  1.00  0.00     0.075 A 
HETATM   31  C   UNL     1      -2.615   6.559 -30.277  1.00  0.00     0.036 A 
HETATM   32  C   UNL     1      -1.006   6.401 -32.066  1.00  0.00     0.033 A 
HETATM   33  C   UNL     1      -1.634   7.062 -29.402  1.00  0.00     0.028 A 
HETATM   34  S   UNL     1      -4.280   6.245 -29.981  1.00  0.00    -0.067 SA
HETATM   35  C   UNL     1      -0.324   7.224 -29.881  1.00  0.00    -0.061 A 
HETATM   36  C   UNL     1       0.756   7.753 -28.982  1.00  0.00     0.048 C 
HETATM   37  C   UNL     1      -0.021   6.899 -31.205  1.00  0.00     0.009 A 
ENDBRANCH  25  28
ENDBRANCH   1  22
TORSDOF 7
ENDMDL
MODEL 8
REMARK VINA RESULT:      -8.2      3.705      7.606
REMARK  7 active torsions:
REMARK  status: ('A' for Active; 'I' for Inactive)
REMARK    1  A    between atoms: C_7  and  C_8 
REMARK    2  A    between atoms: C_11  and  N_12 
REMARK       I    between atoms: N_12  and  C_13 
REMARK    3  A    between atoms: C_13  and  C_14 
REMARK    4  A    between atoms: C_14  and  N_15 
REMARK    5  A    between atoms: N_15  and  C_16 
REMARK    6  A    between atoms: C_17  and  O_18 
REMARK    7  A    between atoms: C_22  and  N_23 
REMARK       I    between atoms: N_23  and  C_24 
ROOT
HETATM    1  N   UNL     1      -8.380   5.262 -31.557  1.00  0.00    -0.325 N 
HETATM    2  C   UNL     1      -8.765   4.241 -32.371  1.00  0.00     0.244 C 
HETATM    3  O   UNL     1      -9.898   4.376 -32.864  1.00  0.00    -0.271 OA
HETATM    4  H   UNL     1      -9.102   5.974 -31.569  1.00  0.00     0.169 HD
ENDROOT
BRANCH   2   5
HETATM    5  C   UNL     1      -7.935   2.987 -32.677  1.00  0.00     0.170 C 
HETATM    6  C   UNL     1      -8.789   1.908 -33.353  1.00  0.00     0.042 C 
BRANCH   5   7
HETATM    7  N   UNL     1      -6.702   3.159 -33.454  1.00  0.00    -0.375 N 
HETATM    8  H   UNL     1      -6.856   3.664 -34.329  1.00  0.00     0.160 HD
BRANCH   7   9
HETATM    9  C   UNL     1      -5.403   3.404 -33.016  1.00  0.00     0.064 A 
HETATM   10  C   UNL     1      -4.835   2.476 -32.107  1.00  0.00     0.094 A 
HETATM   11  C   UNL     1      -3.602   2.731 -31.507  1.00  0.00     0.041 A 
HETATM   12  C   UNL     1      -2.922   3.922 -31.780  1.00  0.00     0.032 A 
HETATM   13  C   UNL     1      -3.463   4.856 -32.657  1.00  0.00     0.037 A 
HETATM   14  C   UNL     1      -4.680   4.568 -33.295  1.00  0.00     0.061 A 
BRANCH  10  15
HETATM   15  O   UNL     1      -5.590   1.341 -31.889  1.00  0.00    -0.354 OA
HETATM   16  C   UNL     1      -5.727   0.906 -30.544  1.00  0.00     0.210 C 
ENDBRANCH  10  15
BRANCH  13  17
HETATM   17  N   UNL     1      -2.859   6.085 -32.980  1.00  0.00    -0.327 N 
HETATM   18  C   UNL     1      -1.984   6.460 -33.956  1.00  0.00     0.218 C 
HETATM   19  C   UNL     1      -1.306   5.444 -34.830  1.00  0.00     0.117 C 
HETATM   20  O   UNL     1      -1.717   7.659 -34.075  1.00  0.00    -0.274 OA
HETATM   21  H   UNL     1      -3.068   6.862 -32.363  1.00  0.00     0.169 HD
ENDBRANCH  13  17
ENDBRANCH   7   9
ENDBRANCH   5   7
ENDBRANCH   2   5
BRANCH   1  22
HETATM   22  C   UNL     1      -7.229   5.599 -30.832  1.00  0.00     0.034 A 
HETATM   23  C   UNL     1      -6.637   4.849 -29.823  1.00  0.00     0.030 A 
HETATM   24  C   UNL     1      -5.422   5.256 -29.241  1.00  0.00     0.016 A 
HETATM   25  C   UNL     1      -4.784   6.438 -29.637  1.00  0.00    -0.000 A 
HETATM   26  C   UNL     1      -5.426   7.225 -30.601  1.00  0.00     0.016 A 
HETATM   27  C   UNL     1      -6.626   6.813 -31.187  1.00  0.00     0.030 A 
BRANCH  25  28
HETATM   28  C   UNL     1      -3.482   6.896 -29.111  1.00  0.00     0.109 A 
HETATM   29  N   UNL     1      -2.382   6.936 -29.837  1.00  0.00    -0.240 NA
HETATM   30  C   UNL     1      -1.300   7.322 -29.067  1.00  0.00     0.075 A 
HETATM   31  C   UNL     1      -1.586   7.586 -27.729  1.00  0.00     0.036 A 
HETATM   32  C   UNL     1       0.027   7.454 -29.517  1.00  0.00     0.033 A 
HETATM   33  C   UNL     1      -0.586   7.975 -26.819  1.00  0.00     0.028 A 
HETATM   34  S   UNL     1      -3.268   7.346 -27.462  1.00  0.00    -0.067 SA
HETATM   35  C   UNL     1       0.735   8.095 -27.281  1.00  0.00    -0.061 A 
HETATM   36  C   UNL     1       1.836   8.504 -26.345  1.00  0.00     0.048 C 
HETATM   37  C   UNL     1       1.031   7.839 -28.622  1.00  0.00     0.009 A 
ENDBRANCH  25  28
ENDBRANCH   1  22
TORSDOF 7
ENDMDL
MODEL 9
REMARK VINA RESULT:      -8.1      2.406      4.071
REMARK  7 active torsions:
REMARK  status: ('A' for Active; 'I' for Inactive)
REMARK    1  A    between atoms: C_7  and  C_8 
REMARK    2  A    between atoms: C_11  and  N_12 
REMARK       I    between atoms: N_12  and  C_13 
REMARK    3  A    between atoms: C_13  and  C_14 
REMARK    4  A    between atoms: C_14  and  N_15 
REMARK    5  A    between atoms: N_15  and  C_16 
REMARK    6  A    between atoms: C_17  and  O_18 
REMARK    7  A    between atoms: C_22  and  N_23 
REMARK       I    between atoms: N_23  and  C_24 
ROOT
HETATM    1  N   UNL     1      -5.859   8.452 -30.154  1.00  0.00    -0.325 N 
HETATM    2  C   UNL     1      -5.035   9.507 -29.906  1.00  0.00     0.244 C 
HETATM    3  O   UNL     1      -5.596  10.489 -29.392  1.00  0.00    -0.271 OA
HETATM    4  H   UNL     1      -6.783   8.676 -29.801  1.00  0.00     0.169 HD
ENDROOT
BRANCH   2   5
HETATM    5  C   UNL     1      -3.536   9.559 -30.233  1.00  0.00     0.170 C 
HETATM    6  C   UNL     1      -2.970  10.967 -30.015  1.00  0.00     0.042 C 
BRANCH   5   7
HETATM    7  N   UNL     1      -2.658   8.595 -29.559  1.00  0.00    -0.375 N 
HETATM    8  H   UNL     1      -3.095   8.174 -28.737  1.00  0.00     0.160 HD
BRANCH   7   9
HETATM    9  C   UNL     1      -1.753   7.688 -30.103  1.00  0.00     0.064 A 
HETATM   10  C   UNL     1      -0.667   7.282 -29.286  1.00  0.00     0.094 A 
HETATM   11  C   UNL     1       0.362   6.498 -29.809  1.00  0.00     0.041 A 
HETATM   12  C   UNL     1       0.343   6.123 -31.156  1.00  0.00     0.032 A 
HETATM   13  C   UNL     1      -0.703   6.520 -31.983  1.00  0.00     0.037 A 
HETATM   14  C   UNL     1      -1.759   7.266 -31.436  1.00  0.00     0.061 A 
BRANCH  10  15
HETATM   15  O   UNL     1      -0.731   7.717 -27.978  1.00  0.00    -0.354 OA
HETATM   16  C   UNL     1      -0.768   6.718 -26.968  1.00  0.00     0.210 C 
ENDBRANCH  10  15
BRANCH  13  17
HETATM   17  N   UNL     1      -0.798   6.204 -33.350  1.00  0.00    -0.327 N 
HETATM   18  C   UNL     1      -1.532   5.286 -34.041  1.00  0.00     0.218 C 
HETATM   19  C   UNL     1      -2.310   4.214 -33.331  1.00  0.00     0.117 C 
HETATM   20  O   UNL     1      -1.504   5.320 -35.274  1.00  0.00    -0.274 OA
HETATM   21  H   UNL     1      -0.186   6.721 -33.973  1.00  0.00     0.169 HD
ENDBRANCH  13  17
ENDBRANCH   7   9
ENDBRANCH   5   7
ENDBRANCH   2   5
BRANCH   1  22
HETATM   22  C   UNL     1      -5.716   7.151 -30.654  1.00  0.00     0.034 A 
HETATM   23  C   UNL     1      -5.187   6.058 -29.978  1.00  0.00     0.030 A 
HETATM   24  C   UNL     1      -5.192   4.777 -30.563  1.00  0.00     0.016 A 
HETATM   25  C   UNL     1      -5.703   4.566 -31.850  1.00  0.00    -0.000 A 
HETATM   26  C   UNL     1      -6.165   5.687 -32.552  1.00  0.00     0.016 A 
HETATM   27  C   UNL     1      -6.171   6.955 -31.964  1.00  0.00     0.030 A 
BRANCH  25  28
HETATM   28  C   UNL     1      -5.792   3.244 -32.501  1.00  0.00     0.109 A 
HETATM   29  N   UNL     1      -6.537   3.008 -33.563  1.00  0.00    -0.240 NA
HETATM   30  C   UNL     1      -6.495   1.670 -33.905  1.00  0.00     0.075 A 
HETATM   31  C   UNL     1      -5.696   0.872 -33.089  1.00  0.00     0.036 A 
HETATM   32  C   UNL     1      -7.185   1.070 -34.976  1.00  0.00     0.033 A 
HETATM   33  C   UNL     1      -5.564  -0.513 -33.303  1.00  0.00     0.028 A 
HETATM   34  S   UNL     1      -4.981   1.859 -31.875  1.00  0.00    -0.067 SA
HETATM   35  C   UNL     1      -6.265  -1.098 -34.371  1.00  0.00    -0.061 A 
HETATM   36  C   UNL     1      -6.157  -2.573 -34.636  1.00  0.00     0.048 C 
HETATM   37  C   UNL     1      -7.063  -0.306 -35.199  1.00  0.00     0.009 A 
ENDBRANCH  25  28
ENDBRANCH   1  22
TORSDOF 7
ENDMDL
MODEL 10
REMARK VINA RESULT:      -8.1      4.038      9.733
REMARK  7 active torsions:
REMARK  status: ('A' for Active; 'I' for Inactive)
REMARK    1  A    between atoms: C_7  and  C_8 
REMARK    2  A    between atoms: C_11  and  N_12 
REMARK       I    between atoms: N_12  and  C_13 
REMARK    3  A    between atoms: C_13  and  C_14 
REMARK    4  A    between atoms: C_14  and  N_15 
REMARK    5  A    between atoms: N_15  and  C_16 
REMARK    6  A    between atoms: C_17  and  O_18 
REMARK    7  A    between atoms: C_22  and  N_23 
REMARK       I    between atoms: N_23  and  C_24 
ROOT
HETATM    1  N   UNL     1      -2.973   6.195 -34.013  1.00  0.00    -0.325 N 
HETATM    2  C   UNL     1      -3.949   5.295 -34.315  1.00  0.00     0.244 C 
HETATM    3  O   UNL     1      -4.078   5.064 -35.529  1.00  0.00    -0.271 OA
HETATM    4  H   UNL     1      -2.500   6.457 -34.871  1.00  0.00     0.169 HD
ENDROOT
BRANCH   2   5
HETATM    5  C   UNL     1      -4.868   4.605 -33.297  1.00  0.00     0.170 C 
HETATM    6  C   UNL     1      -6.188   4.174 -33.945  1.00  0.00     0.042 C 
BRANCH   5   7
HETATM    7  N   UNL     1      -4.321   3.466 -32.550  1.00  0.00    -0.375 N 
HETATM    8  H   UNL     1      -3.659   3.752 -31.826  1.00  0.00     0.160 HD
BRANCH   7   9
HETATM    9  C   UNL     1      -4.941   2.285 -32.152  1.00  0.00     0.064 A 
HETATM   10  C   UNL     1      -5.460   2.232 -30.834  1.00  0.00     0.094 A 
HETATM   11  C   UNL     1      -5.956   1.038 -30.312  1.00  0.00     0.041 A 
HETATM   12  C   UNL     1      -5.927  -0.130 -31.080  1.00  0.00     0.032 A 
HETATM   13  C   UNL     1      -5.411  -0.110 -32.372  1.00  0.00     0.037 A 
HETATM   14  C   UNL     1      -4.959   1.108 -32.907  1.00  0.00     0.061 A 
BRANCH  10  15
HETATM   15  O   UNL     1      -5.429   3.431 -30.151  1.00  0.00    -0.354 OA
HETATM   16  C   UNL     1      -6.679   4.050 -29.880  1.00  0.00     0.210 C 
ENDBRANCH  10  15
BRANCH  13  17
HETATM   17  N   UNL     1      -5.327  -1.235 -33.211  1.00  0.00    -0.327 N 
HETATM   18  C   UNL     1      -5.977  -1.589 -34.356  1.00  0.00     0.218 C 
HETATM   19  C   UNL     1      -7.163  -0.813 -34.853  1.00  0.00     0.117 C 
HETATM   20  O   UNL     1      -5.601  -2.600 -34.956  1.00  0.00    -0.274 OA
HETATM   21  H   UNL     1      -4.688  -1.967 -32.917  1.00  0.00     0.169 HD
ENDBRANCH  13  17
ENDBRANCH   7   9
ENDBRANCH   5   7
ENDBRANCH   2   5
BRANCH   1  22
HETATM   22  C   UNL     1      -2.420   6.735 -32.844  1.00  0.00     0.034 A 
HETATM   23  C   UNL     1      -2.997   7.696 -32.023  1.00  0.00     0.030 A 
HETATM   24  C   UNL     1      -2.378   8.080 -30.818  1.00  0.00     0.016 A 
HETATM   25  C   UNL     1      -1.152   7.530 -30.421  1.00  0.00    -0.000 A 
HETATM   26  C   UNL     1      -0.543   6.617 -31.292  1.00  0.00     0.016 A 
HETATM   27  C   UNL     1      -1.166   6.227 -32.480  1.00  0.00     0.030 A 
BRANCH  25  28
HETATM   28  C   UNL     1      -0.476   7.843 -29.146  1.00  0.00     0.109 A 
HETATM   29  N   UNL     1      -0.635   8.983 -28.503  1.00  0.00    -0.240 NA
HETATM   30  C   UNL     1       0.182   9.036 -27.389  1.00  0.00     0.075 A 
HETATM   31  C   UNL     1       0.975   7.911 -27.178  1.00  0.00     0.036 A 
HETATM   32  C   UNL     1       0.276  10.113 -26.487  1.00  0.00     0.033 A 
HETATM   33  C   UNL     1       1.867   7.823 -26.094  1.00  0.00     0.028 A 
HETATM   34  S   UNL     1       0.656   6.765 -28.421  1.00  0.00    -0.067 SA
HETATM   35  C   UNL     1       1.956   8.909 -25.207  1.00  0.00    -0.061 A 
HETATM   36  C   UNL     1       2.897   8.862 -24.037  1.00  0.00     0.048 C 
HETATM   37  C   UNL     1       1.161  10.039 -25.405  1.00  0.00     0.009 A 
ENDBRANCH  25  28
ENDBRANCH   1  22
TORSDOF 7
ENDMDL
