MODEL 1
REMARK VINA RESULT:     -11.0      0.000      0.000
REMARK  6 active torsions:
REMARK  status: ('A' for Active; 'I' for Inactive)
REMARK    1  A    between atoms: C_8  and  C_9 
REMARK    2  A    between atoms: C_9  and  C_10 
REMARK    3  A    between atoms: C_10  and  N_11 
REMARK       I    between atoms: N_11  and  C_12 
REMARK    4  A    between atoms: C_12  and  C_13 
REMARK    5  A    between atoms: C_18  and  C_19 
REMARK    6  A    between atoms: C_29  and  C_30 
ROOT
HETATM    1  C   UNL     1      -4.438   3.501 -31.923  1.00  0.00     0.148 C 
HETATM    2  N   UNL     1      -3.259   3.387 -32.580  1.00  0.00    -0.165 NA
HETATM    3  N   UNL     1      -2.731   4.618 -32.475  1.00  0.00    -0.240 N 
HETATM    4  C   UNL     1      -3.435   5.459 -31.665  1.00  0.00     0.123 C 
HETATM    5  N   UNL     1      -2.946   6.671 -31.340  1.00  0.00    -0.366 N 
HETATM    6  C   UNL     1      -1.512   6.969 -31.411  1.00  0.00     0.118 C 
HETATM    7  C   UNL     1      -0.675   5.816 -32.021  1.00  0.00     0.066 C 
HETATM    8  C   UNL     1      -1.451   4.977 -33.045  1.00  0.00     0.221 C 
HETATM    9  C   UNL     1      -4.592   4.798 -31.356  1.00  0.00     0.088 C 
HETATM   10  H   UNL     1      -3.467   7.271 -30.699  1.00  0.00     0.161 HD
ENDROOT
BRANCH   1  11
HETATM   11  C   UNL     1      -5.390   2.385 -31.810  1.00  0.00     0.272 C 
HETATM   12  N   UNL     1      -6.076   2.130 -32.975  1.00  0.00    -0.355 N 
HETATM   13  H   UNL     1      -5.766   2.649 -33.791  1.00  0.00     0.162 HD
HETATM   14  O   UNL     1      -5.537   1.736 -30.779  1.00  0.00    -0.266 OA
BRANCH  12  15
HETATM   15  C   UNL     1      -6.996   1.020 -33.092  1.00  0.00     0.127 C 
BRANCH  15  16
HETATM   16  C   UNL     1      -6.724   0.136 -34.309  1.00  0.00     0.060 C 
BRANCH  16  17
HETATM   17  C   UNL     1      -5.680  -0.908 -34.051  1.00  0.00    -0.029 A 
HETATM   18  C   UNL     1      -5.753  -2.306 -34.355  1.00  0.00    -0.002 A 
HETATM   19  C   UNL     1      -6.728  -3.136 -34.949  1.00  0.00     0.014 A 
HETATM   20  C   UNL     1      -4.556  -2.889 -33.934  1.00  0.00     0.042 A 
HETATM   21  C   UNL     1      -6.472  -4.505 -35.097  1.00  0.00     0.001 A 
HETATM   22  C   UNL     1      -5.268  -5.054 -34.666  1.00  0.00     0.002 A 
HETATM   23  C   UNL     1      -4.285  -4.255 -34.076  1.00  0.00     0.030 A 
HETATM   24  N   UNL     1      -3.785  -1.886 -33.395  1.00  0.00    -0.365 N 
HETATM   25  H   UNL     1      -2.862  -2.019 -33.008  1.00  0.00     0.165 HD
HETATM   26  C   UNL     1      -4.452  -0.693 -33.455  1.00  0.00     0.096 A 
ENDBRANCH  16  17
ENDBRANCH  15  16
ENDBRANCH  12  15
ENDBRANCH   1  11
BRANCH   8  27
HETATM   27  C   UNL     1      -1.645   5.695 -34.361  1.00  0.00     0.409 C 
HETATM   28  F   UNL     1      -2.876   6.239 -34.475  1.00  0.00    -0.169 F 
HETATM   29  F   UNL     1      -0.738   6.666 -34.591  1.00  0.00    -0.169 F 
HETATM   30  F   UNL     1      -1.523   4.806 -35.383  1.00  0.00    -0.169 F 
ENDBRANCH   8  27
BRANCH   6  31
HETATM   31  C   UNL     1      -1.029   7.306 -30.006  1.00  0.00    -0.033 A 
HETATM   32  C   UNL     1      -1.945   7.660 -29.002  1.00  0.00     0.049 A 
HETATM   33  C   UNL     1      -1.452   7.936 -27.741  1.00  0.00     0.105 A 
HETATM   34  C   UNL     1      -0.109   7.878 -27.453  1.00  0.00     0.105 A 
HETATM   35  O   UNL     1      -2.197   8.287 -26.659  1.00  0.00    -0.323 OA
HETATM   36  O   UNL     1       0.161   8.186 -26.157  1.00  0.00    -0.323 OA
HETATM   37  C   UNL     1       0.822   7.531 -28.404  1.00  0.00     0.040 A 
HETATM   38  C   UNL     1      -1.168   8.431 -25.655  1.00  0.00     0.352 A 
HETATM   39  C   UNL     1       0.353   7.237 -29.687  1.00  0.00     0.012 A 
ENDBRANCH   6  31
TORSDOF 6
ENDMDL
MODEL 2
REMARK VINA RESULT:     -10.3      3.455     10.097
REMARK  6 active torsions:
REMARK  status: ('A' for Active; 'I' for Inactive)
REMARK    1  A    between atoms: C_8  and  C_9 
REMARK    2  A    between atoms: C_9  and  C_10 
REMARK    3  A    between atoms: C_10  and  N_11 
REMARK       I    between atoms: N_11  and  C_12 
REMARK    4  A    between atoms: C_12  and  C_13 
REMARK    5  A    between atoms: C_18  and  C_19 
REMARK    6  A    between atoms: C_29  and  C_30 
ROOT
HETATM    1  C   UNL     1      -4.356   4.896 -32.992  1.00  0.00     0.148 C 
HETATM    2  N   UNL     1      -4.608   4.506 -31.719  1.00  0.00    -0.165 NA
HETATM    3  N   UNL     1      -5.514   3.526 -31.874  1.00  0.00    -0.240 N 
HETATM    4  C   UNL     1      -5.737   3.173 -33.173  1.00  0.00     0.123 C 
HETATM    5  N   UNL     1      -6.498   2.104 -33.474  1.00  0.00    -0.366 N 
HETATM    6  C   UNL     1      -6.723   1.021 -32.511  1.00  0.00     0.118 C 
HETATM    7  C   UNL     1      -6.126   1.311 -31.111  1.00  0.00     0.066 C 
HETATM    8  C   UNL     1      -6.091   2.804 -30.762  1.00  0.00     0.221 C 
HETATM    9  C   UNL     1      -5.068   4.095 -33.930  1.00  0.00     0.088 C 
HETATM   10  H   UNL     1      -6.620   1.829 -34.449  1.00  0.00     0.161 HD
ENDROOT
BRANCH   1  11
HETATM   11  C   UNL     1      -3.430   5.993 -33.313  1.00  0.00     0.272 C 
HETATM   12  N   UNL     1      -2.848   6.561 -32.203  1.00  0.00    -0.355 N 
HETATM   13  H   UNL     1      -3.027   6.090 -31.322  1.00  0.00     0.162 HD
HETATM   14  O   UNL     1      -3.189   6.346 -34.463  1.00  0.00    -0.266 OA
BRANCH  12  15
HETATM   15  C   UNL     1      -1.846   7.598 -32.313  1.00  0.00     0.127 C 
BRANCH  15  16
HETATM   16  C   UNL     1      -0.419   7.081 -32.133  1.00  0.00     0.060 C 
BRANCH  16  17
HETATM   17  C   UNL     1      -0.192   6.448 -30.794  1.00  0.00    -0.029 A 
HETATM   18  C   UNL     1      -0.331   7.059 -29.506  1.00  0.00    -0.002 A 
HETATM   19  C   UNL     1      -0.697   8.348 -29.061  1.00  0.00     0.014 A 
HETATM   20  C   UNL     1      -0.013   6.095 -28.548  1.00  0.00     0.042 A 
HETATM   21  C   UNL     1      -0.730   8.621 -27.688  1.00  0.00     0.001 A 
HETATM   22  C   UNL     1      -0.406   7.636 -26.760  1.00  0.00     0.002 A 
HETATM   23  C   UNL     1      -0.042   6.352 -27.173  1.00  0.00     0.030 A 
HETATM   24  N   UNL     1       0.308   4.942 -29.225  1.00  0.00    -0.365 N 
HETATM   25  H   UNL     1       0.581   4.076 -28.783  1.00  0.00     0.165 HD
HETATM   26  C   UNL     1       0.209   5.143 -30.575  1.00  0.00     0.096 A 
ENDBRANCH  16  17
ENDBRANCH  15  16
ENDBRANCH  12  15
ENDBRANCH   1  11
BRANCH   8  27
HETATM   27  C   UNL     1      -7.457   3.357 -30.427  1.00  0.00     0.409 C 
HETATM   28  F   UNL     1      -7.539   3.791 -29.150  1.00  0.00    -0.169 F 
HETATM   29  F   UNL     1      -7.851   4.362 -31.235  1.00  0.00    -0.169 F 
HETATM   30  F   UNL     1      -8.388   2.373 -30.558  1.00  0.00    -0.169 F 
ENDBRANCH   8  27
BRANCH   6  31
HETATM   31  C   UNL     1      -6.141  -0.259 -33.096  1.00  0.00    -0.033 A 
HETATM   32  C   UNL     1      -6.975  -1.212 -33.704  1.00  0.00     0.049 A 
HETATM   33  C   UNL     1      -6.390  -2.344 -34.235  1.00  0.00     0.105 A 
HETATM   34  C   UNL     1      -5.033  -2.559 -34.179  1.00  0.00     0.105 A 
HETATM   35  O   UNL     1      -7.047  -3.357 -34.860  1.00  0.00    -0.323 OA
HETATM   36  O   UNL     1      -4.666  -3.733 -34.759  1.00  0.00    -0.323 OA
HETATM   37  C   UNL     1      -4.178  -1.652 -33.598  1.00  0.00     0.040 A 
HETATM   38  C   UNL     1      -5.946  -4.228 -35.200  1.00  0.00     0.352 A 
HETATM   39  C   UNL     1      -4.740  -0.492 -33.061  1.00  0.00     0.012 A 
ENDBRANCH   6  31
TORSDOF 6
ENDMDL
MODEL 3
REMARK VINA RESULT:     -10.1      1.852      2.465
REMARK  6 active torsions:
REMARK  status: ('A' for Active; 'I' for Inactive)
REMARK    1  A    between atoms: C_8  and  C_9 
REMARK    2  A    between atoms: C_9  and  C_10 
REMARK    3  A    between atoms: C_10  and  N_11 
REMARK       I    between atoms: N_11  and  C_12 
REMARK    4  A    between atoms: C_12  and  C_13 
REMARK    5  A    between atoms: C_18  and  C_19 
REMARK    6  A    between atoms: C_29  and  C_30 
ROOT
HETATM    1  C   UNL     1      -5.546   4.787 -32.119  1.00  0.00     0.148 C 
HETATM    2  N   UNL     1      -4.586   4.135 -32.819  1.00  0.00    -0.165 NA
HETATM    3  N   UNL     1      -3.550   4.990 -32.783  1.00  0.00    -0.240 N 
HETATM    4  C   UNL     1      -3.749   6.074 -31.980  1.00  0.00     0.123 C 
HETATM    5  N   UNL     1      -2.744   6.933 -31.723  1.00  0.00    -0.366 N 
HETATM    6  C   UNL     1      -1.338   6.541 -31.863  1.00  0.00     0.118 C 
HETATM    7  C   UNL     1      -1.154   5.123 -32.460  1.00  0.00     0.066 C 
HETATM    8  C   UNL     1      -2.280   4.715 -33.418  1.00  0.00     0.221 C 
HETATM    9  C   UNL     1      -5.061   6.020 -31.599  1.00  0.00     0.088 C 
HETATM   10  H   UNL     1      -2.898   7.715 -31.086  1.00  0.00     0.161 HD
ENDROOT
BRANCH   1  11
HETATM   11  C   UNL     1      -6.895   4.232 -31.924  1.00  0.00     0.272 C 
HETATM   12  N   UNL     1      -7.045   2.964 -32.437  1.00  0.00    -0.355 N 
HETATM   13  H   UNL     1      -6.195   2.522 -32.774  1.00  0.00     0.162 HD
HETATM   14  O   UNL     1      -7.787   4.839 -31.340  1.00  0.00    -0.266 OA
BRANCH  12  15
HETATM   15  C   UNL     1      -8.271   2.215 -32.273  1.00  0.00     0.127 C 
BRANCH  15  16
HETATM   16  C   UNL     1      -8.063   0.856 -31.605  1.00  0.00     0.060 C 
BRANCH  16  17
HETATM   17  C   UNL     1      -7.116  -0.028 -32.358  1.00  0.00    -0.029 A 
HETATM   18  C   UNL     1      -5.732  -0.264 -32.075  1.00  0.00    -0.002 A 
HETATM   19  C   UNL     1      -4.836   0.197 -31.086  1.00  0.00     0.014 A 
HETATM   20  C   UNL     1      -5.252  -1.150 -33.041  1.00  0.00     0.042 A 
HETATM   21  C   UNL     1      -3.506  -0.243 -31.100  1.00  0.00     0.001 A 
HETATM   22  C   UNL     1      -3.061  -1.127 -32.078  1.00  0.00     0.002 A 
HETATM   23  C   UNL     1      -3.927  -1.599 -33.068  1.00  0.00     0.030 A 
HETATM   24  N   UNL     1      -6.302  -1.443 -33.879  1.00  0.00    -0.365 N 
HETATM   25  H   UNL     1      -6.243  -2.062 -34.675  1.00  0.00     0.165 HD
HETATM   26  C   UNL     1      -7.426  -0.771 -33.482  1.00  0.00     0.096 A 
ENDBRANCH  16  17
ENDBRANCH  15  16
ENDBRANCH  12  15
ENDBRANCH   1  11
BRANCH   8  27
HETATM   27  C   UNL     1      -2.196   5.419 -34.752  1.00  0.00     0.409 C 
HETATM   28  F   UNL     1      -3.257   5.152 -35.544  1.00  0.00    -0.169 F 
HETATM   29  F   UNL     1      -2.074   6.758 -34.655  1.00  0.00    -0.169 F 
HETATM   30  F   UNL     1      -1.097   4.982 -35.426  1.00  0.00    -0.169 F 
ENDBRANCH   8  27
BRANCH   6  31
HETATM   31  C   UNL     1      -0.680   6.643 -30.494  1.00  0.00    -0.033 A 
HETATM   32  C   UNL     1      -0.831   7.802 -29.713  1.00  0.00     0.049 A 
HETATM   33  C   UNL     1      -0.228   7.831 -28.471  1.00  0.00     0.105 A 
HETATM   34  C   UNL     1       0.506   6.773 -27.990  1.00  0.00     0.105 A 
HETATM   35  O   UNL     1      -0.278   8.867 -27.590  1.00  0.00    -0.323 OA
HETATM   36  O   UNL     1       1.012   7.009 -26.750  1.00  0.00    -0.323 OA
HETATM   37  C   UNL     1       0.676   5.618 -28.717  1.00  0.00     0.040 A 
HETATM   38  C   UNL     1       0.500   8.332 -26.497  1.00  0.00     0.352 A 
HETATM   39  C   UNL     1       0.070   5.554 -29.974  1.00  0.00     0.012 A 
ENDBRANCH   6  31
TORSDOF 6
ENDMDL
MODEL 4
REMARK VINA RESULT:     -10.1      4.115      9.853
REMARK  6 active torsions:
REMARK  status: ('A' for Active; 'I' for Inactive)
REMARK    1  A    between atoms: C_8  and  C_9 
REMARK    2  A    between atoms: C_9  and  C_10 
REMARK    3  A    between atoms: C_10  and  N_11 
REMARK       I    between atoms: N_11  and  C_12 
REMARK    4  A    between atoms: C_12  and  C_13 
REMARK    5  A    between atoms: C_18  and  C_19 
REMARK    6  A    between atoms: C_29  and  C_30 
ROOT
HETATM    1  C   UNL     1      -6.928   4.279 -32.643  1.00  0.00     0.148 C 
HETATM    2  N   UNL     1      -7.991   3.625 -32.114  1.00  0.00    -0.165 NA
HETATM    3  N   UNL     1      -8.145   2.577 -32.940  1.00  0.00    -0.240 N 
HETATM    4  C   UNL     1      -7.154   2.447 -33.868  1.00  0.00     0.123 C 
HETATM    5  N   UNL     1      -7.091   1.358 -34.659  1.00  0.00    -0.366 N 
HETATM    6  C   UNL     1      -7.730   0.093 -34.283  1.00  0.00     0.118 C 
HETATM    7  C   UNL     1      -8.578   0.194 -32.990  1.00  0.00     0.066 C 
HETATM    8  C   UNL     1      -9.184   1.585 -32.767  1.00  0.00     0.221 C 
HETATM    9  C   UNL     1      -6.393   3.578 -33.761  1.00  0.00     0.088 C 
HETATM   10  H   UNL     1      -6.319   1.258 -35.318  1.00  0.00     0.161 HD
ENDROOT
BRANCH   1  11
HETATM   11  C   UNL     1      -6.411   5.534 -32.076  1.00  0.00     0.272 C 
HETATM   12  N   UNL     1      -6.023   5.422 -30.761  1.00  0.00    -0.355 N 
HETATM   13  H   UNL     1      -6.025   4.481 -30.380  1.00  0.00     0.162 HD
HETATM   14  O   UNL     1      -6.318   6.570 -32.727  1.00  0.00    -0.266 OA
BRANCH  12  15
HETATM   15  C   UNL     1      -5.412   6.522 -30.049  1.00  0.00     0.127 C 
BRANCH  15  16
HETATM   16  C   UNL     1      -3.911   6.336 -29.823  1.00  0.00     0.060 C 
BRANCH  16  17
HETATM   17  C   UNL     1      -3.079   6.871 -30.948  1.00  0.00    -0.029 A 
HETATM   18  C   UNL     1      -2.649   6.173 -32.122  1.00  0.00    -0.002 A 
HETATM   19  C   UNL     1      -2.828   4.860 -32.610  1.00  0.00     0.014 A 
HETATM   20  C   UNL     1      -1.894   7.065 -32.887  1.00  0.00     0.042 A 
HETATM   21  C   UNL     1      -2.250   4.492 -33.832  1.00  0.00     0.001 A 
HETATM   22  C   UNL     1      -1.503   5.407 -34.568  1.00  0.00     0.002 A 
HETATM   23  C   UNL     1      -1.311   6.713 -34.110  1.00  0.00     0.030 A 
HETATM   24  N   UNL     1      -1.865   8.258 -32.205  1.00  0.00    -0.365 N 
HETATM   25  H   UNL     1      -1.386   9.089 -32.525  1.00  0.00     0.165 HD
HETATM   26  C   UNL     1      -2.569   8.153 -31.037  1.00  0.00     0.096 A 
ENDBRANCH  16  17
ENDBRANCH  15  16
ENDBRANCH  12  15
ENDBRANCH   1  11
BRANCH   8  27
HETATM   27  C   UNL     1     -10.343   1.872 -33.694  1.00  0.00     0.409 C 
HETATM   28  F   UNL     1      -9.985   2.646 -34.742  1.00  0.00    -0.169 F 
HETATM   29  F   UNL     1     -10.940   0.765 -34.179  1.00  0.00    -0.169 F 
HETATM   30  F   UNL     1     -11.302   2.560 -33.019  1.00  0.00    -0.169 F 
ENDBRANCH   8  27
BRANCH   6  31
HETATM   31  C   UNL     1      -6.640  -0.961 -34.137  1.00  0.00    -0.033 A 
HETATM   32  C   UNL     1      -6.860  -2.281 -34.566  1.00  0.00     0.049 A 
HETATM   33  C   UNL     1      -5.829  -3.189 -34.427  1.00  0.00     0.105 A 
HETATM   34  C   UNL     1      -4.615  -2.839 -33.885  1.00  0.00     0.105 A 
HETATM   35  O   UNL     1      -5.872  -4.499 -34.794  1.00  0.00    -0.323 OA
HETATM   36  O   UNL     1      -3.743  -3.882 -33.841  1.00  0.00    -0.323 OA
HETATM   37  C   UNL     1      -4.354  -1.559 -33.458  1.00  0.00     0.040 A 
HETATM   38  C   UNL     1      -4.541  -4.927 -34.430  1.00  0.00     0.352 A 
HETATM   39  C   UNL     1      -5.374  -0.614 -33.593  1.00  0.00     0.012 A 
ENDBRANCH   6  31
TORSDOF 6
ENDMDL
MODEL 5
REMARK VINA RESULT:     -10.0      3.668     10.457
REMARK  6 active torsions:
REMARK  status: ('A' for Active; 'I' for Inactive)
REMARK    1  A    between atoms: C_8  and  C_9 
REMARK    2  A    between atoms: C_9  and  C_10 
REMARK    3  A    between atoms: C_10  and  N_11 
REMARK       I    between atoms: N_11  and  C_12 
REMARK    4  A    between atoms: C_12  and  C_13 
REMARK    5  A    between atoms: C_18  and  C_19 
REMARK    6  A    between atoms: C_29  and  C_30 
ROOT
HETATM    1  C   UNL     1      -6.345   4.252 -32.896  1.00  0.00     0.148 C 
HETATM    2  N   UNL     1      -7.428   3.688 -32.307  1.00  0.00    -0.165 NA
HETATM    3  N   UNL     1      -7.690   2.634 -33.097  1.00  0.00    -0.240 N 
HETATM    4  C   UNL     1      -6.752   2.412 -34.062  1.00  0.00     0.123 C 
HETATM    5  N   UNL     1      -6.799   1.304 -34.825  1.00  0.00    -0.366 N 
HETATM    6  C   UNL     1      -7.509   0.097 -34.390  1.00  0.00     0.118 C 
HETATM    7  C   UNL     1      -8.291   0.288 -33.066  1.00  0.00     0.066 C 
HETATM    8  C   UNL     1      -8.788   1.724 -32.855  1.00  0.00     0.221 C 
HETATM    9  C   UNL     1      -5.910   3.488 -34.017  1.00  0.00     0.088 C 
HETATM   10  H   UNL     1      -6.066   1.133 -35.514  1.00  0.00     0.161 HD
ENDROOT
BRANCH   1  11
HETATM   11  C   UNL     1      -5.717   5.480 -32.384  1.00  0.00     0.272 C 
HETATM   12  N   UNL     1      -4.794   5.250 -31.391  1.00  0.00    -0.355 N 
HETATM   13  H   UNL     1      -4.570   4.275 -31.215  1.00  0.00     0.162 HD
HETATM   14  O   UNL     1      -5.982   6.595 -32.822  1.00  0.00    -0.266 OA
BRANCH  12  15
HETATM   15  C   UNL     1      -4.008   6.320 -30.817  1.00  0.00     0.127 C 
BRANCH  15  16
HETATM   16  C   UNL     1      -2.639   6.485 -31.477  1.00  0.00     0.060 C 
BRANCH  16  17
HETATM   17  C   UNL     1      -1.504   6.141 -30.562  1.00  0.00    -0.029 A 
HETATM   18  C   UNL     1      -0.918   6.970 -29.551  1.00  0.00    -0.002 A 
HETATM   19  C   UNL     1      -1.162   8.280 -29.087  1.00  0.00     0.014 A 
HETATM   20  C   UNL     1       0.111   6.239 -28.955  1.00  0.00     0.042 A 
HETATM   21  C   UNL     1      -0.376   8.805 -28.053  1.00  0.00     0.001 A 
HETATM   22  C   UNL     1       0.642   8.048 -27.480  1.00  0.00     0.002 A 
HETATM   23  C   UNL     1       0.905   6.748 -27.920  1.00  0.00     0.030 A 
HETATM   24  N   UNL     1       0.150   5.013 -29.576  1.00  0.00    -0.365 N 
HETATM   25  H   UNL     1       0.801   4.275 -29.348  1.00  0.00     0.165 HD
HETATM   26  C   UNL     1      -0.812   4.944 -30.547  1.00  0.00     0.096 A 
ENDBRANCH  16  17
ENDBRANCH  15  16
ENDBRANCH  12  15
ENDBRANCH   1  11
BRANCH   8  27
HETATM   27  C   UNL     1      -9.963   2.070 -33.740  1.00  0.00     0.409 C 
HETATM   28  F   UNL     1     -10.381   1.017 -34.477  1.00  0.00    -0.169 F 
HETATM   29  F   UNL     1     -11.026   2.558 -33.070  1.00  0.00    -0.169 F 
HETATM   30  F   UNL     1      -9.593   3.034 -34.626  1.00  0.00    -0.169 F 
ENDBRANCH   8  27
BRANCH   6  31
HETATM   31  C   UNL     1      -6.491  -1.029 -34.262  1.00  0.00    -0.033 A 
HETATM   32  C   UNL     1      -6.840  -2.350 -34.589  1.00  0.00     0.049 A 
HETATM   33  C   UNL     1      -5.870  -3.326 -34.472  1.00  0.00     0.105 A 
HETATM   34  C   UNL     1      -4.594  -3.041 -34.047  1.00  0.00     0.105 A 
HETATM   35  O   UNL     1      -6.038  -4.647 -34.752  1.00  0.00    -0.323 OA
HETATM   36  O   UNL     1      -3.799  -4.144 -34.004  1.00  0.00    -0.323 OA
HETATM   37  C   UNL     1      -4.207  -1.762 -33.722  1.00  0.00     0.040 A 
HETATM   38  C   UNL     1      -4.716  -5.156 -34.465  1.00  0.00     0.352 A 
HETATM   39  C   UNL     1      -5.163  -0.751 -33.838  1.00  0.00     0.012 A 
ENDBRANCH   6  31
TORSDOF 6
ENDMDL
MODEL 6
REMARK VINA RESULT:      -9.8      3.416     10.044
REMARK  6 active torsions:
REMARK  status: ('A' for Active; 'I' for Inactive)
REMARK    1  A    between atoms: C_8  and  C_9 
REMARK    2  A    between atoms: C_9  and  C_10 
REMARK    3  A    between atoms: C_10  and  N_11 
REMARK       I    between atoms: N_11  and  C_12 
REMARK    4  A    between atoms: C_12  and  C_13 
REMARK    5  A    between atoms: C_18  and  C_19 
REMARK    6  A    between atoms: C_29  and  C_30 
ROOT
HETATM    1  C   UNL     1      -4.187   3.941 -31.380  1.00  0.00     0.148 C 
HETATM    2  N   UNL     1      -3.760   2.961 -32.213  1.00  0.00    -0.165 NA
HETATM    3  N   UNL     1      -4.674   1.993 -32.037  1.00  0.00    -0.240 N 
HETATM    4  C   UNL     1      -5.731   2.357 -31.258  1.00  0.00     0.123 C 
HETATM    5  N   UNL     1      -6.798   1.547 -31.122  1.00  0.00    -0.366 N 
HETATM    6  C   UNL     1      -7.112   0.512 -32.113  1.00  0.00     0.118 C 
HETATM    7  C   UNL     1      -6.032   0.370 -33.215  1.00  0.00     0.066 C 
HETATM    8  C   UNL     1      -4.620   0.725 -32.732  1.00  0.00     0.221 C 
HETATM    9  C   UNL     1      -5.411   3.584 -30.745  1.00  0.00     0.088 C 
HETATM   10  H   UNL     1      -7.599   1.854 -30.570  1.00  0.00     0.161 HD
ENDROOT
BRANCH   1  11
HETATM   11  C   UNL     1      -3.459   5.208 -31.213  1.00  0.00     0.272 C 
HETATM   12  N   UNL     1      -2.562   5.463 -32.224  1.00  0.00    -0.355 N 
HETATM   13  H   UNL     1      -2.593   4.822 -33.011  1.00  0.00     0.162 HD
HETATM   14  O   UNL     1      -3.655   5.970 -30.270  1.00  0.00    -0.266 OA
BRANCH  12  15
HETATM   15  C   UNL     1      -1.810   6.696 -32.285  1.00  0.00     0.127 C 
BRANCH  15  16
HETATM   16  C   UNL     1      -0.308   6.499 -32.075  1.00  0.00     0.060 C 
BRANCH  16  17
HETATM   17  C   UNL     1       0.035   6.066 -30.682  1.00  0.00    -0.029 A 
HETATM   18  C   UNL     1      -0.144   6.807 -29.470  1.00  0.00    -0.002 A 
HETATM   19  C   UNL     1      -0.657   8.086 -29.163  1.00  0.00     0.014 A 
HETATM   20  C   UNL     1       0.321   6.012 -28.420  1.00  0.00     0.042 A 
HETATM   21  C   UNL     1      -0.685   8.517 -27.831  1.00  0.00     0.001 A 
HETATM   22  C   UNL     1      -0.213   7.699 -26.809  1.00  0.00     0.002 A 
HETATM   23  C   UNL     1       0.299   6.428 -27.084  1.00  0.00     0.030 A 
HETATM   24  N   UNL     1       0.765   4.833 -28.972  1.00  0.00    -0.365 N 
HETATM   25  H   UNL     1       1.159   4.067 -28.444  1.00  0.00     0.165 HD
HETATM   26  C   UNL     1       0.604   4.856 -30.330  1.00  0.00     0.096 A 
ENDBRANCH  16  17
ENDBRANCH  15  16
ENDBRANCH  12  15
ENDBRANCH   1  11
BRANCH   8  27
HETATM   27  C   UNL     1      -4.024  -0.339 -31.841  1.00  0.00     0.409 C 
HETATM   28  F   UNL     1      -4.731  -1.490 -31.868  1.00  0.00    -0.169 F 
HETATM   29  F   UNL     1      -2.739  -0.633 -32.125  1.00  0.00    -0.169 F 
HETATM   30  F   UNL     1      -4.042   0.090 -30.550  1.00  0.00    -0.169 F 
ENDBRANCH   8  27
BRANCH   6  31
HETATM   31  C   UNL     1      -8.470   0.838 -32.722  1.00  0.00    -0.033 A 
HETATM   32  C   UNL     1      -8.648   1.998 -33.494  1.00  0.00     0.049 A 
HETATM   33  C   UNL     1      -9.895   2.233 -34.037  1.00  0.00     0.105 A 
HETATM   34  C   UNL     1     -10.951   1.374 -33.840  1.00  0.00     0.105 A 
HETATM   35  O   UNL     1     -10.236   3.299 -34.809  1.00  0.00    -0.323 OA
HETATM   36  O   UNL     1     -12.087   1.791 -34.461  1.00  0.00    -0.323 OA
HETATM   37  C   UNL     1     -10.821   0.224 -33.096  1.00  0.00     0.040 A 
HETATM   38  C   UNL     1     -11.623   3.005 -35.084  1.00  0.00     0.352 A 
HETATM   39  C   UNL     1      -9.568  -0.045 -32.541  1.00  0.00     0.012 A 
ENDBRANCH   6  31
TORSDOF 6
ENDMDL
MODEL 7
REMARK VINA RESULT:      -9.5      3.671     10.576
REMARK  6 active torsions:
REMARK  status: ('A' for Active; 'I' for Inactive)
REMARK    1  A    between atoms: C_8  and  C_9 
REMARK    2  A    between atoms: C_9  and  C_10 
REMARK    3  A    between atoms: C_10  and  N_11 
REMARK       I    between atoms: N_11  and  C_12 
REMARK    4  A    between atoms: C_12  and  C_13 
REMARK    5  A    between atoms: C_18  and  C_19 
REMARK    6  A    between atoms: C_29  and  C_30 
ROOT
HETATM    1  C   UNL     1      -6.935   3.651 -31.487  1.00  0.00     0.148 C 
HETATM    2  N   UNL     1      -8.096   2.975 -31.316  1.00  0.00    -0.165 NA
HETATM    3  N   UNL     1      -8.143   2.174 -32.394  1.00  0.00    -0.240 N 
HETATM    4  C   UNL     1      -7.012   2.196 -33.155  1.00  0.00     0.123 C 
HETATM    5  N   UNL     1      -6.853   1.331 -34.176  1.00  0.00    -0.366 N 
HETATM    6  C   UNL     1      -7.593   0.067 -34.238  1.00  0.00     0.118 C 
HETATM    7  C   UNL     1      -8.648  -0.083 -33.113  1.00  0.00     0.066 C 
HETATM    8  C   UNL     1      -9.233   1.256 -32.645  1.00  0.00     0.221 C 
HETATM    9  C   UNL     1      -6.240   3.204 -32.647  1.00  0.00     0.088 C 
HETATM   10  H   UNL     1      -5.983   1.334 -34.708  1.00  0.00     0.161 HD
ENDROOT
BRANCH   1  11
HETATM   11  C   UNL     1      -6.478   4.686 -30.546  1.00  0.00     0.272 C 
HETATM   12  N   UNL     1      -5.884   5.764 -31.162  1.00  0.00    -0.355 N 
HETATM   13  H   UNL     1      -5.939   5.776 -32.177  1.00  0.00     0.162 HD
HETATM   14  O   UNL     1      -6.634   4.598 -29.332  1.00  0.00    -0.266 OA
BRANCH  12  15
HETATM   15  C   UNL     1      -5.444   6.922 -30.417  1.00  0.00     0.127 C 
BRANCH  15  16
HETATM   16  C   UNL     1      -3.944   7.188 -30.545  1.00  0.00     0.060 C 
BRANCH  16  17
HETATM   17  C   UNL     1      -3.220   7.090 -29.237  1.00  0.00    -0.029 A 
HETATM   18  C   UNL     1      -1.809   7.199 -29.013  1.00  0.00    -0.002 A 
HETATM   19  C   UNL     1      -0.692   7.418 -29.848  1.00  0.00     0.014 A 
HETATM   20  C   UNL     1      -1.590   7.038 -27.643  1.00  0.00     0.042 A 
HETATM   21  C   UNL     1       0.591   7.466 -29.287  1.00  0.00     0.001 A 
HETATM   22  C   UNL     1       0.774   7.301 -27.917  1.00  0.00     0.002 A 
HETATM   23  C   UNL     1      -0.315   7.084 -27.067  1.00  0.00     0.030 A 
HETATM   24  N   UNL     1      -2.817   6.839 -27.057  1.00  0.00    -0.365 N 
HETATM   25  H   UNL     1      -2.962   6.691 -26.068  1.00  0.00     0.165 HD
HETATM   26  C   UNL     1      -3.804   6.863 -28.005  1.00  0.00     0.096 A 
ENDBRANCH  16  17
ENDBRANCH  15  16
ENDBRANCH  12  15
ENDBRANCH   1  11
BRANCH   8  27
HETATM   27  C   UNL     1     -10.202   1.849 -33.640  1.00  0.00     0.409 C 
HETATM   28  F   UNL     1     -11.224   2.498 -33.041  1.00  0.00    -0.169 F 
HETATM   29  F   UNL     1      -9.630   2.695 -34.521  1.00  0.00    -0.169 F 
HETATM   30  F   UNL     1     -10.762   0.851 -34.376  1.00  0.00    -0.169 F 
ENDBRANCH   8  27
BRANCH   6  31
HETATM   31  C   UNL     1      -6.585  -1.073 -34.193  1.00  0.00    -0.033 A 
HETATM   32  C   UNL     1      -6.969  -2.381 -34.533  1.00  0.00     0.049 A 
HETATM   33  C   UNL     1      -6.007  -3.372 -34.493  1.00  0.00     0.105 A 
HETATM   34  C   UNL     1      -4.706  -3.113 -34.132  1.00  0.00     0.105 A 
HETATM   35  O   UNL     1      -6.208  -4.683 -34.795  1.00  0.00    -0.323 OA
HETATM   36  O   UNL     1      -3.925  -4.226 -34.159  1.00  0.00    -0.323 OA
HETATM   37  C   UNL     1      -4.285  -1.847 -33.797  1.00  0.00     0.040 A 
HETATM   38  C   UNL     1      -4.880  -5.215 -34.593  1.00  0.00     0.352 A 
HETATM   39  C   UNL     1      -5.233  -0.822 -33.836  1.00  0.00     0.012 A 
ENDBRANCH   6  31
TORSDOF 6
ENDMDL
MODEL 8
REMARK VINA RESULT:      -9.5      2.688      4.193
REMARK  6 active torsions:
REMARK  status: ('A' for Active; 'I' for Inactive)
REMARK    1  A    between atoms: C_8  and  C_9 
REMARK    2  A    between atoms: C_9  and  C_10 
REMARK    3  A    between atoms: C_10  and  N_11 
REMARK       I    between atoms: N_11  and  C_12 
REMARK    4  A    between atoms: C_12  and  C_13 
REMARK    5  A    between atoms: C_18  and  C_19 
REMARK    6  A    between atoms: C_29  and  C_30 
ROOT
HETATM    1  C   UNL     1      -4.466   3.313 -31.899  1.00  0.00     0.148 C 
HETATM    2  N   UNL     1      -3.302   3.214 -32.587  1.00  0.00    -0.165 NA
HETATM    3  N   UNL     1      -2.802   4.459 -32.518  1.00  0.00    -0.240 N 
HETATM    4  C   UNL     1      -3.503   5.298 -31.704  1.00  0.00     0.123 C 
HETATM    5  N   UNL     1      -3.034   6.527 -31.414  1.00  0.00    -0.366 N 
HETATM    6  C   UNL     1      -1.610   6.857 -31.531  1.00  0.00     0.118 C 
HETATM    7  C   UNL     1      -0.764   5.713 -32.144  1.00  0.00     0.066 C 
HETATM    8  C   UNL     1      -1.547   4.838 -33.131  1.00  0.00     0.221 C 
HETATM    9  C   UNL     1      -4.635   4.616 -31.351  1.00  0.00     0.088 C 
HETATM   10  H   UNL     1      -3.551   7.126 -30.770  1.00  0.00     0.161 HD
ENDROOT
BRANCH   1  11
HETATM   11  C   UNL     1      -5.387   2.177 -31.739  1.00  0.00     0.272 C 
HETATM   12  N   UNL     1      -6.714   2.536 -31.794  1.00  0.00    -0.355 N 
HETATM   13  H   UNL     1      -6.899   3.501 -32.054  1.00  0.00     0.162 HD
HETATM   14  O   UNL     1      -5.001   1.021 -31.593  1.00  0.00    -0.266 OA
BRANCH  12  15
HETATM   15  C   UNL     1      -7.773   1.553 -31.742  1.00  0.00     0.127 C 
BRANCH  15  16
HETATM   16  C   UNL     1      -8.152   0.999 -33.115  1.00  0.00     0.060 C 
BRANCH  16  17
HETATM   17  C   UNL     1      -9.633   0.946 -33.336  1.00  0.00    -0.029 A 
HETATM   18  C   UNL     1     -10.444   1.896 -34.038  1.00  0.00    -0.002 A 
HETATM   19  C   UNL     1     -10.182   3.108 -34.712  1.00  0.00     0.014 A 
HETATM   20  C   UNL     1     -11.763   1.440 -33.986  1.00  0.00     0.042 A 
HETATM   21  C   UNL     1     -11.238   3.812 -35.304  1.00  0.00     0.001 A 
HETATM   22  C   UNL     1     -12.542   3.329 -35.234  1.00  0.00     0.002 A 
HETATM   23  C   UNL     1     -12.829   2.131 -34.573  1.00  0.00     0.030 A 
HETATM   24  N   UNL     1     -11.756   0.260 -33.282  1.00  0.00    -0.365 N 
HETATM   25  H   UNL     1     -12.577  -0.296 -33.086  1.00  0.00     0.165 HD
HETATM   26  C   UNL     1     -10.483  -0.045 -32.882  1.00  0.00     0.096 A 
ENDBRANCH  16  17
ENDBRANCH  15  16
ENDBRANCH  12  15
ENDBRANCH   1  11
BRANCH   8  27
HETATM   27  C   UNL     1      -1.794   5.526 -34.452  1.00  0.00     0.409 C 
HETATM   28  F   UNL     1      -1.923   6.865 -34.320  1.00  0.00    -0.169 F 
HETATM   29  F   UNL     1      -0.843   5.289 -35.378  1.00  0.00    -0.169 F 
HETATM   30  F   UNL     1      -2.965   5.080 -34.983  1.00  0.00    -0.169 F 
ENDBRANCH   8  27
BRANCH   6  31
HETATM   31  C   UNL     1      -1.097   7.231 -30.147  1.00  0.00    -0.033 A 
HETATM   32  C   UNL     1      -1.995   7.511 -29.103  1.00  0.00     0.049 A 
HETATM   33  C   UNL     1      -1.473   7.825 -27.864  1.00  0.00     0.105 A 
HETATM   34  C   UNL     1      -0.119   7.873 -27.632  1.00  0.00     0.105 A 
HETATM   35  O   UNL     1      -2.197   8.116 -26.749  1.00  0.00    -0.323 OA
HETATM   36  O   UNL     1       0.181   8.202 -26.347  1.00  0.00    -0.323 OA
HETATM   37  C   UNL     1       0.796   7.602 -28.623  1.00  0.00     0.040 A 
HETATM   38  C   UNL     1      -1.141   8.341 -25.789  1.00  0.00     0.352 A 
HETATM   39  C   UNL     1       0.299   7.272 -29.885  1.00  0.00     0.012 A 
ENDBRANCH   6  31
TORSDOF 6
ENDMDL
MODEL 9
REMARK VINA RESULT:      -9.4     17.916     20.763
REMARK  6 active torsions:
REMARK  status: ('A' for Active; 'I' for Inactive)
REMARK    1  A    between atoms: C_8  and  C_9 
REMARK    2  A    between atoms: C_9  and  C_10 
REMARK    3  A    between atoms: C_10  and  N_11 
REMARK       I    between atoms: N_11  and  C_12 
REMARK    4  A    between atoms: C_12  and  C_13 
REMARK    5  A    between atoms: C_18  and  C_19 
REMARK    6  A    between atoms: C_29  and  C_30 
ROOT
HETATM    1  C   UNL     1      -3.507 -13.205 -37.758  1.00  0.00     0.148 C 
HETATM    2  N   UNL     1      -3.961 -14.069 -36.818  1.00  0.00    -0.165 NA
HETATM    3  N   UNL     1      -5.254 -13.727 -36.691  1.00  0.00    -0.240 N 
HETATM    4  C   UNL     1      -5.679 -12.802 -37.598  1.00  0.00     0.123 C 
HETATM    5  N   UNL     1      -6.983 -12.479 -37.693  1.00  0.00    -0.366 N 
HETATM    6  C   UNL     1      -8.037 -13.381 -37.218  1.00  0.00     0.118 C 
HETATM    7  C   UNL     1      -7.491 -14.635 -36.490  1.00  0.00     0.066 C 
HETATM    8  C   UNL     1      -6.157 -14.389 -35.774  1.00  0.00     0.221 C 
HETATM    9  C   UNL     1      -4.555 -12.378 -38.252  1.00  0.00     0.088 C 
HETATM   10  H   UNL     1      -7.289 -11.816 -38.406  1.00  0.00     0.161 HD
ENDROOT
BRANCH   1  11
HETATM   11  C   UNL     1      -2.104 -13.187 -38.201  1.00  0.00     0.272 C 
HETATM   12  N   UNL     1      -1.594 -14.439 -38.459  1.00  0.00    -0.355 N 
HETATM   13  H   UNL     1      -2.265 -15.202 -38.431  1.00  0.00     0.162 HD
HETATM   14  O   UNL     1      -1.464 -12.150 -38.346  1.00  0.00    -0.266 OA
BRANCH  12  15
HETATM   15  C   UNL     1      -0.260 -14.627 -38.984  1.00  0.00     0.127 C 
BRANCH  15  16
HETATM   16  C   UNL     1      -0.208 -14.632 -40.511  1.00  0.00     0.060 C 
BRANCH  16  17
HETATM   17  C   UNL     1      -1.243 -15.522 -41.129  1.00  0.00    -0.029 A 
HETATM   18  C   UNL     1      -2.544 -15.149 -41.599  1.00  0.00    -0.002 A 
HETATM   19  C   UNL     1      -3.262 -13.934 -41.651  1.00  0.00     0.014 A 
HETATM   20  C   UNL     1      -3.159 -16.302 -42.088  1.00  0.00     0.042 A 
HETATM   21  C   UNL     1      -4.557 -13.920 -42.186  1.00  0.00     0.001 A 
HETATM   22  C   UNL     1      -5.140 -15.089 -42.666  1.00  0.00     0.002 A 
HETATM   23  C   UNL     1      -4.451 -16.304 -42.627  1.00  0.00     0.030 A 
HETATM   24  N   UNL     1      -2.269 -17.337 -41.924  1.00  0.00    -0.365 N 
HETATM   25  H   UNL     1      -2.448 -18.294 -42.191  1.00  0.00     0.165 HD
HETATM   26  C   UNL     1      -1.116 -16.881 -41.344  1.00  0.00     0.096 A 
ENDBRANCH  16  17
ENDBRANCH  15  16
ENDBRANCH  12  15
ENDBRANCH   1  11
BRANCH   8  27
HETATM   27  C   UNL     1      -6.314 -13.574 -34.511  1.00  0.00     0.409 C 
HETATM   28  F   UNL     1      -5.242 -12.788 -34.269  1.00  0.00    -0.169 F 
HETATM   29  F   UNL     1      -7.414 -12.795 -34.497  1.00  0.00    -0.169 F 
HETATM   30  F   UNL     1      -6.423 -14.411 -33.444  1.00  0.00    -0.169 F 
ENDBRANCH   8  27
BRANCH   6  31
HETATM   31  C   UNL     1      -8.893 -13.778 -38.415  1.00  0.00    -0.033 A 
HETATM   32  C   UNL     1      -8.991 -15.123 -38.809  1.00  0.00     0.049 A 
HETATM   33  C   UNL     1      -9.797 -15.426 -39.889  1.00  0.00     0.105 A 
HETATM   34  C   UNL     1     -10.491 -14.459 -40.577  1.00  0.00     0.105 A 
HETATM   35  O   UNL     1     -10.007 -16.671 -40.396  1.00  0.00    -0.323 OA
HETATM   36  O   UNL     1     -11.222 -14.971 -41.603  1.00  0.00    -0.323 OA
HETATM   37  C   UNL     1     -10.428 -13.132 -40.223  1.00  0.00     0.040 A 
HETATM   38  C   UNL     1     -10.921 -16.374 -41.475  1.00  0.00     0.352 A 
HETATM   39  C   UNL     1      -9.628 -12.794 -39.129  1.00  0.00     0.012 A 
ENDBRANCH   6  31
TORSDOF 6
ENDMDL
MODEL 10
REMARK VINA RESULT:      -9.3      1.432      1.938
REMARK  6 active torsions:
REMARK  status: ('A' for Active; 'I' for Inactive)
REMARK    1  A    between atoms: C_8  and  C_9 
REMARK    2  A    between atoms: C_9  and  C_10 
REMARK    3  A    between atoms: C_10  and  N_11 
REMARK       I    between atoms: N_11  and  C_12 
REMARK    4  A    between atoms: C_12  and  C_13 
REMARK    5  A    between atoms: C_18  and  C_19 
REMARK    6  A    between atoms: C_29  and  C_30 
ROOT
HETATM    1  C   UNL     1      -3.645   3.967 -31.182  1.00  0.00     0.148 C 
HETATM    2  N   UNL     1      -2.522   4.179 -31.911  1.00  0.00    -0.165 NA
HETATM    3  N   UNL     1      -2.300   5.494 -31.753  1.00  0.00    -0.240 N 
HETATM    4  C   UNL     1      -3.127   6.095 -30.850  1.00  0.00     0.123 C 
HETATM    5  N   UNL     1      -2.922   7.372 -30.472  1.00  0.00    -0.366 N 
HETATM    6  C   UNL     1      -1.610   8.014 -30.604  1.00  0.00     0.118 C 
HETATM    7  C   UNL     1      -0.566   7.133 -31.337  1.00  0.00     0.066 C 
HETATM    8  C   UNL     1      -1.188   6.185 -32.369  1.00  0.00     0.221 C 
HETATM    9  C   UNL     1      -4.066   5.156 -30.522  1.00  0.00     0.088 C 
HETATM   10  H   UNL     1      -3.524   7.792 -29.764  1.00  0.00     0.161 HD
ENDROOT
BRANCH   1  11
HETATM   11  C   UNL     1      -4.290   2.648 -31.091  1.00  0.00     0.272 C 
HETATM   12  N   UNL     1      -4.068   1.853 -32.192  1.00  0.00    -0.355 N 
HETATM   13  H   UNL     1      -3.402   2.213 -32.868  1.00  0.00     0.162 HD
HETATM   14  O   UNL     1      -4.943   2.292 -30.115  1.00  0.00    -0.266 OA
BRANCH  12  15
HETATM   15  C   UNL     1      -4.548   0.491 -32.258  1.00  0.00     0.127 C 
BRANCH  15  16
HETATM   16  C   UNL     1      -3.988  -0.290 -33.447  1.00  0.00     0.060 C 
BRANCH  16  17
HETATM   17  C   UNL     1      -3.855  -1.757 -33.173  1.00  0.00    -0.029 A 
HETATM   18  C   UNL     1      -4.475  -2.836 -33.883  1.00  0.00    -0.002 A 
HETATM   19  C   UNL     1      -5.349  -2.915 -34.988  1.00  0.00     0.014 A 
HETATM   20  C   UNL     1      -4.069  -4.025 -33.274  1.00  0.00     0.042 A 
HETATM   21  C   UNL     1      -5.780  -4.169 -35.439  1.00  0.00     0.001 A 
HETATM   22  C   UNL     1      -5.356  -5.335 -34.809  1.00  0.00     0.002 A 
HETATM   23  C   UNL     1      -4.490  -5.286 -33.713  1.00  0.00     0.030 A 
HETATM   24  N   UNL     1      -3.236  -3.685 -32.235  1.00  0.00    -0.365 N 
HETATM   25  H   UNL     1      -2.792  -4.348 -31.616  1.00  0.00     0.165 HD
HETATM   26  C   UNL     1      -3.103  -2.325 -32.161  1.00  0.00     0.096 A 
ENDBRANCH  16  17
ENDBRANCH  15  16
ENDBRANCH  12  15
ENDBRANCH   1  11
BRANCH   8  27
HETATM   27  C   UNL     1      -1.642   6.901 -33.620  1.00  0.00     0.409 C 
HETATM   28  F   UNL     1      -1.541   8.244 -33.511  1.00  0.00    -0.169 F 
HETATM   29  F   UNL     1      -0.983   6.523 -34.734  1.00  0.00    -0.169 F 
HETATM   30  F   UNL     1      -2.957   6.633 -33.843  1.00  0.00    -0.169 F 
ENDBRANCH   8  27
BRANCH   6  31
HETATM   31  C   UNL     1      -1.124   8.386 -29.209  1.00  0.00    -0.033 A 
HETATM   32  C   UNL     1       0.066   7.842 -28.698  1.00  0.00     0.049 A 
HETATM   33  C   UNL     1       0.468   8.230 -27.435  1.00  0.00     0.105 A 
HETATM   34  C   UNL     1      -0.259   9.118 -26.678  1.00  0.00     0.105 A 
HETATM   35  O   UNL     1       1.591   7.806 -26.796  1.00  0.00    -0.323 OA
HETATM   36  O   UNL     1       0.313   9.364 -25.469  1.00  0.00    -0.323 OA
HETATM   37  C   UNL     1      -1.426   9.679 -27.141  1.00  0.00     0.040 A 
HETATM   38  C   UNL     1       1.492   8.539 -25.555  1.00  0.00     0.352 A 
HETATM   39  C   UNL     1      -1.854   9.313 -28.418  1.00  0.00     0.012 A 
ENDBRANCH   6  31
TORSDOF 6
ENDMDL
