MODEL 1
REMARK VINA RESULT:      -8.6      0.000      0.000
REMARK  2 active torsions:
REMARK  status: ('A' for Active; 'I' for Inactive)
REMARK    1  A    between atoms: C_9  and  C_11 
REMARK    2  A    between atoms: C_9  and  O_10 
ROOT
HETATM    1  C   UNL     1      -6.712  -2.637 -34.902  1.00  0.00     0.048 C 
HETATM    2  C   UNL     1      -6.591  -1.494 -33.937  1.00  0.00    -0.061 A 
HETATM    3  C   UNL     1      -7.737  -0.830 -33.473  1.00  0.00     0.020 A 
HETATM    4  C   UNL     1      -7.581   0.243 -32.606  1.00  0.00     0.018 A 
HETATM    5  C   UNL     1      -6.307   0.635 -32.196  1.00  0.00     0.045 A 
HETATM    6  N   UNL     1      -6.388   1.705 -31.318  1.00  0.00    -0.323 N 
HETATM    7  C   UNL     1      -7.713   2.091 -31.100  1.00  0.00     0.266 A 
HETATM    8  O   UNL     1      -8.046   2.997 -30.350  1.00  0.00    -0.269 OA
HETATM    9  C   UNL     1      -8.622   1.117 -31.936  1.00  0.00     0.199 A 
HETATM   10  C   UNL     1      -5.161   0.008 -32.635  1.00  0.00     0.031 A 
HETATM   11  C   UNL     1      -5.312  -1.065 -33.519  1.00  0.00     0.009 A 
HETATM   12  H   UNL     1      -5.608   2.172 -30.880  1.00  0.00     0.169 HD
ENDROOT
BRANCH   9  13
HETATM   13  C   UNL     1      -9.393   1.793 -33.053  1.00  0.00     0.025 A 
HETATM   14  C   UNL     1     -10.703   1.403 -33.530  1.00  0.00     0.003 A 
HETATM   15  C   UNL     1     -11.042   2.243 -34.589  1.00  0.00     0.043 A 
HETATM   16  C   UNL     1     -11.631   0.401 -33.169  1.00  0.00     0.014 A 
HETATM   17  C   UNL     1     -12.244   2.134 -35.301  1.00  0.00     0.030 A 
HETATM   18  N   UNL     1     -10.006   3.125 -34.749  1.00  0.00    -0.359 N 
HETATM   19  C   UNL     1     -13.137   1.131 -34.921  1.00  0.00     0.002 A 
HETATM   20  C   UNL     1     -12.838   0.275 -33.867  1.00  0.00     0.001 A 
HETATM   21  H   UNL     1      -9.989   3.857 -35.445  1.00  0.00     0.166 HD
HETATM   22  C   UNL     1      -8.997   2.866 -33.855  1.00  0.00     0.016 A 
HETATM   23  C   UNL     1      -7.756   3.687 -33.879  1.00  0.00     0.069 C 
ENDBRANCH   9  13
BRANCH   9  24
HETATM   24  O   UNL     1      -9.425   0.322 -31.069  1.00  0.00    -0.371 OA
HETATM   25  H   UNL     1      -9.685  -0.463 -31.579  1.00  0.00     0.212 HD
ENDBRANCH   9  24
TORSDOF 2
ENDMDL
MODEL 2
REMARK VINA RESULT:      -8.1      2.981      5.434
REMARK  2 active torsions:
REMARK  status: ('A' for Active; 'I' for Inactive)
REMARK    1  A    between atoms: C_9  and  C_11 
REMARK    2  A    between atoms: C_9  and  O_10 
ROOT
HETATM    1  C   UNL     1      -4.792   4.909 -34.543  1.00  0.00     0.048 C 
HETATM    2  C   UNL     1      -5.113   4.281 -33.216  1.00  0.00    -0.061 A 
HETATM    3  C   UNL     1      -4.964   2.899 -33.029  1.00  0.00     0.020 A 
HETATM    4  C   UNL     1      -5.301   2.353 -31.798  1.00  0.00     0.018 A 
HETATM    5  C   UNL     1      -5.762   3.174 -30.768  1.00  0.00     0.045 A 
HETATM    6  N   UNL     1      -6.014   2.427 -29.628  1.00  0.00    -0.323 N 
HETATM    7  C   UNL     1      -5.746   1.071 -29.834  1.00  0.00     0.266 A 
HETATM    8  O   UNL     1      -5.870   0.212 -28.973  1.00  0.00    -0.269 OA
HETATM    9  C   UNL     1      -5.221   0.921 -31.309  1.00  0.00     0.199 A 
HETATM   10  C   UNL     1      -5.923   4.534 -30.920  1.00  0.00     0.031 A 
HETATM   11  C   UNL     1      -5.598   5.087 -32.162  1.00  0.00     0.009 A 
HETATM   12  H   UNL     1      -6.355   2.784 -28.749  1.00  0.00     0.169 HD
ENDROOT
BRANCH   9  13
HETATM   13  C   UNL     1      -6.130   0.112 -32.212  1.00  0.00     0.025 A 
HETATM   14  C   UNL     1      -5.711  -0.962 -33.087  1.00  0.00     0.003 A 
HETATM   15  C   UNL     1      -6.833  -1.417 -33.776  1.00  0.00     0.043 A 
HETATM   16  C   UNL     1      -4.474  -1.583 -33.372  1.00  0.00     0.014 A 
HETATM   17  C   UNL     1      -6.786  -2.447 -34.726  1.00  0.00     0.030 A 
HETATM   18  N   UNL     1      -7.901  -0.681 -33.336  1.00  0.00    -0.359 N 
HETATM   19  C   UNL     1      -5.548  -3.036 -34.986  1.00  0.00     0.002 A 
HETATM   20  C   UNL     1      -4.405  -2.613 -34.317  1.00  0.00     0.001 A 
HETATM   21  H   UNL     1      -8.848  -0.807 -33.664  1.00  0.00     0.166 HD
HETATM   22  C   UNL     1      -7.505   0.255 -32.413  1.00  0.00     0.016 A 
HETATM   23  C   UNL     1      -8.505   1.190 -31.829  1.00  0.00     0.069 C 
ENDBRANCH   9  13
BRANCH   9  24
HETATM   24  O   UNL     1      -3.863   0.493 -31.311  1.00  0.00    -0.371 OA
HETATM   25  H   UNL     1      -3.417   0.994 -32.013  1.00  0.00     0.212 HD
ENDBRANCH   9  24
TORSDOF 2
ENDMDL
MODEL 3
REMARK VINA RESULT:      -8.1      1.472      1.981
REMARK  2 active torsions:
REMARK  status: ('A' for Active; 'I' for Inactive)
REMARK    1  A    between atoms: C_9  and  C_11 
REMARK    2  A    between atoms: C_9  and  O_10 
ROOT
HETATM    1  C   UNL     1      -5.952  -3.006 -34.971  1.00  0.00     0.048 C 
HETATM    2  C   UNL     1      -5.478  -2.001 -33.962  1.00  0.00    -0.061 A 
HETATM    3  C   UNL     1      -6.395  -1.171 -33.299  1.00  0.00     0.020 A 
HETATM    4  C   UNL     1      -5.913  -0.233 -32.395  1.00  0.00     0.018 A 
HETATM    5  C   UNL     1      -4.544  -0.137 -32.146  1.00  0.00     0.045 A 
HETATM    6  N   UNL     1      -4.292   0.843 -31.198  1.00  0.00    -0.323 N 
HETATM    7  C   UNL     1      -5.471   1.459 -30.771  1.00  0.00     0.266 A 
HETATM    8  O   UNL     1      -5.513   2.340 -29.924  1.00  0.00    -0.269 OA
HETATM    9  C   UNL     1      -6.660   0.763 -31.530  1.00  0.00     0.199 A 
HETATM   10  C   UNL     1      -3.617  -0.933 -32.782  1.00  0.00     0.031 A 
HETATM   11  C   UNL     1      -4.095  -1.870 -33.702  1.00  0.00     0.009 A 
HETATM   12  H   UNL     1      -3.384   1.107 -30.846  1.00  0.00     0.169 HD
ENDROOT
BRANCH   9  13
HETATM   13  C   UNL     1      -7.408   1.675 -32.481  1.00  0.00     0.025 A 
HETATM   14  C   UNL     1      -8.767   1.480 -32.942  1.00  0.00     0.003 A 
HETATM   15  C   UNL     1      -9.069   2.509 -33.833  1.00  0.00     0.043 A 
HETATM   16  C   UNL     1      -9.768   0.513 -32.697  1.00  0.00     0.014 A 
HETATM   17  C   UNL     1     -10.303   2.619 -34.487  1.00  0.00     0.030 A 
HETATM   18  N   UNL     1      -7.964   3.315 -33.905  1.00  0.00    -0.359 N 
HETATM   19  C   UNL     1     -11.268   1.646 -34.225  1.00  0.00     0.002 A 
HETATM   20  C   UNL     1     -11.007   0.606 -33.340  1.00  0.00     0.001 A 
HETATM   21  H   UNL     1      -7.908   4.147 -34.475  1.00  0.00     0.166 HD
HETATM   22  C   UNL     1      -6.948   2.829 -33.120  1.00  0.00     0.016 A 
HETATM   23  C   UNL     1      -5.639   3.535 -33.079  1.00  0.00     0.069 C 
ENDBRANCH   9  13
BRANCH   9  24
HETATM   24  O   UNL     1      -7.493   0.064 -30.611  1.00  0.00    -0.371 OA
HETATM   25  H   UNL     1      -8.380   0.041 -31.007  1.00  0.00     0.212 HD
ENDBRANCH   9  24
TORSDOF 2
ENDMDL
MODEL 4
REMARK VINA RESULT:      -7.8      2.282      4.617
REMARK  2 active torsions:
REMARK  status: ('A' for Active; 'I' for Inactive)
REMARK    1  A    between atoms: C_9  and  C_11 
REMARK    2  A    between atoms: C_9  and  O_10 
ROOT
HETATM    1  C   UNL     1      -5.589  -2.832 -35.269  1.00  0.00     0.048 C 
HETATM    2  C   UNL     1      -5.253  -2.094 -34.005  1.00  0.00    -0.061 A 
HETATM    3  C   UNL     1      -6.083  -1.062 -33.542  1.00  0.00     0.020 A 
HETATM    4  C   UNL     1      -5.721  -0.383 -32.386  1.00  0.00     0.018 A 
HETATM    5  C   UNL     1      -4.561  -0.739 -31.697  1.00  0.00     0.045 A 
HETATM    6  N   UNL     1      -4.408   0.049 -30.567  1.00  0.00    -0.323 N 
HETATM    7  C   UNL     1      -5.446   0.976 -30.443  1.00  0.00     0.266 A 
HETATM    8  O   UNL     1      -5.547   1.770 -29.519  1.00  0.00    -0.269 OA
HETATM    9  C   UNL     1      -6.425   0.740 -31.651  1.00  0.00     0.199 A 
HETATM   10  C   UNL     1      -3.723  -1.745 -32.126  1.00  0.00     0.031 A 
HETATM   11  C   UNL     1      -4.076  -2.422 -33.297  1.00  0.00     0.009 A 
HETATM   12  H   UNL     1      -3.652  -0.009 -29.902  1.00  0.00     0.169 HD
ENDROOT
BRANCH   9  13
HETATM   13  C   UNL     1      -6.505   1.900 -32.623  1.00  0.00     0.025 A 
HETATM   14  C   UNL     1      -5.423   2.805 -32.946  1.00  0.00     0.003 A 
HETATM   15  C   UNL     1      -5.910   3.754 -33.843  1.00  0.00     0.043 A 
HETATM   16  C   UNL     1      -4.071   2.916 -32.548  1.00  0.00     0.014 A 
HETATM   17  C   UNL     1      -5.129   4.799 -34.355  1.00  0.00     0.030 A 
HETATM   18  N   UNL     1      -7.222   3.443 -34.083  1.00  0.00    -0.359 N 
HETATM   19  C   UNL     1      -3.800   4.882 -33.938  1.00  0.00     0.002 A 
HETATM   20  C   UNL     1      -3.274   3.952 -33.047  1.00  0.00     0.001 A 
HETATM   21  H   UNL     1      -7.822   3.964 -34.707  1.00  0.00     0.166 HD
HETATM   22  C   UNL     1      -7.610   2.348 -33.351  1.00  0.00     0.016 A 
HETATM   23  C   UNL     1      -9.013   1.859 -33.435  1.00  0.00     0.069 C 
ENDBRANCH   9  13
BRANCH   9  24
HETATM   24  O   UNL     1      -7.690   0.282 -31.182  1.00  0.00    -0.371 OA
HETATM   25  H   UNL     1      -8.337   0.509 -31.869  1.00  0.00     0.212 HD
ENDBRANCH   9  24
TORSDOF 2
ENDMDL
MODEL 5
REMARK VINA RESULT:      -7.8      3.097      5.756
REMARK  2 active torsions:
REMARK  status: ('A' for Active; 'I' for Inactive)
REMARK    1  A    between atoms: C_9  and  C_11 
REMARK    2  A    between atoms: C_9  and  O_10 
ROOT
HETATM    1  C   UNL     1      -2.859   4.839 -33.831  1.00  0.00     0.048 C 
HETATM    2  C   UNL     1      -4.181   4.185 -33.548  1.00  0.00    -0.061 A 
HETATM    3  C   UNL     1      -4.252   3.055 -32.720  1.00  0.00     0.020 A 
HETATM    4  C   UNL     1      -5.489   2.461 -32.508  1.00  0.00     0.018 A 
HETATM    5  C   UNL     1      -6.635   2.995 -33.097  1.00  0.00     0.045 A 
HETATM    6  N   UNL     1      -7.754   2.262 -32.733  1.00  0.00    -0.323 N 
HETATM    7  C   UNL     1      -7.419   1.198 -31.892  1.00  0.00     0.266 A 
HETATM    8  O   UNL     1      -8.233   0.419 -31.419  1.00  0.00    -0.269 OA
HETATM    9  C   UNL     1      -5.865   1.264 -31.657  1.00  0.00     0.199 A 
HETATM   10  C   UNL     1      -6.599   4.101 -33.918  1.00  0.00     0.031 A 
HETATM   11  C   UNL     1      -5.355   4.695 -34.145  1.00  0.00     0.009 A 
HETATM   12  H   UNL     1      -8.702   2.444 -33.026  1.00  0.00     0.169 HD
ENDROOT
BRANCH   9  13
HETATM   13  C   UNL     1      -5.101   0.083 -32.221  1.00  0.00     0.025 A 
HETATM   14  C   UNL     1      -5.600  -0.852 -33.206  1.00  0.00     0.003 A 
HETATM   15  C   UNL     1      -4.613  -1.811 -33.426  1.00  0.00     0.043 A 
HETATM   16  C   UNL     1      -6.811  -0.984 -33.923  1.00  0.00     0.014 A 
HETATM   17  C   UNL     1      -4.771  -2.884 -34.314  1.00  0.00     0.030 A 
HETATM   18  N   UNL     1      -3.545  -1.477 -32.637  1.00  0.00    -0.359 N 
HETATM   19  C   UNL     1      -5.979  -2.987 -35.004  1.00  0.00     0.002 A 
HETATM   20  C   UNL     1      -6.988  -2.048 -34.815  1.00  0.00     0.001 A 
HETATM   21  H   UNL     1      -2.681  -2.000 -32.604  1.00  0.00     0.166 HD
HETATM   22  C   UNL     1      -3.817  -0.357 -31.890  1.00  0.00     0.016 A 
HETATM   23  C   UNL     1      -2.801   0.160 -30.933  1.00  0.00     0.069 C 
ENDBRANCH   9  13
BRANCH   9  24
HETATM   24  O   UNL     1      -5.583   1.545 -30.290  1.00  0.00    -0.371 OA
HETATM   25  H   UNL     1      -4.777   2.087 -30.281  1.00  0.00     0.212 HD
ENDBRANCH   9  24
TORSDOF 2
ENDMDL
MODEL 6
REMARK VINA RESULT:      -7.7      2.690      5.757
REMARK  2 active torsions:
REMARK  status: ('A' for Active; 'I' for Inactive)
REMARK    1  A    between atoms: C_9  and  C_11 
REMARK    2  A    between atoms: C_9  and  O_10 
ROOT
HETATM    1  C   UNL     1      -2.616   3.705 -32.952  1.00  0.00     0.048 C 
HETATM    2  C   UNL     1      -4.074   3.428 -32.723  1.00  0.00    -0.061 A 
HETATM    3  C   UNL     1      -4.512   2.130 -32.421  1.00  0.00     0.020 A 
HETATM    4  C   UNL     1      -5.872   1.909 -32.247  1.00  0.00     0.018 A 
HETATM    5  C   UNL     1      -6.774   2.967 -32.354  1.00  0.00     0.045 A 
HETATM    6  N   UNL     1      -8.068   2.526 -32.120  1.00  0.00    -0.323 N 
HETATM    7  C   UNL     1      -8.102   1.155 -31.854  1.00  0.00     0.266 A 
HETATM    8  O   UNL     1      -9.124   0.535 -31.596  1.00  0.00    -0.269 OA
HETATM    9  C   UNL     1      -6.618   0.637 -31.896  1.00  0.00     0.199 A 
HETATM   10  C   UNL     1      -6.378   4.253 -32.652  1.00  0.00     0.031 A 
HETATM   11  C   UNL     1      -5.012   4.478 -32.842  1.00  0.00     0.009 A 
HETATM   12  H   UNL     1      -8.900   3.095 -32.140  1.00  0.00     0.169 HD
ENDROOT
BRANCH   9  13
HETATM   13  C   UNL     1      -6.334  -0.345 -33.015  1.00  0.00     0.025 A 
HETATM   14  C   UNL     1      -5.325  -1.382 -32.991  1.00  0.00     0.003 A 
HETATM   15  C   UNL     1      -5.354  -2.037 -34.221  1.00  0.00     0.043 A 
HETATM   16  C   UNL     1      -4.374  -1.818 -32.041  1.00  0.00     0.014 A 
HETATM   17  C   UNL     1      -4.491  -3.092 -34.549  1.00  0.00     0.030 A 
HETATM   18  N   UNL     1      -6.346  -1.454 -34.964  1.00  0.00    -0.359 N 
HETATM   19  C   UNL     1      -3.561  -3.495 -33.590  1.00  0.00     0.002 A 
HETATM   20  C   UNL     1      -3.503  -2.869 -32.349  1.00  0.00     0.001 A 
HETATM   21  H   UNL     1      -6.593  -1.740 -35.901  1.00  0.00     0.166 HD
HETATM   22  C   UNL     1      -6.937  -0.425 -34.273  1.00  0.00     0.016 A 
HETATM   23  C   UNL     1      -8.020   0.372 -34.912  1.00  0.00     0.069 C 
ENDBRANCH   9  13
BRANCH   9  24
HETATM   24  O   UNL     1      -6.213   0.188 -30.607  1.00  0.00    -0.371 OA
HETATM   25  H   UNL     1      -5.840   0.960 -30.151  1.00  0.00     0.212 HD
ENDBRANCH   9  24
TORSDOF 2
ENDMDL
MODEL 7
REMARK VINA RESULT:      -7.6      3.248      6.113
REMARK  2 active torsions:
REMARK  status: ('A' for Active; 'I' for Inactive)
REMARK    1  A    between atoms: C_9  and  C_11 
REMARK    2  A    between atoms: C_9  and  O_10 
ROOT
HETATM    1  C   UNL     1      -6.813  -0.677 -35.021  1.00  0.00     0.048 C 
HETATM    2  C   UNL     1      -7.379   0.368 -34.102  1.00  0.00    -0.061 A 
HETATM    3  C   UNL     1      -6.820   1.654 -34.057  1.00  0.00     0.020 A 
HETATM    4  C   UNL     1      -7.352   2.581 -33.171  1.00  0.00     0.018 A 
HETATM    5  C   UNL     1      -8.432   2.236 -32.358  1.00  0.00     0.045 A 
HETATM    6  N   UNL     1      -8.813   3.315 -31.575  1.00  0.00    -0.323 N 
HETATM    7  C   UNL     1      -8.007   4.432 -31.813  1.00  0.00     0.266 A 
HETATM    8  O   UNL     1      -8.157   5.512 -31.261  1.00  0.00    -0.269 OA
HETATM    9  C   UNL     1      -6.973   4.028 -32.927  1.00  0.00     0.199 A 
HETATM   10  C   UNL     1      -9.001   0.982 -32.374  1.00  0.00     0.031 A 
HETATM   11  C   UNL     1      -8.461   0.040 -33.255  1.00  0.00     0.009 A 
HETATM   12  H   UNL     1      -9.566   3.324 -30.904  1.00  0.00     0.169 HD
ENDROOT
BRANCH   9  13
HETATM   13  C   UNL     1      -5.531   4.018 -32.461  1.00  0.00     0.025 A 
HETATM   14  C   UNL     1      -4.391   4.465 -33.234  1.00  0.00     0.003 A 
HETATM   15  C   UNL     1      -3.245   4.252 -32.470  1.00  0.00     0.043 A 
HETATM   16  C   UNL     1      -4.224   5.019 -34.523  1.00  0.00     0.014 A 
HETATM   17  C   UNL     1      -1.954   4.558 -32.923  1.00  0.00     0.030 A 
HETATM   18  N   UNL     1      -3.651   3.722 -31.275  1.00  0.00    -0.359 N 
HETATM   19  C   UNL     1      -1.824   5.100 -34.202  1.00  0.00     0.002 A 
HETATM   20  C   UNL     1      -2.943   5.331 -34.994  1.00  0.00     0.001 A 
HETATM   21  H   UNL     1      -3.023   3.476 -30.523  1.00  0.00     0.166 HD
HETATM   22  C   UNL     1      -5.013   3.553 -31.250  1.00  0.00     0.016 A 
HETATM   23  C   UNL     1      -5.665   2.955 -30.052  1.00  0.00     0.069 C 
ENDBRANCH   9  13
BRANCH   9  24
HETATM   24  O   UNL     1      -7.199   4.786 -34.112  1.00  0.00    -0.371 OA
HETATM   25  H   UNL     1      -6.330   5.106 -34.403  1.00  0.00     0.212 HD
ENDBRANCH   9  24
TORSDOF 2
ENDMDL
MODEL 8
REMARK VINA RESULT:      -7.5     15.132     16.662
REMARK  2 active torsions:
REMARK  status: ('A' for Active; 'I' for Inactive)
REMARK    1  A    between atoms: C_9  and  C_11 
REMARK    2  A    between atoms: C_9  and  O_10 
ROOT
HETATM    1  C   UNL     1      -4.848 -13.149 -35.161  1.00  0.00     0.048 C 
HETATM    2  C   UNL     1      -4.360 -13.345 -36.568  1.00  0.00    -0.061 A 
HETATM    3  C   UNL     1      -5.205 -13.078 -37.656  1.00  0.00     0.020 A 
HETATM    4  C   UNL     1      -4.727 -13.302 -38.940  1.00  0.00     0.018 A 
HETATM    5  C   UNL     1      -3.426 -13.766 -39.135  1.00  0.00     0.045 A 
HETATM    6  N   UNL     1      -3.154 -13.893 -40.488  1.00  0.00    -0.323 N 
HETATM    7  C   UNL     1      -4.256 -13.533 -41.269  1.00  0.00     0.266 A 
HETATM    8  O   UNL     1      -4.258 -13.541 -42.491  1.00  0.00    -0.269 OA
HETATM    9  C   UNL     1      -5.396 -13.083 -40.283  1.00  0.00     0.199 A 
HETATM   10  C   UNL     1      -2.572 -14.040 -38.089  1.00  0.00     0.031 A 
HETATM   11  C   UNL     1      -3.053 -13.830 -36.793  1.00  0.00     0.009 A 
HETATM   12  H   UNL     1      -2.286 -14.211 -40.891  1.00  0.00     0.169 HD
ENDROOT
BRANCH   9  13
HETATM   13  C   UNL     1      -6.619 -13.977 -40.300  1.00  0.00     0.025 A 
HETATM   14  C   UNL     1      -7.994 -13.525 -40.263  1.00  0.00     0.003 A 
HETATM   15  C   UNL     1      -8.816 -14.651 -40.250  1.00  0.00     0.043 A 
HETATM   16  C   UNL     1      -8.621 -12.259 -40.223  1.00  0.00     0.014 A 
HETATM   17  C   UNL     1     -10.214 -14.580 -40.197  1.00  0.00     0.030 A 
HETATM   18  N   UNL     1      -7.996 -15.747 -40.300  1.00  0.00    -0.359 N 
HETATM   19  C   UNL     1     -10.801 -13.314 -40.156  1.00  0.00     0.002 A 
HETATM   20  C   UNL     1     -10.016 -12.166 -40.171  1.00  0.00     0.001 A 
HETATM   21  H   UNL     1      -8.328 -16.701 -40.311  1.00  0.00     0.166 HD
HETATM   22  C   UNL     1      -6.675 -15.373 -40.311  1.00  0.00     0.016 A 
HETATM   23  C   UNL     1      -5.610 -16.412 -40.328  1.00  0.00     0.069 C 
ENDBRANCH   9  13
BRANCH   9  24
HETATM   24  O   UNL     1      -5.680 -11.698 -40.453  1.00  0.00    -0.371 OA
HETATM   25  H   UNL     1      -5.893 -11.351 -39.572  1.00  0.00     0.212 HD
ENDBRANCH   9  24
TORSDOF 2
ENDMDL
MODEL 9
REMARK VINA RESULT:      -7.2      2.963      5.810
REMARK  2 active torsions:
REMARK  status: ('A' for Active; 'I' for Inactive)
REMARK    1  A    between atoms: C_9  and  C_11 
REMARK    2  A    between atoms: C_9  and  O_10 
ROOT
HETATM    1  C   UNL     1      -9.924   1.294 -34.303  1.00  0.00     0.048 C 
HETATM    2  C   UNL     1      -8.563   0.800 -33.906  1.00  0.00    -0.061 A 
HETATM    3  C   UNL     1      -7.991   1.193 -32.688  1.00  0.00     0.020 A 
HETATM    4  C   UNL     1      -6.717   0.740 -32.372  1.00  0.00     0.018 A 
HETATM    5  C   UNL     1      -6.035  -0.105 -33.249  1.00  0.00     0.045 A 
HETATM    6  N   UNL     1      -4.799  -0.451 -32.725  1.00  0.00    -0.323 N 
HETATM    7  C   UNL     1      -4.583   0.147 -31.480  1.00  0.00     0.266 A 
HETATM    8  O   UNL     1      -3.577  -0.021 -30.807  1.00  0.00    -0.269 OA
HETATM    9  C   UNL     1      -5.873   0.979 -31.136  1.00  0.00     0.199 A 
HETATM   10  C   UNL     1      -6.567  -0.507 -34.454  1.00  0.00     0.031 A 
HETATM   11  C   UNL     1      -7.843  -0.043 -34.783  1.00  0.00     0.009 A 
HETATM   12  H   UNL     1      -4.116  -1.050 -33.164  1.00  0.00     0.169 HD
ENDROOT
BRANCH   9  13
HETATM   13  C   UNL     1      -5.645   2.475 -31.059  1.00  0.00     0.025 A 
HETATM   14  C   UNL     1      -4.546   3.193 -31.669  1.00  0.00     0.003 A 
HETATM   15  C   UNL     1      -4.672   4.539 -31.331  1.00  0.00     0.043 A 
HETATM   16  C   UNL     1      -3.441   2.821 -32.469  1.00  0.00     0.014 A 
HETATM   17  C   UNL     1      -3.762   5.522 -31.742  1.00  0.00     0.030 A 
HETATM   18  N   UNL     1      -5.804   4.657 -30.569  1.00  0.00    -0.359 N 
HETATM   19  C   UNL     1      -2.681   5.121 -32.528  1.00  0.00     0.002 A 
HETATM   20  C   UNL     1      -2.521   3.787 -32.890  1.00  0.00     0.001 A 
HETATM   21  H   UNL     1      -6.142   5.531 -30.191  1.00  0.00     0.166 HD
HETATM   22  C   UNL     1      -6.396   3.433 -30.374  1.00  0.00     0.016 A 
HETATM   23  C   UNL     1      -7.624   3.328 -29.541  1.00  0.00     0.069 C 
ENDBRANCH   9  13
BRANCH   9  24
HETATM   24  O   UNL     1      -6.529   0.428 -29.998  1.00  0.00    -0.371 OA
HETATM   25  H   UNL     1      -7.444   0.248 -30.269  1.00  0.00     0.212 HD
ENDBRANCH   9  24
TORSDOF 2
ENDMDL
MODEL 10
REMARK VINA RESULT:      -7.2      6.938      9.190
REMARK  2 active torsions:
REMARK  status: ('A' for Active; 'I' for Inactive)
REMARK    1  A    between atoms: C_9  and  C_11 
REMARK    2  A    between atoms: C_9  and  O_10 
ROOT
HETATM    1  C   UNL     1      -0.953   6.727 -26.923  1.00  0.00     0.048 C 
HETATM    2  C   UNL     1      -0.758   6.828 -28.408  1.00  0.00    -0.061 A 
HETATM    3  C   UNL     1      -1.786   7.313 -29.229  1.00  0.00     0.020 A 
HETATM    4  C   UNL     1      -1.577   7.362 -30.601  1.00  0.00     0.018 A 
HETATM    5  C   UNL     1      -0.359   6.949 -31.141  1.00  0.00     0.045 A 
HETATM    6  N   UNL     1      -0.361   7.105 -32.518  1.00  0.00    -0.323 N 
HETATM    7  C   UNL     1      -1.578   7.618 -32.974  1.00  0.00     0.266 A 
HETATM    8  O   UNL     1      -1.819   7.864 -34.147  1.00  0.00    -0.269 OA
HETATM    9  C   UNL     1      -2.485   7.853 -31.711  1.00  0.00     0.199 A 
HETATM   10  C   UNL     1       0.671   6.464 -30.363  1.00  0.00     0.031 A 
HETATM   11  C   UNL     1       0.460   6.401 -28.983  1.00  0.00     0.009 A 
HETATM   12  H   UNL     1       0.399   6.879 -33.141  1.00  0.00     0.169 HD
ENDROOT
BRANCH   9  13
HETATM   13  C   UNL     1      -3.724   6.981 -31.665  1.00  0.00     0.025 A 
HETATM   14  C   UNL     1      -3.768   5.563 -31.954  1.00  0.00     0.003 A 
HETATM   15  C   UNL     1      -5.093   5.144 -31.843  1.00  0.00     0.043 A 
HETATM   16  C   UNL     1      -2.805   4.595 -32.316  1.00  0.00     0.014 A 
HETATM   17  C   UNL     1      -5.502   3.824 -32.074  1.00  0.00     0.030 A 
HETATM   18  N   UNL     1      -5.832   6.239 -31.481  1.00  0.00    -0.359 N 
HETATM   19  C   UNL     1      -4.526   2.893 -32.434  1.00  0.00     0.002 A 
HETATM   20  C   UNL     1      -3.192   3.271 -32.552  1.00  0.00     0.001 A 
HETATM   21  H   UNL     1      -6.829   6.220 -31.322  1.00  0.00     0.166 HD
HETATM   22  C   UNL     1      -5.040   7.357 -31.386  1.00  0.00     0.016 A 
HETATM   23  C   UNL     1      -5.649   8.670 -31.039  1.00  0.00     0.069 C 
ENDBRANCH   9  13
BRANCH   9  24
HETATM   24  O   UNL     1      -2.741   9.243 -31.536  1.00  0.00    -0.371 OA
HETATM   25  H   UNL     1      -3.503   9.455 -32.100  1.00  0.00     0.212 HD
ENDBRANCH   9  24
TORSDOF 2
ENDMDL
