MODEL 1
REMARK VINA RESULT:      -8.5      0.000      0.000
REMARK  4 active torsions:
REMARK  status: ('A' for Active; 'I' for Inactive)
REMARK    1  A    between atoms: O_2  and  C_3 
REMARK    2  A    between atoms: C_5  and  N_6 
REMARK    3  A    between atoms: C_10  and  C_11 
REMARK    4  A    between atoms: C_22  and  O_23 
ROOT
HETATM    1  N   UNL     1      -3.383   3.951 -31.881  1.00  0.00    -0.315 N 
HETATM    2  C   UNL     1      -4.458   3.803 -30.993  1.00  0.00     0.225 C 
HETATM    3  O   UNL     1      -5.054   4.658 -30.356  1.00  0.00    -0.273 OA
HETATM    4  C   UNL     1      -4.833   2.338 -30.965  1.00  0.00     0.117 C 
HETATM    5  C   UNL     1      -3.537   1.686 -31.413  1.00  0.00     0.082 C 
HETATM    6  C   UNL     1      -3.030   2.671 -32.457  1.00  0.00     0.145 C 
ENDROOT
BRANCH   1   7
HETATM    7  C   UNL     1      -2.673   5.153 -32.166  1.00  0.00     0.073 A 
HETATM    8  C   UNL     1      -1.543   5.490 -31.397  1.00  0.00     0.069 A 
HETATM    9  C   UNL     1      -0.763   6.610 -31.699  1.00  0.00     0.070 A 
HETATM   10  C   UNL     1      -1.135   7.442 -32.752  1.00  0.00     0.039 A 
HETATM   11  C   UNL     1      -2.261   7.146 -33.515  1.00  0.00     0.042 A 
HETATM   12  C   UNL     1      -3.037   6.018 -33.221  1.00  0.00     0.095 A 
BRANCH   9  13
HETATM   13  O   UNL     1       0.380   6.986 -31.047  1.00  0.00    -0.356 OA
HETATM   14  C   UNL     1       0.341   6.932 -29.626  1.00  0.00     0.210 C 
ENDBRANCH   9  13
BRANCH  12  15
HETATM   15  O   UNL     1      -4.146   5.739 -33.979  1.00  0.00    -0.354 OA
HETATM   16  C   UNL     1      -3.832   5.200 -35.263  1.00  0.00     0.210 C 
ENDBRANCH  12  15
ENDBRANCH   1   7
BRANCH   5  17
HETATM   17  C   UNL     1      -3.694   0.297 -31.913  1.00  0.00     0.111 A 
HETATM   18  N   UNL     1      -4.331  -0.093 -32.997  1.00  0.00    -0.233 NA
HETATM   19  C   UNL     1      -4.112  -1.447 -33.092  1.00  0.00     0.085 A 
HETATM   20  C   UNL     1      -3.345  -1.899 -32.024  1.00  0.00     0.062 A 
HETATM   21  C   UNL     1      -4.525  -2.359 -34.072  1.00  0.00     0.034 A 
HETATM   22  N   UNL     1      -3.113  -0.774 -31.277  1.00  0.00    -0.342 N 
HETATM   23  C   UNL     1      -2.954  -3.229 -31.868  1.00  0.00     0.032 A 
HETATM   24  H   UNL     1      -2.569  -0.736 -30.427  1.00  0.00     0.167 HD
HETATM   25  C   UNL     1      -3.369  -4.125 -32.860  1.00  0.00     0.002 A 
HETATM   26  C   UNL     1      -4.141  -3.701 -33.944  1.00  0.00     0.002 A 
ENDBRANCH   5  17
TORSDOF 4
ENDMDL
MODEL 2
REMARK VINA RESULT:      -8.4      1.184      1.524
REMARK  4 active torsions:
REMARK  status: ('A' for Active; 'I' for Inactive)
REMARK    1  A    between atoms: O_2  and  C_3 
REMARK    2  A    between atoms: C_5  and  N_6 
REMARK    3  A    between atoms: C_10  and  C_11 
REMARK    4  A    between atoms: C_22  and  O_23 
ROOT
HETATM    1  N   UNL     1      -3.660   3.885 -31.978  1.00  0.00    -0.315 N 
HETATM    2  C   UNL     1      -4.738   3.889 -31.081  1.00  0.00     0.225 C 
HETATM    3  O   UNL     1      -5.108   4.775 -30.325  1.00  0.00    -0.273 OA
HETATM    4  C   UNL     1      -5.459   2.567 -31.223  1.00  0.00     0.117 C 
HETATM    5  C   UNL     1      -4.361   1.683 -31.789  1.00  0.00     0.082 C 
HETATM    6  C   UNL     1      -3.630   2.642 -32.719  1.00  0.00     0.145 C 
ENDROOT
BRANCH   1   7
HETATM    7  C   UNL     1      -2.679   4.906 -32.134  1.00  0.00     0.073 A 
HETATM    8  C   UNL     1      -1.544   4.910 -31.300  1.00  0.00     0.069 A 
HETATM    9  C   UNL     1      -0.512   5.837 -31.478  1.00  0.00     0.070 A 
HETATM   10  C   UNL     1      -0.626   6.810 -32.468  1.00  0.00     0.039 A 
HETATM   11  C   UNL     1      -1.748   6.844 -33.292  1.00  0.00     0.042 A 
HETATM   12  C   UNL     1      -2.777   5.909 -33.123  1.00  0.00     0.095 A 
BRANCH   9  13
HETATM   13  O   UNL     1       0.650   5.886 -30.758  1.00  0.00    -0.356 OA
HETATM   14  C   UNL     1       0.778   4.939 -29.703  1.00  0.00     0.210 C 
ENDBRANCH   9  13
BRANCH  12  15
HETATM   15  O   UNL     1      -3.879   5.956 -33.939  1.00  0.00    -0.354 OA
HETATM   16  C   UNL     1      -3.668   5.337 -35.207  1.00  0.00     0.210 C 
ENDBRANCH  12  15
ENDBRANCH   1   7
BRANCH   5  17
HETATM   17  C   UNL     1      -4.853   0.450 -32.452  1.00  0.00     0.111 A 
HETATM   18  N   UNL     1      -6.100   0.136 -32.728  1.00  0.00    -0.233 NA
HETATM   19  C   UNL     1      -6.041  -1.044 -33.432  1.00  0.00     0.085 A 
HETATM   20  C   UNL     1      -4.727  -1.474 -33.565  1.00  0.00     0.062 A 
HETATM   21  C   UNL     1      -7.071  -1.804 -34.003  1.00  0.00     0.034 A 
HETATM   22  N   UNL     1      -3.992  -0.519 -32.913  1.00  0.00    -0.342 N 
HETATM   23  C   UNL     1      -4.364  -2.637 -34.247  1.00  0.00     0.032 A 
HETATM   24  H   UNL     1      -2.986  -0.509 -32.826  1.00  0.00     0.167 HD
HETATM   25  C   UNL     1      -5.404  -3.379 -34.817  1.00  0.00     0.002 A 
HETATM   26  C   UNL     1      -6.736  -2.973 -34.700  1.00  0.00     0.002 A 
ENDBRANCH   5  17
TORSDOF 4
ENDMDL
MODEL 3
REMARK VINA RESULT:      -8.4      2.937      7.958
REMARK  4 active torsions:
REMARK  status: ('A' for Active; 'I' for Inactive)
REMARK    1  A    between atoms: O_2  and  C_3 
REMARK    2  A    between atoms: C_5  and  N_6 
REMARK    3  A    between atoms: C_10  and  C_11 
REMARK    4  A    between atoms: C_22  and  O_23 
ROOT
HETATM    1  N   UNL     1      -4.897   0.872 -32.358  1.00  0.00    -0.315 N 
HETATM    2  C   UNL     1      -5.738   1.325 -31.331  1.00  0.00     0.225 C 
HETATM    3  O   UNL     1      -6.774   0.833 -30.911  1.00  0.00    -0.273 OA
HETATM    4  C   UNL     1      -5.115   2.572 -30.744  1.00  0.00     0.117 C 
HETATM    5  C   UNL     1      -4.250   3.050 -31.897  1.00  0.00     0.082 C 
HETATM    6  C   UNL     1      -3.743   1.738 -32.479  1.00  0.00     0.145 C 
ENDROOT
BRANCH   1   7
HETATM    7  C   UNL     1      -5.128  -0.238 -33.220  1.00  0.00     0.073 A 
HETATM    8  C   UNL     1      -4.337  -1.395 -33.090  1.00  0.00     0.069 A 
HETATM    9  C   UNL     1      -4.589  -2.541 -33.851  1.00  0.00     0.070 A 
HETATM   10  C   UNL     1      -5.612  -2.526 -34.796  1.00  0.00     0.039 A 
HETATM   11  C   UNL     1      -6.396  -1.388 -34.963  1.00  0.00     0.042 A 
HETATM   12  C   UNL     1      -6.152  -0.243 -34.193  1.00  0.00     0.095 A 
BRANCH   9  13
HETATM   13  O   UNL     1      -3.914  -3.727 -33.756  1.00  0.00    -0.356 OA
HETATM   14  C   UNL     1      -4.593  -4.879 -34.244  1.00  0.00     0.210 C 
ENDBRANCH   9  13
BRANCH  12  15
HETATM   15  O   UNL     1      -6.930   0.873 -34.370  1.00  0.00    -0.354 OA
HETATM   16  C   UNL     1      -8.328   0.612 -34.253  1.00  0.00     0.210 C 
ENDBRANCH  12  15
ENDBRANCH   1   7
BRANCH   5  17
HETATM   17  C   UNL     1      -3.176   3.995 -31.503  1.00  0.00     0.111 A 
HETATM   18  N   UNL     1      -1.897   3.919 -31.801  1.00  0.00    -0.233 NA
HETATM   19  C   UNL     1      -1.329   5.068 -31.305  1.00  0.00     0.085 A 
HETATM   20  C   UNL     1      -2.280   5.853 -30.664  1.00  0.00     0.062 A 
HETATM   21  C   UNL     1      -0.004   5.520 -31.375  1.00  0.00     0.034 A 
HETATM   22  N   UNL     1      -3.442   5.137 -30.783  1.00  0.00    -0.342 N 
HETATM   23  C   UNL     1      -1.991   7.086 -30.077  1.00  0.00     0.032 A 
HETATM   24  H   UNL     1      -4.347   5.423 -30.438  1.00  0.00     0.167 HD
HETATM   25  C   UNL     1      -0.665   7.525 -30.163  1.00  0.00     0.002 A 
HETATM   26  C   UNL     1       0.315   6.758 -30.800  1.00  0.00     0.002 A 
ENDBRANCH   5  17
TORSDOF 4
ENDMDL
MODEL 4
REMARK VINA RESULT:      -8.0      5.895      7.229
REMARK  4 active torsions:
REMARK  status: ('A' for Active; 'I' for Inactive)
REMARK    1  A    between atoms: O_2  and  C_3 
REMARK    2  A    between atoms: C_5  and  N_6 
REMARK    3  A    between atoms: C_10  and  C_11 
REMARK    4  A    between atoms: C_22  and  O_23 
ROOT
HETATM    1  N   UNL     1      -9.296   1.922 -33.487  1.00  0.00    -0.315 N 
HETATM    2  C   UNL     1      -8.983   1.773 -32.127  1.00  0.00     0.225 C 
HETATM    3  O   UNL     1      -9.422   2.384 -31.165  1.00  0.00    -0.273 OA
HETATM    4  C   UNL     1      -7.990   0.639 -32.005  1.00  0.00     0.117 C 
HETATM    5  C   UNL     1      -7.377   0.623 -33.396  1.00  0.00     0.082 C 
HETATM    6  C   UNL     1      -8.578   0.942 -34.275  1.00  0.00     0.145 C 
ENDROOT
BRANCH   1   7
HETATM    7  C   UNL     1     -10.144   2.910 -34.062  1.00  0.00     0.073 A 
HETATM    8  C   UNL     1      -9.582   4.095 -34.573  1.00  0.00     0.069 A 
HETATM    9  C   UNL     1     -10.365   5.051 -35.228  1.00  0.00     0.070 A 
HETATM   10  C   UNL     1     -11.739   4.855 -35.337  1.00  0.00     0.039 A 
HETATM   11  C   UNL     1     -12.326   3.703 -34.821  1.00  0.00     0.042 A 
HETATM   12  C   UNL     1     -11.542   2.739 -34.174  1.00  0.00     0.095 A 
BRANCH   9  13
HETATM   13  O   UNL     1      -9.903   6.203 -35.805  1.00  0.00    -0.356 OA
HETATM   14  C   UNL     1     -10.745   7.345 -35.692  1.00  0.00     0.210 C 
ENDBRANCH   9  13
BRANCH  12  15
HETATM   15  O   UNL     1     -12.133   1.610 -33.667  1.00  0.00    -0.354 OA
HETATM   16  C   UNL     1     -13.069   1.012 -34.563  1.00  0.00     0.210 C 
ENDBRANCH  12  15
ENDBRANCH   1   7
BRANCH   5  17
HETATM   17  C   UNL     1      -6.689  -0.645 -33.743  1.00  0.00     0.111 A 
HETATM   18  N   UNL     1      -5.434  -0.963 -33.506  1.00  0.00    -0.233 NA
HETATM   19  C   UNL     1      -5.296  -2.268 -33.915  1.00  0.00     0.085 A 
HETATM   20  C   UNL     1      -6.489  -2.750 -34.440  1.00  0.00     0.062 A 
HETATM   21  C   UNL     1      -4.183  -3.117 -33.857  1.00  0.00     0.034 A 
HETATM   22  N   UNL     1      -7.352  -1.690 -34.342  1.00  0.00    -0.342 N 
HETATM   23  C   UNL     1      -6.648  -4.050 -34.921  1.00  0.00     0.032 A 
HETATM   24  H   UNL     1      -8.323  -1.695 -34.622  1.00  0.00     0.167 HD
HETATM   25  C   UNL     1      -5.527  -4.886 -34.848  1.00  0.00     0.002 A 
HETATM   26  C   UNL     1      -4.314  -4.430 -34.325  1.00  0.00     0.002 A 
ENDBRANCH   5  17
TORSDOF 4
ENDMDL
MODEL 5
REMARK VINA RESULT:      -7.9      5.414      7.877
REMARK  4 active torsions:
REMARK  status: ('A' for Active; 'I' for Inactive)
REMARK    1  A    between atoms: O_2  and  C_3 
REMARK    2  A    between atoms: C_5  and  N_6 
REMARK    3  A    between atoms: C_10  and  C_11 
REMARK    4  A    between atoms: C_22  and  O_23 
ROOT
HETATM    1  N   UNL     1      -8.931   1.553 -33.792  1.00  0.00    -0.315 N 
HETATM    2  C   UNL     1      -7.761   2.275 -34.068  1.00  0.00     0.225 C 
HETATM    3  O   UNL     1      -7.601   3.484 -34.143  1.00  0.00    -0.273 OA
HETATM    4  C   UNL     1      -6.633   1.279 -34.224  1.00  0.00     0.117 C 
HETATM    5  C   UNL     1      -7.393   0.019 -34.601  1.00  0.00     0.082 C 
HETATM    6  C   UNL     1      -8.645   0.135 -33.743  1.00  0.00     0.145 C 
ENDROOT
BRANCH   1   7
HETATM    7  C   UNL     1     -10.242   2.087 -33.633  1.00  0.00     0.073 A 
HETATM    8  C   UNL     1     -11.281   1.637 -34.470  1.00  0.00     0.069 A 
HETATM    9  C   UNL     1     -12.600   2.064 -34.289  1.00  0.00     0.070 A 
HETATM   10  C   UNL     1     -12.891   2.991 -33.292  1.00  0.00     0.039 A 
HETATM   11  C   UNL     1     -11.880   3.471 -32.464  1.00  0.00     0.042 A 
HETATM   12  C   UNL     1     -10.559   3.036 -32.636  1.00  0.00     0.095 A 
BRANCH   9  13
HETATM   13  O   UNL     1     -13.682   1.642 -35.013  1.00  0.00    -0.356 OA
HETATM   14  C   UNL     1     -14.696   0.956 -34.286  1.00  0.00     0.210 C 
ENDBRANCH   9  13
BRANCH  12  15
HETATM   15  O   UNL     1      -9.572   3.519 -31.816  1.00  0.00    -0.354 OA
HETATM   16  C   UNL     1      -9.631   2.992 -30.491  1.00  0.00     0.210 C 
ENDBRANCH  12  15
ENDBRANCH   1   7
BRANCH   5  17
HETATM   17  C   UNL     1      -6.630  -1.237 -34.395  1.00  0.00     0.111 A 
HETATM   18  N   UNL     1      -6.932  -2.437 -34.843  1.00  0.00    -0.233 NA
HETATM   19  C   UNL     1      -5.878  -3.245 -34.486  1.00  0.00     0.085 A 
HETATM   20  C   UNL     1      -4.921  -2.526 -33.780  1.00  0.00     0.062 A 
HETATM   21  C   UNL     1      -5.659  -4.605 -34.744  1.00  0.00     0.034 A 
HETATM   22  N   UNL     1      -5.435  -1.257 -33.715  1.00  0.00    -0.342 N 
HETATM   23  C   UNL     1      -3.735  -3.086 -33.304  1.00  0.00     0.032 A 
HETATM   24  H   UNL     1      -4.987  -0.464 -33.278  1.00  0.00     0.167 HD
HETATM   25  C   UNL     1      -3.530  -4.444 -33.577  1.00  0.00     0.002 A 
HETATM   26  C   UNL     1      -4.474  -5.193 -34.284  1.00  0.00     0.002 A 
ENDBRANCH   5  17
TORSDOF 4
ENDMDL
MODEL 6
REMARK VINA RESULT:      -7.5      1.835      2.767
REMARK  4 active torsions:
REMARK  status: ('A' for Active; 'I' for Inactive)
REMARK    1  A    between atoms: O_2  and  C_3 
REMARK    2  A    between atoms: C_5  and  N_6 
REMARK    3  A    between atoms: C_10  and  C_11 
REMARK    4  A    between atoms: C_22  and  O_23 
ROOT
HETATM    1  N   UNL     1      -3.118   5.015 -31.771  1.00  0.00    -0.315 N 
HETATM    2  C   UNL     1      -4.413   5.489 -32.027  1.00  0.00     0.225 C 
HETATM    3  O   UNL     1      -4.852   6.624 -31.926  1.00  0.00    -0.273 OA
HETATM    4  C   UNL     1      -5.239   4.324 -32.525  1.00  0.00     0.117 C 
HETATM    5  C   UNL     1      -4.476   3.143 -31.948  1.00  0.00     0.082 C 
HETATM    6  C   UNL     1      -3.031   3.604 -32.083  1.00  0.00     0.145 C 
ENDROOT
BRANCH   1   7
HETATM    7  C   UNL     1      -2.031   5.759 -31.230  1.00  0.00     0.073 A 
HETATM    8  C   UNL     1      -2.057   6.140 -29.875  1.00  0.00     0.069 A 
HETATM    9  C   UNL     1      -0.972   6.791 -29.279  1.00  0.00     0.070 A 
HETATM   10  C   UNL     1       0.141   7.115 -30.050  1.00  0.00     0.039 A 
HETATM   11  C   UNL     1       0.186   6.770 -31.398  1.00  0.00     0.042 A 
HETATM   12  C   UNL     1      -0.896   6.109 -31.994  1.00  0.00     0.095 A 
BRANCH   9  13
HETATM   13  O   UNL     1      -0.881   7.150 -27.962  1.00  0.00    -0.356 OA
HETATM   14  C   UNL     1      -0.205   6.236 -27.106  1.00  0.00     0.210 C 
ENDBRANCH   9  13
BRANCH  12  15
HETATM   15  O   UNL     1      -0.841   5.778 -33.324  1.00  0.00    -0.354 OA
HETATM   16  C   UNL     1      -1.469   6.739 -34.171  1.00  0.00     0.210 C 
ENDBRANCH  12  15
ENDBRANCH   1   7
BRANCH   5  17
HETATM   17  C   UNL     1      -4.765   1.848 -32.611  1.00  0.00     0.111 A 
HETATM   18  N   UNL     1      -4.053   0.743 -32.549  1.00  0.00    -0.233 NA
HETATM   19  C   UNL     1      -4.774  -0.205 -33.234  1.00  0.00     0.085 A 
HETATM   20  C   UNL     1      -5.943   0.341 -33.751  1.00  0.00     0.062 A 
HETATM   21  C   UNL     1      -4.502  -1.563 -33.447  1.00  0.00     0.034 A 
HETATM   22  N   UNL     1      -5.902   1.654 -33.361  1.00  0.00    -0.342 N 
HETATM   23  C   UNL     1      -6.878  -0.394 -34.481  1.00  0.00     0.032 A 
HETATM   24  H   UNL     1      -6.609   2.348 -33.556  1.00  0.00     0.167 HD
HETATM   25  C   UNL     1      -6.593  -1.750 -34.678  1.00  0.00     0.002 A 
HETATM   26  C   UNL     1      -5.427  -2.328 -34.171  1.00  0.00     0.002 A 
ENDBRANCH   5  17
TORSDOF 4
ENDMDL
MODEL 7
REMARK VINA RESULT:      -7.3      2.961      7.983
REMARK  4 active torsions:
REMARK  status: ('A' for Active; 'I' for Inactive)
REMARK    1  A    between atoms: O_2  and  C_3 
REMARK    2  A    between atoms: C_5  and  N_6 
REMARK    3  A    between atoms: C_10  and  C_11 
REMARK    4  A    between atoms: C_22  and  O_23 
ROOT
HETATM    1  N   UNL     1      -5.014   3.440 -32.501  1.00  0.00    -0.315 N 
HETATM    2  C   UNL     1      -4.940   4.394 -33.526  1.00  0.00     0.225 C 
HETATM    3  O   UNL     1      -5.609   4.484 -34.544  1.00  0.00    -0.273 OA
HETATM    4  C   UNL     1      -3.872   5.395 -33.146  1.00  0.00     0.117 C 
HETATM    5  C   UNL     1      -3.018   4.578 -32.192  1.00  0.00     0.082 C 
HETATM    6  C   UNL     1      -4.065   3.755 -31.454  1.00  0.00     0.145 C 
ENDROOT
BRANCH   1   7
HETATM    7  C   UNL     1      -5.843   2.282 -32.474  1.00  0.00     0.073 A 
HETATM    8  C   UNL     1      -5.397   1.095 -33.087  1.00  0.00     0.069 A 
HETATM    9  C   UNL     1      -6.136  -0.089 -33.006  1.00  0.00     0.070 A 
HETATM   10  C   UNL     1      -7.363  -0.090 -32.347  1.00  0.00     0.039 A 
HETATM   11  C   UNL     1      -7.839   1.075 -31.752  1.00  0.00     0.042 A 
HETATM   12  C   UNL     1      -7.095   2.260 -31.823  1.00  0.00     0.095 A 
BRANCH   9  13
HETATM   13  O   UNL     1      -5.760  -1.301 -33.518  1.00  0.00    -0.356 OA
HETATM   14  C   UNL     1      -6.651  -1.891 -34.459  1.00  0.00     0.210 C 
ENDBRANCH   9  13
BRANCH  12  15
HETATM   15  O   UNL     1      -7.578   3.402 -31.234  1.00  0.00    -0.354 OA
HETATM   16  C   UNL     1      -7.565   3.351 -29.809  1.00  0.00     0.210 C 
ENDBRANCH  12  15
ENDBRANCH   1   7
BRANCH   5  17
HETATM   17  C   UNL     1      -2.148   5.390 -31.305  1.00  0.00     0.111 A 
HETATM   18  N   UNL     1      -2.288   6.662 -30.996  1.00  0.00    -0.233 NA
HETATM   19  C   UNL     1      -1.309   6.931 -30.071  1.00  0.00     0.085 A 
HETATM   20  C   UNL     1      -0.534   5.803 -29.829  1.00  0.00     0.062 A 
HETATM   21  C   UNL     1      -1.026   8.117 -29.379  1.00  0.00     0.034 A 
HETATM   22  N   UNL     1      -1.073   4.844 -30.644  1.00  0.00    -0.342 N 
HETATM   23  C   UNL     1       0.527   5.779 -28.922  1.00  0.00     0.032 A 
HETATM   24  H   UNL     1      -0.759   3.886 -30.712  1.00  0.00     0.167 HD
HETATM   25  C   UNL     1       0.790   6.970 -28.234  1.00  0.00     0.002 A 
HETATM   26  C   UNL     1       0.029   8.121 -28.456  1.00  0.00     0.002 A 
ENDBRANCH   5  17
TORSDOF 4
ENDMDL
MODEL 8
REMARK VINA RESULT:      -7.2      2.019      3.094
REMARK  4 active torsions:
REMARK  status: ('A' for Active; 'I' for Inactive)
REMARK    1  A    between atoms: O_2  and  C_3 
REMARK    2  A    between atoms: C_5  and  N_6 
REMARK    3  A    between atoms: C_10  and  C_11 
REMARK    4  A    between atoms: C_22  and  O_23 
ROOT
HETATM    1  N   UNL     1      -3.887   4.675 -31.245  1.00  0.00    -0.315 N 
HETATM    2  C   UNL     1      -4.868   4.311 -30.312  1.00  0.00     0.225 C 
HETATM    3  O   UNL     1      -5.323   4.957 -29.381  1.00  0.00    -0.273 OA
HETATM    4  C   UNL     1      -5.352   2.924 -30.671  1.00  0.00     0.117 C 
HETATM    5  C   UNL     1      -4.167   2.383 -31.453  1.00  0.00     0.082 C 
HETATM    6  C   UNL     1      -3.699   3.615 -32.214  1.00  0.00     0.145 C 
ENDROOT
BRANCH   1   7
HETATM    7  C   UNL     1      -3.119   5.874 -31.249  1.00  0.00     0.073 A 
HETATM    8  C   UNL     1      -3.763   7.109 -31.456  1.00  0.00     0.069 A 
HETATM    9  C   UNL     1      -3.065   8.318 -31.376  1.00  0.00     0.070 A 
HETATM   10  C   UNL     1      -1.693   8.304 -31.136  1.00  0.00     0.039 A 
HETATM   11  C   UNL     1      -1.026   7.097 -30.951  1.00  0.00     0.042 A 
HETATM   12  C   UNL     1      -1.726   5.885 -31.019  1.00  0.00     0.095 A 
BRANCH   9  13
HETATM   13  O   UNL     1      -3.611   9.566 -31.506  1.00  0.00    -0.356 OA
HETATM   14  C   UNL     1      -4.804   9.811 -30.768  1.00  0.00     0.210 C 
ENDBRANCH   9  13
BRANCH  12  15
HETATM   15  O   UNL     1      -1.056   4.702 -30.838  1.00  0.00    -0.354 OA
HETATM   16  C   UNL     1       0.212   4.863 -30.203  1.00  0.00     0.210 C 
ENDBRANCH  12  15
ENDBRANCH   1   7
BRANCH   5  17
HETATM   17  C   UNL     1      -4.487   1.219 -32.317  1.00  0.00     0.111 A 
HETATM   18  N   UNL     1      -3.771   0.127 -32.482  1.00  0.00    -0.233 NA
HETATM   19  C   UNL     1      -4.524  -0.694 -33.288  1.00  0.00     0.085 A 
HETATM   20  C   UNL     1      -5.717  -0.077 -33.645  1.00  0.00     0.062 A 
HETATM   21  C   UNL     1      -4.261  -1.991 -33.747  1.00  0.00     0.034 A 
HETATM   22  N   UNL     1      -5.658   1.148 -33.034  1.00  0.00    -0.342 N 
HETATM   23  C   UNL     1      -6.685  -0.682 -34.447  1.00  0.00     0.032 A 
HETATM   24  H   UNL     1      -6.375   1.858 -33.072  1.00  0.00     0.167 HD
HETATM   25  C   UNL     1      -6.408  -1.981 -34.891  1.00  0.00     0.002 A 
HETATM   26  C   UNL     1      -5.218  -2.627 -34.549  1.00  0.00     0.002 A 
ENDBRANCH   5  17
TORSDOF 4
ENDMDL
MODEL 9
REMARK VINA RESULT:      -7.2      2.100      3.182
REMARK  4 active torsions:
REMARK  status: ('A' for Active; 'I' for Inactive)
REMARK    1  A    between atoms: O_2  and  C_3 
REMARK    2  A    between atoms: C_5  and  N_6 
REMARK    3  A    between atoms: C_10  and  C_11 
REMARK    4  A    between atoms: C_22  and  O_23 
ROOT
HETATM    1  N   UNL     1      -5.227   4.061 -32.949  1.00  0.00    -0.315 N 
HETATM    2  C   UNL     1      -6.354   3.991 -33.781  1.00  0.00     0.225 C 
HETATM    3  O   UNL     1      -7.074   4.893 -34.179  1.00  0.00    -0.273 OA
HETATM    4  C   UNL     1      -6.539   2.544 -34.181  1.00  0.00     0.117 C 
HETATM    5  C   UNL     1      -5.823   1.823 -33.052  1.00  0.00     0.082 C 
HETATM    6  C   UNL     1      -4.643   2.747 -32.784  1.00  0.00     0.145 C 
ENDROOT
BRANCH   1   7
HETATM    7  C   UNL     1      -4.724   5.222 -32.294  1.00  0.00     0.073 A 
HETATM    8  C   UNL     1      -3.592   5.877 -32.814  1.00  0.00     0.069 A 
HETATM    9  C   UNL     1      -3.119   7.070 -32.258  1.00  0.00     0.070 A 
HETATM   10  C   UNL     1      -3.749   7.600 -31.136  1.00  0.00     0.039 A 
HETATM   11  C   UNL     1      -4.857   6.962 -30.585  1.00  0.00     0.042 A 
HETATM   12  C   UNL     1      -5.338   5.773 -31.148  1.00  0.00     0.095 A 
BRANCH   9  13
HETATM   13  O   UNL     1      -2.066   7.807 -32.726  1.00  0.00    -0.356 OA
HETATM   14  C   UNL     1      -1.101   7.104 -33.502  1.00  0.00     0.210 C 
ENDBRANCH   9  13
BRANCH  12  15
HETATM   15  O   UNL     1      -6.429   5.151 -30.593  1.00  0.00    -0.354 OA
HETATM   16  C   UNL     1      -6.091   4.251 -29.539  1.00  0.00     0.210 C 
ENDBRANCH  12  15
ENDBRANCH   1   7
BRANCH   5  17
HETATM   17  C   UNL     1      -5.441   0.425 -33.367  1.00  0.00     0.111 A 
HETATM   18  N   UNL     1      -4.428  -0.256 -32.875  1.00  0.00    -0.233 NA
HETATM   19  C   UNL     1      -4.549  -1.527 -33.385  1.00  0.00     0.085 A 
HETATM   20  C   UNL     1      -5.649  -1.617 -34.231  1.00  0.00     0.062 A 
HETATM   21  C   UNL     1      -3.765  -2.666 -33.160  1.00  0.00     0.034 A 
HETATM   22  N   UNL     1      -6.185  -0.356 -34.221  1.00  0.00    -0.342 N 
HETATM   23  C   UNL     1      -6.025  -2.794 -34.880  1.00  0.00     0.032 A 
HETATM   24  H   UNL     1      -7.011  -0.065 -34.723  1.00  0.00     0.167 HD
HETATM   25  C   UNL     1      -5.234  -3.924 -34.637  1.00  0.00     0.002 A 
HETATM   26  C   UNL     1      -4.123  -3.864 -33.792  1.00  0.00     0.002 A 
ENDBRANCH   5  17
TORSDOF 4
ENDMDL
MODEL 10
REMARK VINA RESULT:      -7.1      4.489      5.878
REMARK  4 active torsions:
REMARK  status: ('A' for Active; 'I' for Inactive)
REMARK    1  A    between atoms: O_2  and  C_3 
REMARK    2  A    between atoms: C_5  and  N_6 
REMARK    3  A    between atoms: C_10  and  C_11 
REMARK    4  A    between atoms: C_22  and  O_23 
ROOT
HETATM    1  N   UNL     1      -7.726   2.953 -32.820  1.00  0.00    -0.315 N 
HETATM    2  C   UNL     1      -6.874   3.467 -33.808  1.00  0.00     0.225 C 
HETATM    3  O   UNL     1      -6.664   4.631 -34.114  1.00  0.00    -0.273 OA
HETATM    4  C   UNL     1      -6.165   2.300 -34.457  1.00  0.00     0.117 C 
HETATM    5  C   UNL     1      -7.127   1.161 -34.165  1.00  0.00     0.082 C 
HETATM    6  C   UNL     1      -7.616   1.510 -32.766  1.00  0.00     0.145 C 
ENDROOT
BRANCH   1   7
HETATM    7  C   UNL     1      -8.629   3.693 -32.005  1.00  0.00     0.073 A 
HETATM    8  C   UNL     1      -8.153   4.323 -30.839  1.00  0.00     0.069 A 
HETATM    9  C   UNL     1      -8.982   5.135 -30.058  1.00  0.00     0.070 A 
HETATM   10  C   UNL     1     -10.320   5.290 -30.410  1.00  0.00     0.039 A 
HETATM   11  C   UNL     1     -10.824   4.661 -31.545  1.00  0.00     0.042 A 
HETATM   12  C   UNL     1      -9.992   3.855 -32.335  1.00  0.00     0.095 A 
BRANCH   9  13
HETATM   13  O   UNL     1      -8.598   5.831 -28.944  1.00  0.00    -0.356 OA
HETATM   14  C   UNL     1      -7.338   5.479 -28.385  1.00  0.00     0.210 C 
ENDBRANCH   9  13
BRANCH  12  15
HETATM   15  O   UNL     1     -10.502   3.239 -33.449  1.00  0.00    -0.354 OA
HETATM   16  C   UNL     1     -11.713   2.528 -33.196  1.00  0.00     0.210 C 
ENDBRANCH  12  15
ENDBRANCH   1   7
BRANCH   5  17
HETATM   17  C   UNL     1      -6.525  -0.190 -34.279  1.00  0.00     0.111 A 
HETATM   18  N   UNL     1      -5.335  -0.571 -33.865  1.00  0.00    -0.233 NA
HETATM   19  C   UNL     1      -5.275  -1.925 -34.097  1.00  0.00     0.085 A 
HETATM   20  C   UNL     1      -6.447  -2.377 -34.691  1.00  0.00     0.062 A 
HETATM   21  C   UNL     1      -4.254  -2.842 -33.813  1.00  0.00     0.034 A 
HETATM   22  N   UNL     1      -7.216  -1.250 -34.818  1.00  0.00    -0.342 N 
HETATM   23  C   UNL     1      -6.673  -3.712 -35.027  1.00  0.00     0.032 A 
HETATM   24  H   UNL     1      -8.149  -1.216 -35.203  1.00  0.00     0.167 HD
HETATM   25  C   UNL     1      -5.646  -4.616 -34.729  1.00  0.00     0.002 A 
HETATM   26  C   UNL     1      -4.456  -4.191 -34.133  1.00  0.00     0.002 A 
ENDBRANCH   5  17
TORSDOF 4
ENDMDL
