MODEL 1
REMARK VINA RESULT:     -10.6      0.000      0.000
REMARK  5 active torsions:
REMARK  status: ('A' for Active; 'I' for Inactive)
REMARK    1  A    between atoms: C_7  and  C_8 
REMARK    2  A    between atoms: C_16  and  C_17 
REMARK    3  A    between atoms: C_20  and  O_21 
REMARK    4  A    between atoms: C_24  and  C_25 
REMARK       I    between atoms: C_25  and  N_26 
REMARK    5  A    between atoms: N_26  and  C_27 
ROOT
HETATM    1  C   UNL     1      -5.258   2.936 -29.798  1.00  0.00     0.070 C 
HETATM    2  C   UNL     1      -5.973   2.295 -30.963  1.00  0.00     0.037 C 
HETATM    3  N   UNL     1      -7.290   1.899 -30.718  1.00  0.00    -0.192 N 
HETATM    4  C   UNL     1      -8.145   1.599 -31.717  1.00  0.00     0.726 A 
HETATM    5  N   UNL     1      -7.650   1.389 -32.970  1.00  0.00    -0.083 N 
HETATM    6  N   UNL     1      -8.632   1.224 -33.876  1.00  0.00    -0.135 NA
HETATM    7  C   UNL     1      -9.726   1.330 -33.094  1.00  0.00     0.200 A 
HETATM    8  N   UNL     1      -9.447   1.522 -31.753  1.00  0.00    -0.041 NA
HETATM    9  C   UNL     1      -6.225   1.419 -33.296  1.00  0.00     0.202 C 
HETATM   10  C   UNL     1      -5.425   2.109 -32.193  1.00  0.00     0.062 C 
HETATM   11  H   UNL     1      -7.695   2.199 -29.833  1.00  0.00     0.184 HD
ENDROOT
BRANCH  10  12
HETATM   12  C   UNL     1      -4.141   2.776 -32.574  1.00  0.00     0.256 C 
HETATM   13  N   UNL     1      -4.281   4.038 -33.110  1.00  0.00    -0.323 N 
HETATM   14  H   UNL     1      -5.212   4.376 -33.312  1.00  0.00     0.169 HD
HETATM   15  O   UNL     1      -3.080   2.208 -32.334  1.00  0.00    -0.267 OA
BRANCH  13  16
HETATM   16  C   UNL     1      -3.250   4.956 -33.410  1.00  0.00     0.035 A 
HETATM   17  C   UNL     1      -2.313   4.779 -34.430  1.00  0.00     0.029 A 
HETATM   18  C   UNL     1      -1.309   5.730 -34.645  1.00  0.00     0.002 A 
HETATM   19  C   UNL     1      -1.227   6.860 -33.837  1.00  0.00     0.000 A 
HETATM   20  C   UNL     1      -2.157   7.047 -32.817  1.00  0.00     0.002 A 
HETATM   21  C   UNL     1      -3.166   6.103 -32.610  1.00  0.00     0.029 A 
ENDBRANCH  13  16
ENDBRANCH  10  12
BRANCH   9  22
HETATM   22  C   UNL     1      -5.758  -0.010 -33.589  1.00  0.00    -0.028 A 
HETATM   23  C   UNL     1      -6.367  -0.743 -34.625  1.00  0.00     0.012 A 
HETATM   24  C   UNL     1      -5.961  -2.050 -34.910  1.00  0.00     0.037 A 
HETATM   25  C   UNL     1      -4.946  -2.632 -34.158  1.00  0.00     0.065 A 
HETATM   26  C   UNL     1      -4.338  -1.933 -33.124  1.00  0.00     0.037 A 
HETATM   27  C   UNL     1      -4.748  -0.632 -32.832  1.00  0.00     0.012 A 
BRANCH  25  28
HETATM   28  O   UNL     1      -4.520  -3.903 -34.400  1.00  0.00    -0.361 OA
HETATM   29  H   UNL     1      -5.004  -4.258 -35.163  1.00  0.00     0.217 HD
ENDBRANCH  25  28
ENDBRANCH   9  22
BRANCH   7  30
HETATM   30  C   UNL     1     -11.081   1.219 -33.619  1.00  0.00     0.036 A 
HETATM   31  C   UNL     1     -11.667   2.196 -34.439  1.00  0.00     0.048 A 
HETATM   32 CL   UNL     1     -10.835   3.619 -34.967  1.00  0.00    -0.083 Cl
HETATM   33  C   UNL     1     -12.973   2.022 -34.917  1.00  0.00     0.025 A 
HETATM   34  C   UNL     1     -13.704   0.880 -34.590  1.00  0.00     0.002 A 
HETATM   35  C   UNL     1     -13.131  -0.100 -33.785  1.00  0.00     0.001 A 
HETATM   36  C   UNL     1     -11.829   0.068 -33.306  1.00  0.00     0.017 A 
ENDBRANCH   7  30
TORSDOF 5
ENDMDL
MODEL 2
REMARK VINA RESULT:      -9.8      3.371      6.794
REMARK  5 active torsions:
REMARK  status: ('A' for Active; 'I' for Inactive)
REMARK    1  A    between atoms: C_7  and  C_8 
REMARK    2  A    between atoms: C_16  and  C_17 
REMARK    3  A    between atoms: C_20  and  O_21 
REMARK    4  A    between atoms: C_24  and  C_25 
REMARK       I    between atoms: C_25  and  N_26 
REMARK    5  A    between atoms: N_26  and  C_27 
ROOT
HETATM    1  C   UNL     1      -9.289   3.342 -30.473  1.00  0.00     0.070 C 
HETATM    2  C   UNL     1      -8.303   2.778 -31.468  1.00  0.00     0.037 C 
HETATM    3  N   UNL     1      -7.781   1.521 -31.153  1.00  0.00    -0.192 N 
HETATM    4  C   UNL     1      -7.140   0.763 -32.066  1.00  0.00     0.726 A 
HETATM    5  N   UNL     1      -6.729   1.338 -33.231  1.00  0.00    -0.083 N 
HETATM    6  N   UNL     1      -6.220   0.432 -34.086  1.00  0.00    -0.135 NA
HETATM    7  C   UNL     1      -6.336  -0.700 -33.362  1.00  0.00     0.200 A 
HETATM    8  N   UNL     1      -6.865  -0.513 -32.098  1.00  0.00    -0.041 NA
HETATM    9  C   UNL     1      -6.895   2.758 -33.539  1.00  0.00     0.202 C 
HETATM   10  C   UNL     1      -7.926   3.401 -32.615  1.00  0.00     0.062 C 
HETATM   11  H   UNL     1      -8.210   1.037 -30.365  1.00  0.00     0.184 HD
ENDROOT
BRANCH  10  12
HETATM   12  C   UNL     1      -8.673   4.594 -33.125  1.00  0.00     0.256 C 
HETATM   13  N   UNL     1      -9.620   4.316 -34.087  1.00  0.00    -0.323 N 
HETATM   14  H   UNL     1      -9.671   3.377 -34.458  1.00  0.00     0.169 HD
HETATM   15  O   UNL     1      -8.452   5.693 -32.627  1.00  0.00    -0.267 OA
BRANCH  13  16
HETATM   16  C   UNL     1     -10.573   5.209 -34.628  1.00  0.00     0.035 A 
HETATM   17  C   UNL     1     -10.250   6.362 -35.346  1.00  0.00     0.029 A 
HETATM   18  C   UNL     1     -11.258   7.204 -35.829  1.00  0.00     0.002 A 
HETATM   19  C   UNL     1     -12.596   6.905 -35.591  1.00  0.00     0.000 A 
HETATM   20  C   UNL     1     -12.930   5.757 -34.876  1.00  0.00     0.002 A 
HETATM   21  C   UNL     1     -11.924   4.911 -34.404  1.00  0.00     0.029 A 
ENDBRANCH  13  16
ENDBRANCH  10  12
BRANCH   9  22
HETATM   22  C   UNL     1      -5.523   3.435 -33.490  1.00  0.00    -0.028 A 
HETATM   23  C   UNL     1      -5.234   4.490 -34.378  1.00  0.00     0.012 A 
HETATM   24  C   UNL     1      -3.989   5.123 -34.354  1.00  0.00     0.037 A 
HETATM   25  C   UNL     1      -3.022   4.703 -33.447  1.00  0.00     0.065 A 
HETATM   26  C   UNL     1      -3.279   3.657 -32.570  1.00  0.00     0.037 A 
HETATM   27  C   UNL     1      -4.518   3.018 -32.597  1.00  0.00     0.012 A 
BRANCH  25  28
HETATM   28  O   UNL     1      -1.794   5.290 -33.391  1.00  0.00    -0.361 OA
HETATM   29  H   UNL     1      -1.584   5.494 -32.465  1.00  0.00     0.217 HD
ENDBRANCH  25  28
ENDBRANCH   9  22
BRANCH   7  30
HETATM   30  C   UNL     1      -5.910  -2.001 -33.862  1.00  0.00     0.036 A 
HETATM   31  C   UNL     1      -4.626  -2.523 -33.642  1.00  0.00     0.048 A 
HETATM   32 CL   UNL     1      -3.415  -1.711 -32.708  1.00  0.00    -0.083 Cl
HETATM   33  C   UNL     1      -4.284  -3.787 -34.144  1.00  0.00     0.025 A 
HETATM   34  C   UNL     1      -5.212  -4.541 -34.863  1.00  0.00     0.002 A 
HETATM   35  C   UNL     1      -6.491  -4.038 -35.080  1.00  0.00     0.001 A 
HETATM   36  C   UNL     1      -6.836  -2.779 -34.582  1.00  0.00     0.017 A 
ENDBRANCH   7  30
TORSDOF 5
ENDMDL
MODEL 3
REMARK VINA RESULT:      -9.4      4.397      7.251
REMARK  5 active torsions:
REMARK  status: ('A' for Active; 'I' for Inactive)
REMARK    1  A    between atoms: C_7  and  C_8 
REMARK    2  A    between atoms: C_16  and  C_17 
REMARK    3  A    between atoms: C_20  and  O_21 
REMARK    4  A    between atoms: C_24  and  C_25 
REMARK       I    between atoms: C_25  and  N_26 
REMARK    5  A    between atoms: N_26  and  C_27 
ROOT
HETATM    1  C   UNL     1      -2.297   7.746 -32.507  1.00  0.00     0.070 C 
HETATM    2  C   UNL     1      -3.180   6.615 -32.038  1.00  0.00     0.037 C 
HETATM    3  N   UNL     1      -3.703   5.801 -33.045  1.00  0.00    -0.192 N 
HETATM    4  C   UNL     1      -4.246   4.595 -32.781  1.00  0.00     0.726 A 
HETATM    5  N   UNL     1      -4.564   4.281 -31.493  1.00  0.00    -0.083 N 
HETATM    6  N   UNL     1      -4.978   3.006 -31.375  1.00  0.00    -0.135 NA
HETATM    7  C   UNL     1      -4.904   2.590 -32.657  1.00  0.00     0.200 A 
HETATM    8  N   UNL     1      -4.492   3.566 -33.546  1.00  0.00    -0.041 NA
HETATM    9  C   UNL     1      -4.399   5.201 -30.368  1.00  0.00     0.202 C 
HETATM   10  C   UNL     1      -3.466   6.352 -30.735  1.00  0.00     0.062 C 
HETATM   11  H   UNL     1      -3.336   5.951 -33.984  1.00  0.00     0.184 HD
ENDROOT
BRANCH  10  12
HETATM   12  C   UNL     1      -2.700   7.010 -29.630  1.00  0.00     0.256 C 
HETATM   13  N   UNL     1      -1.495   6.414 -29.326  1.00  0.00    -0.323 N 
HETATM   14  H   UNL     1      -1.265   5.537 -29.771  1.00  0.00     0.169 HD
HETATM   15  O   UNL     1      -3.143   8.038 -29.128  1.00  0.00    -0.267 OA
BRANCH  13  16
HETATM   16  C   UNL     1      -0.501   6.901 -28.448  1.00  0.00     0.035 A 
HETATM   17  C   UNL     1      -0.386   6.531 -27.107  1.00  0.00     0.029 A 
HETATM   18  C   UNL     1       0.618   7.080 -26.301  1.00  0.00     0.002 A 
HETATM   19  C   UNL     1       1.509   8.010 -26.827  1.00  0.00     0.000 A 
HETATM   20  C   UNL     1       1.405   8.387 -28.164  1.00  0.00     0.002 A 
HETATM   21  C   UNL     1       0.410   7.830 -28.971  1.00  0.00     0.029 A 
ENDBRANCH  13  16
ENDBRANCH  10  12
BRANCH   9  22
HETATM   22  C   UNL     1      -5.783   5.660 -29.902  1.00  0.00    -0.028 A 
HETATM   23  C   UNL     1      -6.288   5.205 -28.668  1.00  0.00     0.012 A 
HETATM   24  C   UNL     1      -7.550   5.608 -28.221  1.00  0.00     0.037 A 
HETATM   25  C   UNL     1      -8.316   6.463 -29.006  1.00  0.00     0.065 A 
HETATM   26  C   UNL     1      -7.844   6.915 -30.231  1.00  0.00     0.037 A 
HETATM   27  C   UNL     1      -6.589   6.508 -30.684  1.00  0.00     0.012 A 
BRANCH  25  28
HETATM   28  O   UNL     1      -9.551   6.879 -28.610  1.00  0.00    -0.361 OA
HETATM   29  H   UNL     1     -10.088   7.065 -29.397  1.00  0.00     0.217 HD
ENDBRANCH  25  28
ENDBRANCH   9  22
BRANCH   7  30
HETATM   30  C   UNL     1      -5.259   1.237 -33.066  1.00  0.00     0.036 A 
HETATM   31  C   UNL     1      -4.561   0.099 -32.634  1.00  0.00     0.048 A 
HETATM   32 CL   UNL     1      -3.233   0.160 -31.525  1.00  0.00    -0.083 Cl
HETATM   33  C   UNL     1      -4.961  -1.176 -33.060  1.00  0.00     0.025 A 
HETATM   34  C   UNL     1      -6.055  -1.329 -33.911  1.00  0.00     0.002 A 
HETATM   35  C   UNL     1      -6.760  -0.209 -34.339  1.00  0.00     0.001 A 
HETATM   36  C   UNL     1      -6.366   1.063 -33.918  1.00  0.00     0.017 A 
ENDBRANCH   7  30
TORSDOF 5
ENDMDL
MODEL 4
REMARK VINA RESULT:      -9.3      3.718      6.709
REMARK  5 active torsions:
REMARK  status: ('A' for Active; 'I' for Inactive)
REMARK    1  A    between atoms: C_7  and  C_8 
REMARK    2  A    between atoms: C_16  and  C_17 
REMARK    3  A    between atoms: C_20  and  O_21 
REMARK    4  A    between atoms: C_24  and  C_25 
REMARK       I    between atoms: C_25  and  N_26 
REMARK    5  A    between atoms: N_26  and  C_27 
ROOT
HETATM    1  C   UNL     1      -1.576   7.127 -33.339  1.00  0.00     0.070 C 
HETATM    2  C   UNL     1      -2.698   6.285 -32.782  1.00  0.00     0.037 C 
HETATM    3  N   UNL     1      -3.729   5.988 -33.677  1.00  0.00    -0.192 N 
HETATM    4  C   UNL     1      -4.630   5.015 -33.432  1.00  0.00     0.726 A 
HETATM    5  N   UNL     1      -4.728   4.506 -32.171  1.00  0.00    -0.083 N 
HETATM    6  N   UNL     1      -5.578   3.464 -32.115  1.00  0.00    -0.135 NA
HETATM    7  C   UNL     1      -5.988   3.395 -33.398  1.00  0.00     0.200 A 
HETATM    8  N   UNL     1      -5.446   4.368 -34.219  1.00  0.00    -0.041 NA
HETATM    9  C   UNL     1      -3.942   4.989 -31.036  1.00  0.00     0.202 C 
HETATM   10  C   UNL     1      -2.742   5.806 -31.511  1.00  0.00     0.062 C 
HETATM   11  H   UNL     1      -3.571   6.242 -34.650  1.00  0.00     0.184 HD
ENDROOT
BRANCH  10  12
HETATM   12  C   UNL     1      -1.535   5.854 -30.627  1.00  0.00     0.256 C 
HETATM   13  N   UNL     1      -1.520   6.895 -29.724  1.00  0.00    -0.323 N 
HETATM   14  H   UNL     1      -2.241   7.600 -29.788  1.00  0.00     0.169 HD
HETATM   15  O   UNL     1      -0.698   4.961 -30.713  1.00  0.00    -0.267 OA
BRANCH  13  16
HETATM   16  C   UNL     1      -0.598   7.097 -28.673  1.00  0.00     0.035 A 
HETATM   17  C   UNL     1      -0.751   6.585 -27.383  1.00  0.00     0.029 A 
HETATM   18  C   UNL     1       0.202   6.853 -26.394  1.00  0.00     0.002 A 
HETATM   19  C   UNL     1       1.310   7.644 -26.682  1.00  0.00     0.000 A 
HETATM   20  C   UNL     1       1.474   8.160 -27.966  1.00  0.00     0.002 A 
HETATM   21  C   UNL     1       0.528   7.883 -28.956  1.00  0.00     0.029 A 
ENDBRANCH  13  16
ENDBRANCH  10  12
BRANCH   9  22
HETATM   22  C   UNL     1      -4.867   5.754 -30.087  1.00  0.00    -0.028 A 
HETATM   23  C   UNL     1      -5.474   5.079 -29.011  1.00  0.00     0.012 A 
HETATM   24  C   UNL     1      -6.325   5.754 -28.132  1.00  0.00     0.037 A 
HETATM   25  C   UNL     1      -6.578   7.108 -28.326  1.00  0.00     0.065 A 
HETATM   26  C   UNL     1      -6.001   7.793 -29.387  1.00  0.00     0.037 A 
HETATM   27  C   UNL     1      -5.158   7.119 -30.270  1.00  0.00     0.012 A 
BRANCH  25  28
HETATM   28  O   UNL     1      -7.402   7.805 -27.495  1.00  0.00    -0.361 OA
HETATM   29  H   UNL     1      -7.483   8.715 -27.822  1.00  0.00     0.217 HD
ENDBRANCH  25  28
ENDBRANCH   9  22
BRANCH   7  30
HETATM   30  C   UNL     1      -6.944   2.400 -33.866  1.00  0.00     0.036 A 
HETATM   31  C   UNL     1      -8.334   2.555 -33.742  1.00  0.00     0.048 A 
HETATM   32 CL   UNL     1      -9.078   3.965 -33.068  1.00  0.00    -0.083 Cl
HETATM   33  C   UNL     1      -9.199   1.561 -34.222  1.00  0.00     0.025 A 
HETATM   34  C   UNL     1      -8.693   0.413 -34.831  1.00  0.00     0.002 A 
HETATM   35  C   UNL     1      -7.318   0.252 -34.968  1.00  0.00     0.001 A 
HETATM   36  C   UNL     1      -6.452   1.239 -34.492  1.00  0.00     0.017 A 
ENDBRANCH   7  30
TORSDOF 5
ENDMDL
MODEL 5
REMARK VINA RESULT:      -9.2      2.530      3.296
REMARK  5 active torsions:
REMARK  status: ('A' for Active; 'I' for Inactive)
REMARK    1  A    between atoms: C_7  and  C_8 
REMARK    2  A    between atoms: C_16  and  C_17 
REMARK    3  A    between atoms: C_20  and  O_21 
REMARK    4  A    between atoms: C_24  and  C_25 
REMARK       I    between atoms: C_25  and  N_26 
REMARK    5  A    between atoms: N_26  and  C_27 
ROOT
HETATM    1  C   UNL     1      -6.493   6.153 -28.730  1.00  0.00     0.070 C 
HETATM    2  C   UNL     1      -6.734   5.159 -29.841  1.00  0.00     0.037 C 
HETATM    3  N   UNL     1      -7.978   4.523 -29.821  1.00  0.00    -0.192 N 
HETATM    4  C   UNL     1      -8.456   3.854 -30.890  1.00  0.00     0.726 A 
HETATM    5  N   UNL     1      -7.605   3.535 -31.906  1.00  0.00    -0.083 N 
HETATM    6  N   UNL     1      -8.253   2.983 -32.949  1.00  0.00    -0.135 NA
HETATM    7  C   UNL     1      -9.522   2.976 -32.491  1.00  0.00     0.200 A 
HETATM    8  N   UNL     1      -9.664   3.473 -31.208  1.00  0.00    -0.041 NA
HETATM    9  C   UNL     1      -6.173   3.831 -31.890  1.00  0.00     0.202 C 
HETATM   10  C   UNL     1      -5.843   4.879 -30.829  1.00  0.00     0.062 C 
HETATM   11  H   UNL     1      -8.658   4.880 -29.153  1.00  0.00     0.184 HD
ENDROOT
BRANCH  10  12
HETATM   12  C   UNL     1      -4.641   5.742 -31.049  1.00  0.00     0.256 C 
HETATM   13  N   UNL     1      -3.480   5.275 -30.471  1.00  0.00    -0.323 N 
HETATM   14  H   UNL     1      -3.533   4.470 -29.862  1.00  0.00     0.169 HD
HETATM   15  O   UNL     1      -4.743   6.739 -31.757  1.00  0.00    -0.267 OA
BRANCH  13  16
HETATM   16  C   UNL     1      -2.175   5.791 -30.642  1.00  0.00     0.035 A 
HETATM   17  C   UNL     1      -1.652   6.861 -29.913  1.00  0.00     0.029 A 
HETATM   18  C   UNL     1      -0.355   7.324 -30.162  1.00  0.00     0.002 A 
HETATM   19  C   UNL     1       0.426   6.727 -31.147  1.00  0.00     0.000 A 
HETATM   20  C   UNL     1      -0.085   5.658 -31.880  1.00  0.00     0.002 A 
HETATM   21  C   UNL     1      -1.376   5.189 -31.623  1.00  0.00     0.029 A 
ENDBRANCH  13  16
ENDBRANCH  10  12
BRANCH   9  22
HETATM   22  C   UNL     1      -5.402   2.520 -31.715  1.00  0.00    -0.028 A 
HETATM   23  C   UNL     1      -5.835   1.579 -30.761  1.00  0.00     0.012 A 
HETATM   24  C   UNL     1      -5.147   0.376 -30.581  1.00  0.00     0.037 A 
HETATM   25  C   UNL     1      -4.020   0.108 -31.349  1.00  0.00     0.065 A 
HETATM   26  C   UNL     1      -3.566   1.026 -32.287  1.00  0.00     0.037 A 
HETATM   27  C   UNL     1      -4.246   2.231 -32.463  1.00  0.00     0.012 A 
BRANCH  25  28
HETATM   28  O   UNL     1      -3.318  -1.050 -31.205  1.00  0.00    -0.361 OA
HETATM   29  H   UNL     1      -2.739  -1.167 -31.976  1.00  0.00     0.217 HD
ENDBRANCH  25  28
ENDBRANCH   9  22
BRANCH   7  30
HETATM   30  C   UNL     1     -10.637   2.461 -33.274  1.00  0.00     0.036 A 
HETATM   31  C   UNL     1     -10.918   1.091 -33.397  1.00  0.00     0.048 A 
HETATM   32 CL   UNL     1     -10.008  -0.143 -32.593  1.00  0.00    -0.083 Cl
HETATM   33  C   UNL     1     -12.014   0.663 -34.160  1.00  0.00     0.025 A 
HETATM   34  C   UNL     1     -12.839   1.588 -34.800  1.00  0.00     0.002 A 
HETATM   35  C   UNL     1     -12.576   2.948 -34.678  1.00  0.00     0.001 A 
HETATM   36  C   UNL     1     -11.485   3.380 -33.920  1.00  0.00     0.017 A 
ENDBRANCH   7  30
TORSDOF 5
ENDMDL
MODEL 6
REMARK VINA RESULT:      -9.2      3.845      7.740
REMARK  5 active torsions:
REMARK  status: ('A' for Active; 'I' for Inactive)
REMARK    1  A    between atoms: C_7  and  C_8 
REMARK    2  A    between atoms: C_16  and  C_17 
REMARK    3  A    between atoms: C_20  and  O_21 
REMARK    4  A    between atoms: C_24  and  C_25 
REMARK       I    between atoms: C_25  and  N_26 
REMARK    5  A    between atoms: N_26  and  C_27 
ROOT
HETATM    1  C   UNL     1     -13.057   1.682 -33.462  1.00  0.00     0.070 C 
HETATM    2  C   UNL     1     -11.555   1.739 -33.599  1.00  0.00     0.037 C 
HETATM    3  N   UNL     1     -10.857   0.671 -33.029  1.00  0.00    -0.192 N 
HETATM    4  C   UNL     1      -9.565   0.421 -33.326  1.00  0.00     0.726 A 
HETATM    5  N   UNL     1      -8.834   1.383 -33.956  1.00  0.00    -0.083 N 
HETATM    6  N   UNL     1      -7.608   0.941 -34.293  1.00  0.00    -0.135 NA
HETATM    7  C   UNL     1      -7.647  -0.320 -33.815  1.00  0.00     0.200 A 
HETATM    8  N   UNL     1      -8.832  -0.649 -33.180  1.00  0.00    -0.041 NA
HETATM    9  C   UNL     1      -9.352   2.708 -34.293  1.00  0.00     0.202 C 
HETATM   10  C   UNL     1     -10.878   2.729 -34.238  1.00  0.00     0.062 C 
HETATM   11  H   UNL     1     -11.419  -0.112 -32.700  1.00  0.00     0.184 HD
ENDROOT
BRANCH  10  12
HETATM   12  C   UNL     1     -11.595   3.719 -35.102  1.00  0.00     0.256 C 
HETATM   13  N   UNL     1     -11.602   5.010 -34.620  1.00  0.00    -0.323 N 
HETATM   14  H   UNL     1     -11.236   5.181 -33.693  1.00  0.00     0.169 HD
HETATM   15  O   UNL     1     -12.058   3.348 -36.176  1.00  0.00    -0.267 OA
BRANCH  13  16
HETATM   16  C   UNL     1     -12.059   6.168 -35.288  1.00  0.00     0.035 A 
HETATM   17  C   UNL     1     -13.403   6.450 -35.541  1.00  0.00     0.029 A 
HETATM   18  C   UNL     1     -13.768   7.611 -36.231  1.00  0.00     0.002 A 
HETATM   19  C   UNL     1     -12.793   8.495 -36.682  1.00  0.00     0.000 A 
HETATM   20  C   UNL     1     -11.449   8.225 -36.435  1.00  0.00     0.002 A 
HETATM   21  C   UNL     1     -11.085   7.071 -35.736  1.00  0.00     0.029 A 
ENDBRANCH  13  16
ENDBRANCH  10  12
BRANCH   9  22
HETATM   22  C   UNL     1      -8.693   3.741 -33.375  1.00  0.00    -0.028 A 
HETATM   23  C   UNL     1      -9.013   3.759 -32.004  1.00  0.00     0.012 A 
HETATM   24  C   UNL     1      -8.427   4.693 -31.145  1.00  0.00     0.037 A 
HETATM   25  C   UNL     1      -7.521   5.618 -31.653  1.00  0.00     0.065 A 
HETATM   26  C   UNL     1      -7.199   5.628 -33.003  1.00  0.00     0.037 A 
HETATM   27  C   UNL     1      -7.789   4.702 -33.864  1.00  0.00     0.012 A 
BRANCH  25  28
HETATM   28  O   UNL     1      -6.928   6.547 -30.853  1.00  0.00    -0.361 OA
HETATM   29  H   UNL     1      -6.288   7.054 -31.379  1.00  0.00     0.217 HD
ENDBRANCH  25  28
ENDBRANCH   9  22
BRANCH   7  30
HETATM   30  C   UNL     1      -6.525  -1.242 -33.934  1.00  0.00     0.036 A 
HETATM   31  C   UNL     1      -5.309  -1.060 -33.256  1.00  0.00     0.048 A 
HETATM   32 CL   UNL     1      -5.018   0.248 -32.160  1.00  0.00    -0.083 Cl
HETATM   33  C   UNL     1      -4.272  -1.990 -33.408  1.00  0.00     0.025 A 
HETATM   34  C   UNL     1      -4.434  -3.107 -34.228  1.00  0.00     0.002 A 
HETATM   35  C   UNL     1      -5.637  -3.303 -34.898  1.00  0.00     0.001 A 
HETATM   36  C   UNL     1      -6.674  -2.379 -34.750  1.00  0.00     0.017 A 
ENDBRANCH   7  30
TORSDOF 5
ENDMDL
MODEL 7
REMARK VINA RESULT:      -9.1      4.047      7.039
REMARK  5 active torsions:
REMARK  status: ('A' for Active; 'I' for Inactive)
REMARK    1  A    between atoms: C_7  and  C_8 
REMARK    2  A    between atoms: C_16  and  C_17 
REMARK    3  A    between atoms: C_20  and  O_21 
REMARK    4  A    between atoms: C_24  and  C_25 
REMARK       I    between atoms: C_25  and  N_26 
REMARK    5  A    between atoms: N_26  and  C_27 
ROOT
HETATM    1  C   UNL     1      -6.547   5.123 -33.194  1.00  0.00     0.070 C 
HETATM    2  C   UNL     1      -7.115   3.725 -33.226  1.00  0.00     0.037 C 
HETATM    3  N   UNL     1      -6.483   2.838 -34.101  1.00  0.00    -0.192 N 
HETATM    4  C   UNL     1      -6.667   1.504 -34.024  1.00  0.00     0.726 A 
HETATM    5  N   UNL     1      -7.705   1.022 -33.283  1.00  0.00    -0.083 N 
HETATM    6  N   UNL     1      -7.682  -0.322 -33.203  1.00  0.00    -0.135 NA
HETATM    7  C   UNL     1      -6.593  -0.607 -33.946  1.00  0.00     0.200 A 
HETATM    8  N   UNL     1      -5.974   0.503 -34.494  1.00  0.00    -0.041 NA
HETATM    9  C   UNL     1      -8.677   1.871 -32.596  1.00  0.00     0.202 C 
HETATM   10  C   UNL     1      -8.157   3.301 -32.464  1.00  0.00     0.062 C 
HETATM   11  H   UNL     1      -5.619   3.164 -34.531  1.00  0.00     0.184 HD
ENDROOT
BRANCH  10  12
HETATM   12  C   UNL     1      -8.660   4.124 -31.320  1.00  0.00     0.256 C 
HETATM   13  N   UNL     1      -9.354   5.258 -31.684  1.00  0.00    -0.323 N 
HETATM   14  H   UNL     1      -9.381   5.515 -32.661  1.00  0.00     0.169 HD
HETATM   15  O   UNL     1      -8.488   3.721 -30.174  1.00  0.00    -0.267 OA
BRANCH  13  16
HETATM   16  C   UNL     1     -10.070   6.130 -30.833  1.00  0.00     0.035 A 
HETATM   17  C   UNL     1      -9.475   6.984 -29.902  1.00  0.00     0.029 A 
HETATM   18  C   UNL     1     -10.262   7.799 -29.081  1.00  0.00     0.002 A 
HETATM   19  C   UNL     1     -11.649   7.762 -29.178  1.00  0.00     0.000 A 
HETATM   20  C   UNL     1     -12.254   6.914 -30.103  1.00  0.00     0.002 A 
HETATM   21  C   UNL     1     -11.468   6.108 -30.930  1.00  0.00     0.029 A 
ENDBRANCH  13  16
ENDBRANCH  10  12
BRANCH   9  22
HETATM   22  C   UNL     1     -10.018   1.773 -33.327  1.00  0.00    -0.028 A 
HETATM   23  C   UNL     1     -10.380   2.770 -34.255  1.00  0.00     0.012 A 
HETATM   24  C   UNL     1     -11.600   2.704 -34.934  1.00  0.00     0.037 A 
HETATM   25  C   UNL     1     -12.467   1.646 -34.687  1.00  0.00     0.065 A 
HETATM   26  C   UNL     1     -12.138   0.658 -33.768  1.00  0.00     0.037 A 
HETATM   27  C   UNL     1     -10.925   0.725 -33.083  1.00  0.00     0.012 A 
BRANCH  25  28
HETATM   28  O   UNL     1     -13.667   1.544 -35.324  1.00  0.00    -0.361 OA
HETATM   29  H   UNL     1     -13.973   0.624 -35.275  1.00  0.00     0.217 HD
ENDBRANCH  25  28
ENDBRANCH   9  22
BRANCH   7  30
HETATM   30  C   UNL     1      -6.130  -1.970 -34.172  1.00  0.00     0.036 A 
HETATM   31  C   UNL     1      -4.829  -2.398 -33.867  1.00  0.00     0.048 A 
HETATM   32 CL   UNL     1      -3.637  -1.375 -33.139  1.00  0.00    -0.083 Cl
HETATM   33  C   UNL     1      -4.451  -3.728 -34.103  1.00  0.00     0.025 A 
HETATM   34  C   UNL     1      -5.361  -4.640 -34.636  1.00  0.00     0.002 A 
HETATM   35  C   UNL     1      -6.657  -4.231 -34.935  1.00  0.00     0.001 A 
HETATM   36  C   UNL     1      -7.038  -2.907 -34.702  1.00  0.00     0.017 A 
ENDBRANCH   7  30
TORSDOF 5
ENDMDL
MODEL 8
REMARK VINA RESULT:      -9.1      2.910      8.282
REMARK  5 active torsions:
REMARK  status: ('A' for Active; 'I' for Inactive)
REMARK    1  A    between atoms: C_7  and  C_8 
REMARK    2  A    between atoms: C_16  and  C_17 
REMARK    3  A    between atoms: C_20  and  O_21 
REMARK    4  A    between atoms: C_24  and  C_25 
REMARK       I    between atoms: C_25  and  N_26 
REMARK    5  A    between atoms: N_26  and  C_27 
ROOT
HETATM    1  C   UNL     1      -9.786   5.428 -34.714  1.00  0.00     0.070 C 
HETATM    2  C   UNL     1      -8.647   4.752 -33.990  1.00  0.00     0.037 C 
HETATM    3  N   UNL     1      -7.390   5.335 -34.166  1.00  0.00    -0.192 N 
HETATM    4  C   UNL     1      -6.347   5.043 -33.362  1.00  0.00     0.726 A 
HETATM    5  N   UNL     1      -6.423   3.950 -32.550  1.00  0.00    -0.083 N 
HETATM    6  N   UNL     1      -5.364   3.864 -31.724  1.00  0.00    -0.135 NA
HETATM    7  C   UNL     1      -4.653   4.947 -32.101  1.00  0.00     0.200 A 
HETATM    8  N   UNL     1      -5.222   5.666 -33.137  1.00  0.00    -0.041 NA
HETATM    9  C   UNL     1      -7.560   3.030 -32.530  1.00  0.00     0.202 C 
HETATM   10  C   UNL     1      -8.784   3.659 -33.193  1.00  0.00     0.062 C 
HETATM   11  H   UNL     1      -7.370   6.233 -34.646  1.00  0.00     0.184 HD
ENDROOT
BRANCH  10  12
HETATM   12  C   UNL     1     -10.135   3.192 -32.751  1.00  0.00     0.256 C 
HETATM   13  N   UNL     1     -10.925   2.673 -33.754  1.00  0.00    -0.323 N 
HETATM   14  H   UNL     1     -10.600   2.741 -34.709  1.00  0.00     0.169 HD
HETATM   15  O   UNL     1     -10.421   3.238 -31.559  1.00  0.00    -0.267 OA
BRANCH  13  16
HETATM   16  C   UNL     1     -12.169   2.020 -33.607  1.00  0.00     0.035 A 
HETATM   17  C   UNL     1     -13.360   2.665 -33.266  1.00  0.00     0.029 A 
HETATM   18  C   UNL     1     -14.546   1.937 -33.120  1.00  0.00     0.002 A 
HETATM   19  C   UNL     1     -14.551   0.558 -33.304  1.00  0.00     0.000 A 
HETATM   20  C   UNL     1     -13.369  -0.097 -33.645  1.00  0.00     0.002 A 
HETATM   21  C   UNL     1     -12.187   0.632 -33.802  1.00  0.00     0.029 A 
ENDBRANCH  13  16
ENDBRANCH  10  12
BRANCH   9  22
HETATM   22  C   UNL     1      -7.131   1.706 -33.167  1.00  0.00    -0.028 A 
HETATM   23  C   UNL     1      -7.316   1.506 -34.549  1.00  0.00     0.012 A 
HETATM   24  C   UNL     1      -6.936   0.305 -35.154  1.00  0.00     0.037 A 
HETATM   25  C   UNL     1      -6.372  -0.705 -34.381  1.00  0.00     0.065 A 
HETATM   26  C   UNL     1      -6.191  -0.535 -33.015  1.00  0.00     0.037 A 
HETATM   27  C   UNL     1      -6.578   0.659 -32.407  1.00  0.00     0.012 A 
BRANCH  25  28
HETATM   28  O   UNL     1      -5.989  -1.891 -34.929  1.00  0.00    -0.361 OA
HETATM   29  H   UNL     1      -6.366  -1.964 -35.820  1.00  0.00     0.217 HD
ENDBRANCH  25  28
ENDBRANCH   9  22
BRANCH   7  30
HETATM   30  C   UNL     1      -3.381   5.306 -31.487  1.00  0.00     0.036 A 
HETATM   31  C   UNL     1      -3.249   6.338 -30.545  1.00  0.00     0.048 A 
HETATM   32 CL   UNL     1      -4.586   7.272 -29.963  1.00  0.00    -0.083 Cl
HETATM   33  C   UNL     1      -1.996   6.625 -29.986  1.00  0.00     0.025 A 
HETATM   34  C   UNL     1      -0.869   5.890 -30.353  1.00  0.00     0.002 A 
HETATM   35  C   UNL     1      -0.989   4.858 -31.278  1.00  0.00     0.001 A 
HETATM   36  C   UNL     1      -2.235   4.568 -31.839  1.00  0.00     0.017 A 
ENDBRANCH   7  30
TORSDOF 5
ENDMDL
MODEL 9
REMARK VINA RESULT:      -9.0      4.098      8.794
REMARK  5 active torsions:
REMARK  status: ('A' for Active; 'I' for Inactive)
REMARK    1  A    between atoms: C_7  and  C_8 
REMARK    2  A    between atoms: C_16  and  C_17 
REMARK    3  A    between atoms: C_20  and  O_21 
REMARK    4  A    between atoms: C_24  and  C_25 
REMARK       I    between atoms: C_25  and  N_26 
REMARK    5  A    between atoms: N_26  and  C_27 
ROOT
HETATM    1  C   UNL     1      -8.513   5.435 -32.449  1.00  0.00     0.070 C 
HETATM    2  C   UNL     1      -7.100   5.656 -31.968  1.00  0.00     0.037 C 
HETATM    3  N   UNL     1      -6.804   6.954 -31.544  1.00  0.00    -0.192 N 
HETATM    4  C   UNL     1      -5.704   7.235 -30.815  1.00  0.00     0.726 A 
HETATM    5  N   UNL     1      -4.709   6.307 -30.735  1.00  0.00    -0.083 N 
HETATM    6  N   UNL     1      -3.742   6.682 -29.877  1.00  0.00    -0.135 NA
HETATM    7  C   UNL     1      -4.207   7.881 -29.470  1.00  0.00     0.200 A 
HETATM    8  N   UNL     1      -5.396   8.259 -30.067  1.00  0.00    -0.041 NA
HETATM    9  C   UNL     1      -4.733   5.026 -31.440  1.00  0.00     0.202 C 
HETATM   10  C   UNL     1      -6.146   4.689 -31.913  1.00  0.00     0.062 C 
HETATM   11  H   UNL     1      -7.591   7.595 -31.464  1.00  0.00     0.184 HD
ENDROOT
BRANCH  10  12
HETATM   12  C   UNL     1      -6.502   3.245 -32.076  1.00  0.00     0.256 C 
HETATM   13  N   UNL     1      -6.299   2.738 -33.342  1.00  0.00    -0.323 N 
HETATM   14  H   UNL     1      -6.039   3.376 -34.082  1.00  0.00     0.169 HD
HETATM   15  O   UNL     1      -6.878   2.609 -31.097  1.00  0.00    -0.267 OA
BRANCH  13  16
HETATM   16  C   UNL     1      -6.396   1.387 -33.745  1.00  0.00     0.035 A 
HETATM   17  C   UNL     1      -5.556   0.369 -33.291  1.00  0.00     0.029 A 
HETATM   18  C   UNL     1      -5.708  -0.941 -33.759  1.00  0.00     0.002 A 
HETATM   19  C   UNL     1      -6.696  -1.241 -34.693  1.00  0.00     0.000 A 
HETATM   20  C   UNL     1      -7.541  -0.234 -35.153  1.00  0.00     0.002 A 
HETATM   21  C   UNL     1      -7.395   1.071 -34.676  1.00  0.00     0.029 A 
ENDBRANCH  13  16
ENDBRANCH  10  12
BRANCH   9  22
HETATM   22  C   UNL     1      -3.702   5.067 -32.571  1.00  0.00    -0.028 A 
HETATM   23  C   UNL     1      -4.120   5.362 -33.883  1.00  0.00     0.012 A 
HETATM   24  C   UNL     1      -3.199   5.403 -34.933  1.00  0.00     0.037 A 
HETATM   25  C   UNL     1      -1.856   5.146 -34.679  1.00  0.00     0.065 A 
HETATM   26  C   UNL     1      -1.422   4.841 -33.396  1.00  0.00     0.037 A 
HETATM   27  C   UNL     1      -2.341   4.791 -32.347  1.00  0.00     0.012 A 
BRANCH  25  28
HETATM   28  O   UNL     1      -0.925   5.174 -35.672  1.00  0.00    -0.361 OA
HETATM   29  H   UNL     1      -0.448   4.328 -35.682  1.00  0.00     0.217 HD
ENDBRANCH  25  28
ENDBRANCH   9  22
BRANCH   7  30
HETATM   30  C   UNL     1      -3.497   8.715 -28.509  1.00  0.00     0.036 A 
HETATM   31  C   UNL     1      -2.657   9.774 -28.887  1.00  0.00     0.048 A 
HETATM   32 CL   UNL     1      -2.405  10.248 -30.533  1.00  0.00    -0.083 Cl
HETATM   33  C   UNL     1      -2.010  10.543 -27.909  1.00  0.00     0.025 A 
HETATM   34  C   UNL     1      -2.195  10.271 -26.554  1.00  0.00     0.002 A 
HETATM   35  C   UNL     1      -3.033   9.230 -26.166  1.00  0.00     0.001 A 
HETATM   36  C   UNL     1      -3.679   8.460 -27.137  1.00  0.00     0.017 A 
ENDBRANCH   7  30
TORSDOF 5
ENDMDL
MODEL 10
REMARK VINA RESULT:      -9.0      4.447      7.315
REMARK  5 active torsions:
REMARK  status: ('A' for Active; 'I' for Inactive)
REMARK    1  A    between atoms: C_7  and  C_8 
REMARK    2  A    between atoms: C_16  and  C_17 
REMARK    3  A    between atoms: C_20  and  O_21 
REMARK    4  A    between atoms: C_24  and  C_25 
REMARK       I    between atoms: C_25  and  N_26 
REMARK    5  A    between atoms: N_26  and  C_27 
ROOT
HETATM    1  C   UNL     1      -8.354   3.324 -30.956  1.00  0.00     0.070 C 
HETATM    2  C   UNL     1      -9.269   3.576 -32.130  1.00  0.00     0.037 C 
HETATM    3  N   UNL     1      -9.680   4.901 -32.300  1.00  0.00    -0.192 N 
HETATM    4  C   UNL     1     -10.235   5.335 -33.451  1.00  0.00     0.726 A 
HETATM    5  N   UNL     1     -10.678   4.420 -34.359  1.00  0.00    -0.083 N 
HETATM    6  N   UNL     1     -11.089   5.004 -35.500  1.00  0.00    -0.135 NA
HETATM    7  C   UNL     1     -10.883   6.306 -35.213  1.00  0.00     0.200 A 
HETATM    8  N   UNL     1     -10.394   6.535 -33.939  1.00  0.00    -0.041 NA
HETATM    9  C   UNL     1     -10.635   2.974 -34.142  1.00  0.00     0.202 C 
HETATM   10  C   UNL     1      -9.681   2.620 -33.004  1.00  0.00     0.062 C 
HETATM   11  H   UNL     1      -9.223   5.595 -31.713  1.00  0.00     0.184 HD
ENDROOT
BRANCH  10  12
HETATM   12  C   UNL     1      -9.036   1.269 -33.028  1.00  0.00     0.256 C 
HETATM   13  N   UNL     1      -7.845   1.209 -33.719  1.00  0.00    -0.323 N 
HETATM   14  H   UNL     1      -7.549   2.021 -34.243  1.00  0.00     0.169 HD
HETATM   15  O   UNL     1      -9.553   0.351 -32.400  1.00  0.00    -0.267 OA
BRANCH  13  16
HETATM   16  C   UNL     1      -6.947   0.119 -33.776  1.00  0.00     0.035 A 
HETATM   17  C   UNL     1      -5.888  -0.073 -32.886  1.00  0.00     0.029 A 
HETATM   18  C   UNL     1      -5.031  -1.170 -33.029  1.00  0.00     0.002 A 
HETATM   19  C   UNL     1      -5.219  -2.078 -34.067  1.00  0.00     0.000 A 
HETATM   20  C   UNL     1      -6.273  -1.896 -34.960  1.00  0.00     0.002 A 
HETATM   21  C   UNL     1      -7.135  -0.807 -34.810  1.00  0.00     0.029 A 
ENDBRANCH  13  16
ENDBRANCH  10  12
BRANCH   9  22
HETATM   22  C   UNL     1     -12.063   2.468 -33.924  1.00  0.00    -0.028 A 
HETATM   23  C   UNL     1     -12.579   1.458 -34.759  1.00  0.00     0.012 A 
HETATM   24  C   UNL     1     -13.881   0.981 -34.582  1.00  0.00     0.037 A 
HETATM   25  C   UNL     1     -14.675   1.512 -33.572  1.00  0.00     0.065 A 
HETATM   26  C   UNL     1     -14.193   2.516 -32.744  1.00  0.00     0.037 A 
HETATM   27  C   UNL     1     -12.897   3.001 -32.924  1.00  0.00     0.012 A 
BRANCH  25  28
HETATM   28  O   UNL     1     -15.949   1.078 -33.365  1.00  0.00    -0.361 OA
HETATM   29  H   UNL     1     -16.496   1.827 -33.080  1.00  0.00     0.217 HD
ENDBRANCH  25  28
ENDBRANCH   9  22
BRANCH   7  30
HETATM   30  C   UNL     1     -11.182   7.376 -36.156  1.00  0.00     0.036 A 
HETATM   31  C   UNL     1     -12.483   7.844 -36.396  1.00  0.00     0.048 A 
HETATM   32 CL   UNL     1     -13.878   7.247 -35.563  1.00  0.00    -0.083 Cl
HETATM   33  C   UNL     1     -12.699   8.884 -37.311  1.00  0.00     0.025 A 
HETATM   34  C   UNL     1     -11.629   9.467 -37.990  1.00  0.00     0.002 A 
HETATM   35  C   UNL     1     -10.334   9.017 -37.755  1.00  0.00     0.001 A 
HETATM   36  C   UNL     1     -10.113   7.981 -36.844  1.00  0.00     0.017 A 
ENDBRANCH   7  30
TORSDOF 5
ENDMDL
