MODEL 1
REMARK VINA RESULT:      -9.6      0.000      0.000
REMARK  5 active torsions:
REMARK  status: ('A' for Active; 'I' for Inactive)
REMARK    1  A    between atoms: C_4  and  C_5 
REMARK    2  A    between atoms: C_11  and  C_12 
REMARK    3  A    between atoms: C_12  and  N_13 
REMARK    4  A    between atoms: C_16  and  C_17 
REMARK    5  A    between atoms: C_17  and  O_18 
ROOT
HETATM    1  N   UNL     1      -8.078   1.073 -34.380  1.00  0.00    -0.066 N 
HETATM    2  H   UNL     1      -8.703   1.307 -35.167  1.00  0.00     0.280 HD
HETATM    3  C   UNL     1      -7.914   2.288 -33.518  1.00  0.00     0.250 C 
HETATM    4  C   UNL     1      -9.234   2.412 -32.742  1.00  0.00     0.036 C 
HETATM    5  C   UNL     1      -9.838   0.974 -32.754  1.00  0.00     0.061 C 
HETATM    6  C   UNL     1      -8.812   0.101 -33.493  1.00  0.00     0.245 C 
HETATM    7  C   UNL     1     -10.154   3.421 -33.448  1.00  0.00     0.189 C 
HETATM    8  O   UNL     1     -10.619   2.891 -34.695  1.00  0.00    -0.350 OA
HETATM    9  C   UNL     1     -11.493   1.868 -34.429  1.00  0.00     0.075 A 
HETATM   10  C   UNL     1     -11.179   0.919 -33.451  1.00  0.00    -0.018 A 
HETATM   11  C   UNL     1     -12.685   1.809 -35.141  1.00  0.00     0.037 A 
HETATM   12  C   UNL     1     -13.610   0.812 -34.837  1.00  0.00     0.003 A 
HETATM   13  C   UNL     1     -13.328  -0.126 -33.842  1.00  0.00     0.001 A 
HETATM   14  C   UNL     1     -12.112  -0.083 -33.157  1.00  0.00     0.010 A 
ENDROOT
BRANCH   1  15
HETATM   15  C   UNL     1      -6.783   0.567 -34.942  1.00  0.00     0.277 C 
BRANCH  15  16
HETATM   16  C   UNL     1      -5.737   0.345 -33.916  1.00  0.00     0.016 A 
HETATM   17  C   UNL     1      -5.132  -0.893 -33.532  1.00  0.00     0.096 A 
HETATM   18  N   UNL     1      -4.186  -0.690 -32.607  1.00  0.00    -0.172 NA
HETATM   19  N   UNL     1      -4.252   0.616 -32.319  1.00  0.00    -0.284 N 
HETATM   20  C   UNL     1      -3.421   1.161 -31.270  1.00  0.00     0.179 C 
HETATM   21  C   UNL     1      -5.140   1.292 -33.103  1.00  0.00     0.123 A 
BRANCH  17  22
HETATM   22  C   UNL     1      -5.400  -2.240 -34.032  1.00  0.00    -0.005 A 
HETATM   23  C   UNL     1      -6.683  -2.609 -34.458  1.00  0.00     0.014 A 
HETATM   24  C   UNL     1      -6.922  -3.895 -34.946  1.00  0.00     0.001 A 
HETATM   25  C   UNL     1      -5.886  -4.827 -34.993  1.00  0.00     0.000 A 
HETATM   26  C   UNL     1      -4.613  -4.478 -34.545  1.00  0.00     0.001 A 
HETATM   27  C   UNL     1      -4.371  -3.190 -34.065  1.00  0.00     0.014 A 
ENDBRANCH  17  22
ENDBRANCH  15  16
ENDBRANCH   1  15
BRANCH   4  28
HETATM   28  C   UNL     1      -8.970   2.901 -31.314  1.00  0.00     0.178 C 
BRANCH  28  29
HETATM   29  O   UNL     1      -9.695   2.089 -30.401  1.00  0.00    -0.400 OA
HETATM   30  H   UNL     1     -10.097   2.685 -29.736  1.00  0.00     0.209 HD
ENDBRANCH  28  29
ENDBRANCH   4  28
TORSDOF 5
ENDMDL
MODEL 2
REMARK VINA RESULT:      -9.3      4.062      7.796
REMARK  5 active torsions:
REMARK  status: ('A' for Active; 'I' for Inactive)
REMARK    1  A    between atoms: C_4  and  C_5 
REMARK    2  A    between atoms: C_11  and  C_12 
REMARK    3  A    between atoms: C_12  and  N_13 
REMARK    4  A    between atoms: C_16  and  C_17 
REMARK    5  A    between atoms: C_17  and  O_18 
ROOT
HETATM    1  N   UNL     1      -4.455   3.401 -31.393  1.00  0.00    -0.066 N 
HETATM    2  H   UNL     1      -4.341   4.066 -30.611  1.00  0.00     0.280 HD
HETATM    3  C   UNL     1      -5.132   4.105 -32.529  1.00  0.00     0.250 C 
HETATM    4  C   UNL     1      -4.052   5.007 -33.145  1.00  0.00     0.036 C 
HETATM    5  C   UNL     1      -2.700   4.354 -32.721  1.00  0.00     0.061 C 
HETATM    6  C   UNL     1      -3.081   3.094 -31.929  1.00  0.00     0.245 C 
HETATM    7  C   UNL     1      -4.194   6.432 -32.588  1.00  0.00     0.189 C 
HETATM    8  O   UNL     1      -3.826   6.472 -31.205  1.00  0.00    -0.350 OA
HETATM    9  C   UNL     1      -2.471   6.279 -31.113  1.00  0.00     0.075 A 
HETATM   10  C   UNL     1      -1.857   5.277 -31.872  1.00  0.00    -0.018 A 
HETATM   11  C   UNL     1      -1.737   7.101 -30.267  1.00  0.00     0.037 A 
HETATM   12  C   UNL     1      -0.352   6.958 -30.212  1.00  0.00     0.003 A 
HETATM   13  C   UNL     1       0.283   5.985 -30.985  1.00  0.00     0.001 A 
HETATM   14  C   UNL     1      -0.465   5.137 -31.805  1.00  0.00     0.010 A 
ENDROOT
BRANCH   1  15
HETATM   15  C   UNL     1      -5.222   2.213 -30.890  1.00  0.00     0.277 C 
BRANCH  15  16
HETATM   16  C   UNL     1      -6.692   2.369 -30.993  1.00  0.00     0.016 A 
HETATM   17  C   UNL     1      -7.581   1.722 -31.908  1.00  0.00     0.096 A 
HETATM   18  N   UNL     1      -8.849   2.074 -31.662  1.00  0.00    -0.172 NA
HETATM   19  N   UNL     1      -8.775   3.001 -30.700  1.00  0.00    -0.284 N 
HETATM   20  C   UNL     1      -9.975   3.675 -30.260  1.00  0.00     0.179 C 
HETATM   21  C   UNL     1      -7.507   3.190 -30.235  1.00  0.00     0.123 A 
BRANCH  17  22
HETATM   22  C   UNL     1      -7.271   0.769 -32.971  1.00  0.00    -0.005 A 
HETATM   23  C   UNL     1      -7.470   1.102 -34.318  1.00  0.00     0.014 A 
HETATM   24  C   UNL     1      -7.156   0.186 -35.325  1.00  0.00     0.001 A 
HETATM   25  C   UNL     1      -6.661  -1.074 -34.992  1.00  0.00     0.000 A 
HETATM   26  C   UNL     1      -6.486  -1.424 -33.654  1.00  0.00     0.001 A 
HETATM   27  C   UNL     1      -6.792  -0.507 -32.647  1.00  0.00     0.014 A 
ENDBRANCH  17  22
ENDBRANCH  15  16
ENDBRANCH   1  15
BRANCH   4  28
HETATM   28  C   UNL     1      -4.202   5.055 -34.670  1.00  0.00     0.178 C 
BRANCH  28  29
HETATM   29  O   UNL     1      -3.365   6.080 -35.188  1.00  0.00    -0.400 OA
HETATM   30  H   UNL     1      -3.296   6.774 -34.501  1.00  0.00     0.209 HD
ENDBRANCH  28  29
ENDBRANCH   4  28
TORSDOF 5
ENDMDL
MODEL 3
REMARK VINA RESULT:      -9.1      2.658      6.204
REMARK  5 active torsions:
REMARK  status: ('A' for Active; 'I' for Inactive)
REMARK    1  A    between atoms: C_4  and  C_5 
REMARK    2  A    between atoms: C_11  and  C_12 
REMARK    3  A    between atoms: C_12  and  N_13 
REMARK    4  A    between atoms: C_16  and  C_17 
REMARK    5  A    between atoms: C_17  and  O_18 
ROOT
HETATM    1  N   UNL     1      -7.681   3.631 -33.114  1.00  0.00    -0.066 N 
HETATM    2  H   UNL     1      -7.869   2.826 -32.496  1.00  0.00     0.280 HD
HETATM    3  C   UNL     1      -7.460   4.847 -32.267  1.00  0.00     0.250 C 
HETATM    4  C   UNL     1      -6.054   4.675 -31.673  1.00  0.00     0.036 C 
HETATM    5  C   UNL     1      -5.330   3.696 -32.648  1.00  0.00     0.061 C 
HETATM    6  C   UNL     1      -6.343   3.401 -33.765  1.00  0.00     0.245 C 
HETATM    7  C   UNL     1      -6.161   4.090 -30.256  1.00  0.00     0.189 C 
HETATM    8  O   UNL     1      -6.606   2.729 -30.305  1.00  0.00    -0.350 OA
HETATM    9  C   UNL     1      -5.598   1.966 -30.837  1.00  0.00     0.075 A 
HETATM   10  C   UNL     1      -4.906   2.415 -31.967  1.00  0.00    -0.018 A 
HETATM   11  C   UNL     1      -5.284   0.759 -30.226  1.00  0.00     0.037 A 
HETATM   12  C   UNL     1      -4.222   0.003 -30.717  1.00  0.00     0.003 A 
HETATM   13  C   UNL     1      -3.498   0.449 -31.825  1.00  0.00     0.001 A 
HETATM   14  C   UNL     1      -3.844   1.645 -32.457  1.00  0.00     0.010 A 
ENDROOT
BRANCH   1  15
HETATM   15  C   UNL     1      -8.834   3.773 -34.064  1.00  0.00     0.277 C 
BRANCH  15  16
HETATM   16  C   UNL     1      -9.900   2.764 -33.858  1.00  0.00     0.016 A 
HETATM   17  C   UNL     1      -9.763   1.342 -33.797  1.00  0.00     0.096 A 
HETATM   18  N   UNL     1     -10.943   0.763 -33.544  1.00  0.00    -0.172 NA
HETATM   19  N   UNL     1     -11.832   1.764 -33.552  1.00  0.00    -0.284 N 
HETATM   20  C   UNL     1     -13.240   1.473 -33.408  1.00  0.00     0.179 C 
HETATM   21  C   UNL     1     -11.255   2.991 -33.699  1.00  0.00     0.123 A 
BRANCH  17  22
HETATM   22  C   UNL     1      -8.557   0.529 -33.939  1.00  0.00    -0.005 A 
HETATM   23  C   UNL     1      -7.958   0.339 -35.192  1.00  0.00     0.014 A 
HETATM   24  C   UNL     1      -6.797  -0.429 -35.310  1.00  0.00     0.001 A 
HETATM   25  C   UNL     1      -6.240  -1.029 -34.182  1.00  0.00     0.000 A 
HETATM   26  C   UNL     1      -6.844  -0.868 -32.936  1.00  0.00     0.001 A 
HETATM   27  C   UNL     1      -7.999  -0.094 -32.815  1.00  0.00     0.014 A 
ENDBRANCH  17  22
ENDBRANCH  15  16
ENDBRANCH   1  15
BRANCH   4  28
HETATM   28  C   UNL     1      -5.337   6.027 -31.596  1.00  0.00     0.178 C 
BRANCH  28  29
HETATM   29  O   UNL     1      -4.760   6.322 -32.860  1.00  0.00    -0.400 OA
HETATM   30  H   UNL     1      -4.780   7.295 -32.970  1.00  0.00     0.209 HD
ENDBRANCH  28  29
ENDBRANCH   4  28
TORSDOF 5
ENDMDL
MODEL 4
REMARK VINA RESULT:      -9.1      3.790      7.492
REMARK  5 active torsions:
REMARK  status: ('A' for Active; 'I' for Inactive)
REMARK    1  A    between atoms: C_4  and  C_5 
REMARK    2  A    between atoms: C_11  and  C_12 
REMARK    3  A    between atoms: C_12  and  N_13 
REMARK    4  A    between atoms: C_16  and  C_17 
REMARK    5  A    between atoms: C_17  and  O_18 
ROOT
HETATM    1  N   UNL     1      -4.530   3.211 -31.331  1.00  0.00    -0.066 N 
HETATM    2  H   UNL     1      -4.394   3.909 -30.583  1.00  0.00     0.280 HD
HETATM    3  C   UNL     1      -5.334   3.836 -32.431  1.00  0.00     0.250 C 
HETATM    4  C   UNL     1      -4.359   4.773 -33.159  1.00  0.00     0.036 C 
HETATM    5  C   UNL     1      -2.943   4.211 -32.825  1.00  0.00     0.061 C 
HETATM    6  C   UNL     1      -3.188   2.961 -31.966  1.00  0.00     0.245 C 
HETATM    7  C   UNL     1      -4.538   6.208 -32.638  1.00  0.00     0.189 C 
HETATM    8  O   UNL     1      -4.066   6.317 -31.290  1.00  0.00    -0.350 OA
HETATM    9  C   UNL     1      -2.699   6.202 -31.302  1.00  0.00     0.075 A 
HETATM   10  C   UNL     1      -2.090   5.208 -32.076  1.00  0.00    -0.018 A 
HETATM   11  C   UNL     1      -1.950   7.092 -30.544  1.00  0.00     0.037 A 
HETATM   12  C   UNL     1      -0.559   7.028 -30.595  1.00  0.00     0.003 A 
HETATM   13  C   UNL     1       0.069   6.063 -31.386  1.00  0.00     0.001 A 
HETATM   14  C   UNL     1      -0.692   5.148 -32.116  1.00  0.00     0.010 A 
ENDROOT
BRANCH   1  15
HETATM   15  C   UNL     1      -5.186   2.002 -30.732  1.00  0.00     0.277 C 
BRANCH  15  16
HETATM   16  C   UNL     1      -4.721   0.723 -31.318  1.00  0.00     0.016 A 
HETATM   17  C   UNL     1      -5.345  -0.048 -32.349  1.00  0.00     0.096 A 
HETATM   18  N   UNL     1      -4.601  -1.119 -32.653  1.00  0.00    -0.172 NA
HETATM   19  N   UNL     1      -3.590  -1.104 -31.775  1.00  0.00    -0.284 N 
HETATM   20  C   UNL     1      -2.640  -2.192 -31.759  1.00  0.00     0.179 C 
HETATM   21  C   UNL     1      -3.593   0.000 -30.974  1.00  0.00     0.123 A 
BRANCH  17  22
HETATM   22  C   UNL     1      -6.591   0.213 -33.064  1.00  0.00    -0.005 A 
HETATM   23  C   UNL     1      -6.612   0.321 -34.462  1.00  0.00     0.014 A 
HETATM   24  C   UNL     1      -7.813   0.558 -35.134  1.00  0.00     0.001 A 
HETATM   25  C   UNL     1      -8.997   0.709 -34.414  1.00  0.00     0.000 A 
HETATM   26  C   UNL     1      -8.982   0.632 -33.022  1.00  0.00     0.001 A 
HETATM   27  C   UNL     1      -7.783   0.387 -32.350  1.00  0.00     0.014 A 
ENDBRANCH  17  22
ENDBRANCH  15  16
ENDBRANCH   1  15
BRANCH   4  28
HETATM   28  C   UNL     1      -4.630   4.759 -34.668  1.00  0.00     0.178 C 
BRANCH  28  29
HETATM   29  O   UNL     1      -3.705   5.620 -35.316  1.00  0.00    -0.400 OA
HETATM   30  H   UNL     1      -4.168   6.025 -36.078  1.00  0.00     0.209 HD
ENDBRANCH  28  29
ENDBRANCH   4  28
TORSDOF 5
ENDMDL
MODEL 5
REMARK VINA RESULT:      -8.9      3.299      6.418
REMARK  5 active torsions:
REMARK  status: ('A' for Active; 'I' for Inactive)
REMARK    1  A    between atoms: C_4  and  C_5 
REMARK    2  A    between atoms: C_11  and  C_12 
REMARK    3  A    between atoms: C_12  and  N_13 
REMARK    4  A    between atoms: C_16  and  C_17 
REMARK    5  A    between atoms: C_17  and  O_18 
ROOT
HETATM    1  N   UNL     1      -5.632   2.614 -31.667  1.00  0.00    -0.066 N 
HETATM    2  H   UNL     1      -4.635   2.632 -31.401  1.00  0.00     0.280 HD
HETATM    3  C   UNL     1      -6.341   3.727 -30.955  1.00  0.00     0.250 C 
HETATM    4  C   UNL     1      -5.924   5.007 -31.695  1.00  0.00     0.036 C 
HETATM    5  C   UNL     1      -5.488   4.523 -33.112  1.00  0.00     0.061 C 
HETATM    6  C   UNL     1      -5.721   3.004 -33.119  1.00  0.00     0.245 C 
HETATM    7  C   UNL     1      -4.767   5.683 -30.943  1.00  0.00     0.189 C 
HETATM    8  O   UNL     1      -3.570   4.903 -31.054  1.00  0.00    -0.350 OA
HETATM    9  C   UNL     1      -3.129   4.973 -32.351  1.00  0.00     0.075 A 
HETATM   10  C   UNL     1      -4.038   4.836 -33.405  1.00  0.00    -0.018 A 
HETATM   11  C   UNL     1      -1.777   5.191 -32.582  1.00  0.00     0.037 A 
HETATM   12  C   UNL     1      -1.324   5.328 -33.893  1.00  0.00     0.003 A 
HETATM   13  C   UNL     1      -2.221   5.225 -34.958  1.00  0.00     0.001 A 
HETATM   14  C   UNL     1      -3.573   4.969 -34.719  1.00  0.00     0.010 A 
ENDROOT
BRANCH   1  15
HETATM   15  C   UNL     1      -6.181   1.257 -31.338  1.00  0.00     0.277 C 
BRANCH  15  16
HETATM   16  C   UNL     1      -7.384   0.896 -32.125  1.00  0.00     0.016 A 
HETATM   17  C   UNL     1      -7.514  -0.135 -33.107  1.00  0.00     0.096 A 
HETATM   18  N   UNL     1      -8.770  -0.195 -33.566  1.00  0.00    -0.172 NA
HETATM   19  N   UNL     1      -9.404   0.831 -32.986  1.00  0.00    -0.284 N 
HETATM   20  C   UNL     1     -10.773   1.122 -33.344  1.00  0.00     0.179 C 
HETATM   21  C   UNL     1      -8.629   1.498 -32.083  1.00  0.00     0.123 A 
BRANCH  17  22
HETATM   22  C   UNL     1      -6.503  -1.072 -33.594  1.00  0.00    -0.005 A 
HETATM   23  C   UNL     1      -5.152  -0.915 -33.256  1.00  0.00     0.014 A 
HETATM   24  C   UNL     1      -4.199  -1.826 -33.718  1.00  0.00     0.001 A 
HETATM   25  C   UNL     1      -4.586  -2.886 -34.535  1.00  0.00     0.000 A 
HETATM   26  C   UNL     1      -5.924  -3.034 -34.899  1.00  0.00     0.001 A 
HETATM   27  C   UNL     1      -6.878  -2.129 -34.432  1.00  0.00     0.014 A 
ENDBRANCH  17  22
ENDBRANCH  15  16
ENDBRANCH   1  15
BRANCH   4  28
HETATM   28  C   UNL     1      -7.101   5.986 -31.771  1.00  0.00     0.178 C 
BRANCH  28  29
HETATM   29  O   UNL     1      -6.916   6.851 -32.883  1.00  0.00    -0.400 OA
HETATM   30  H   UNL     1      -5.955   7.018 -32.965  1.00  0.00     0.209 HD
ENDBRANCH  28  29
ENDBRANCH   4  28
TORSDOF 5
ENDMDL
MODEL 6
REMARK VINA RESULT:      -8.8      2.928      6.729
REMARK  5 active torsions:
REMARK  status: ('A' for Active; 'I' for Inactive)
REMARK    1  A    between atoms: C_4  and  C_5 
REMARK    2  A    between atoms: C_11  and  C_12 
REMARK    3  A    between atoms: C_12  and  N_13 
REMARK    4  A    between atoms: C_16  and  C_17 
REMARK    5  A    between atoms: C_17  and  O_18 
ROOT
HETATM    1  N   UNL     1      -5.479   1.970 -31.496  1.00  0.00    -0.066 N 
HETATM    2  H   UNL     1      -4.750   2.264 -30.828  1.00  0.00     0.280 HD
HETATM    3  C   UNL     1      -6.629   2.926 -31.406  1.00  0.00     0.250 C 
HETATM    4  C   UNL     1      -6.153   4.198 -32.124  1.00  0.00     0.036 C 
HETATM    5  C   UNL     1      -5.017   3.714 -33.076  1.00  0.00     0.061 C 
HETATM    6  C   UNL     1      -4.938   2.191 -32.885  1.00  0.00     0.245 C 
HETATM    7  C   UNL     1      -5.635   5.210 -31.090  1.00  0.00     0.189 C 
HETATM    8  O   UNL     1      -4.410   4.752 -30.506  1.00  0.00    -0.350 OA
HETATM    9  C   UNL     1      -3.428   4.814 -31.461  1.00  0.00     0.075 A 
HETATM   10  C   UNL     1      -3.686   4.356 -32.757  1.00  0.00    -0.018 A 
HETATM   11  C   UNL     1      -2.193   5.346 -31.111  1.00  0.00     0.037 A 
HETATM   12  C   UNL     1      -1.206   5.474 -32.087  1.00  0.00     0.003 A 
HETATM   13  C   UNL     1      -1.455   5.051 -33.394  1.00  0.00     0.001 A 
HETATM   14  C   UNL     1      -2.686   4.483 -33.729  1.00  0.00     0.010 A 
ENDROOT
BRANCH   1  15
HETATM   15  C   UNL     1      -5.860   0.553 -31.181  1.00  0.00     0.277 C 
BRANCH  15  16
HETATM   16  C   UNL     1      -5.821  -0.348 -32.357  1.00  0.00     0.016 A 
HETATM   17  C   UNL     1      -6.805  -0.494 -33.385  1.00  0.00     0.096 A 
HETATM   18  N   UNL     1      -6.393  -1.367 -34.312  1.00  0.00    -0.172 NA
HETATM   19  N   UNL     1      -5.237  -1.854 -33.846  1.00  0.00    -0.284 N 
HETATM   20  C   UNL     1      -4.563  -2.910 -34.565  1.00  0.00     0.179 C 
HETATM   21  C   UNL     1      -4.827  -1.249 -32.694  1.00  0.00     0.123 A 
BRANCH  17  22
HETATM   22  C   UNL     1      -8.091   0.184 -33.526  1.00  0.00    -0.005 A 
HETATM   23  C   UNL     1      -8.208   1.359 -34.282  1.00  0.00     0.014 A 
HETATM   24  C   UNL     1      -9.447   1.989 -34.420  1.00  0.00     0.001 A 
HETATM   25  C   UNL     1     -10.572   1.462 -33.788  1.00  0.00     0.000 A 
HETATM   26  C   UNL     1     -10.461   0.309 -33.012  1.00  0.00     0.001 A 
HETATM   27  C   UNL     1      -9.225  -0.326 -32.880  1.00  0.00     0.014 A 
ENDBRANCH  17  22
ENDBRANCH  15  16
ENDBRANCH   1  15
BRANCH   4  28
HETATM   28  C   UNL     1      -7.309   4.836 -32.903  1.00  0.00     0.178 C 
BRANCH  28  29
HETATM   29  O   UNL     1      -6.941   4.952 -34.270  1.00  0.00    -0.400 OA
HETATM   30  H   UNL     1      -7.383   5.751 -34.624  1.00  0.00     0.209 HD
ENDBRANCH  28  29
ENDBRANCH   4  28
TORSDOF 5
ENDMDL
MODEL 7
REMARK VINA RESULT:      -8.8      6.736     10.936
REMARK  5 active torsions:
REMARK  status: ('A' for Active; 'I' for Inactive)
REMARK    1  A    between atoms: C_4  and  C_5 
REMARK    2  A    between atoms: C_11  and  C_12 
REMARK    3  A    between atoms: C_12  and  N_13 
REMARK    4  A    between atoms: C_16  and  C_17 
REMARK    5  A    between atoms: C_17  and  O_18 
ROOT
HETATM    1  N   UNL     1      -3.896   6.506 -29.201  1.00  0.00    -0.066 N 
HETATM    2  H   UNL     1      -3.170   5.832 -28.912  1.00  0.00     0.280 HD
HETATM    3  C   UNL     1      -4.740   6.845 -28.009  1.00  0.00     0.250 C 
HETATM    4  C   UNL     1      -3.873   7.784 -27.156  1.00  0.00     0.036 C 
HETATM    5  C   UNL     1      -2.842   8.391 -28.156  1.00  0.00     0.061 C 
HETATM    6  C   UNL     1      -3.203   7.803 -29.529  1.00  0.00     0.245 C 
HETATM    7  C   UNL     1      -3.182   6.978 -26.045  1.00  0.00     0.189 C 
HETATM    8  O   UNL     1      -2.183   6.113 -26.598  1.00  0.00    -0.350 OA
HETATM    9  C   UNL     1      -1.147   6.887 -27.056  1.00  0.00     0.075 A 
HETATM   10  C   UNL     1      -1.416   8.046 -27.793  1.00  0.00    -0.018 A 
HETATM   11  C   UNL     1       0.154   6.499 -26.762  1.00  0.00     0.037 A 
HETATM   12  C   UNL     1       1.213   7.309 -27.166  1.00  0.00     0.003 A 
HETATM   13  C   UNL     1       0.964   8.486 -27.876  1.00  0.00     0.001 A 
HETATM   14  C   UNL     1      -0.345   8.850 -28.200  1.00  0.00     0.010 A 
ENDROOT
BRANCH   1  15
HETATM   15  C   UNL     1      -4.678   5.900 -30.328  1.00  0.00     0.277 C 
BRANCH  15  16
HETATM   16  C   UNL     1      -4.135   4.604 -30.798  1.00  0.00     0.016 A 
HETATM   17  C   UNL     1      -2.797   4.311 -31.211  1.00  0.00     0.096 A 
HETATM   18  N   UNL     1      -2.670   3.014 -31.518  1.00  0.00    -0.172 NA
HETATM   19  N   UNL     1      -3.905   2.508 -31.417  1.00  0.00    -0.284 N 
HETATM   20  C   UNL     1      -4.148   1.132 -31.782  1.00  0.00     0.179 C 
HETATM   21  C   UNL     1      -4.817   3.411 -30.952  1.00  0.00     0.123 A 
BRANCH  17  22
HETATM   22  C   UNL     1      -1.644   5.206 -31.291  1.00  0.00    -0.005 A 
HETATM   23  C   UNL     1      -0.576   5.088 -30.392  1.00  0.00     0.014 A 
HETATM   24  C   UNL     1       0.526   5.942 -30.489  1.00  0.00     0.001 A 
HETATM   25  C   UNL     1       0.557   6.930 -31.471  1.00  0.00     0.000 A 
HETATM   26  C   UNL     1      -0.513   7.073 -32.352  1.00  0.00     0.001 A 
HETATM   27  C   UNL     1      -1.611   6.215 -32.261  1.00  0.00     0.014 A 
ENDBRANCH  17  22
ENDBRANCH  15  16
ENDBRANCH   1  15
BRANCH   4  28
HETATM   28  C   UNL     1      -4.740   8.870 -26.510  1.00  0.00     0.178 C 
BRANCH  28  29
HETATM   29  O   UNL     1      -4.983   8.527 -25.153  1.00  0.00    -0.400 OA
HETATM   30  H   UNL     1      -4.850   7.560 -25.069  1.00  0.00     0.209 HD
ENDBRANCH  28  29
ENDBRANCH   4  28
TORSDOF 5
ENDMDL
MODEL 8
REMARK VINA RESULT:      -8.8      4.154      7.463
REMARK  5 active torsions:
REMARK  status: ('A' for Active; 'I' for Inactive)
REMARK    1  A    between atoms: C_4  and  C_5 
REMARK    2  A    between atoms: C_11  and  C_12 
REMARK    3  A    between atoms: C_12  and  N_13 
REMARK    4  A    between atoms: C_16  and  C_17 
REMARK    5  A    between atoms: C_17  and  O_18 
ROOT
HETATM    1  N   UNL     1      -5.142   3.914 -31.304  1.00  0.00    -0.066 N 
HETATM    2  H   UNL     1      -5.030   3.757 -32.318  1.00  0.00     0.280 HD
HETATM    3  C   UNL     1      -6.508   4.478 -31.053  1.00  0.00     0.250 C 
HETATM    4  C   UNL     1      -7.470   3.291 -31.214  1.00  0.00     0.036 C 
HETATM    5  C   UNL     1      -6.587   2.029 -30.969  1.00  0.00     0.061 C 
HETATM    6  C   UNL     1      -5.185   2.563 -30.638  1.00  0.00     0.245 C 
HETATM    7  C   UNL     1      -8.068   3.301 -32.629  1.00  0.00     0.189 C 
HETATM    8  O   UNL     1      -7.067   2.975 -33.601  1.00  0.00    -0.350 OA
HETATM    9  C   UNL     1      -6.739   1.651 -33.455  1.00  0.00     0.075 A 
HETATM   10  C   UNL     1      -6.534   1.121 -32.177  1.00  0.00    -0.018 A 
HETATM   11  C   UNL     1      -6.630   0.863 -34.594  1.00  0.00     0.037 A 
HETATM   12  C   UNL     1      -6.360  -0.497 -34.457  1.00  0.00     0.003 A 
HETATM   13  C   UNL     1      -6.183  -1.052 -33.188  1.00  0.00     0.001 A 
HETATM   14  C   UNL     1      -6.257  -0.246 -32.050  1.00  0.00     0.010 A 
ENDROOT
BRANCH   1  15
HETATM   15  C   UNL     1      -4.035   4.816 -30.843  1.00  0.00     0.277 C 
BRANCH  15  16
HETATM   16  C   UNL     1      -2.969   5.010 -31.854  1.00  0.00     0.016 A 
HETATM   17  C   UNL     1      -1.643   5.504 -31.646  1.00  0.00     0.096 A 
HETATM   18  N   UNL     1      -0.948   5.488 -32.791  1.00  0.00    -0.172 NA
HETATM   19  N   UNL     1      -1.825   5.105 -33.727  1.00  0.00    -0.284 N 
HETATM   20  C   UNL     1      -1.425   5.078 -35.115  1.00  0.00     0.179 C 
HETATM   21  C   UNL     1      -3.043   4.770 -33.214  1.00  0.00     0.123 A 
BRANCH  17  22
HETATM   22  C   UNL     1      -1.014   5.955 -30.407  1.00  0.00    -0.005 A 
HETATM   23  C   UNL     1       0.030   5.226 -29.821  1.00  0.00     0.014 A 
HETATM   24  C   UNL     1       0.630   5.676 -28.643  1.00  0.00     0.001 A 
HETATM   25  C   UNL     1       0.179   6.844 -28.032  1.00  0.00     0.000 A 
HETATM   26  C   UNL     1      -0.878   7.561 -28.592  1.00  0.00     0.001 A 
HETATM   27  C   UNL     1      -1.473   7.117 -29.774  1.00  0.00     0.014 A 
ENDBRANCH  17  22
ENDBRANCH  15  16
ENDBRANCH   1  15
BRANCH   4  28
HETATM   28  C   UNL     1      -8.611   3.387 -30.195  1.00  0.00     0.178 C 
BRANCH  28  29
HETATM   29  O   UNL     1      -9.478   2.274 -30.361  1.00  0.00    -0.400 OA
HETATM   30  H   UNL     1     -10.392   2.591 -30.212  1.00  0.00     0.209 HD
ENDBRANCH  28  29
ENDBRANCH   4  28
TORSDOF 5
ENDMDL
MODEL 9
REMARK VINA RESULT:      -8.7      3.138      4.402
REMARK  5 active torsions:
REMARK  status: ('A' for Active; 'I' for Inactive)
REMARK    1  A    between atoms: C_4  and  C_5 
REMARK    2  A    between atoms: C_11  and  C_12 
REMARK    3  A    between atoms: C_12  and  N_13 
REMARK    4  A    between atoms: C_16  and  C_17 
REMARK    5  A    between atoms: C_17  and  O_18 
ROOT
HETATM    1  N   UNL     1      -6.374   4.059 -30.861  1.00  0.00    -0.066 N 
HETATM    2  H   UNL     1      -6.200   3.793 -31.843  1.00  0.00     0.280 HD
HETATM    3  C   UNL     1      -7.366   5.183 -30.835  1.00  0.00     0.250 C 
HETATM    4  C   UNL     1      -8.721   4.530 -31.145  1.00  0.00     0.036 C 
HETATM    5  C   UNL     1      -8.538   3.030 -30.757  1.00  0.00     0.061 C 
HETATM    6  C   UNL     1      -7.108   2.919 -30.206  1.00  0.00     0.245 C 
HETATM    7  C   UNL     1      -9.043   4.695 -32.639  1.00  0.00     0.189 C 
HETATM    8  O   UNL     1      -8.165   3.892 -33.435  1.00  0.00    -0.350 OA
HETATM    9  C   UNL     1      -8.486   2.573 -33.233  1.00  0.00     0.075 A 
HETATM   10  C   UNL     1      -8.723   2.104 -31.937  1.00  0.00    -0.018 A 
HETATM   11  C   UNL     1      -8.577   1.735 -34.337  1.00  0.00     0.037 A 
HETATM   12  C   UNL     1      -8.964   0.408 -34.154  1.00  0.00     0.003 A 
HETATM   13  C   UNL     1      -9.235  -0.071 -32.871  1.00  0.00     0.001 A 
HETATM   14  C   UNL     1      -9.105   0.768 -31.763  1.00  0.00     0.010 A 
ENDROOT
BRANCH   1  15
HETATM   15  C   UNL     1      -5.060   4.416 -30.231  1.00  0.00     0.277 C 
BRANCH  15  16
HETATM   16  C   UNL     1      -3.921   4.390 -31.179  1.00  0.00     0.016 A 
HETATM   17  C   UNL     1      -3.440   3.280 -31.943  1.00  0.00     0.096 A 
HETATM   18  N   UNL     1      -2.424   3.654 -32.731  1.00  0.00    -0.172 NA
HETATM   19  N   UNL     1      -2.181   4.930 -32.406  1.00  0.00    -0.284 N 
HETATM   20  C   UNL     1      -1.063   5.621 -33.007  1.00  0.00     0.179 C 
HETATM   21  C   UNL     1      -3.074   5.433 -31.506  1.00  0.00     0.123 A 
BRANCH  17  22
HETATM   22  C   UNL     1      -3.930   1.904 -31.972  1.00  0.00    -0.005 A 
HETATM   23  C   UNL     1      -4.999   1.535 -32.799  1.00  0.00     0.014 A 
HETATM   24  C   UNL     1      -5.448   0.213 -32.826  1.00  0.00     0.001 A 
HETATM   25  C   UNL     1      -4.846  -0.744 -32.012  1.00  0.00     0.000 A 
HETATM   26  C   UNL     1      -3.800  -0.382 -31.165  1.00  0.00     0.001 A 
HETATM   27  C   UNL     1      -3.345   0.938 -31.143  1.00  0.00     0.014 A 
ENDBRANCH  17  22
ENDBRANCH  15  16
ENDBRANCH   1  15
BRANCH   4  28
HETATM   28  C   UNL     1      -9.833   5.193 -30.325  1.00  0.00     0.178 C 
BRANCH  28  29
HETATM   29  O   UNL     1      -9.264   5.800 -29.173  1.00  0.00    -0.400 OA
HETATM   30  H   UNL     1      -8.563   5.200 -28.844  1.00  0.00     0.209 HD
ENDBRANCH  28  29
ENDBRANCH   4  28
TORSDOF 5
ENDMDL
MODEL 10
REMARK VINA RESULT:      -8.6      3.490      7.002
REMARK  5 active torsions:
REMARK  status: ('A' for Active; 'I' for Inactive)
REMARK    1  A    between atoms: C_4  and  C_5 
REMARK    2  A    between atoms: C_11  and  C_12 
REMARK    3  A    between atoms: C_12  and  N_13 
REMARK    4  A    between atoms: C_16  and  C_17 
REMARK    5  A    between atoms: C_17  and  O_18 
ROOT
HETATM    1  N   UNL     1      -5.488   2.335 -33.008  1.00  0.00    -0.066 N 
HETATM    2  H   UNL     1      -6.069   1.917 -33.752  1.00  0.00     0.280 HD
HETATM    3  C   UNL     1      -6.224   2.231 -31.707  1.00  0.00     0.250 C 
HETATM    4  C   UNL     1      -6.109   0.756 -31.295  1.00  0.00     0.036 C 
HETATM    5  C   UNL     1      -4.850   0.230 -32.051  1.00  0.00     0.061 C 
HETATM    6  C   UNL     1      -4.291   1.441 -32.814  1.00  0.00     0.245 C 
HETATM    7  C   UNL     1      -7.380   0.002 -31.716  1.00  0.00     0.189 C 
HETATM    8  O   UNL     1      -7.447  -0.117 -33.142  1.00  0.00    -0.350 OA
HETATM    9  C   UNL     1      -6.468  -0.989 -33.547  1.00  0.00     0.075 A 
HETATM   10  C   UNL     1      -5.181  -0.891 -33.010  1.00  0.00    -0.018 A 
HETATM   11  C   UNL     1      -6.792  -1.962 -34.484  1.00  0.00     0.037 A 
HETATM   12  C   UNL     1      -5.826  -2.895 -34.858  1.00  0.00     0.003 A 
HETATM   13  C   UNL     1      -4.544  -2.833 -34.309  1.00  0.00     0.001 A 
HETATM   14  C   UNL     1      -4.215  -1.829 -33.396  1.00  0.00     0.010 A 
ENDROOT
BRANCH   1  15
HETATM   15  C   UNL     1      -5.170   3.748 -33.398  1.00  0.00     0.277 C 
BRANCH  15  16
HETATM   16  C   UNL     1      -4.039   4.332 -32.640  1.00  0.00     0.016 A 
HETATM   17  C   UNL     1      -4.094   5.119 -31.447  1.00  0.00     0.096 A 
HETATM   18  N   UNL     1      -2.861   5.424 -31.024  1.00  0.00    -0.172 NA
HETATM   19  N   UNL     1      -2.040   4.949 -31.968  1.00  0.00    -0.284 N 
HETATM   20  C   UNL     1      -0.620   5.197 -31.873  1.00  0.00     0.179 C 
HETATM   21  C   UNL     1      -2.691   4.252 -32.943  1.00  0.00     0.123 A 
BRANCH  17  22
HETATM   22  C   UNL     1      -5.265   5.558 -30.691  1.00  0.00    -0.005 A 
HETATM   23  C   UNL     1      -6.136   6.527 -31.207  1.00  0.00     0.014 A 
HETATM   24  C   UNL     1      -7.258   6.928 -30.478  1.00  0.00     0.001 A 
HETATM   25  C   UNL     1      -7.506   6.378 -29.222  1.00  0.00     0.000 A 
HETATM   26  C   UNL     1      -6.631   5.433 -28.688  1.00  0.00     0.001 A 
HETATM   27  C   UNL     1      -5.513   5.027 -29.419  1.00  0.00     0.014 A 
ENDBRANCH  17  22
ENDBRANCH  15  16
ENDBRANCH   1  15
BRANCH   4  28
HETATM   28  C   UNL     1      -5.945   0.637 -29.776  1.00  0.00     0.178 C 
BRANCH  28  29
HETATM   29  O   UNL     1      -6.607   1.727 -29.149  1.00  0.00    -0.400 OA
HETATM   30  H   UNL     1      -6.370   2.536 -29.647  1.00  0.00     0.209 HD
ENDBRANCH  28  29
ENDBRANCH   4  28
TORSDOF 5
ENDMDL
