MODEL 1
REMARK VINA RESULT:      -9.3      0.000      0.000
REMARK  3 active torsions:
REMARK  status: ('A' for Active; 'I' for Inactive)
REMARK    1  A    between atoms: C_12  and  C_13 
REMARK       I    between atoms: C_13  and  N_14 
REMARK    2  A    between atoms: N_14  and  C_15 
REMARK    3  A    between atoms: C_15  and  C_16 
ROOT
HETATM    1  C   UNL     1      -6.167  -4.567 -35.044  1.00  0.00     0.001 A 
HETATM    2  C   UNL     1      -6.745  -3.297 -34.970  1.00  0.00     0.016 A 
HETATM    3  C   UNL     1      -6.039  -2.248 -34.379  1.00  0.00     0.026 A 
HETATM    4  C   UNL     1      -4.747  -2.472 -33.859  1.00  0.00     0.081 A 
HETATM    5  O   UNL     1      -3.964  -1.510 -33.259  1.00  0.00    -0.346 OA
HETATM    6  C   UNL     1      -4.463  -0.149 -33.121  1.00  0.00     0.219 A 
HETATM    7  C   UNL     1      -5.814   0.093 -33.670  1.00  0.00     0.031 A 
HETATM    8  C   UNL     1      -6.544  -0.905 -34.256  1.00  0.00     0.074 A 
HETATM    9  N   UNL     1      -7.720  -0.346 -34.640  1.00  0.00    -0.276 N 
HETATM   10  H   UNL     1      -8.505  -0.788 -35.104  1.00  0.00     0.189 HD
HETATM   11  N   UNL     1      -7.804   0.970 -34.345  1.00  0.00    -0.168 NA
HETATM   12  C   UNL     1      -6.624   1.249 -33.741  1.00  0.00     0.155 A 
HETATM   13  C   UNL     1      -4.180  -3.744 -33.939  1.00  0.00     0.038 A 
HETATM   14  C   UNL     1      -4.889  -4.790 -34.531  1.00  0.00     0.003 A 
ENDROOT
BRANCH  12  15
HETATM   15  C   UNL     1      -6.292   2.596 -33.252  1.00  0.00     0.272 C 
HETATM   16  N   UNL     1      -5.956   3.471 -34.256  1.00  0.00    -0.351 N 
HETATM   17  H   UNL     1      -5.993   3.099 -35.201  1.00  0.00     0.163 HD
HETATM   18  O   UNL     1      -6.317   2.893 -32.062  1.00  0.00    -0.266 OA
BRANCH  16  19
HETATM   19  C   UNL     1      -5.587   4.842 -34.022  1.00  0.00     0.161 C 
BRANCH  19  20
HETATM   20  C   UNL     1      -4.092   4.997 -33.915  1.00  0.00    -0.039 A 
HETATM   21  C   UNL     1      -3.455   4.893 -32.668  1.00  0.00     0.032 A 
HETATM   22  C   UNL     1      -2.070   5.019 -32.573  1.00  0.00     0.034 A 
HETATM   23 CL   UNL     1      -1.303   4.898 -31.037  1.00  0.00    -0.084 Cl
HETATM   24  C   UNL     1      -1.300   5.241 -33.714  1.00  0.00     0.024 A 
HETATM   25  C   UNL     1      -1.921   5.339 -34.958  1.00  0.00     0.002 A 
HETATM   26  C   UNL     1      -3.309   5.217 -35.059  1.00  0.00     0.009 A 
ENDBRANCH  19  20
ENDBRANCH  16  19
ENDBRANCH  12  15
TORSDOF 3
ENDMDL
MODEL 2
REMARK VINA RESULT:      -9.3      2.398      3.033
REMARK  3 active torsions:
REMARK  status: ('A' for Active; 'I' for Inactive)
REMARK    1  A    between atoms: C_12  and  C_13 
REMARK       I    between atoms: C_13  and  N_14 
REMARK    2  A    between atoms: N_14  and  C_15 
REMARK    3  A    between atoms: C_15  and  C_16 
ROOT
HETATM    1  C   UNL     1      -3.821  -4.880 -33.701  1.00  0.00     0.001 A 
HETATM    2  C   UNL     1      -3.373  -3.776 -32.971  1.00  0.00     0.016 A 
HETATM    3  C   UNL     1      -4.014  -2.544 -33.113  1.00  0.00     0.026 A 
HETATM    4  C   UNL     1      -5.110  -2.417 -33.991  1.00  0.00     0.081 A 
HETATM    5  O   UNL     1      -5.815  -1.252 -34.205  1.00  0.00    -0.346 OA
HETATM    6  C   UNL     1      -5.436  -0.034 -33.501  1.00  0.00     0.219 A 
HETATM    7  C   UNL     1      -4.292  -0.164 -32.574  1.00  0.00     0.031 A 
HETATM    8  C   UNL     1      -3.632  -1.350 -32.405  1.00  0.00     0.074 A 
HETATM    9  N   UNL     1      -2.647  -1.116 -31.499  1.00  0.00    -0.276 N 
HETATM   10  H   UNL     1      -1.960  -1.765 -31.134  1.00  0.00     0.189 HD
HETATM   11  N   UNL     1      -2.626   0.161 -31.056  1.00  0.00    -0.168 NA
HETATM   12  C   UNL     1      -3.644   0.758 -31.721  1.00  0.00     0.155 A 
HETATM   13  C   UNL     1      -5.549  -3.526 -34.715  1.00  0.00     0.038 A 
HETATM   14  C   UNL     1      -4.906  -4.755 -34.570  1.00  0.00     0.003 A 
ENDROOT
BRANCH  12  15
HETATM   15  C   UNL     1      -3.981   2.177 -31.530  1.00  0.00     0.272 C 
HETATM   16  N   UNL     1      -3.396   3.004 -32.457  1.00  0.00    -0.351 N 
HETATM   17  H   UNL     1      -2.824   2.547 -33.162  1.00  0.00     0.163 HD
HETATM   18  O   UNL     1      -4.714   2.567 -30.627  1.00  0.00    -0.266 OA
BRANCH  16  19
HETATM   19  C   UNL     1      -3.572   4.432 -32.469  1.00  0.00     0.161 C 
BRANCH  19  20
HETATM   20  C   UNL     1      -2.280   5.147 -32.170  1.00  0.00    -0.039 A 
HETATM   21  C   UNL     1      -1.420   4.671 -31.167  1.00  0.00     0.032 A 
HETATM   22  C   UNL     1      -0.217   5.324 -30.904  1.00  0.00     0.034 A 
HETATM   23 CL   UNL     1       0.823   4.735 -29.666  1.00  0.00    -0.084 Cl
HETATM   24  C   UNL     1       0.152   6.450 -31.637  1.00  0.00     0.024 A 
HETATM   25  C   UNL     1      -0.691   6.928 -32.640  1.00  0.00     0.002 A 
HETATM   26  C   UNL     1      -1.900   6.280 -32.906  1.00  0.00     0.009 A 
ENDBRANCH  19  20
ENDBRANCH  16  19
ENDBRANCH  12  15
TORSDOF 3
ENDMDL
MODEL 3
REMARK VINA RESULT:      -9.2      2.896      7.686
REMARK  3 active torsions:
REMARK  status: ('A' for Active; 'I' for Inactive)
REMARK    1  A    between atoms: C_12  and  C_13 
REMARK       I    between atoms: C_13  and  N_14 
REMARK    2  A    between atoms: N_14  and  C_15 
REMARK    3  A    between atoms: C_15  and  C_16 
ROOT
HETATM    1  C   UNL     1      -1.127   7.295 -33.218  1.00  0.00     0.001 A 
HETATM    2  C   UNL     1      -2.353   6.751 -33.607  1.00  0.00     0.016 A 
HETATM    3  C   UNL     1      -2.785   5.546 -33.049  1.00  0.00     0.026 A 
HETATM    4  C   UNL     1      -1.986   4.883 -32.096  1.00  0.00     0.081 A 
HETATM    5  O   UNL     1      -2.316   3.695 -31.482  1.00  0.00    -0.346 OA
HETATM    6  C   UNL     1      -3.571   3.031 -31.812  1.00  0.00     0.219 A 
HETATM    7  C   UNL     1      -4.416   3.725 -32.806  1.00  0.00     0.031 A 
HETATM    8  C   UNL     1      -4.032   4.906 -33.381  1.00  0.00     0.074 A 
HETATM    9  N   UNL     1      -5.026   5.257 -34.237  1.00  0.00    -0.276 N 
HETATM   10  H   UNL     1      -5.082   6.073 -34.835  1.00  0.00     0.189 HD
HETATM   11  N   UNL     1      -6.050   4.376 -34.253  1.00  0.00    -0.168 NA
HETATM   12  C   UNL     1      -5.677   3.421 -33.368  1.00  0.00     0.155 A 
HETATM   13  C   UNL     1      -0.763   5.436 -31.714  1.00  0.00     0.038 A 
HETATM   14  C   UNL     1      -0.334   6.640 -32.274  1.00  0.00     0.003 A 
ENDROOT
BRANCH  12  15
HETATM   15  C   UNL     1      -6.520   2.252 -33.073  1.00  0.00     0.272 C 
HETATM   16  N   UNL     1      -6.506   1.306 -34.068  1.00  0.00    -0.351 N 
HETATM   17  H   UNL     1      -5.915   1.512 -34.868  1.00  0.00     0.163 HD
HETATM   18  O   UNL     1      -7.165   2.147 -32.035  1.00  0.00    -0.266 OA
BRANCH  16  19
HETATM   19  C   UNL     1      -7.258   0.081 -34.008  1.00  0.00     0.161 C 
BRANCH  19  20
HETATM   20  C   UNL     1      -6.355  -1.122 -34.095  1.00  0.00    -0.039 A 
HETATM   21  C   UNL     1      -6.788  -2.290 -34.743  1.00  0.00     0.032 A 
HETATM   22  C   UNL     1      -5.945  -3.396 -34.837  1.00  0.00     0.034 A 
HETATM   23 CL   UNL     1      -6.491  -4.824 -35.627  1.00  0.00    -0.084 Cl
HETATM   24  C   UNL     1      -4.660  -3.354 -34.299  1.00  0.00     0.024 A 
HETATM   25  C   UNL     1      -4.217  -2.197 -33.659  1.00  0.00     0.002 A 
HETATM   26  C   UNL     1      -5.059  -1.087 -33.558  1.00  0.00     0.009 A 
ENDBRANCH  19  20
ENDBRANCH  16  19
ENDBRANCH  12  15
TORSDOF 3
ENDMDL
MODEL 4
REMARK VINA RESULT:      -8.4      2.674      8.018
REMARK  3 active torsions:
REMARK  status: ('A' for Active; 'I' for Inactive)
REMARK    1  A    between atoms: C_12  and  C_13 
REMARK       I    between atoms: C_13  and  N_14 
REMARK    2  A    between atoms: N_14  and  C_15 
REMARK    3  A    between atoms: C_15  and  C_16 
ROOT
HETATM    1  C   UNL     1      -0.650   6.662 -31.558  1.00  0.00     0.001 A 
HETATM    2  C   UNL     1      -1.369   5.474 -31.406  1.00  0.00     0.016 A 
HETATM    3  C   UNL     1      -2.440   5.199 -32.260  1.00  0.00     0.026 A 
HETATM    4  C   UNL     1      -2.790   6.117 -33.271  1.00  0.00     0.081 A 
HETATM    5  O   UNL     1      -3.823   5.944 -34.166  1.00  0.00    -0.346 OA
HETATM    6  C   UNL     1      -4.648   4.744 -34.101  1.00  0.00     0.219 A 
HETATM    7  C   UNL     1      -4.280   3.775 -33.048  1.00  0.00     0.031 A 
HETATM    8  C   UNL     1      -3.241   4.004 -32.188  1.00  0.00     0.074 A 
HETATM    9  N   UNL     1      -3.184   2.930 -31.359  1.00  0.00    -0.276 N 
HETATM   10  H   UNL     1      -2.540   2.757 -30.596  1.00  0.00     0.189 HD
HETATM   11  N   UNL     1      -4.126   1.999 -31.630  1.00  0.00    -0.168 NA
HETATM   12  C   UNL     1      -4.811   2.519 -32.677  1.00  0.00     0.155 A 
HETATM   13  C   UNL     1      -2.065   7.300 -33.413  1.00  0.00     0.038 A 
HETATM   14  C   UNL     1      -0.996   7.571 -32.558  1.00  0.00     0.003 A 
ENDROOT
BRANCH  12  15
HETATM   15  C   UNL     1      -5.943   1.816 -33.301  1.00  0.00     0.272 C 
HETATM   16  N   UNL     1      -5.714   0.474 -33.486  1.00  0.00    -0.351 N 
HETATM   17  H   UNL     1      -4.816   0.128 -33.162  1.00  0.00     0.163 HD
HETATM   18  O   UNL     1      -6.982   2.386 -33.618  1.00  0.00    -0.266 OA
BRANCH  16  19
HETATM   19  C   UNL     1      -6.672  -0.418 -34.084  1.00  0.00     0.161 C 
BRANCH  19  20
HETATM   20  C   UNL     1      -6.112  -1.810 -34.224  1.00  0.00    -0.039 A 
HETATM   21  C   UNL     1      -4.960  -2.186 -33.516  1.00  0.00     0.032 A 
HETATM   22  C   UNL     1      -4.454  -3.480 -33.633  1.00  0.00     0.034 A 
HETATM   23 CL   UNL     1      -3.036  -3.926 -32.766  1.00  0.00    -0.084 Cl
HETATM   24  C   UNL     1      -5.088  -4.417 -34.447  1.00  0.00     0.024 A 
HETATM   25  C   UNL     1      -6.237  -4.055 -35.150  1.00  0.00     0.002 A 
HETATM   26  C   UNL     1      -6.747  -2.760 -35.039  1.00  0.00     0.009 A 
ENDBRANCH  19  20
ENDBRANCH  16  19
ENDBRANCH  12  15
TORSDOF 3
ENDMDL
MODEL 5
REMARK VINA RESULT:      -8.3      3.314      4.096
REMARK  3 active torsions:
REMARK  status: ('A' for Active; 'I' for Inactive)
REMARK    1  A    between atoms: C_12  and  C_13 
REMARK       I    between atoms: C_13  and  N_14 
REMARK    2  A    between atoms: N_14  and  C_15 
REMARK    3  A    between atoms: C_15  and  C_16 
ROOT
HETATM    1  C   UNL     1      -4.350  -4.831 -34.121  1.00  0.00     0.001 A 
HETATM    2  C   UNL     1      -3.734  -3.855 -33.335  1.00  0.00     0.016 A 
HETATM    3  C   UNL     1      -4.251  -2.558 -33.308  1.00  0.00     0.026 A 
HETATM    4  C   UNL     1      -5.392  -2.238 -34.072  1.00  0.00     0.081 A 
HETATM    5  O   UNL     1      -5.985  -0.995 -34.118  1.00  0.00    -0.346 OA
HETATM    6  C   UNL     1      -5.426   0.105 -33.341  1.00  0.00     0.219 A 
HETATM    7  C   UNL     1      -4.234  -0.227 -32.533  1.00  0.00     0.031 A 
HETATM    8  C   UNL     1      -3.691  -1.483 -32.530  1.00  0.00     0.074 A 
HETATM    9  N   UNL     1      -2.621  -1.437 -31.696  1.00  0.00    -0.276 N 
HETATM   10  H   UNL     1      -1.980  -2.183 -31.453  1.00  0.00     0.189 HD
HETATM   11  N   UNL     1      -2.432  -0.219 -31.142  1.00  0.00    -0.168 NA
HETATM   12  C   UNL     1      -3.429   0.538 -31.659  1.00  0.00     0.155 A 
HETATM   13  C   UNL     1      -5.999  -3.221 -34.854  1.00  0.00     0.038 A 
HETATM   14  C   UNL     1      -5.480  -4.516 -34.878  1.00  0.00     0.003 A 
ENDROOT
BRANCH  12  15
HETATM   15  C   UNL     1      -3.598   1.957 -31.311  1.00  0.00     0.272 C 
HETATM   16  N   UNL     1      -4.800   2.229 -30.706  1.00  0.00    -0.351 N 
HETATM   17  H   UNL     1      -5.413   1.432 -30.557  1.00  0.00     0.163 HD
HETATM   18  O   UNL     1      -2.740   2.802 -31.545  1.00  0.00    -0.266 OA
BRANCH  16  19
HETATM   19  C   UNL     1      -5.194   3.546 -30.282  1.00  0.00     0.161 C 
BRANCH  19  20
HETATM   20  C   UNL     1      -5.957   4.266 -31.365  1.00  0.00    -0.039 A 
HETATM   21  C   UNL     1      -7.042   3.643 -32.003  1.00  0.00     0.032 A 
HETATM   22  C   UNL     1      -7.757   4.317 -32.992  1.00  0.00     0.034 A 
HETATM   23 CL   UNL     1      -9.080   3.539 -33.771  1.00  0.00    -0.084 Cl
HETATM   24  C   UNL     1      -7.410   5.617 -33.353  1.00  0.00     0.024 A 
HETATM   25  C   UNL     1      -6.339   6.248 -32.722  1.00  0.00     0.002 A 
HETATM   26  C   UNL     1      -5.616   5.577 -31.732  1.00  0.00     0.009 A 
ENDBRANCH  19  20
ENDBRANCH  16  19
ENDBRANCH  12  15
TORSDOF 3
ENDMDL
MODEL 6
REMARK VINA RESULT:      -8.3      5.578     10.343
REMARK  3 active torsions:
REMARK  status: ('A' for Active; 'I' for Inactive)
REMARK    1  A    between atoms: C_12  and  C_13 
REMARK       I    between atoms: C_13  and  N_14 
REMARK    2  A    between atoms: N_14  and  C_15 
REMARK    3  A    between atoms: C_15  and  C_16 
ROOT
HETATM    1  C   UNL     1       1.825   8.504 -25.971  1.00  0.00     0.001 A 
HETATM    2  C   UNL     1       1.641   7.404 -26.813  1.00  0.00     0.016 A 
HETATM    3  C   UNL     1       0.688   7.464 -27.832  1.00  0.00     0.026 A 
HETATM    4  C   UNL     1      -0.083   8.630 -28.010  1.00  0.00     0.081 A 
HETATM    5  O   UNL     1      -1.045   8.796 -28.982  1.00  0.00    -0.346 OA
HETATM    6  C   UNL     1      -1.329   7.714 -29.916  1.00  0.00     0.219 A 
HETATM    7  C   UNL     1      -0.518   6.491 -29.738  1.00  0.00     0.031 A 
HETATM    8  C   UNL     1       0.424   6.387 -28.752  1.00  0.00     0.074 A 
HETATM    9  N   UNL     1       0.970   5.149 -28.871  1.00  0.00    -0.276 N 
HETATM   10  H   UNL     1       1.698   4.725 -28.308  1.00  0.00     0.189 HD
HETATM   11  N   UNL     1       0.443   4.432 -29.888  1.00  0.00    -0.168 NA
HETATM   12  C   UNL     1      -0.484   5.259 -30.430  1.00  0.00     0.155 A 
HETATM   13  C   UNL     1       0.110   9.723 -27.164  1.00  0.00     0.038 A 
HETATM   14  C   UNL     1       1.063   9.660 -26.147  1.00  0.00     0.003 A 
ENDROOT
BRANCH  12  15
HETATM   15  C   UNL     1      -1.305   4.867 -31.585  1.00  0.00     0.272 C 
HETATM   16  N   UNL     1      -2.415   4.135 -31.240  1.00  0.00    -0.351 N 
HETATM   17  H   UNL     1      -2.545   3.967 -30.247  1.00  0.00     0.163 HD
HETATM   18  O   UNL     1      -1.015   5.173 -32.737  1.00  0.00    -0.266 OA
BRANCH  16  19
HETATM   19  C   UNL     1      -3.364   3.634 -32.199  1.00  0.00     0.161 C 
BRANCH  19  20
HETATM   20  C   UNL     1      -4.115   2.445 -31.658  1.00  0.00    -0.039 A 
HETATM   21  C   UNL     1      -3.871   1.160 -32.168  1.00  0.00     0.032 A 
HETATM   22  C   UNL     1      -4.554   0.058 -31.654  1.00  0.00     0.034 A 
HETATM   23 CL   UNL     1      -4.251  -1.511 -32.294  1.00  0.00    -0.084 Cl
HETATM   24  C   UNL     1      -5.480   0.217 -30.625  1.00  0.00     0.024 A 
HETATM   25  C   UNL     1      -5.726   1.489 -30.107  1.00  0.00     0.002 A 
HETATM   26  C   UNL     1      -5.047   2.597 -30.620  1.00  0.00     0.009 A 
ENDBRANCH  19  20
ENDBRANCH  16  19
ENDBRANCH  12  15
TORSDOF 3
ENDMDL
MODEL 7
REMARK VINA RESULT:      -8.2      3.236      8.415
REMARK  3 active torsions:
REMARK  status: ('A' for Active; 'I' for Inactive)
REMARK    1  A    between atoms: C_12  and  C_13 
REMARK       I    between atoms: C_13  and  N_14 
REMARK    2  A    between atoms: N_14  and  C_15 
REMARK    3  A    between atoms: C_15  and  C_16 
ROOT
HETATM    1  C   UNL     1       0.643   7.357 -29.575  1.00  0.00     0.001 A 
HETATM    2  C   UNL     1       0.152   6.633 -30.665  1.00  0.00     0.016 A 
HETATM    3  C   UNL     1      -1.224   6.438 -30.803  1.00  0.00     0.026 A 
HETATM    4  C   UNL     1      -2.112   6.971 -29.847  1.00  0.00     0.081 A 
HETATM    5  O   UNL     1      -3.483   6.840 -29.888  1.00  0.00    -0.346 OA
HETATM    6  C   UNL     1      -4.110   6.101 -30.976  1.00  0.00     0.219 A 
HETATM    7  C   UNL     1      -3.184   5.546 -31.985  1.00  0.00     0.031 A 
HETATM    8  C   UNL     1      -1.829   5.710 -31.889  1.00  0.00     0.074 A 
HETATM    9  N   UNL     1      -1.288   5.079 -32.963  1.00  0.00    -0.276 N 
HETATM   10  H   UNL     1      -0.311   4.994 -33.216  1.00  0.00     0.189 HD
HETATM   11  N   UNL     1      -2.214   4.513 -33.768  1.00  0.00    -0.168 NA
HETATM   12  C   UNL     1      -3.394   4.797 -33.166  1.00  0.00     0.155 A 
HETATM   13  C   UNL     1      -1.610   7.693 -28.763  1.00  0.00     0.038 A 
HETATM   14  C   UNL     1      -0.235   7.886 -28.628  1.00  0.00     0.003 A 
ENDROOT
BRANCH  12  15
HETATM   15  C   UNL     1      -4.684   4.361 -33.721  1.00  0.00     0.272 C 
HETATM   16  N   UNL     1      -5.241   3.307 -33.039  1.00  0.00    -0.351 N 
HETATM   17  H   UNL     1      -4.716   2.970 -32.237  1.00  0.00     0.163 HD
HETATM   18  O   UNL     1      -5.198   4.897 -34.697  1.00  0.00    -0.266 OA
BRANCH  16  19
HETATM   19  C   UNL     1      -6.496   2.704 -33.401  1.00  0.00     0.161 C 
BRANCH  19  20
HETATM   20  C   UNL     1      -6.320   1.257 -33.783  1.00  0.00    -0.039 A 
HETATM   21  C   UNL     1      -5.348   0.468 -33.146  1.00  0.00     0.032 A 
HETATM   22  C   UNL     1      -5.199  -0.875 -33.489  1.00  0.00     0.034 A 
HETATM   23 CL   UNL     1      -3.999  -1.829 -32.706  1.00  0.00    -0.084 Cl
HETATM   24  C   UNL     1      -6.015  -1.453 -34.460  1.00  0.00     0.024 A 
HETATM   25  C   UNL     1      -6.987  -0.680 -35.094  1.00  0.00     0.002 A 
HETATM   26  C   UNL     1      -7.139   0.667 -34.757  1.00  0.00     0.009 A 
ENDBRANCH  19  20
ENDBRANCH  16  19
ENDBRANCH  12  15
TORSDOF 3
ENDMDL
MODEL 8
REMARK VINA RESULT:      -8.0      3.395      8.152
REMARK  3 active torsions:
REMARK  status: ('A' for Active; 'I' for Inactive)
REMARK    1  A    between atoms: C_12  and  C_13 
REMARK       I    between atoms: C_13  and  N_14 
REMARK    2  A    between atoms: N_14  and  C_15 
REMARK    3  A    between atoms: C_15  and  C_16 
ROOT
HETATM    1  C   UNL     1      -0.557   7.801 -29.045  1.00  0.00     0.001 A 
HETATM    2  C   UNL     1      -1.740   7.697 -29.782  1.00  0.00     0.016 A 
HETATM    3  C   UNL     1      -1.945   6.592 -30.609  1.00  0.00     0.026 A 
HETATM    4  C   UNL     1      -0.962   5.585 -30.698  1.00  0.00     0.081 A 
HETATM    5  O   UNL     1      -1.063   4.454 -31.480  1.00  0.00    -0.346 OA
HETATM    6  C   UNL     1      -2.251   4.239 -32.297  1.00  0.00     0.219 A 
HETATM    7  C   UNL     1      -3.288   5.288 -32.201  1.00  0.00     0.031 A 
HETATM    8  C   UNL     1      -3.128   6.390 -31.405  1.00  0.00     0.074 A 
HETATM    9  N   UNL     1      -4.251   7.139 -31.557  1.00  0.00    -0.276 N 
HETATM   10  H   UNL     1      -4.481   8.024 -31.121  1.00  0.00     0.189 HD
HETATM   11  N   UNL     1      -5.147   6.587 -32.404  1.00  0.00    -0.168 NA
HETATM   12  C   UNL     1      -4.555   5.438 -32.810  1.00  0.00     0.155 A 
HETATM   13  C   UNL     1       0.215   5.699 -29.958  1.00  0.00     0.038 A 
HETATM   14  C   UNL     1       0.416   6.805 -29.132  1.00  0.00     0.003 A 
ENDROOT
BRANCH  12  15
HETATM   15  C   UNL     1      -5.199   4.513 -33.754  1.00  0.00     0.272 C 
HETATM   16  N   UNL     1      -5.866   3.483 -33.137  1.00  0.00    -0.351 N 
HETATM   17  H   UNL     1      -5.850   3.489 -32.121  1.00  0.00     0.163 HD
HETATM   18  O   UNL     1      -5.140   4.662 -34.970  1.00  0.00    -0.266 OA
BRANCH  16  19
HETATM   19  C   UNL     1      -6.566   2.450 -33.853  1.00  0.00     0.161 C 
BRANCH  19  20
HETATM   20  C   UNL     1      -5.969   1.093 -33.583  1.00  0.00    -0.039 A 
HETATM   21  C   UNL     1      -6.469  -0.045 -34.237  1.00  0.00     0.032 A 
HETATM   22  C   UNL     1      -5.903  -1.297 -33.999  1.00  0.00     0.034 A 
HETATM   23 CL   UNL     1      -6.530  -2.685 -34.802  1.00  0.00    -0.084 Cl
HETATM   24  C   UNL     1      -4.833  -1.434 -33.117  1.00  0.00     0.024 A 
HETATM   25  C   UNL     1      -4.326  -0.309 -32.467  1.00  0.00     0.002 A 
HETATM   26  C   UNL     1      -4.890   0.948 -32.699  1.00  0.00     0.009 A 
ENDBRANCH  19  20
ENDBRANCH  16  19
ENDBRANCH  12  15
TORSDOF 3
ENDMDL
MODEL 9
REMARK VINA RESULT:      -7.9      2.684      7.558
REMARK  3 active torsions:
REMARK  status: ('A' for Active; 'I' for Inactive)
REMARK    1  A    between atoms: C_12  and  C_13 
REMARK       I    between atoms: C_13  and  N_14 
REMARK    2  A    between atoms: N_14  and  C_15 
REMARK    3  A    between atoms: C_15  and  C_16 
ROOT
HETATM    1  C   UNL     1      -1.174   7.494 -30.542  1.00  0.00     0.001 A 
HETATM    2  C   UNL     1      -2.497   7.124 -30.797  1.00  0.00     0.016 A 
HETATM    3  C   UNL     1      -2.771   5.881 -31.371  1.00  0.00     0.026 A 
HETATM    4  C   UNL     1      -1.714   5.003 -31.690  1.00  0.00     0.081 A 
HETATM    5  O   UNL     1      -1.872   3.756 -32.255  1.00  0.00    -0.346 OA
HETATM    6  C   UNL     1      -3.207   3.265 -32.570  1.00  0.00     0.219 A 
HETATM    7  C   UNL     1      -4.318   4.178 -32.231  1.00  0.00     0.031 A 
HETATM    8  C   UNL     1      -4.097   5.406 -31.670  1.00  0.00     0.074 A 
HETATM    9  N   UNL     1      -5.318   5.974 -31.496  1.00  0.00    -0.276 N 
HETATM   10  H   UNL     1      -5.540   6.884 -31.108  1.00  0.00     0.189 HD
HETATM   11  N   UNL     1      -6.335   5.184 -31.906  1.00  0.00    -0.168 NA
HETATM   12  C   UNL     1      -5.721   4.067 -32.365  1.00  0.00     0.155 A 
HETATM   13  C   UNL     1      -0.397   5.383 -31.430  1.00  0.00     0.038 A 
HETATM   14  C   UNL     1      -0.128   6.626 -30.857  1.00  0.00     0.003 A 
ENDROOT
BRANCH  12  15
HETATM   15  C   UNL     1      -6.472   2.927 -32.912  1.00  0.00     0.272 C 
HETATM   16  N   UNL     1      -6.712   1.940 -31.987  1.00  0.00    -0.351 N 
HETATM   17  H   UNL     1      -6.364   2.116 -31.049  1.00  0.00     0.163 HD
HETATM   18  O   UNL     1      -6.842   2.878 -34.080  1.00  0.00    -0.266 OA
BRANCH  16  19
HETATM   19  C   UNL     1      -7.421   0.726 -32.290  1.00  0.00     0.161 C 
BRANCH  19  20
HETATM   20  C   UNL     1      -6.503  -0.314 -32.879  1.00  0.00    -0.039 A 
HETATM   21  C   UNL     1      -5.303  -0.650 -32.232  1.00  0.00     0.032 A 
HETATM   22  C   UNL     1      -4.463  -1.624 -32.770  1.00  0.00     0.034 A 
HETATM   23 CL   UNL     1      -2.991  -2.021 -31.971  1.00  0.00    -0.084 Cl
HETATM   24  C   UNL     1      -4.807  -2.283 -33.949  1.00  0.00     0.024 A 
HETATM   25  C   UNL     1      -6.000  -1.962 -34.596  1.00  0.00     0.002 A 
HETATM   26  C   UNL     1      -6.844  -0.984 -34.065  1.00  0.00     0.009 A 
ENDBRANCH  19  20
ENDBRANCH  16  19
ENDBRANCH  12  15
TORSDOF 3
ENDMDL
MODEL 10
REMARK VINA RESULT:      -7.8      4.015      7.641
REMARK  3 active torsions:
REMARK  status: ('A' for Active; 'I' for Inactive)
REMARK    1  A    between atoms: C_12  and  C_13 
REMARK       I    between atoms: C_13  and  N_14 
REMARK    2  A    between atoms: N_14  and  C_15 
REMARK    3  A    between atoms: C_15  and  C_16 
ROOT
HETATM    1  C   UNL     1     -11.035   4.016 -30.638  1.00  0.00     0.001 A 
HETATM    2  C   UNL     1      -9.841   3.396 -30.259  1.00  0.00     0.016 A 
HETATM    3  C   UNL     1      -8.929   2.993 -31.236  1.00  0.00     0.026 A 
HETATM    4  C   UNL     1      -9.212   3.212 -32.599  1.00  0.00     0.081 A 
HETATM    5  O   UNL     1      -8.384   2.858 -33.642  1.00  0.00    -0.346 OA
HETATM    6  C   UNL     1      -7.112   2.200 -33.368  1.00  0.00     0.219 A 
HETATM    7  C   UNL     1      -6.807   1.975 -31.939  1.00  0.00     0.031 A 
HETATM    8  C   UNL     1      -7.672   2.351 -30.948  1.00  0.00     0.074 A 
HETATM    9  N   UNL     1      -7.089   1.997 -29.774  1.00  0.00    -0.276 N 
HETATM   10  H   UNL     1      -7.444   2.119 -28.833  1.00  0.00     0.189 HD
HETATM   11  N   UNL     1      -5.881   1.413 -29.936  1.00  0.00    -0.168 NA
HETATM   12  C   UNL     1      -5.700   1.395 -31.278  1.00  0.00     0.155 A 
HETATM   13  C   UNL     1     -10.407   3.831 -32.967  1.00  0.00     0.038 A 
HETATM   14  C   UNL     1     -11.317   4.233 -31.988  1.00  0.00     0.003 A 
ENDROOT
BRANCH  12  15
HETATM   15  C   UNL     1      -4.489   0.837 -31.900  1.00  0.00     0.272 C 
HETATM   16  N   UNL     1      -4.742  -0.246 -32.706  1.00  0.00    -0.351 N 
HETATM   17  H   UNL     1      -5.717  -0.519 -32.791  1.00  0.00     0.163 HD
HETATM   18  O   UNL     1      -3.372   1.304 -31.708  1.00  0.00    -0.266 OA
BRANCH  16  19
HETATM   19  C   UNL     1      -3.715  -0.963 -33.415  1.00  0.00     0.161 C 
BRANCH  19  20
HETATM   20  C   UNL     1      -4.098  -2.406 -33.623  1.00  0.00    -0.039 A 
HETATM   21  C   UNL     1      -5.144  -2.744 -34.497  1.00  0.00     0.032 A 
HETATM   22  C   UNL     1      -5.484  -4.080 -34.702  1.00  0.00     0.034 A 
HETATM   23 CL   UNL     1      -6.773  -4.480 -35.770  1.00  0.00    -0.084 Cl
HETATM   24  C   UNL     1      -4.788  -5.096 -34.050  1.00  0.00     0.024 A 
HETATM   25  C   UNL     1      -3.743  -4.772 -33.184  1.00  0.00     0.002 A 
HETATM   26  C   UNL     1      -3.399  -3.435 -32.972  1.00  0.00     0.009 A 
ENDBRANCH  19  20
ENDBRANCH  16  19
ENDBRANCH  12  15
TORSDOF 3
ENDMDL
