MODEL 1
REMARK VINA RESULT:      -8.2      0.000      0.000
REMARK  6 active torsions:
REMARK  status: ('A' for Active; 'I' for Inactive)
REMARK    1  A    between atoms: C_9  and  C_10 
REMARK    2  A    between atoms: C_12  and  O_13 
REMARK    3  A    between atoms: C_15  and  O_16 
REMARK    4  A    between atoms: O_16  and  C_17 
REMARK    5  A    between atoms: C_17  and  C_18 
REMARK    6  A    between atoms: C_18  and  N_19 
ROOT
HETATM    1  H   UNL     1      -3.935   8.289 -28.113  1.00  0.00     0.186 HD
HETATM    2  N   UNL     1      -4.541   7.527 -28.454  1.00  0.00    -0.304 NA
HETATM    3  C   UNL     1      -4.568   7.345 -29.737  1.00  0.00     0.062 C 
HETATM    4  C   UNL     1      -5.431   6.214 -30.326  1.00  0.00     0.186 C 
HETATM    5  C   UNL     1      -6.276   5.573 -29.300  1.00  0.00     0.091 C 
HETATM    6  N   UNL     1      -6.947   4.980 -28.561  1.00  0.00    -0.195 NA
HETATM    7  C   UNL     1      -6.267   6.786 -31.392  1.00  0.00     0.091 C 
HETATM    8  N   UNL     1      -6.814   7.232 -32.313  1.00  0.00    -0.195 NA
HETATM    9  C   UNL     1      -4.401   5.164 -30.889  1.00  0.00     0.071 C 
HETATM   10  C   UNL     1      -3.414   5.789 -31.939  1.00  0.00     0.053 C 
HETATM   11  C   UNL     1      -2.749   7.057 -31.368  1.00  0.00    -0.053 C 
HETATM   12  C   UNL     1      -1.405   7.202 -31.441  1.00  0.00     0.005 C 
HETATM   13  C   UNL     1      -3.693   8.109 -30.739  1.00  0.00     0.157 C 
HETATM   14  C   UNL     1      -2.918   9.231 -30.066  1.00  0.00    -0.005 C 
HETATM   15  N   UNL     1      -2.274  10.161 -29.507  1.00  0.00    -0.101 N 
HETATM   16  C   UNL     1      -2.376   4.713 -32.390  1.00  0.00     0.244 C 
HETATM   17  N   UNL     1      -1.160   5.315 -33.040  1.00  0.00    -0.071 N 
HETATM   18  H   UNL     1      -0.496   4.546 -33.203  1.00  0.00     0.279 HD
HETATM   19  C   UNL     1      -1.408   5.908 -34.400  1.00  0.00     0.270 C 
HETATM   20  C   UNL     1      -0.457   6.253 -32.103  1.00  0.00     0.262 C 
ENDROOT
BRANCH   9  21
HETATM   21  C   UNL     1      -5.014   3.835 -31.357  1.00  0.00    -0.047 A 
HETATM   22  C   UNL     1      -4.739   2.599 -30.755  1.00  0.00     0.047 A 
HETATM   23  C   UNL     1      -5.227   1.407 -31.317  1.00  0.00     0.102 A 
HETATM   24  C   UNL     1      -6.079   1.422 -32.431  1.00  0.00     0.102 A 
HETATM   25  C   UNL     1      -6.417   2.654 -32.986  1.00  0.00     0.040 A 
HETATM   26  C   UNL     1      -5.873   3.840 -32.472  1.00  0.00     0.010 A 
BRANCH  23  27
HETATM   27  O   UNL     1      -4.917   0.185 -30.764  1.00  0.00    -0.353 OA
HETATM   28  C   UNL     1      -3.534  -0.148 -30.928  1.00  0.00     0.210 C 
ENDBRANCH  23  27
BRANCH  24  29
HETATM   29  O   UNL     1      -6.490   0.199 -32.898  1.00  0.00    -0.347 OA
BRANCH  29  30
HETATM   30  C   UNL     1      -6.054  -0.200 -34.200  1.00  0.00     0.203 C 
BRANCH  30  31
HETATM   31  C   UNL     1      -4.862  -1.154 -34.038  1.00  0.00     0.261 C 
BRANCH  31  32
HETATM   32  N   UNL     1      -5.296  -2.607 -33.981  1.00  0.00    -0.065 N 
HETATM   33  H   UNL     1      -5.637  -2.763 -33.018  1.00  0.00     0.280 HD
HETATM   34  C   UNL     1      -6.433  -2.950 -34.936  1.00  0.00     0.261 C 
HETATM   35  C   UNL     1      -6.769  -4.443 -34.830  1.00  0.00     0.195 C 
HETATM   36  O   UNL     1      -5.618  -5.246 -35.104  1.00  0.00    -0.388 OA
HETATM   37  C   UNL     1      -4.569  -5.002 -34.162  1.00  0.00     0.195 C 
HETATM   38  C   UNL     1      -4.110  -3.543 -34.222  1.00  0.00     0.261 C 
ENDBRANCH  31  32
ENDBRANCH  30  31
ENDBRANCH  29  30
ENDBRANCH  24  29
ENDBRANCH   9  21
TORSDOF 6
ENDMDL
MODEL 2
REMARK VINA RESULT:      -8.2      3.294      8.375
REMARK  6 active torsions:
REMARK  status: ('A' for Active; 'I' for Inactive)
REMARK    1  A    between atoms: C_9  and  C_10 
REMARK    2  A    between atoms: C_12  and  O_13 
REMARK    3  A    between atoms: C_15  and  O_16 
REMARK    4  A    between atoms: O_16  and  C_17 
REMARK    5  A    between atoms: C_17  and  C_18 
REMARK    6  A    between atoms: C_18  and  N_19 
ROOT
HETATM    1  H   UNL     1     -10.820   1.744 -33.931  1.00  0.00     0.186 HD
HETATM    2  N   UNL     1     -10.159   2.510 -33.734  1.00  0.00    -0.304 NA
HETATM    3  C   UNL     1      -9.213   2.250 -32.888  1.00  0.00     0.062 C 
HETATM    4  C   UNL     1      -8.171   3.334 -32.554  1.00  0.00     0.186 C 
HETATM    5  C   UNL     1      -8.519   4.637 -33.154  1.00  0.00     0.091 C 
HETATM    6  N   UNL     1      -8.685   5.688 -33.616  1.00  0.00    -0.195 NA
HETATM    7  C   UNL     1      -8.089   3.452 -31.091  1.00  0.00     0.091 C 
HETATM    8  N   UNL     1      -7.946   3.431 -29.940  1.00  0.00    -0.195 NA
HETATM    9  C   UNL     1      -6.823   2.813 -33.178  1.00  0.00     0.071 C 
HETATM   10  C   UNL     1      -6.419   1.392 -32.641  1.00  0.00     0.053 C 
HETATM   11  C   UNL     1      -7.590   0.403 -32.795  1.00  0.00    -0.053 C 
HETATM   12  C   UNL     1      -7.379  -0.806 -33.367  1.00  0.00     0.005 C 
HETATM   13  C   UNL     1      -8.966   0.871 -32.262  1.00  0.00     0.157 C 
HETATM   14  C   UNL     1     -10.071  -0.112 -32.614  1.00  0.00    -0.005 C 
HETATM   15  N   UNL     1     -10.988  -0.927 -32.908  1.00  0.00    -0.101 N 
HETATM   16  C   UNL     1      -5.120   0.908 -33.360  1.00  0.00     0.244 C 
HETATM   17  N   UNL     1      -4.908  -0.576 -33.239  1.00  0.00    -0.071 N 
HETATM   18  H   UNL     1      -4.096  -0.811 -33.827  1.00  0.00     0.279 HD
HETATM   19  C   UNL     1      -4.532  -1.042 -31.858  1.00  0.00     0.270 C 
HETATM   20  C   UNL     1      -6.059  -1.336 -33.829  1.00  0.00     0.262 C 
ENDROOT
BRANCH   9  21
HETATM   21  C   UNL     1      -5.660   3.817 -33.153  1.00  0.00    -0.047 A 
HETATM   22  C   UNL     1      -4.995   4.204 -31.981  1.00  0.00     0.047 A 
HETATM   23  C   UNL     1      -4.031   5.227 -32.012  1.00  0.00     0.102 A 
HETATM   24  C   UNL     1      -3.638   5.820 -33.220  1.00  0.00     0.102 A 
HETATM   25  C   UNL     1      -4.242   5.385 -34.397  1.00  0.00     0.040 A 
HETATM   26  C   UNL     1      -5.255   4.416 -34.360  1.00  0.00     0.010 A 
BRANCH  23  27
HETATM   27  O   UNL     1      -3.412   5.650 -30.859  1.00  0.00    -0.353 OA
HETATM   28  C   UNL     1      -4.267   6.469 -30.054  1.00  0.00     0.210 C 
ENDBRANCH  23  27
BRANCH  24  29
HETATM   29  O   UNL     1      -2.693   6.811 -33.131  1.00  0.00    -0.347 OA
BRANCH  29  30
HETATM   30  C   UNL     1      -1.325   6.451 -33.340  1.00  0.00     0.203 C 
BRANCH  30  31
HETATM   31  C   UNL     1      -0.472   7.158 -32.278  1.00  0.00     0.261 C 
BRANCH  31  32
HETATM   32  N   UNL     1      -0.409   6.376 -30.979  1.00  0.00    -0.065 N 
HETATM   33  H   UNL     1      -1.274   5.810 -30.947  1.00  0.00     0.280 HD
HETATM   34  C   UNL     1       0.773   5.418 -30.892  1.00  0.00     0.261 C 
HETATM   35  C   UNL     1       0.768   4.707 -29.533  1.00  0.00     0.195 C 
HETATM   36  O   UNL     1       0.803   5.653 -28.462  1.00  0.00    -0.388 OA
HETATM   37  C   UNL     1      -0.347   6.505 -28.474  1.00  0.00     0.195 C 
HETATM   38  C   UNL     1      -0.412   7.315 -29.772  1.00  0.00     0.261 C 
ENDBRANCH  31  32
ENDBRANCH  30  31
ENDBRANCH  29  30
ENDBRANCH  24  29
ENDBRANCH   9  21
TORSDOF 6
ENDMDL
MODEL 3
REMARK VINA RESULT:      -8.2      3.462      8.623
REMARK  6 active torsions:
REMARK  status: ('A' for Active; 'I' for Inactive)
REMARK    1  A    between atoms: C_9  and  C_10 
REMARK    2  A    between atoms: C_12  and  O_13 
REMARK    3  A    between atoms: C_15  and  O_16 
REMARK    4  A    between atoms: O_16  and  C_17 
REMARK    5  A    between atoms: C_17  and  C_18 
REMARK    6  A    between atoms: C_18  and  N_19 
ROOT
HETATM    1  H   UNL     1     -10.434   3.742 -34.023  1.00  0.00     0.186 HD
HETATM    2  N   UNL     1      -9.569   4.140 -33.626  1.00  0.00    -0.304 NA
HETATM    3  C   UNL     1      -8.847   3.342 -32.904  1.00  0.00     0.062 C 
HETATM    4  C   UNL     1      -7.531   3.854 -32.291  1.00  0.00     0.186 C 
HETATM    5  C   UNL     1      -7.357   5.306 -32.488  1.00  0.00     0.091 C 
HETATM    6  N   UNL     1      -7.111   6.432 -32.628  1.00  0.00    -0.195 NA
HETATM    7  C   UNL     1      -7.540   3.531 -30.857  1.00  0.00     0.091 C 
HETATM    8  N   UNL     1      -7.514   3.148 -29.761  1.00  0.00    -0.195 NA
HETATM    9  C   UNL     1      -6.393   3.081 -33.058  1.00  0.00     0.071 C 
HETATM   10  C   UNL     1      -6.549   1.521 -32.956  1.00  0.00     0.053 C 
HETATM   11  C   UNL     1      -7.971   1.091 -33.368  1.00  0.00    -0.053 C 
HETATM   12  C   UNL     1      -8.137   0.091 -34.265  1.00  0.00     0.005 C 
HETATM   13  C   UNL     1      -9.143   1.851 -32.702  1.00  0.00     0.157 C 
HETATM   14  C   UNL     1     -10.483   1.458 -33.304  1.00  0.00    -0.005 C 
HETATM   15  N   UNL     1     -11.595   1.132 -33.804  1.00  0.00    -0.101 N 
HETATM   16  C   UNL     1      -5.438   0.825 -33.803  1.00  0.00     0.244 C 
HETATM   17  N   UNL     1      -5.758  -0.612 -34.115  1.00  0.00    -0.071 N 
HETATM   18  H   UNL     1      -5.028  -0.948 -34.758  1.00  0.00     0.279 HD
HETATM   19  C   UNL     1      -5.687  -1.538 -32.931  1.00  0.00     0.270 C 
HETATM   20  C   UNL     1      -7.044  -0.724 -34.880  1.00  0.00     0.262 C 
ENDROOT
BRANCH   9  21
HETATM   21  C   UNL     1      -4.964   3.563 -32.765  1.00  0.00    -0.047 A 
HETATM   22  C   UNL     1      -4.202   4.321 -33.665  1.00  0.00     0.047 A 
HETATM   23  C   UNL     1      -2.855   4.614 -33.389  1.00  0.00     0.102 A 
HETATM   24  C   UNL     1      -2.264   4.244 -32.172  1.00  0.00     0.102 A 
HETATM   25  C   UNL     1      -3.040   3.557 -31.242  1.00  0.00     0.040 A 
HETATM   26  C   UNL     1      -4.363   3.200 -31.545  1.00  0.00     0.010 A 
BRANCH  23  27
HETATM   27  O   UNL     1      -2.083   5.310 -34.290  1.00  0.00    -0.353 OA
HETATM   28  C   UNL     1      -2.320   6.721 -34.231  1.00  0.00     0.210 C 
ENDBRANCH  23  27
BRANCH  24  29
HETATM   29  O   UNL     1      -0.942   4.576 -32.013  1.00  0.00    -0.347 OA
BRANCH  29  30
HETATM   30  C   UNL     1      -0.632   5.711 -31.200  1.00  0.00     0.203 C 
BRANCH  30  31
HETATM   31  C   UNL     1       0.180   5.230 -29.989  1.00  0.00     0.261 C 
BRANCH  31  32
HETATM   32  N   UNL     1      -0.364   5.776 -28.682  1.00  0.00    -0.065 N 
HETATM   33  H   UNL     1      -0.814   4.976 -28.206  1.00  0.00     0.280 HD
HETATM   34  C   UNL     1       0.708   6.325 -27.748  1.00  0.00     0.261 C 
HETATM   35  C   UNL     1       0.055   6.885 -26.478  1.00  0.00     0.195 C 
HETATM   36  O   UNL     1      -0.903   7.896 -26.799  1.00  0.00    -0.388 OA
HETATM   37  C   UNL     1      -1.967   7.377 -27.603  1.00  0.00     0.195 C 
HETATM   38  C   UNL     1      -1.434   6.840 -28.934  1.00  0.00     0.261 C 
ENDBRANCH  31  32
ENDBRANCH  30  31
ENDBRANCH  29  30
ENDBRANCH  24  29
ENDBRANCH   9  21
TORSDOF 6
ENDMDL
MODEL 4
REMARK VINA RESULT:      -8.1      1.252      3.432
REMARK  6 active torsions:
REMARK  status: ('A' for Active; 'I' for Inactive)
REMARK    1  A    between atoms: C_9  and  C_10 
REMARK    2  A    between atoms: C_12  and  O_13 
REMARK    3  A    between atoms: C_15  and  O_16 
REMARK    4  A    between atoms: O_16  and  C_17 
REMARK    5  A    between atoms: C_17  and  C_18 
REMARK    6  A    between atoms: C_18  and  N_19 
ROOT
HETATM    1  H   UNL     1      -2.433   9.104 -32.613  1.00  0.00     0.186 HD
HETATM    2  N   UNL     1      -2.575   8.107 -32.839  1.00  0.00    -0.304 NA
HETATM    3  C   UNL     1      -2.580   7.285 -31.838  1.00  0.00     0.062 C 
HETATM    4  C   UNL     1      -2.807   5.783 -32.090  1.00  0.00     0.186 C 
HETATM    5  C   UNL     1      -2.821   5.460 -33.530  1.00  0.00     0.091 C 
HETATM    6  N   UNL     1      -2.889   5.114 -34.636  1.00  0.00    -0.195 NA
HETATM    7  C   UNL     1      -1.735   5.040 -31.411  1.00  0.00     0.091 C 
HETATM    8  N   UNL     1      -0.960   4.474 -30.758  1.00  0.00    -0.195 NA
HETATM    9  C   UNL     1      -4.220   5.472 -31.469  1.00  0.00     0.071 C 
HETATM   10  C   UNL     1      -4.309   5.857 -29.948  1.00  0.00     0.053 C 
HETATM   11  C   UNL     1      -3.848   7.312 -29.730  1.00  0.00    -0.053 C 
HETATM   12  C   UNL     1      -4.616   8.159 -29.007  1.00  0.00     0.005 C 
HETATM   13  C   UNL     1      -2.495   7.711 -30.367  1.00  0.00     0.157 C 
HETATM   14  C   UNL     1      -2.225   9.200 -30.228  1.00  0.00    -0.005 C 
HETATM   15  N   UNL     1      -2.002  10.437 -30.113  1.00  0.00    -0.101 N 
HETATM   16  C   UNL     1      -5.756   5.596 -29.423  1.00  0.00     0.244 C 
HETATM   17  N   UNL     1      -6.048   6.323 -28.138  1.00  0.00    -0.071 N 
HETATM   18  H   UNL     1      -7.046   6.176 -27.932  1.00  0.00     0.279 HD
HETATM   19  C   UNL     1      -5.322   5.782 -26.937  1.00  0.00     0.270 C 
HETATM   20  C   UNL     1      -5.891   7.805 -28.309  1.00  0.00     0.262 C 
ENDROOT
BRANCH   9  21
HETATM   21  C   UNL     1      -4.770   4.069 -31.766  1.00  0.00    -0.047 A 
HETATM   22  C   UNL     1      -4.362   2.915 -31.083  1.00  0.00     0.047 A 
HETATM   23  C   UNL     1      -4.805   1.646 -31.496  1.00  0.00     0.102 A 
HETATM   24  C   UNL     1      -5.738   1.503 -32.533  1.00  0.00     0.102 A 
HETATM   25  C   UNL     1      -6.205   2.653 -33.165  1.00  0.00     0.040 A 
HETATM   26  C   UNL     1      -5.710   3.914 -32.803  1.00  0.00     0.010 A 
BRANCH  23  27
HETATM   27  O   UNL     1      -4.366   0.504 -30.866  1.00  0.00    -0.353 OA
HETATM   28  C   UNL     1      -2.983   0.241 -31.123  1.00  0.00     0.210 C 
ENDBRANCH  23  27
BRANCH  24  29
HETATM   29  O   UNL     1      -6.095   0.218 -32.856  1.00  0.00    -0.347 OA
BRANCH  29  30
HETATM   30  C   UNL     1      -5.682  -0.291 -34.126  1.00  0.00     0.203 C 
BRANCH  30  31
HETATM   31  C   UNL     1      -4.584  -1.338 -33.894  1.00  0.00     0.261 C 
BRANCH  31  32
HETATM   32  N   UNL     1      -5.129  -2.754 -33.913  1.00  0.00    -0.065 N 
HETATM   33  H   UNL     1      -5.527  -2.917 -32.974  1.00  0.00     0.280 HD
HETATM   34  C   UNL     1      -6.241  -2.974 -34.932  1.00  0.00     0.261 C 
HETATM   35  C   UNL     1      -6.694  -4.439 -34.900  1.00  0.00     0.195 C 
HETATM   36  O   UNL     1      -5.595  -5.319 -35.151  1.00  0.00    -0.388 OA
HETATM   37  C   UNL     1      -4.579  -5.191 -34.153  1.00  0.00     0.195 C 
HETATM   38  C   UNL     1      -4.007  -3.770 -34.135  1.00  0.00     0.261 C 
ENDBRANCH  31  32
ENDBRANCH  30  31
ENDBRANCH  29  30
ENDBRANCH  24  29
ENDBRANCH   9  21
TORSDOF 6
ENDMDL
MODEL 5
REMARK VINA RESULT:      -8.0      3.197      4.088
REMARK  6 active torsions:
REMARK  status: ('A' for Active; 'I' for Inactive)
REMARK    1  A    between atoms: C_9  and  C_10 
REMARK    2  A    between atoms: C_12  and  O_13 
REMARK    3  A    between atoms: C_15  and  O_16 
REMARK    4  A    between atoms: O_16  and  C_17 
REMARK    5  A    between atoms: C_17  and  C_18 
REMARK    6  A    between atoms: C_18  and  N_19 
ROOT
HETATM    1  H   UNL     1      -3.697   6.960 -27.846  1.00  0.00     0.186 HD
HETATM    2  N   UNL     1      -4.450   6.420 -28.300  1.00  0.00    -0.304 NA
HETATM    3  C   UNL     1      -4.532   6.519 -29.589  1.00  0.00     0.062 C 
HETATM    4  C   UNL     1      -5.616   5.728 -30.344  1.00  0.00     0.186 C 
HETATM    5  C   UNL     1      -6.561   5.067 -29.422  1.00  0.00     0.091 C 
HETATM    6  N   UNL     1      -7.328   4.478 -28.781  1.00  0.00    -0.195 NA
HETATM    7  C   UNL     1      -6.333   6.662 -31.225  1.00  0.00     0.091 C 
HETATM    8  N   UNL     1      -6.790   7.389 -32.005  1.00  0.00    -0.195 NA
HETATM    9  C   UNL     1      -4.832   4.635 -31.163  1.00  0.00     0.071 C 
HETATM   10  C   UNL     1      -3.752   5.257 -32.120  1.00  0.00     0.053 C 
HETATM   11  C   UNL     1      -2.834   6.222 -31.344  1.00  0.00    -0.053 C 
HETATM   12  C   UNL     1      -1.490   6.112 -31.462  1.00  0.00     0.005 C 
HETATM   13  C   UNL     1      -3.533   7.286 -30.465  1.00  0.00     0.157 C 
HETATM   14  C   UNL     1      -2.536   8.068 -29.625  1.00  0.00    -0.005 C 
HETATM   15  N   UNL     1      -1.708   8.716 -28.928  1.00  0.00    -0.101 N 
HETATM   16  C   UNL     1      -2.963   4.116 -32.835  1.00  0.00     0.244 C 
HETATM   17  N   UNL     1      -1.658   4.588 -33.418  1.00  0.00    -0.071 N 
HETATM   18  H   UNL     1      -1.169   3.754 -33.769  1.00  0.00     0.279 HD
HETATM   19  C   UNL     1      -1.799   5.487 -34.616  1.00  0.00     0.270 C 
HETATM   20  C   UNL     1      -0.766   5.153 -32.353  1.00  0.00     0.262 C 
ENDROOT
BRANCH   9  21
HETATM   21  C   UNL     1      -5.710   3.580 -31.853  1.00  0.00    -0.047 A 
HETATM   22  C   UNL     1      -5.800   2.248 -31.427  1.00  0.00     0.047 A 
HETATM   23  C   UNL     1      -6.518   1.304 -32.184  1.00  0.00     0.102 A 
HETATM   24  C   UNL     1      -7.239   1.682 -33.325  1.00  0.00     0.102 A 
HETATM   25  C   UNL     1      -7.214   3.020 -33.709  1.00  0.00     0.040 A 
HETATM   26  C   UNL     1      -6.441   3.950 -32.998  1.00  0.00     0.010 A 
BRANCH  23  27
HETATM   27  O   UNL     1      -6.566  -0.018 -31.803  1.00  0.00    -0.353 OA
HETATM   28  C   UNL     1      -5.263  -0.565 -31.577  1.00  0.00     0.210 C 
ENDBRANCH  23  27
BRANCH  24  29
HETATM   29  O   UNL     1      -7.897   0.677 -33.988  1.00  0.00    -0.347 OA
BRANCH  29  30
HETATM   30  C   UNL     1      -9.260   0.901 -34.356  1.00  0.00     0.203 C 
BRANCH  30  31
HETATM   31  C   UNL     1     -10.142   0.638 -33.128  1.00  0.00     0.261 C 
BRANCH  31  32
HETATM   32  N   UNL     1     -11.579   1.073 -33.351  1.00  0.00    -0.065 N 
HETATM   33  H   UNL     1     -11.868   1.551 -32.481  1.00  0.00     0.280 HD
HETATM   34  C   UNL     1     -11.755   2.058 -34.500  1.00  0.00     0.261 C 
HETATM   35  C   UNL     1     -13.240   2.404 -34.667  1.00  0.00     0.195 C 
HETATM   36  O   UNL     1     -14.017   1.224 -34.887  1.00  0.00    -0.388 OA
HETATM   37  C   UNL     1     -13.936   0.325 -33.777  1.00  0.00     0.195 C 
HETATM   38  C   UNL     1     -12.493  -0.136 -33.552  1.00  0.00     0.261 C 
ENDBRANCH  31  32
ENDBRANCH  30  31
ENDBRANCH  29  30
ENDBRANCH  24  29
ENDBRANCH   9  21
TORSDOF 6
ENDMDL
MODEL 6
REMARK VINA RESULT:      -7.9      1.598      4.014
REMARK  6 active torsions:
REMARK  status: ('A' for Active; 'I' for Inactive)
REMARK    1  A    between atoms: C_9  and  C_10 
REMARK    2  A    between atoms: C_12  and  O_13 
REMARK    3  A    between atoms: C_15  and  O_16 
REMARK    4  A    between atoms: O_16  and  C_17 
REMARK    5  A    between atoms: C_17  and  C_18 
REMARK    6  A    between atoms: C_18  and  N_19 
ROOT
HETATM    1  H   UNL     1      -2.036   9.662 -31.716  1.00  0.00     0.186 HD
HETATM    2  N   UNL     1      -2.245   8.756 -32.163  1.00  0.00    -0.304 NA
HETATM    3  C   UNL     1      -2.356   7.737 -31.372  1.00  0.00     0.062 C 
HETATM    4  C   UNL     1      -2.686   6.352 -31.959  1.00  0.00     0.186 C 
HETATM    5  C   UNL     1      -2.663   6.357 -33.435  1.00  0.00     0.091 C 
HETATM    6  N   UNL     1      -2.709   6.271 -34.591  1.00  0.00    -0.195 NA
HETATM    7  C   UNL     1      -1.705   5.389 -31.437  1.00  0.00     0.091 C 
HETATM    8  N   UNL     1      -1.005   4.630 -30.908  1.00  0.00    -0.195 NA
HETATM    9  C   UNL     1      -4.145   6.032 -31.459  1.00  0.00     0.071 C 
HETATM   10  C   UNL     1      -4.270   6.077 -29.893  1.00  0.00     0.053 C 
HETATM   11  C   UNL     1      -3.708   7.404 -29.344  1.00  0.00    -0.053 C 
HETATM   12  C   UNL     1      -4.439   8.132 -28.469  1.00  0.00     0.005 C 
HETATM   13  C   UNL     1      -2.302   7.818 -29.841  1.00  0.00     0.157 C 
HETATM   14  C   UNL     1      -1.925   9.212 -29.366  1.00  0.00    -0.005 C 
HETATM   15  N   UNL     1      -1.612  10.369 -28.972  1.00  0.00    -0.101 N 
HETATM   16  C   UNL     1      -5.754   5.831 -29.477  1.00  0.00     0.244 C 
HETATM   17  N   UNL     1      -6.044   6.277 -28.069  1.00  0.00    -0.071 N 
HETATM   18  H   UNL     1      -7.058   6.174 -27.926  1.00  0.00     0.279 HD
HETATM   19  C   UNL     1      -5.415   5.425 -27.002  1.00  0.00     0.270 C 
HETATM   20  C   UNL     1      -5.767   7.742 -27.900  1.00  0.00     0.262 C 
ENDROOT
BRANCH   9  21
HETATM   21  C   UNL     1      -4.787   4.780 -32.077  1.00  0.00    -0.047 A 
HETATM   22  C   UNL     1      -5.940   4.814 -32.873  1.00  0.00     0.047 A 
HETATM   23  C   UNL     1      -6.551   3.620 -33.295  1.00  0.00     0.102 A 
HETATM   24  C   UNL     1      -5.978   2.371 -33.017  1.00  0.00     0.102 A 
HETATM   25  C   UNL     1      -4.790   2.337 -32.291  1.00  0.00     0.040 A 
HETATM   26  C   UNL     1      -4.218   3.522 -31.807  1.00  0.00     0.010 A 
BRANCH  23  27
HETATM   27  O   UNL     1      -7.714   3.642 -34.031  1.00  0.00    -0.353 OA
HETATM   28  C   UNL     1      -8.391   4.900 -33.936  1.00  0.00     0.210 C 
ENDBRANCH  23  27
BRANCH  24  29
HETATM   29  O   UNL     1      -6.663   1.273 -33.473  1.00  0.00    -0.347 OA
BRANCH  29  30
HETATM   30  C   UNL     1      -5.921   0.257 -34.152  1.00  0.00     0.203 C 
BRANCH  30  31
HETATM   31  C   UNL     1      -6.060  -1.052 -33.363  1.00  0.00     0.261 C 
BRANCH  31  32
HETATM   32  N   UNL     1      -5.599  -2.256 -34.164  1.00  0.00    -0.065 N 
HETATM   33  H   UNL     1      -5.231  -1.880 -35.053  1.00  0.00     0.280 HD
HETATM   34  C   UNL     1      -4.480  -3.048 -33.499  1.00  0.00     0.261 C 
HETATM   35  C   UNL     1      -4.114  -4.260 -34.364  1.00  0.00     0.195 C 
HETATM   36  O   UNL     1      -5.257  -5.089 -34.591  1.00  0.00    -0.388 OA
HETATM   37  C   UNL     1      -6.286  -4.387 -35.295  1.00  0.00     0.195 C 
HETATM   38  C   UNL     1      -6.773  -3.180 -34.489  1.00  0.00     0.261 C 
ENDBRANCH  31  32
ENDBRANCH  30  31
ENDBRANCH  29  30
ENDBRANCH  24  29
ENDBRANCH   9  21
TORSDOF 6
ENDMDL
MODEL 7
REMARK VINA RESULT:      -7.9      4.011      9.055
REMARK  6 active torsions:
REMARK  status: ('A' for Active; 'I' for Inactive)
REMARK    1  A    between atoms: C_9  and  C_10 
REMARK    2  A    between atoms: C_12  and  O_13 
REMARK    3  A    between atoms: C_15  and  O_16 
REMARK    4  A    between atoms: O_16  and  C_17 
REMARK    5  A    between atoms: C_17  and  C_18 
REMARK    6  A    between atoms: C_18  and  N_19 
ROOT
HETATM    1  H   UNL     1     -10.735  -0.297 -31.813  1.00  0.00     0.186 HD
HETATM    2  N   UNL     1      -9.740  -0.025 -31.790  1.00  0.00    -0.304 NA
HETATM    3  C   UNL     1      -9.335   0.753 -32.744  1.00  0.00     0.062 C 
HETATM    4  C   UNL     1      -7.868   1.221 -32.771  1.00  0.00     0.186 C 
HETATM    5  C   UNL     1      -7.053   0.544 -31.743  1.00  0.00     0.091 C 
HETATM    6  N   UNL     1      -6.341   0.097 -30.944  1.00  0.00    -0.195 NA
HETATM    7  C   UNL     1      -7.328   0.951 -34.111  1.00  0.00     0.091 C 
HETATM    8  N   UNL     1      -6.968   0.850 -35.210  1.00  0.00    -0.195 NA
HETATM    9  C   UNL     1      -7.924   2.765 -32.462  1.00  0.00     0.071 C 
HETATM   10  C   UNL     1      -8.835   3.550 -33.473  1.00  0.00     0.053 C 
HETATM   11  C   UNL     1     -10.225   2.891 -33.573  1.00  0.00    -0.053 C 
HETATM   12  C   UNL     1     -11.339   3.652 -33.458  1.00  0.00     0.005 C 
HETATM   13  C   UNL     1     -10.251   1.363 -33.813  1.00  0.00     0.157 C 
HETATM   14  C   UNL     1     -11.662   0.803 -33.729  1.00  0.00    -0.005 C 
HETATM   15  N   UNL     1     -12.833   0.338 -33.658  1.00  0.00    -0.101 N 
HETATM   16  C   UNL     1      -8.906   5.053 -33.059  1.00  0.00     0.244 C 
HETATM   17  N   UNL     1     -10.067   5.775 -33.687  1.00  0.00    -0.071 N 
HETATM   18  H   UNL     1     -10.092   6.718 -33.275  1.00  0.00     0.279 HD
HETATM   19  C   UNL     1      -9.932   6.004 -35.168  1.00  0.00     0.270 C 
HETATM   20  C   UNL     1     -11.370   5.139 -33.301  1.00  0.00     0.262 C 
ENDROOT
BRANCH   9  21
HETATM   21  C   UNL     1      -6.561   3.435 -32.235  1.00  0.00    -0.047 A 
HETATM   22  C   UNL     1      -5.637   3.679 -33.261  1.00  0.00     0.047 A 
HETATM   23  C   UNL     1      -4.354   4.174 -32.963  1.00  0.00     0.102 A 
HETATM   24  C   UNL     1      -3.996   4.527 -31.655  1.00  0.00     0.102 A 
HETATM   25  C   UNL     1      -4.938   4.359 -30.643  1.00  0.00     0.040 A 
HETATM   26  C   UNL     1      -6.192   3.798 -30.926  1.00  0.00     0.010 A 
BRANCH  23  27
HETATM   27  O   UNL     1      -3.422   4.364 -33.957  1.00  0.00    -0.353 OA
HETATM   28  C   UNL     1      -3.869   5.296 -34.948  1.00  0.00     0.210 C 
ENDBRANCH  23  27
BRANCH  24  29
HETATM   29  O   UNL     1      -2.717   4.994 -31.480  1.00  0.00    -0.347 OA
BRANCH  29  30
HETATM   30  C   UNL     1      -2.552   6.356 -31.080  1.00  0.00     0.203 C 
BRANCH  30  31
HETATM   31  C   UNL     1      -1.228   6.478 -30.313  1.00  0.00     0.261 C 
BRANCH  31  32
HETATM   32  N   UNL     1      -1.418   6.320 -28.815  1.00  0.00    -0.065 N 
HETATM   33  H   UNL     1      -1.866   5.399 -28.682  1.00  0.00     0.280 HD
HETATM   34  C   UNL     1      -0.115   6.320 -28.025  1.00  0.00     0.261 C 
HETATM   35  C   UNL     1      -0.416   6.196 -26.526  1.00  0.00     0.195 C 
HETATM   36  O   UNL     1      -1.274   7.252 -26.088  1.00  0.00    -0.388 OA
HETATM   37  C   UNL     1      -2.538   7.215 -26.756  1.00  0.00     0.195 C 
HETATM   38  C   UNL     1      -2.363   7.391 -28.267  1.00  0.00     0.261 C 
ENDBRANCH  31  32
ENDBRANCH  30  31
ENDBRANCH  29  30
ENDBRANCH  24  29
ENDBRANCH   9  21
TORSDOF 6
ENDMDL
MODEL 8
REMARK VINA RESULT:      -7.8      3.934      8.827
REMARK  6 active torsions:
REMARK  status: ('A' for Active; 'I' for Inactive)
REMARK    1  A    between atoms: C_9  and  C_10 
REMARK    2  A    between atoms: C_12  and  O_13 
REMARK    3  A    between atoms: C_15  and  O_16 
REMARK    4  A    between atoms: O_16  and  C_17 
REMARK    5  A    between atoms: C_17  and  C_18 
REMARK    6  A    between atoms: C_18  and  N_19 
ROOT
HETATM    1  H   UNL     1     -10.968  -0.289 -32.031  1.00  0.00     0.186 HD
HETATM    2  N   UNL     1      -9.975  -0.012 -32.021  1.00  0.00    -0.304 NA
HETATM    3  C   UNL     1      -9.582   0.757 -32.987  1.00  0.00     0.062 C 
HETATM    4  C   UNL     1      -8.118   1.233 -33.033  1.00  0.00     0.186 C 
HETATM    5  C   UNL     1      -7.290   0.573 -32.005  1.00  0.00     0.091 C 
HETATM    6  N   UNL     1      -6.568   0.139 -31.207  1.00  0.00    -0.195 NA
HETATM    7  C   UNL     1      -7.589   0.949 -34.375  1.00  0.00     0.091 C 
HETATM    8  N   UNL     1      -7.239   0.837 -35.476  1.00  0.00    -0.195 NA
HETATM    9  C   UNL     1      -8.180   2.780 -32.743  1.00  0.00     0.071 C 
HETATM   10  C   UNL     1      -9.104   3.547 -33.755  1.00  0.00     0.053 C 
HETATM   11  C   UNL     1     -10.492   2.880 -33.834  1.00  0.00    -0.053 C 
HETATM   12  C   UNL     1     -11.609   3.636 -33.718  1.00  0.00     0.005 C 
HETATM   13  C   UNL     1     -10.511   1.349 -34.055  1.00  0.00     0.157 C 
HETATM   14  C   UNL     1     -11.918   0.782 -33.952  1.00  0.00    -0.005 C 
HETATM   15  N   UNL     1     -13.086   0.313 -33.865  1.00  0.00    -0.101 N 
HETATM   16  C   UNL     1      -9.180   5.055 -33.358  1.00  0.00     0.244 C 
HETATM   17  N   UNL     1     -10.351   5.763 -33.985  1.00  0.00    -0.071 N 
HETATM   18  H   UNL     1     -10.377   6.711 -33.584  1.00  0.00     0.279 HD
HETATM   19  C   UNL     1     -10.231   5.975 -35.469  1.00  0.00     0.270 C 
HETATM   20  C   UNL     1     -11.647   5.125 -33.579  1.00  0.00     0.262 C 
ENDROOT
BRANCH   9  21
HETATM   21  C   UNL     1      -6.819   3.460 -32.537  1.00  0.00    -0.047 A 
HETATM   22  C   UNL     1      -6.397   3.995 -31.312  1.00  0.00     0.047 A 
HETATM   23  C   UNL     1      -5.197   4.723 -31.226  1.00  0.00     0.102 A 
HETATM   24  C   UNL     1      -4.343   4.852 -32.330  1.00  0.00     0.102 A 
HETATM   25  C   UNL     1      -4.721   4.256 -33.531  1.00  0.00     0.040 A 
HETATM   26  C   UNL     1      -5.952   3.592 -33.638  1.00  0.00     0.010 A 
BRANCH  23  27
HETATM   27  O   UNL     1      -4.802   5.298 -30.040  1.00  0.00    -0.353 OA
HETATM   28  C   UNL     1      -5.727   5.041 -28.978  1.00  0.00     0.210 C 
ENDBRANCH  23  27
BRANCH  24  29
HETATM   29  O   UNL     1      -3.201   5.587 -32.133  1.00  0.00    -0.347 OA
BRANCH  29  30
HETATM   30  C   UNL     1      -1.944   4.926 -32.296  1.00  0.00     0.203 C 
BRANCH  30  31
HETATM   31  C   UNL     1      -0.855   5.993 -32.470  1.00  0.00     0.261 C 
BRANCH  31  32
HETATM   32  N   UNL     1      -0.067   6.221 -31.193  1.00  0.00    -0.065 N 
HETATM   33  H   UNL     1       0.889   6.477 -31.493  1.00  0.00     0.280 HD
HETATM   34  C   UNL     1      -0.602   7.357 -30.331  1.00  0.00     0.261 C 
HETATM   35  C   UNL     1       0.236   7.480 -29.052  1.00  0.00     0.195 C 
HETATM   36  O   UNL     1       0.239   6.249 -28.324  1.00  0.00    -0.388 OA
HETATM   37  C   UNL     1       0.821   5.188 -29.086  1.00  0.00     0.195 C 
HETATM   38  C   UNL     1       0.024   4.936 -30.369  1.00  0.00     0.261 C 
ENDBRANCH  31  32
ENDBRANCH  30  31
ENDBRANCH  29  30
ENDBRANCH  24  29
ENDBRANCH   9  21
TORSDOF 6
ENDMDL
MODEL 9
REMARK VINA RESULT:      -7.7      3.219      8.297
REMARK  6 active torsions:
REMARK  status: ('A' for Active; 'I' for Inactive)
REMARK    1  A    between atoms: C_9  and  C_10 
REMARK    2  A    between atoms: C_12  and  O_13 
REMARK    3  A    between atoms: C_15  and  O_16 
REMARK    4  A    between atoms: O_16  and  C_17 
REMARK    5  A    between atoms: C_17  and  C_18 
REMARK    6  A    between atoms: C_18  and  N_19 
ROOT
HETATM    1  H   UNL     1      -8.127  -0.944 -35.859  1.00  0.00     0.186 HD
HETATM    2  N   UNL     1      -8.283  -0.035 -35.396  1.00  0.00    -0.304 NA
HETATM    3  C   UNL     1      -7.837   0.077 -34.184  1.00  0.00     0.062 C 
HETATM    4  C   UNL     1      -8.011   1.408 -33.430  1.00  0.00     0.186 C 
HETATM    5  C   UNL     1      -8.854   2.361 -34.179  1.00  0.00     0.091 C 
HETATM    6  N   UNL     1      -9.469   3.191 -34.708  1.00  0.00    -0.195 NA
HETATM    7  C   UNL     1      -8.611   1.115 -32.121  1.00  0.00     0.091 C 
HETATM    8  N   UNL     1      -8.959   0.845 -31.047  1.00  0.00    -0.195 NA
HETATM    9  C   UNL     1      -6.556   1.994 -33.290  1.00  0.00     0.071 C 
HETATM   10  C   UNL     1      -5.574   1.004 -32.564  1.00  0.00     0.053 C 
HETATM   11  C   UNL     1      -5.617  -0.385 -33.230  1.00  0.00    -0.053 C 
HETATM   12  C   UNL     1      -4.462  -1.002 -33.573  1.00  0.00     0.005 C 
HETATM   13  C   UNL     1      -7.018  -1.000 -33.460  1.00  0.00     0.157 C 
HETATM   14  C   UNL     1      -6.945  -2.287 -34.266  1.00  0.00    -0.005 C 
HETATM   15  N   UNL     1      -6.883  -3.354 -34.935  1.00  0.00    -0.101 N 
HETATM   16  C   UNL     1      -4.139   1.616 -32.534  1.00  0.00     0.244 C 
HETATM   17  N   UNL     1      -3.074   0.588 -32.260  1.00  0.00    -0.071 N 
HETATM   18  H   UNL     1      -2.167   1.062 -32.365  1.00  0.00     0.279 HD
HETATM   19  C   UNL     1      -3.071   0.052 -30.855  1.00  0.00     0.270 C 
HETATM   20  C   UNL     1      -3.083  -0.488 -33.306  1.00  0.00     0.262 C 
ENDROOT
BRANCH   9  21
HETATM   21  C   UNL     1      -6.478   3.427 -32.742  1.00  0.00    -0.047 A 
HETATM   22  C   UNL     1      -6.780   3.767 -31.417  1.00  0.00     0.047 A 
HETATM   23  C   UNL     1      -6.819   5.115 -31.017  1.00  0.00     0.102 A 
HETATM   24  C   UNL     1      -6.465   6.146 -31.898  1.00  0.00     0.102 A 
HETATM   25  C   UNL     1      -6.089   5.806 -33.195  1.00  0.00     0.040 A 
HETATM   26  C   UNL     1      -6.120   4.469 -33.618  1.00  0.00     0.010 A 
BRANCH  23  27
HETATM   27  O   UNL     1      -7.167   5.461 -29.731  1.00  0.00    -0.353 OA
HETATM   28  C   UNL     1      -8.574   5.331 -29.498  1.00  0.00     0.210 C 
ENDBRANCH  23  27
BRANCH  24  29
HETATM   29  O   UNL     1      -6.544   7.423 -31.402  1.00  0.00    -0.347 OA
BRANCH  29  30
HETATM   30  C   UNL     1      -5.336   8.183 -31.319  1.00  0.00     0.203 C 
BRANCH  30  31
HETATM   31  C   UNL     1      -4.301   7.363 -30.537  1.00  0.00     0.261 C 
BRANCH  31  32
HETATM   32  N   UNL     1      -3.159   6.891 -31.418  1.00  0.00    -0.065 N 
HETATM   33  H   UNL     1      -3.469   7.048 -32.392  1.00  0.00     0.280 HD
HETATM   34  C   UNL     1      -1.863   7.665 -31.216  1.00  0.00     0.261 C 
HETATM   35  C   UNL     1      -0.766   7.089 -32.120  1.00  0.00     0.195 C 
HETATM   36  O   UNL     1      -0.570   5.696 -31.862  1.00  0.00    -0.388 OA
HETATM   37  C   UNL     1      -1.753   4.939 -32.132  1.00  0.00     0.195 C 
HETATM   38  C   UNL     1      -2.909   5.393 -31.236  1.00  0.00     0.261 C 
ENDBRANCH  31  32
ENDBRANCH  30  31
ENDBRANCH  29  30
ENDBRANCH  24  29
ENDBRANCH   9  21
TORSDOF 6
ENDMDL
MODEL 10
REMARK VINA RESULT:      -7.6      3.940      8.933
REMARK  6 active torsions:
REMARK  status: ('A' for Active; 'I' for Inactive)
REMARK    1  A    between atoms: C_9  and  C_10 
REMARK    2  A    between atoms: C_12  and  O_13 
REMARK    3  A    between atoms: C_15  and  O_16 
REMARK    4  A    between atoms: O_16  and  C_17 
REMARK    5  A    between atoms: C_17  and  C_18 
REMARK    6  A    between atoms: C_18  and  N_19 
ROOT
HETATM    1  H   UNL     1      -4.260  -0.472 -33.251  1.00  0.00     0.186 HD
HETATM    2  N   UNL     1      -4.119   0.479 -32.876  1.00  0.00    -0.304 NA
HETATM    3  C   UNL     1      -5.025   1.355 -33.174  1.00  0.00     0.062 C 
HETATM    4  C   UNL     1      -4.899   2.793 -32.636  1.00  0.00     0.186 C 
HETATM    5  C   UNL     1      -3.606   3.018 -31.961  1.00  0.00     0.091 C 
HETATM    6  N   UNL     1      -2.638   3.280 -31.376  1.00  0.00    -0.195 NA
HETATM    7  C   UNL     1      -5.051   3.718 -33.768  1.00  0.00     0.091 C 
HETATM    8  N   UNL     1      -5.307   4.426 -34.652  1.00  0.00    -0.195 NA
HETATM    9  C   UNL     1      -6.069   2.945 -31.593  1.00  0.00     0.071 C 
HETATM   10  C   UNL     1      -7.479   2.650 -32.221  1.00  0.00     0.053 C 
HETATM   11  C   UNL     1      -7.474   1.289 -32.945  1.00  0.00    -0.053 C 
HETATM   12  C   UNL     1      -8.457   0.392 -32.697  1.00  0.00     0.005 C 
HETATM   13  C   UNL     1      -6.316   1.040 -33.941  1.00  0.00     0.157 C 
HETATM   14  C   UNL     1      -6.322  -0.386 -34.467  1.00  0.00    -0.005 C 
HETATM   15  N   UNL     1      -6.327  -1.570 -34.903  1.00  0.00    -0.101 N 
HETATM   16  C   UNL     1      -8.576   2.741 -31.114  1.00  0.00     0.244 C 
HETATM   17  N   UNL     1      -9.860   2.065 -31.512  1.00  0.00    -0.071 N 
HETATM   18  H   UNL     1     -10.476   2.086 -30.687  1.00  0.00     0.279 HD
HETATM   19  C   UNL     1     -10.633   2.777 -32.589  1.00  0.00     0.270 C 
HETATM   20  C   UNL     1      -9.636   0.611 -31.804  1.00  0.00     0.262 C 
ENDROOT
BRANCH   9  21
HETATM   21  C   UNL     1      -6.040   4.237 -30.763  1.00  0.00    -0.047 A 
HETATM   22  C   UNL     1      -6.211   5.515 -31.312  1.00  0.00     0.047 A 
HETATM   23  C   UNL     1      -6.039   6.663 -30.518  1.00  0.00     0.102 A 
HETATM   24  C   UNL     1      -5.789   6.565 -29.142  1.00  0.00     0.102 A 
HETATM   25  C   UNL     1      -5.694   5.295 -28.577  1.00  0.00     0.040 A 
HETATM   26  C   UNL     1      -5.793   4.150 -29.380  1.00  0.00     0.010 A 
BRANCH  23  27
HETATM   27  O   UNL     1      -6.152   7.922 -31.060  1.00  0.00    -0.353 OA
HETATM   28  C   UNL     1      -7.424   8.133 -31.682  1.00  0.00     0.210 C 
ENDBRANCH  23  27
BRANCH  24  29
HETATM   29  O   UNL     1      -5.633   7.749 -28.466  1.00  0.00    -0.347 OA
BRANCH  29  30
HETATM   30  C   UNL     1      -4.485   7.893 -27.626  1.00  0.00     0.203 C 
BRANCH  30  31
HETATM   31  C   UNL     1      -3.251   8.073 -28.521  1.00  0.00     0.261 C 
BRANCH  31  32
HETATM   32  N   UNL     1      -2.170   7.052 -28.218  1.00  0.00    -0.065 N 
HETATM   33  H   UNL     1      -2.628   6.127 -28.280  1.00  0.00     0.280 HD
HETATM   34  C   UNL     1      -1.014   7.063 -29.210  1.00  0.00     0.261 C 
HETATM   35  C   UNL     1       0.039   6.028 -28.796  1.00  0.00     0.195 C 
HETATM   36  O   UNL     1       0.508   6.280 -27.469  1.00  0.00    -0.388 OA
HETATM   37  C   UNL     1      -0.549   6.185 -26.510  1.00  0.00     0.195 C 
HETATM   38  C   UNL     1      -1.639   7.222 -26.794  1.00  0.00     0.261 C 
ENDBRANCH  31  32
ENDBRANCH  30  31
ENDBRANCH  29  30
ENDBRANCH  24  29
ENDBRANCH   9  21
TORSDOF 6
ENDMDL
