MODEL 1
REMARK VINA RESULT:      -8.7      0.000      0.000
REMARK  6 active torsions:
REMARK  status: ('A' for Active; 'I' for Inactive)
REMARK    1  A    between atoms: N_3  and  C_4 
REMARK    2  A    between atoms: C_12  and  C_13 
REMARK       I    between atoms: C_13  and  N_14 
REMARK    3  A    between atoms: N_14  and  N_15 
REMARK       I    between atoms: N_15  and  C_16 
REMARK    4  A    between atoms: C_16  and  C_17 
REMARK    5  A    between atoms: C_17  and  C_18 
REMARK    6  A    between atoms: C_21  and  O_22 
ROOT
HETATM    1  C   UNL     1      -8.016   1.466 -34.321  1.00  0.00     0.272 C 
HETATM    2  N   UNL     1      -7.162   1.806 -33.294  1.00  0.00    -0.263 N 
HETATM    3  O   UNL     1      -7.670   0.699 -35.221  1.00  0.00    -0.266 OA
HETATM    4  H   UNL     1      -7.470   2.294 -32.458  1.00  0.00     0.190 HD
ENDROOT
BRANCH   1   5
HETATM    5  C   UNL     1      -9.367   2.020 -34.238  1.00  0.00     0.058 A 
HETATM    6  C   UNL     1     -10.531   1.437 -33.738  1.00  0.00     0.029 A 
HETATM    7  N   UNL     1     -11.587   2.342 -33.905  1.00  0.00    -0.319 N 
HETATM    8  C   UNL     1     -10.683   0.141 -33.000  1.00  0.00     0.070 C 
HETATM    9  C   UNL     1     -11.065   3.522 -34.425  1.00  0.00     0.014 A 
HETATM   10  C   UNL     1     -11.865   4.720 -34.810  1.00  0.00     0.068 C 
HETATM   11  C   UNL     1      -9.712   3.343 -34.610  1.00  0.00     0.044 A 
BRANCH   7  12
HETATM   12  C   UNL     1     -12.961   2.095 -33.602  1.00  0.00     0.039 A 
HETATM   13  C   UNL     1     -13.553   2.701 -32.487  1.00  0.00     0.030 A 
HETATM   14  C   UNL     1     -14.893   2.447 -32.181  1.00  0.00     0.002 A 
HETATM   15  C   UNL     1     -15.645   1.592 -32.985  1.00  0.00     0.000 A 
HETATM   16  C   UNL     1     -15.061   0.990 -34.098  1.00  0.00     0.002 A 
HETATM   17  C   UNL     1     -13.722   1.239 -34.409  1.00  0.00     0.030 A 
ENDBRANCH   7  12
ENDBRANCH   1   5
BRANCH   2  18
HETATM   18  N   UNL     1      -5.890   1.225 -33.263  1.00  0.00    -0.267 N 
HETATM   19  C   UNL     1      -5.635   0.241 -32.332  1.00  0.00     0.240 C 
HETATM   20  O   UNL     1      -6.513  -0.225 -31.605  1.00  0.00    -0.272 OA
HETATM   21  H   UNL     1      -5.176   1.668 -33.841  1.00  0.00     0.190 HD
BRANCH  19  22
HETATM   22  C   UNL     1      -4.181  -0.196 -32.270  1.00  0.00     0.143 C 
BRANCH  22  23
HETATM   23  C   UNL     1      -3.953  -1.624 -32.703  1.00  0.00    -0.049 A 
HETATM   24  C   UNL     1      -3.233  -2.512 -31.890  1.00  0.00     0.010 A 
HETATM   25  C   UNL     1      -3.061  -3.846 -32.272  1.00  0.00     0.037 A 
HETATM   26  C   UNL     1      -3.608  -4.291 -33.470  1.00  0.00     0.065 A 
HETATM   27  C   UNL     1      -4.316  -3.424 -34.293  1.00  0.00     0.037 A 
HETATM   28  C   UNL     1      -4.489  -2.094 -33.911  1.00  0.00     0.010 A 
BRANCH  26  29
HETATM   29  O   UNL     1      -3.476  -5.587 -33.875  1.00  0.00    -0.361 OA
HETATM   30  H   UNL     1      -4.358  -5.989 -33.920  1.00  0.00     0.217 HD
ENDBRANCH  26  29
ENDBRANCH  22  23
ENDBRANCH  19  22
ENDBRANCH   2  18
TORSDOF 6
ENDMDL
MODEL 2
REMARK VINA RESULT:      -8.5      6.255      9.576
REMARK  6 active torsions:
REMARK  status: ('A' for Active; 'I' for Inactive)
REMARK    1  A    between atoms: N_3  and  C_4 
REMARK    2  A    between atoms: C_12  and  C_13 
REMARK       I    between atoms: C_13  and  N_14 
REMARK    3  A    between atoms: N_14  and  N_15 
REMARK       I    between atoms: N_15  and  C_16 
REMARK    4  A    between atoms: C_16  and  C_17 
REMARK    5  A    between atoms: C_17  and  C_18 
REMARK    6  A    between atoms: C_21  and  O_22 
ROOT
HETATM    1  C   UNL     1      -3.916   2.997 -31.172  1.00  0.00     0.272 C 
HETATM    2  N   UNL     1      -2.691   3.620 -31.277  1.00  0.00    -0.263 N 
HETATM    3  O   UNL     1      -4.907   3.590 -30.744  1.00  0.00    -0.266 OA
HETATM    4  H   UNL     1      -1.905   3.215 -31.779  1.00  0.00     0.190 HD
ENDROOT
BRANCH   1   5
HETATM    5  C   UNL     1      -3.975   1.619 -31.657  1.00  0.00     0.058 A 
HETATM    6  C   UNL     1      -4.835   1.049 -32.596  1.00  0.00     0.029 A 
HETATM    7  N   UNL     1      -4.532  -0.314 -32.705  1.00  0.00    -0.319 N 
HETATM    8  C   UNL     1      -5.830   1.732 -33.485  1.00  0.00     0.070 C 
HETATM    9  C   UNL     1      -3.426  -0.575 -31.902  1.00  0.00     0.014 A 
HETATM   10  C   UNL     1      -2.818  -1.920 -31.685  1.00  0.00     0.068 C 
HETATM   11  C   UNL     1      -3.066   0.600 -31.279  1.00  0.00     0.044 A 
BRANCH   7  12
HETATM   12  C   UNL     1      -5.239  -1.272 -33.494  1.00  0.00     0.039 A 
HETATM   13  C   UNL     1      -6.637  -1.329 -33.441  1.00  0.00     0.030 A 
HETATM   14  C   UNL     1      -7.329  -2.277 -34.200  1.00  0.00     0.002 A 
HETATM   15  C   UNL     1      -6.630  -3.167 -35.014  1.00  0.00     0.000 A 
HETATM   16  C   UNL     1      -5.238  -3.111 -35.073  1.00  0.00     0.002 A 
HETATM   17  C   UNL     1      -4.541  -2.166 -34.316  1.00  0.00     0.030 A 
ENDBRANCH   7  12
ENDBRANCH   1   5
BRANCH   2  18
HETATM   18  N   UNL     1      -2.596   4.971 -30.926  1.00  0.00    -0.267 N 
HETATM   19  C   UNL     1      -1.357   5.487 -30.608  1.00  0.00     0.240 C 
HETATM   20  O   UNL     1      -0.319   4.836 -30.731  1.00  0.00    -0.272 OA
HETATM   21  H   UNL     1      -3.476   5.465 -30.785  1.00  0.00     0.190 HD
BRANCH  19  22
HETATM   22  C   UNL     1      -1.393   6.909 -30.077  1.00  0.00     0.143 C 
BRANCH  22  23
HETATM   23  C   UNL     1      -0.504   7.136 -28.878  1.00  0.00    -0.049 A 
HETATM   24  C   UNL     1      -0.760   6.483 -27.662  1.00  0.00     0.010 A 
HETATM   25  C   UNL     1       0.090   6.661 -26.567  1.00  0.00     0.037 A 
HETATM   26  C   UNL     1       1.196   7.495 -26.686  1.00  0.00     0.065 A 
HETATM   27  C   UNL     1       1.460   8.158 -27.878  1.00  0.00     0.037 A 
HETATM   28  C   UNL     1       0.613   7.979 -28.972  1.00  0.00     0.010 A 
BRANCH  26  29
HETATM   29  O   UNL     1       2.058   7.687 -25.647  1.00  0.00    -0.361 OA
HETATM   30  H   UNL     1       1.544   7.756 -24.826  1.00  0.00     0.217 HD
ENDBRANCH  26  29
ENDBRANCH  22  23
ENDBRANCH  19  22
ENDBRANCH   2  18
TORSDOF 6
ENDMDL
MODEL 3
REMARK VINA RESULT:      -8.2      4.969      8.305
REMARK  6 active torsions:
REMARK  status: ('A' for Active; 'I' for Inactive)
REMARK    1  A    between atoms: N_3  and  C_4 
REMARK    2  A    between atoms: C_12  and  C_13 
REMARK       I    between atoms: C_13  and  N_14 
REMARK    3  A    between atoms: N_14  and  N_15 
REMARK       I    between atoms: N_15  and  C_16 
REMARK    4  A    between atoms: C_16  and  C_17 
REMARK    5  A    between atoms: C_17  and  C_18 
REMARK    6  A    between atoms: C_21  and  O_22 
ROOT
HETATM    1  C   UNL     1      -4.552   2.768 -32.345  1.00  0.00     0.272 C 
HETATM    2  N   UNL     1      -4.074   3.776 -33.155  1.00  0.00    -0.263 N 
HETATM    3  O   UNL     1      -4.488   2.841 -31.117  1.00  0.00    -0.266 OA
HETATM    4  H   UNL     1      -4.263   3.821 -34.152  1.00  0.00     0.190 HD
ENDROOT
BRANCH   1   5
HETATM    5  C   UNL     1      -5.190   1.647 -33.032  1.00  0.00     0.058 A 
HETATM    6  C   UNL     1      -4.884   0.287 -32.975  1.00  0.00     0.029 A 
HETATM    7  N   UNL     1      -5.750  -0.399 -33.837  1.00  0.00    -0.319 N 
HETATM    8  C   UNL     1      -3.919  -0.415 -32.068  1.00  0.00     0.070 C 
HETATM    9  C   UNL     1      -6.654   0.520 -34.361  1.00  0.00     0.014 A 
HETATM   10  C   UNL     1      -7.706   0.211 -35.371  1.00  0.00     0.068 C 
HETATM   11  C   UNL     1      -6.335   1.763 -33.859  1.00  0.00     0.044 A 
BRANCH   7  12
HETATM   12  C   UNL     1      -5.708  -1.796 -34.133  1.00  0.00     0.039 A 
HETATM   13  C   UNL     1      -4.476  -2.447 -34.271  1.00  0.00     0.030 A 
HETATM   14  C   UNL     1      -4.434  -3.810 -34.577  1.00  0.00     0.002 A 
HETATM   15  C   UNL     1      -5.618  -4.526 -34.746  1.00  0.00     0.000 A 
HETATM   16  C   UNL     1      -6.847  -3.883 -34.606  1.00  0.00     0.002 A 
HETATM   17  C   UNL     1      -6.895  -2.521 -34.301  1.00  0.00     0.030 A 
ENDBRANCH   7  12
ENDBRANCH   1   5
BRANCH   2  18
HETATM   18  N   UNL     1      -3.545   4.923 -32.552  1.00  0.00    -0.267 N 
HETATM   19  C   UNL     1      -3.214   5.997 -33.351  1.00  0.00     0.240 C 
HETATM   20  O   UNL     1      -3.470   6.029 -34.555  1.00  0.00    -0.272 OA
HETATM   21  H   UNL     1      -3.301   4.844 -31.566  1.00  0.00     0.190 HD
BRANCH  19  22
HETATM   22  C   UNL     1      -2.492   7.116 -32.621  1.00  0.00     0.143 C 
BRANCH  22  23
HETATM   23  C   UNL     1      -1.544   6.634 -31.549  1.00  0.00    -0.049 A 
HETATM   24  C   UNL     1      -1.743   6.986 -30.206  1.00  0.00     0.010 A 
HETATM   25  C   UNL     1      -0.890   6.503 -29.210  1.00  0.00     0.037 A 
HETATM   26  C   UNL     1       0.166   5.668 -29.558  1.00  0.00     0.065 A 
HETATM   27  C   UNL     1       0.386   5.316 -30.884  1.00  0.00     0.037 A 
HETATM   28  C   UNL     1      -0.467   5.797 -31.878  1.00  0.00     0.010 A 
BRANCH  26  29
HETATM   29  O   UNL     1       1.015   5.164 -28.617  1.00  0.00    -0.361 OA
HETATM   30  H   UNL     1       1.234   4.249 -28.856  1.00  0.00     0.217 HD
ENDBRANCH  26  29
ENDBRANCH  22  23
ENDBRANCH  19  22
ENDBRANCH   2  18
TORSDOF 6
ENDMDL
MODEL 4
REMARK VINA RESULT:      -8.2      5.164      8.409
REMARK  6 active torsions:
REMARK  status: ('A' for Active; 'I' for Inactive)
REMARK    1  A    between atoms: N_3  and  C_4 
REMARK    2  A    between atoms: C_12  and  C_13 
REMARK       I    between atoms: C_13  and  N_14 
REMARK    3  A    between atoms: N_14  and  N_15 
REMARK       I    between atoms: N_15  and  C_16 
REMARK    4  A    between atoms: C_16  and  C_17 
REMARK    5  A    between atoms: C_17  and  C_18 
REMARK    6  A    between atoms: C_21  and  O_22 
ROOT
HETATM    1  C   UNL     1      -5.479   4.125 -33.643  1.00  0.00     0.272 C 
HETATM    2  N   UNL     1      -5.395   2.815 -33.220  1.00  0.00    -0.263 N 
HETATM    3  O   UNL     1      -6.213   4.456 -34.575  1.00  0.00    -0.266 OA
HETATM    4  H   UNL     1      -4.935   2.542 -32.356  1.00  0.00     0.190 HD
ENDROOT
BRANCH   1   5
HETATM    5  C   UNL     1      -4.695   5.094 -32.879  1.00  0.00     0.058 A 
HETATM    6  C   UNL     1      -3.359   5.031 -32.483  1.00  0.00     0.029 A 
HETATM    7  N   UNL     1      -3.063   6.180 -31.737  1.00  0.00    -0.319 N 
HETATM    8  C   UNL     1      -2.316   4.027 -32.871  1.00  0.00     0.070 C 
HETATM    9  C   UNL     1      -4.188   6.999 -31.744  1.00  0.00     0.014 A 
HETATM   10  C   UNL     1      -4.314   8.293 -31.012  1.00  0.00     0.068 C 
HETATM   11  C   UNL     1      -5.178   6.357 -32.455  1.00  0.00     0.044 A 
BRANCH   7  12
HETATM   12  C   UNL     1      -1.828   6.458 -31.076  1.00  0.00     0.039 A 
HETATM   13  C   UNL     1      -1.766   6.458 -29.677  1.00  0.00     0.030 A 
HETATM   14  C   UNL     1      -0.562   6.747 -29.029  1.00  0.00     0.002 A 
HETATM   15  C   UNL     1       0.582   7.034 -29.773  1.00  0.00     0.000 A 
HETATM   16  C   UNL     1       0.525   7.031 -31.166  1.00  0.00     0.002 A 
HETATM   17  C   UNL     1      -0.676   6.744 -31.819  1.00  0.00     0.030 A 
ENDBRANCH   7  12
ENDBRANCH   1   5
BRANCH   2  18
HETATM   18  N   UNL     1      -6.201   1.858 -33.845  1.00  0.00    -0.267 N 
HETATM   19  C   UNL     1      -6.079   0.539 -33.463  1.00  0.00     0.240 C 
HETATM   20  O   UNL     1      -5.373   0.187 -32.517  1.00  0.00    -0.272 OA
HETATM   21  H   UNL     1      -6.734   2.174 -34.654  1.00  0.00     0.190 HD
BRANCH  19  22
HETATM   22  C   UNL     1      -6.871  -0.433 -34.320  1.00  0.00     0.143 C 
BRANCH  22  23
HETATM   23  C   UNL     1      -6.289  -1.825 -34.362  1.00  0.00    -0.049 A 
HETATM   24  C   UNL     1      -7.118  -2.943 -34.545  1.00  0.00     0.010 A 
HETATM   25  C   UNL     1      -6.572  -4.227 -34.628  1.00  0.00     0.037 A 
HETATM   26  C   UNL     1      -5.196  -4.395 -34.524  1.00  0.00     0.065 A 
HETATM   27  C   UNL     1      -4.359  -3.302 -34.333  1.00  0.00     0.037 A 
HETATM   28  C   UNL     1      -4.904  -2.020 -34.252  1.00  0.00     0.010 A 
BRANCH  26  29
HETATM   29  O   UNL     1      -4.620  -5.628 -34.612  1.00  0.00    -0.361 OA
HETATM   30  H   UNL     1      -4.128  -5.800 -33.793  1.00  0.00     0.217 HD
ENDBRANCH  26  29
ENDBRANCH  22  23
ENDBRANCH  19  22
ENDBRANCH   2  18
TORSDOF 6
ENDMDL
MODEL 5
REMARK VINA RESULT:      -8.1      6.764      9.276
REMARK  6 active torsions:
REMARK  status: ('A' for Active; 'I' for Inactive)
REMARK    1  A    between atoms: N_3  and  C_4 
REMARK    2  A    between atoms: C_12  and  C_13 
REMARK       I    between atoms: C_13  and  N_14 
REMARK    3  A    between atoms: N_14  and  N_15 
REMARK       I    between atoms: N_15  and  C_16 
REMARK    4  A    between atoms: C_16  and  C_17 
REMARK    5  A    between atoms: C_17  and  C_18 
REMARK    6  A    between atoms: C_21  and  O_22 
ROOT
HETATM    1  C   UNL     1      -2.851   4.251 -32.083  1.00  0.00     0.272 C 
HETATM    2  N   UNL     1      -2.573   4.774 -30.838  1.00  0.00    -0.263 N 
HETATM    3  O   UNL     1      -2.367   4.732 -33.108  1.00  0.00    -0.266 OA
HETATM    4  H   UNL     1      -2.818   4.302 -29.973  1.00  0.00     0.190 HD
ENDROOT
BRANCH   1   5
HETATM    5  C   UNL     1      -3.701   3.061 -32.100  1.00  0.00     0.058 A 
HETATM    6  C   UNL     1      -4.988   2.904 -32.615  1.00  0.00     0.029 A 
HETATM    7  N   UNL     1      -5.408   1.591 -32.365  1.00  0.00    -0.319 N 
HETATM    8  C   UNL     1      -5.789   3.867 -33.437  1.00  0.00     0.070 C 
HETATM    9  C   UNL     1      -4.351   0.905 -31.775  1.00  0.00     0.014 A 
HETATM   10  C   UNL     1      -4.402  -0.505 -31.291  1.00  0.00     0.068 C 
HETATM   11  C   UNL     1      -3.300   1.786 -31.631  1.00  0.00     0.044 A 
BRANCH   7  12
HETATM   12  C   UNL     1      -6.698   1.051 -32.655  1.00  0.00     0.039 A 
HETATM   13  C   UNL     1      -7.732   1.164 -31.717  1.00  0.00     0.030 A 
HETATM   14  C   UNL     1      -8.991   0.621 -31.993  1.00  0.00     0.002 A 
HETATM   15  C   UNL     1      -9.221  -0.032 -33.203  1.00  0.00     0.000 A 
HETATM   16  C   UNL     1      -8.195  -0.143 -34.140  1.00  0.00     0.002 A 
HETATM   17  C   UNL     1      -6.936   0.396 -33.870  1.00  0.00     0.030 A 
ENDBRANCH   7  12
ENDBRANCH   1   5
BRANCH   2  18
HETATM   18  N   UNL     1      -1.683   5.849 -30.749  1.00  0.00    -0.267 N 
HETATM   19  C   UNL     1      -0.382   5.601 -30.366  1.00  0.00     0.240 C 
HETATM   20  O   UNL     1       0.055   4.460 -30.210  1.00  0.00    -0.272 OA
HETATM   21  H   UNL     1      -2.088   6.780 -30.835  1.00  0.00     0.190 HD
BRANCH  19  22
HETATM   22  C   UNL     1       0.448   6.851 -30.135  1.00  0.00     0.143 C 
BRANCH  22  23
HETATM   23  C   UNL     1       0.300   7.436 -28.751  1.00  0.00    -0.049 A 
HETATM   24  C   UNL     1       1.029   6.915 -27.671  1.00  0.00     0.010 A 
HETATM   25  C   UNL     1       0.923   7.487 -26.400  1.00  0.00     0.037 A 
HETATM   26  C   UNL     1       0.085   8.580 -26.207  1.00  0.00     0.065 A 
HETATM   27  C   UNL     1      -0.652   9.103 -27.262  1.00  0.00     0.037 A 
HETATM   28  C   UNL     1      -0.545   8.534 -28.531  1.00  0.00     0.010 A 
BRANCH  26  29
HETATM   29  O   UNL     1      -0.038   9.176 -24.987  1.00  0.00    -0.361 OA
HETATM   30  H   UNL     1      -0.982   9.272 -24.783  1.00  0.00     0.217 HD
ENDBRANCH  26  29
ENDBRANCH  22  23
ENDBRANCH  19  22
ENDBRANCH   2  18
TORSDOF 6
ENDMDL
MODEL 6
REMARK VINA RESULT:      -8.1      2.377      3.614
REMARK  6 active torsions:
REMARK  status: ('A' for Active; 'I' for Inactive)
REMARK    1  A    between atoms: N_3  and  C_4 
REMARK    2  A    between atoms: C_12  and  C_13 
REMARK       I    between atoms: C_13  and  N_14 
REMARK    3  A    between atoms: N_14  and  N_15 
REMARK       I    between atoms: N_15  and  C_16 
REMARK    4  A    between atoms: C_16  and  C_17 
REMARK    5  A    between atoms: C_17  and  C_18 
REMARK    6  A    between atoms: C_21  and  O_22 
ROOT
HETATM    1  C   UNL     1     -10.306   2.230 -34.082  1.00  0.00     0.272 C 
HETATM    2  N   UNL     1      -9.962   0.900 -33.963  1.00  0.00    -0.263 N 
HETATM    3  O   UNL     1      -9.609   3.023 -34.715  1.00  0.00    -0.266 OA
HETATM    4  H   UNL     1     -10.596   0.195 -33.596  1.00  0.00     0.190 HD
ENDROOT
BRANCH   1   5
HETATM    5  C   UNL     1     -11.573   2.618 -33.463  1.00  0.00     0.058 A 
HETATM    6  C   UNL     1     -11.901   3.794 -32.787  1.00  0.00     0.029 A 
HETATM    7  N   UNL     1     -13.225   3.694 -32.340  1.00  0.00    -0.319 N 
HETATM    8  C   UNL     1     -11.093   5.049 -32.652  1.00  0.00     0.070 C 
HETATM    9  C   UNL     1     -13.750   2.495 -32.814  1.00  0.00     0.014 A 
HETATM   10  C   UNL     1     -15.114   1.974 -32.511  1.00  0.00     0.068 C 
HETATM   11  C   UNL     1     -12.759   1.845 -33.518  1.00  0.00     0.044 A 
BRANCH   7  12
HETATM   12  C   UNL     1     -13.914   4.648 -31.532  1.00  0.00     0.039 A 
HETATM   13  C   UNL     1     -14.926   5.439 -32.090  1.00  0.00     0.030 A 
HETATM   14  C   UNL     1     -15.590   6.386 -31.305  1.00  0.00     0.002 A 
HETATM   15  C   UNL     1     -15.247   6.544 -29.962  1.00  0.00     0.000 A 
HETATM   16  C   UNL     1     -14.243   5.757 -29.402  1.00  0.00     0.002 A 
HETATM   17  C   UNL     1     -13.576   4.810 -30.182  1.00  0.00     0.030 A 
ENDBRANCH   7  12
ENDBRANCH   1   5
BRANCH   2  18
HETATM   18  N   UNL     1      -8.814   0.446 -34.621  1.00  0.00    -0.267 N 
HETATM   19  C   UNL     1      -7.762  -0.028 -33.866  1.00  0.00     0.240 C 
HETATM   20  O   UNL     1      -7.837  -0.173 -32.645  1.00  0.00    -0.272 OA
HETATM   21  H   UNL     1      -8.766   0.626 -35.623  1.00  0.00     0.190 HD
BRANCH  19  22
HETATM   22  C   UNL     1      -6.508  -0.331 -34.667  1.00  0.00     0.143 C 
BRANCH  22  23
HETATM   23  C   UNL     1      -6.069  -1.773 -34.592  1.00  0.00    -0.049 A 
HETATM   24  C   UNL     1      -6.969  -2.812 -34.872  1.00  0.00     0.010 A 
HETATM   25  C   UNL     1      -6.548  -4.144 -34.846  1.00  0.00     0.037 A 
HETATM   26  C   UNL     1      -5.225  -4.439 -34.537  1.00  0.00     0.065 A 
HETATM   27  C   UNL     1      -4.321  -3.425 -34.246  1.00  0.00     0.037 A 
HETATM   28  C   UNL     1      -4.741  -2.095 -34.274  1.00  0.00     0.010 A 
BRANCH  26  29
HETATM   29  O   UNL     1      -4.769  -5.724 -34.512  1.00  0.00    -0.361 OA
HETATM   30  H   UNL     1      -5.422  -6.276 -34.051  1.00  0.00     0.217 HD
ENDBRANCH  26  29
ENDBRANCH  22  23
ENDBRANCH  19  22
ENDBRANCH   2  18
TORSDOF 6
ENDMDL
MODEL 7
REMARK VINA RESULT:      -8.0      5.745      8.255
REMARK  6 active torsions:
REMARK  status: ('A' for Active; 'I' for Inactive)
REMARK    1  A    between atoms: N_3  and  C_4 
REMARK    2  A    between atoms: C_12  and  C_13 
REMARK       I    between atoms: C_13  and  N_14 
REMARK    3  A    between atoms: N_14  and  N_15 
REMARK       I    between atoms: N_15  and  C_16 
REMARK    4  A    between atoms: C_16  and  C_17 
REMARK    5  A    between atoms: C_17  and  C_18 
REMARK    6  A    between atoms: C_21  and  O_22 
ROOT
HETATM    1  C   UNL     1      -3.180   2.865 -32.206  1.00  0.00     0.272 C 
HETATM    2  N   UNL     1      -2.850   3.805 -33.159  1.00  0.00    -0.263 N 
HETATM    3  O   UNL     1      -2.622   2.835 -31.109  1.00  0.00    -0.266 OA
HETATM    4  H   UNL     1      -3.403   3.960 -33.998  1.00  0.00     0.190 HD
ENDROOT
BRANCH   1   5
HETATM    5  C   UNL     1      -4.268   1.954 -32.558  1.00  0.00     0.058 A 
HETATM    6  C   UNL     1      -5.633   2.216 -32.683  1.00  0.00     0.029 A 
HETATM    7  N   UNL     1      -6.287   1.019 -33.003  1.00  0.00    -0.319 N 
HETATM    8  C   UNL     1      -6.336   3.539 -32.647  1.00  0.00     0.070 C 
HETATM    9  C   UNL     1      -5.321   0.031 -33.166  1.00  0.00     0.014 A 
HETATM   10  C   UNL     1      -5.600  -1.406 -33.451  1.00  0.00     0.068 C 
HETATM   11  C   UNL     1      -4.088   0.596 -32.921  1.00  0.00     0.044 A 
BRANCH   7  12
HETATM   12  C   UNL     1      -7.698   0.840 -33.130  1.00  0.00     0.039 A 
HETATM   13  C   UNL     1      -8.340   1.166 -34.331  1.00  0.00     0.030 A 
HETATM   14  C   UNL     1      -9.724   1.007 -34.452  1.00  0.00     0.002 A 
HETATM   15  C   UNL     1     -10.468   0.521 -33.377  1.00  0.00     0.000 A 
HETATM   16  C   UNL     1      -9.832   0.191 -32.182  1.00  0.00     0.002 A 
HETATM   17  C   UNL     1      -8.450   0.349 -32.055  1.00  0.00     0.030 A 
ENDBRANCH   7  12
ENDBRANCH   1   5
BRANCH   2  18
HETATM   18  N   UNL     1      -1.888   4.769 -32.841  1.00  0.00    -0.267 N 
HETATM   19  C   UNL     1      -2.067   6.058 -33.298  1.00  0.00     0.240 C 
HETATM   20  O   UNL     1      -3.093   6.419 -33.875  1.00  0.00    -0.272 OA
HETATM   21  H   UNL     1      -1.031   4.428 -32.408  1.00  0.00     0.190 HD
BRANCH  19  22
HETATM   22  C   UNL     1      -0.885   6.977 -33.045  1.00  0.00     0.143 C 
BRANCH  22  23
HETATM   23  C   UNL     1      -0.703   7.354 -31.595  1.00  0.00    -0.049 A 
HETATM   24  C   UNL     1      -1.677   8.108 -30.922  1.00  0.00     0.010 A 
HETATM   25  C   UNL     1      -1.527   8.416 -29.568  1.00  0.00     0.037 A 
HETATM   26  C   UNL     1      -0.400   7.974 -28.884  1.00  0.00     0.065 A 
HETATM   27  C   UNL     1       0.581   7.236 -29.535  1.00  0.00     0.037 A 
HETATM   28  C   UNL     1       0.430   6.925 -30.886  1.00  0.00     0.010 A 
BRANCH  26  29
HETATM   29  O   UNL     1      -0.220   8.243 -27.559  1.00  0.00    -0.361 OA
HETATM   30  H   UNL     1      -0.482   7.461 -27.046  1.00  0.00     0.217 HD
ENDBRANCH  26  29
ENDBRANCH  22  23
ENDBRANCH  19  22
ENDBRANCH   2  18
TORSDOF 6
ENDMDL
MODEL 8
REMARK VINA RESULT:      -8.0      5.424      8.312
REMARK  6 active torsions:
REMARK  status: ('A' for Active; 'I' for Inactive)
REMARK    1  A    between atoms: N_3  and  C_4 
REMARK    2  A    between atoms: C_12  and  C_13 
REMARK       I    between atoms: C_13  and  N_14 
REMARK    3  A    between atoms: N_14  and  N_15 
REMARK       I    between atoms: N_15  and  C_16 
REMARK    4  A    between atoms: C_16  and  C_17 
REMARK    5  A    between atoms: C_17  and  C_18 
REMARK    6  A    between atoms: C_21  and  O_22 
ROOT
HETATM    1  C   UNL     1      -4.862   3.556 -33.117  1.00  0.00     0.272 C 
HETATM    2  N   UNL     1      -4.692   2.194 -32.983  1.00  0.00    -0.263 N 
HETATM    3  O   UNL     1      -5.820   4.030 -33.727  1.00  0.00    -0.266 OA
HETATM    4  H   UNL     1      -4.013   1.781 -32.350  1.00  0.00     0.190 HD
ENDROOT
BRANCH   1   5
HETATM    5  C   UNL     1      -3.871   4.391 -32.440  1.00  0.00     0.058 A 
HETATM    6  C   UNL     1      -4.061   5.547 -31.682  1.00  0.00     0.029 A 
HETATM    7  N   UNL     1      -2.808   6.017 -31.268  1.00  0.00    -0.319 N 
HETATM    8  C   UNL     1      -5.349   6.158 -31.220  1.00  0.00     0.070 C 
HETATM    9  C   UNL     1      -1.845   5.105 -31.689  1.00  0.00     0.014 A 
HETATM   10  C   UNL     1      -0.373   5.262 -31.506  1.00  0.00     0.068 C 
HETATM   11  C   UNL     1      -2.485   4.101 -32.384  1.00  0.00     0.044 A 
BRANCH   7  12
HETATM   12  C   UNL     1      -2.560   7.224 -30.546  1.00  0.00     0.039 A 
HETATM   13  C   UNL     1      -2.416   7.191 -29.153  1.00  0.00     0.030 A 
HETATM   14  C   UNL     1      -2.189   8.374 -28.444  1.00  0.00     0.002 A 
HETATM   15  C   UNL     1      -2.103   9.590 -29.121  1.00  0.00     0.000 A 
HETATM   16  C   UNL     1      -2.242   9.627 -30.507  1.00  0.00     0.002 A 
HETATM   17  C   UNL     1      -2.470   8.448 -31.221  1.00  0.00     0.030 A 
ENDBRANCH   7  12
ENDBRANCH   1   5
BRANCH   2  18
HETATM   18  N   UNL     1      -5.664   1.343 -33.521  1.00  0.00    -0.267 N 
HETATM   19  C   UNL     1      -6.052   0.238 -32.793  1.00  0.00     0.240 C 
HETATM   20  O   UNL     1      -5.662   0.034 -31.643  1.00  0.00    -0.272 OA
HETATM   21  H   UNL     1      -5.927   1.513 -34.491  1.00  0.00     0.190 HD
BRANCH  19  22
HETATM   22  C   UNL     1      -6.978  -0.705 -33.541  1.00  0.00     0.143 C 
BRANCH  22  23
HETATM   23  C   UNL     1      -6.331  -2.009 -33.939  1.00  0.00    -0.049 A 
HETATM   24  C   UNL     1      -4.939  -2.170 -33.867  1.00  0.00     0.010 A 
HETATM   25  C   UNL     1      -4.347  -3.392 -34.194  1.00  0.00     0.037 A 
HETATM   26  C   UNL     1      -5.147  -4.456 -34.596  1.00  0.00     0.065 A 
HETATM   27  C   UNL     1      -6.526  -4.314 -34.683  1.00  0.00     0.037 A 
HETATM   28  C   UNL     1      -7.117  -3.094 -34.355  1.00  0.00     0.010 A 
BRANCH  26  29
HETATM   29  O   UNL     1      -4.611  -5.670 -34.912  1.00  0.00    -0.361 OA
HETATM   30  H   UNL     1      -5.306  -6.223 -35.303  1.00  0.00     0.217 HD
ENDBRANCH  26  29
ENDBRANCH  22  23
ENDBRANCH  19  22
ENDBRANCH   2  18
TORSDOF 6
ENDMDL
MODEL 9
REMARK VINA RESULT:      -7.9      6.775      9.274
REMARK  6 active torsions:
REMARK  status: ('A' for Active; 'I' for Inactive)
REMARK    1  A    between atoms: N_3  and  C_4 
REMARK    2  A    between atoms: C_12  and  C_13 
REMARK       I    between atoms: C_13  and  N_14 
REMARK    3  A    between atoms: N_14  and  N_15 
REMARK       I    between atoms: N_15  and  C_16 
REMARK    4  A    between atoms: C_16  and  C_17 
REMARK    5  A    between atoms: C_17  and  C_18 
REMARK    6  A    between atoms: C_21  and  O_22 
ROOT
HETATM    1  C   UNL     1      -4.029   5.384 -31.201  1.00  0.00     0.272 C 
HETATM    2  N   UNL     1      -2.841   5.025 -30.600  1.00  0.00    -0.263 N 
HETATM    3  O   UNL     1      -4.264   6.550 -31.520  1.00  0.00    -0.266 OA
HETATM    4  H   UNL     1      -2.551   4.058 -30.481  1.00  0.00     0.190 HD
ENDROOT
BRANCH   1   5
HETATM    5  C   UNL     1      -4.955   4.290 -31.486  1.00  0.00     0.058 A 
HETATM    6  C   UNL     1      -4.772   3.166 -32.291  1.00  0.00     0.029 A 
HETATM    7  N   UNL     1      -5.957   2.418 -32.285  1.00  0.00    -0.319 N 
HETATM    8  C   UNL     1      -3.516   2.688 -32.955  1.00  0.00     0.070 C 
HETATM    9  C   UNL     1      -6.847   3.028 -31.407  1.00  0.00     0.014 A 
HETATM   10  C   UNL     1      -8.249   2.585 -31.156  1.00  0.00     0.068 C 
HETATM   11  C   UNL     1      -6.238   4.155 -30.898  1.00  0.00     0.044 A 
BRANCH   7  12
HETATM   12  C   UNL     1      -6.212   1.241 -33.053  1.00  0.00     0.039 A 
HETATM   13  C   UNL     1      -6.697   1.349 -34.362  1.00  0.00     0.030 A 
HETATM   14  C   UNL     1      -6.963   0.198 -35.109  1.00  0.00     0.002 A 
HETATM   15  C   UNL     1      -6.745  -1.062 -34.553  1.00  0.00     0.000 A 
HETATM   16  C   UNL     1      -6.258  -1.174 -33.251  1.00  0.00     0.002 A 
HETATM   17  C   UNL     1      -5.992  -0.027 -32.501  1.00  0.00     0.030 A 
ENDBRANCH   7  12
ENDBRANCH   1   5
BRANCH   2  18
HETATM   18  N   UNL     1      -1.871   6.012 -30.395  1.00  0.00    -0.267 N 
HETATM   19  C   UNL     1      -0.574   5.757 -30.789  1.00  0.00     0.240 C 
HETATM   20  O   UNL     1      -0.260   4.745 -31.416  1.00  0.00    -0.272 OA
HETATM   21  H   UNL     1      -2.152   6.813 -29.831  1.00  0.00     0.190 HD
BRANCH  19  22
HETATM   22  C   UNL     1       0.425   6.819 -30.365  1.00  0.00     0.143 C 
BRANCH  22  23
HETATM   23  C   UNL     1       0.213   7.332 -28.961  1.00  0.00    -0.049 A 
HETATM   24  C   UNL     1       0.780   6.669 -27.862  1.00  0.00     0.010 A 
HETATM   25  C   UNL     1       0.620   7.171 -26.568  1.00  0.00     0.037 A 
HETATM   26  C   UNL     1      -0.112   8.336 -26.371  1.00  0.00     0.065 A 
HETATM   27  C   UNL     1      -0.691   9.002 -27.445  1.00  0.00     0.037 A 
HETATM   28  C   UNL     1      -0.528   8.502 -28.737  1.00  0.00     0.010 A 
BRANCH  26  29
HETATM   29  O   UNL     1      -0.284   8.868 -25.127  1.00  0.00    -0.361 OA
HETATM   30  H   UNL     1      -0.543   8.157 -24.519  1.00  0.00     0.217 HD
ENDBRANCH  26  29
ENDBRANCH  22  23
ENDBRANCH  19  22
ENDBRANCH   2  18
TORSDOF 6
ENDMDL
MODEL 10
REMARK VINA RESULT:      -7.8      6.660      9.228
REMARK  6 active torsions:
REMARK  status: ('A' for Active; 'I' for Inactive)
REMARK    1  A    between atoms: N_3  and  C_4 
REMARK    2  A    between atoms: C_12  and  C_13 
REMARK       I    between atoms: C_13  and  N_14 
REMARK    3  A    between atoms: N_14  and  N_15 
REMARK       I    between atoms: N_15  and  C_16 
REMARK    4  A    between atoms: C_16  and  C_17 
REMARK    5  A    between atoms: C_17  and  C_18 
REMARK    6  A    between atoms: C_21  and  O_22 
ROOT
HETATM    1  C   UNL     1      -3.227   4.610 -31.479  1.00  0.00     0.272 C 
HETATM    2  N   UNL     1      -1.942   4.490 -31.966  1.00  0.00    -0.263 N 
HETATM    3  O   UNL     1      -3.605   5.628 -30.900  1.00  0.00    -0.266 OA
HETATM    4  H   UNL     1      -1.654   3.742 -32.590  1.00  0.00     0.190 HD
ENDROOT
BRANCH   1   5
HETATM    5  C   UNL     1      -4.118   3.483 -31.750  1.00  0.00     0.058 A 
HETATM    6  C   UNL     1      -5.056   3.324 -32.771  1.00  0.00     0.029 A 
HETATM    7  N   UNL     1      -5.696   2.091 -32.596  1.00  0.00    -0.319 N 
HETATM    8  C   UNL     1      -5.291   4.198 -33.965  1.00  0.00     0.070 C 
HETATM    9  C   UNL     1      -5.097   1.441 -31.522  1.00  0.00     0.014 A 
HETATM   10  C   UNL     1      -5.524   0.126 -30.964  1.00  0.00     0.068 C 
HETATM   11  C   UNL     1      -4.120   2.271 -31.015  1.00  0.00     0.044 A 
BRANCH   7  12
HETATM   12  C   UNL     1      -6.781   1.589 -33.378  1.00  0.00     0.039 A 
HETATM   13  C   UNL     1      -8.101   1.905 -33.031  1.00  0.00     0.030 A 
HETATM   14  C   UNL     1      -9.164   1.401 -33.785  1.00  0.00     0.002 A 
HETATM   15  C   UNL     1      -8.915   0.584 -34.887  1.00  0.00     0.000 A 
HETATM   16  C   UNL     1      -7.603   0.271 -35.239  1.00  0.00     0.002 A 
HETATM   17  C   UNL     1      -6.537   0.770 -34.488  1.00  0.00     0.030 A 
ENDBRANCH   7  12
ENDBRANCH   1   5
BRANCH   2  18
HETATM   18  N   UNL     1      -1.073   5.578 -31.829  1.00  0.00    -0.267 N 
HETATM   19  C   UNL     1      -0.094   5.524 -30.859  1.00  0.00     0.240 C 
HETATM   20  O   UNL     1       0.117   4.514 -30.188  1.00  0.00    -0.272 OA
HETATM   21  H   UNL     1      -1.306   6.414 -32.364  1.00  0.00     0.190 HD
BRANCH  19  22
HETATM   22  C   UNL     1       0.678   6.820 -30.683  1.00  0.00     0.143 C 
BRANCH  22  23
HETATM   23  C   UNL     1       0.222   7.647 -29.505  1.00  0.00    -0.049 A 
HETATM   24  C   UNL     1      -1.117   8.049 -29.387  1.00  0.00     0.010 A 
HETATM   25  C   UNL     1      -1.546   8.776 -28.273  1.00  0.00     0.037 A 
HETATM   26  C   UNL     1      -0.634   9.106 -27.278  1.00  0.00     0.065 A 
HETATM   27  C   UNL     1       0.699   8.727 -27.381  1.00  0.00     0.037 A 
HETATM   28  C   UNL     1       1.126   7.999 -28.492  1.00  0.00     0.010 A 
BRANCH  26  29
HETATM   29  O   UNL     1      -1.012   9.804 -26.169  1.00  0.00    -0.361 OA
HETATM   30  H   UNL     1      -0.294   9.763 -25.517  1.00  0.00     0.217 HD
ENDBRANCH  26  29
ENDBRANCH  22  23
ENDBRANCH  19  22
ENDBRANCH   2  18
TORSDOF 6
ENDMDL
