MODEL 1
REMARK VINA RESULT:      -9.0      0.000      0.000
REMARK  4 active torsions:
REMARK  status: ('A' for Active; 'I' for Inactive)
REMARK    1  A    between atoms: C_4  and  O_5 
REMARK    2  A    between atoms: O_5  and  C_6 
REMARK    3  A    between atoms: C_9  and  N_10 
REMARK       I    between atoms: N_10  and  C_11 
REMARK    4  A    between atoms: C_11  and  C_12 
ROOT
HETATM    1  C   UNL     1      -5.958  -0.386 -33.769  1.00  0.00     0.076 A 
HETATM    2  C   UNL     1      -6.576  -0.240 -32.532  1.00  0.00     0.039 A 
HETATM    3  C   UNL     1      -7.944   0.042 -32.464  1.00  0.00     0.032 A 
HETATM    4  C   UNL     1      -8.694   0.200 -33.633  1.00  0.00     0.035 A 
HETATM    5  C   UNL     1      -8.050   0.085 -34.874  1.00  0.00     0.032 A 
HETATM    6  C   UNL     1      -6.683  -0.201 -34.945  1.00  0.00     0.039 A 
ENDROOT
BRANCH   4   7
HETATM    7  N   UNL     1     -10.082   0.456 -33.651  1.00  0.00    -0.323 N 
HETATM    8  C   UNL     1     -10.706   1.681 -33.781  1.00  0.00     0.257 C 
HETATM    9  O   UNL     1     -10.169   2.763 -33.993  1.00  0.00    -0.267 OA
HETATM   10  H   UNL     1     -10.677  -0.358 -33.582  1.00  0.00     0.169 HD
BRANCH   8  11
HETATM   11  C   UNL     1     -12.200   1.595 -33.677  1.00  0.00     0.048 A 
HETATM   12  C   UNL     1     -12.874   2.736 -33.446  1.00  0.00     0.108 A 
HETATM   13  N   UNL     1     -14.243   2.727 -33.325  1.00  0.00    -0.333 N 
HETATM   14  C   UNL     1     -15.015   1.593 -33.413  1.00  0.00     0.245 A 
HETATM   15  H   UNL     1     -14.744   3.592 -33.156  1.00  0.00     0.168 HD
HETATM   16  O   UNL     1     -16.236   1.605 -33.316  1.00  0.00    -0.268 OA
HETATM   17  C   UNL     1     -14.272   0.324 -33.627  1.00  0.00     0.075 A 
HETATM   18  C   UNL     1     -12.935   0.343 -33.744  1.00  0.00     0.024 A 
ENDBRANCH   8  11
ENDBRANCH   4   7
BRANCH   1  19
HETATM   19  O   UNL     1      -4.611  -0.649 -33.795  1.00  0.00    -0.311 OA
BRANCH  19  20
HETATM   20  C   UNL     1      -4.203  -1.919 -33.442  1.00  0.00     0.076 A 
HETATM   21  C   UNL     1      -4.457  -2.921 -34.381  1.00  0.00     0.037 A 
HETATM   22  C   UNL     1      -4.054  -4.234 -34.133  1.00  0.00     0.003 A 
HETATM   23  C   UNL     1      -3.384  -4.546 -32.949  1.00  0.00     0.000 A 
HETATM   24  C   UNL     1      -3.114  -3.544 -32.018  1.00  0.00     0.003 A 
HETATM   25  C   UNL     1      -3.516  -2.230 -32.265  1.00  0.00     0.037 A 
ENDBRANCH  19  20
ENDBRANCH   1  19
TORSDOF 4
ENDMDL
MODEL 2
REMARK VINA RESULT:      -8.8      0.395      1.080
REMARK  4 active torsions:
REMARK  status: ('A' for Active; 'I' for Inactive)
REMARK    1  A    between atoms: C_4  and  O_5 
REMARK    2  A    between atoms: O_5  and  C_6 
REMARK    3  A    between atoms: C_9  and  N_10 
REMARK       I    between atoms: N_10  and  C_11 
REMARK    4  A    between atoms: C_11  and  C_12 
ROOT
HETATM    1  C   UNL     1      -5.933  -0.322 -33.757  1.00  0.00     0.076 A 
HETATM    2  C   UNL     1      -6.603  -0.132 -34.960  1.00  0.00     0.039 A 
HETATM    3  C   UNL     1      -7.974   0.145 -34.961  1.00  0.00     0.032 A 
HETATM    4  C   UNL     1      -8.683   0.210 -33.758  1.00  0.00     0.035 A 
HETATM    5  C   UNL     1      -8.001  -0.020 -32.553  1.00  0.00     0.032 A 
HETATM    6  C   UNL     1      -6.630  -0.292 -32.551  1.00  0.00     0.039 A 
ENDROOT
BRANCH   4   7
HETATM    7  N   UNL     1     -10.059   0.511 -33.670  1.00  0.00    -0.323 N 
HETATM    8  C   UNL     1     -10.684   1.690 -34.029  1.00  0.00     0.257 C 
HETATM    9  O   UNL     1     -10.169   2.660 -34.573  1.00  0.00    -0.267 OA
HETATM   10  H   UNL     1     -10.648  -0.235 -33.324  1.00  0.00     0.169 HD
BRANCH   8  11
HETATM   11  C   UNL     1     -12.152   1.694 -33.724  1.00  0.00     0.048 A 
HETATM   12  C   UNL     1     -12.590   2.557 -32.790  1.00  0.00     0.108 A 
HETATM   13  N   UNL     1     -13.922   2.605 -32.451  1.00  0.00    -0.333 N 
HETATM   14  C   UNL     1     -14.885   1.796 -33.005  1.00  0.00     0.245 A 
HETATM   15  H   UNL     1     -14.245   3.262 -31.750  1.00  0.00     0.168 HD
HETATM   16  O   UNL     1     -16.070   1.859 -32.700  1.00  0.00    -0.268 OA
HETATM   17  C   UNL     1     -14.400   0.810 -34.007  1.00  0.00     0.075 A 
HETATM   18  C   UNL     1     -13.098   0.773 -34.331  1.00  0.00     0.024 A 
ENDBRANCH   8  11
ENDBRANCH   4   7
BRANCH   1  19
HETATM   19  O   UNL     1      -4.590  -0.605 -33.798  1.00  0.00    -0.311 OA
BRANCH  19  20
HETATM   20  C   UNL     1      -4.195  -1.875 -33.433  1.00  0.00     0.076 A 
HETATM   21  C   UNL     1      -4.479  -2.887 -34.353  1.00  0.00     0.037 A 
HETATM   22  C   UNL     1      -4.090  -4.202 -34.093  1.00  0.00     0.003 A 
HETATM   23  C   UNL     1      -3.407  -4.507 -32.915  1.00  0.00     0.000 A 
HETATM   24  C   UNL     1      -3.108  -3.496 -32.003  1.00  0.00     0.003 A 
HETATM   25  C   UNL     1      -3.494  -2.180 -32.263  1.00  0.00     0.037 A 
ENDBRANCH  19  20
ENDBRANCH   1  19
TORSDOF 4
ENDMDL
MODEL 3
REMARK VINA RESULT:      -8.4      1.207      1.874
REMARK  4 active torsions:
REMARK  status: ('A' for Active; 'I' for Inactive)
REMARK    1  A    between atoms: C_4  and  O_5 
REMARK    2  A    between atoms: O_5  and  C_6 
REMARK    3  A    between atoms: C_9  and  N_10 
REMARK       I    between atoms: N_10  and  C_11 
REMARK    4  A    between atoms: C_11  and  C_12 
ROOT
HETATM    1  C   UNL     1      -6.933  -0.146 -33.844  1.00  0.00     0.076 A 
HETATM    2  C   UNL     1      -7.437  -0.172 -32.548  1.00  0.00     0.039 A 
HETATM    3  C   UNL     1      -8.766   0.193 -32.308  1.00  0.00     0.032 A 
HETATM    4  C   UNL     1      -9.588   0.607 -33.360  1.00  0.00     0.035 A 
HETATM    5  C   UNL     1      -9.055   0.663 -34.657  1.00  0.00     0.032 A 
HETATM    6  C   UNL     1      -7.729   0.293 -34.900  1.00  0.00     0.039 A 
ENDROOT
BRANCH   4   7
HETATM    7  N   UNL     1     -10.944   0.964 -33.207  1.00  0.00    -0.323 N 
HETATM    8  C   UNL     1     -11.501   2.220 -33.345  1.00  0.00     0.257 C 
HETATM    9  O   UNL     1     -10.931   3.242 -33.712  1.00  0.00    -0.267 OA
HETATM   10  H   UNL     1     -11.575   0.203 -32.994  1.00  0.00     0.169 HD
BRANCH   8  11
HETATM   11  C   UNL     1     -12.967   2.253 -33.031  1.00  0.00     0.048 A 
HETATM   12  C   UNL     1     -13.750   1.332 -33.621  1.00  0.00     0.108 A 
HETATM   13  N   UNL     1     -15.104   1.312 -33.389  1.00  0.00    -0.333 N 
HETATM   14  C   UNL     1     -15.758   2.207 -32.574  1.00  0.00     0.245 A 
HETATM   15  H   UNL     1     -15.687   0.612 -33.834  1.00  0.00     0.168 HD
HETATM   16  O   UNL     1     -16.964   2.168 -32.368  1.00  0.00    -0.268 OA
HETATM   17  C   UNL     1     -14.903   3.252 -31.952  1.00  0.00     0.075 A 
HETATM   18  C   UNL     1     -13.581   3.262 -32.185  1.00  0.00     0.024 A 
ENDBRANCH   8  11
ENDBRANCH   4   7
BRANCH   1  19
HETATM   19  O   UNL     1      -5.620  -0.499 -34.037  1.00  0.00    -0.311 OA
BRANCH  19  20
HETATM   20  C   UNL     1      -5.335  -1.842 -34.167  1.00  0.00     0.076 A 
HETATM   21  C   UNL     1      -4.208  -2.293 -33.475  1.00  0.00     0.037 A 
HETATM   22  C   UNL     1      -3.853  -3.642 -33.514  1.00  0.00     0.003 A 
HETATM   23  C   UNL     1      -4.631  -4.547 -34.238  1.00  0.00     0.000 A 
HETATM   24  C   UNL     1      -5.766  -4.103 -34.915  1.00  0.00     0.003 A 
HETATM   25  C   UNL     1      -6.124  -2.754 -34.875  1.00  0.00     0.037 A 
ENDBRANCH  19  20
ENDBRANCH   1  19
TORSDOF 4
ENDMDL
MODEL 4
REMARK VINA RESULT:      -7.8      5.625      8.453
REMARK  4 active torsions:
REMARK  status: ('A' for Active; 'I' for Inactive)
REMARK    1  A    between atoms: C_4  and  O_5 
REMARK    2  A    between atoms: O_5  and  C_6 
REMARK    3  A    between atoms: C_9  and  N_10 
REMARK       I    between atoms: N_10  and  C_11 
REMARK    4  A    between atoms: C_11  and  C_12 
ROOT
HETATM    1  C   UNL     1      -3.888   4.068 -31.270  1.00  0.00     0.076 A 
HETATM    2  C   UNL     1      -5.056   3.415 -30.893  1.00  0.00     0.039 A 
HETATM    3  C   UNL     1      -5.347   2.148 -31.410  1.00  0.00     0.032 A 
HETATM    4  C   UNL     1      -4.481   1.540 -32.324  1.00  0.00     0.035 A 
HETATM    5  C   UNL     1      -3.323   2.227 -32.722  1.00  0.00     0.032 A 
HETATM    6  C   UNL     1      -3.029   3.490 -32.202  1.00  0.00     0.039 A 
ENDROOT
BRANCH   4   7
HETATM    7  N   UNL     1      -4.686   0.255 -32.870  1.00  0.00    -0.323 N 
HETATM    8  C   UNL     1      -5.695  -0.140 -33.726  1.00  0.00     0.257 C 
HETATM    9  O   UNL     1      -6.549   0.575 -34.239  1.00  0.00    -0.267 OA
HETATM   10  H   UNL     1      -3.998  -0.441 -32.617  1.00  0.00     0.169 HD
BRANCH   8  11
HETATM   11  C   UNL     1      -5.656  -1.605 -34.045  1.00  0.00     0.048 A 
HETATM   12  C   UNL     1      -4.479  -2.240 -33.905  1.00  0.00     0.108 A 
HETATM   13  N   UNL     1      -4.368  -3.580 -34.194  1.00  0.00    -0.333 N 
HETATM   14  C   UNL     1      -5.408  -4.357 -34.647  1.00  0.00     0.245 A 
HETATM   15  H   UNL     1      -3.479  -4.052 -34.081  1.00  0.00     0.168 HD
HETATM   16  O   UNL     1      -5.295  -5.552 -34.888  1.00  0.00    -0.268 OA
HETATM   17  C   UNL     1      -6.701  -3.650 -34.844  1.00  0.00     0.075 A 
HETATM   18  C   UNL     1      -6.798  -2.342 -34.558  1.00  0.00     0.024 A 
ENDBRANCH   8  11
ENDBRANCH   4   7
BRANCH   1  19
HETATM   19  O   UNL     1      -3.645   5.315 -30.750  1.00  0.00    -0.311 OA
BRANCH  19  20
HETATM   20  C   UNL     1      -2.535   5.991 -31.213  1.00  0.00     0.076 A 
HETATM   21  C   UNL     1      -1.336   5.713 -30.553  1.00  0.00     0.037 A 
HETATM   22  C   UNL     1      -0.149   6.321 -30.967  1.00  0.00     0.003 A 
HETATM   23  C   UNL     1      -0.158   7.201 -32.049  1.00  0.00     0.000 A 
HETATM   24  C   UNL     1      -1.351   7.468 -32.721  1.00  0.00     0.003 A 
HETATM   25  C   UNL     1      -2.538   6.859 -32.309  1.00  0.00     0.037 A 
ENDBRANCH  19  20
ENDBRANCH   1  19
TORSDOF 4
ENDMDL
MODEL 5
REMARK VINA RESULT:      -7.6     14.212     17.752
REMARK  4 active torsions:
REMARK  status: ('A' for Active; 'I' for Inactive)
REMARK    1  A    between atoms: C_4  and  O_5 
REMARK    2  A    between atoms: O_5  and  C_6 
REMARK    3  A    between atoms: C_9  and  N_10 
REMARK       I    between atoms: N_10  and  C_11 
REMARK    4  A    between atoms: C_11  and  C_12 
ROOT
HETATM    1  C   UNL     1      -6.735 -12.609 -38.448  1.00  0.00     0.076 A 
HETATM    2  C   UNL     1      -5.993 -12.336 -39.592  1.00  0.00     0.039 A 
HETATM    3  C   UNL     1      -4.671 -12.779 -39.691  1.00  0.00     0.032 A 
HETATM    4  C   UNL     1      -4.078 -13.478 -38.635  1.00  0.00     0.035 A 
HETATM    5  C   UNL     1      -4.826 -13.715 -37.472  1.00  0.00     0.032 A 
HETATM    6  C   UNL     1      -6.150 -13.277 -37.374  1.00  0.00     0.039 A 
ENDROOT
BRANCH   4   7
HETATM    7  N   UNL     1      -2.760 -13.983 -38.665  1.00  0.00    -0.323 N 
HETATM    8  C   UNL     1      -1.588 -13.278 -38.480  1.00  0.00     0.257 C 
HETATM    9  O   UNL     1      -1.480 -12.097 -38.167  1.00  0.00    -0.267 OA
HETATM   10  H   UNL     1      -2.679 -14.979 -38.820  1.00  0.00     0.169 HD
BRANCH   8  11
HETATM   11  C   UNL     1      -0.360 -14.119 -38.661  1.00  0.00     0.048 A 
HETATM   12  C   UNL     1       0.123 -14.255 -39.909  1.00  0.00     0.108 A 
HETATM   13  N   UNL     1       1.237 -15.023 -40.149  1.00  0.00    -0.333 N 
HETATM   14  C   UNL     1       1.924 -15.707 -39.174  1.00  0.00     0.245 A 
HETATM   15  H   UNL     1       1.598 -15.116 -41.091  1.00  0.00     0.168 HD
HETATM   16  O   UNL     1       2.923 -16.378 -39.403  1.00  0.00    -0.268 OA
HETATM   17  C   UNL     1       1.370 -15.595 -37.798  1.00  0.00     0.075 A 
HETATM   18  C   UNL     1       0.281 -14.842 -37.575  1.00  0.00     0.024 A 
ENDBRANCH   8  11
ENDBRANCH   4   7
BRANCH   1  19
HETATM   19  O   UNL     1      -8.025 -12.146 -38.384  1.00  0.00    -0.311 OA
BRANCH  19  20
HETATM   20  C   UNL     1      -8.988 -12.844 -39.082  1.00  0.00     0.076 A 
HETATM   21  C   UNL     1      -9.872 -12.071 -39.836  1.00  0.00     0.037 A 
HETATM   22  C   UNL     1     -10.862 -12.684 -40.606  1.00  0.00     0.003 A 
HETATM   23  C   UNL     1     -10.963 -14.075 -40.630  1.00  0.00     0.000 A 
HETATM   24  C   UNL     1     -10.071 -14.852 -39.892  1.00  0.00     0.003 A 
HETATM   25  C   UNL     1      -9.079 -14.239 -39.123  1.00  0.00     0.037 A 
ENDBRANCH  19  20
ENDBRANCH   1  19
TORSDOF 4
ENDMDL
MODEL 6
REMARK VINA RESULT:      -7.5      4.301      5.565
REMARK  4 active torsions:
REMARK  status: ('A' for Active; 'I' for Inactive)
REMARK    1  A    between atoms: C_4  and  O_5 
REMARK    2  A    between atoms: O_5  and  C_6 
REMARK    3  A    between atoms: C_9  and  N_10 
REMARK       I    between atoms: N_10  and  C_11 
REMARK    4  A    between atoms: C_11  and  C_12 
ROOT
HETATM    1  C   UNL     1      -7.074  -0.297 -34.260  1.00  0.00     0.076 A 
HETATM    2  C   UNL     1      -7.635  -0.592 -33.022  1.00  0.00     0.039 A 
HETATM    3  C   UNL     1      -7.792   0.417 -32.067  1.00  0.00     0.032 A 
HETATM    4  C   UNL     1      -7.368   1.721 -32.338  1.00  0.00     0.035 A 
HETATM    5  C   UNL     1      -6.771   1.997 -33.578  1.00  0.00     0.032 A 
HETATM    6  C   UNL     1      -6.618   0.991 -34.536  1.00  0.00     0.039 A 
ENDROOT
BRANCH   4   7
HETATM    7  N   UNL     1      -7.516   2.801 -31.442  1.00  0.00    -0.323 N 
HETATM    8  C   UNL     1      -6.611   3.229 -30.490  1.00  0.00     0.257 C 
HETATM    9  O   UNL     1      -5.476   2.804 -30.307  1.00  0.00    -0.267 OA
HETATM   10  H   UNL     1      -8.374   3.327 -31.530  1.00  0.00     0.169 HD
BRANCH   8  11
HETATM   11  C   UNL     1      -7.130   4.361 -29.653  1.00  0.00     0.048 A 
HETATM   12  C   UNL     1      -8.415   4.719 -29.819  1.00  0.00     0.108 A 
HETATM   13  N   UNL     1      -8.952   5.757 -29.095  1.00  0.00    -0.333 N 
HETATM   14  C   UNL     1      -8.246   6.502 -28.181  1.00  0.00     0.245 A 
HETATM   15  H   UNL     1      -9.924   6.017 -29.222  1.00  0.00     0.168 HD
HETATM   16  O   UNL     1      -8.743   7.416 -27.535  1.00  0.00    -0.268 OA
HETATM   17  C   UNL     1      -6.813   6.138 -28.024  1.00  0.00     0.075 A 
HETATM   18  C   UNL     1      -6.299   5.123 -28.736  1.00  0.00     0.024 A 
ENDBRANCH   8  11
ENDBRANCH   4   7
BRANCH   1  19
HETATM   19  O   UNL     1      -6.925  -1.317 -35.165  1.00  0.00    -0.311 OA
BRANCH  19  20
HETATM   20  C   UNL     1      -6.132  -2.384 -34.797  1.00  0.00     0.076 A 
HETATM   21  C   UNL     1      -6.662  -3.651 -35.051  1.00  0.00     0.037 A 
HETATM   22  C   UNL     1      -5.924  -4.796 -34.747  1.00  0.00     0.003 A 
HETATM   23  C   UNL     1      -4.648  -4.675 -34.195  1.00  0.00     0.000 A 
HETATM   24  C   UNL     1      -4.109  -3.411 -33.956  1.00  0.00     0.003 A 
HETATM   25  C   UNL     1      -4.846  -2.266 -34.263  1.00  0.00     0.037 A 
ENDBRANCH  19  20
ENDBRANCH   1  19
TORSDOF 4
ENDMDL
MODEL 7
REMARK VINA RESULT:      -7.4      2.595      3.182
REMARK  4 active torsions:
REMARK  status: ('A' for Active; 'I' for Inactive)
REMARK    1  A    between atoms: C_4  and  O_5 
REMARK    2  A    between atoms: O_5  and  C_6 
REMARK    3  A    between atoms: C_9  and  N_10 
REMARK       I    between atoms: N_10  and  C_11 
REMARK    4  A    between atoms: C_11  and  C_12 
ROOT
HETATM    1  C   UNL     1      -5.538  -0.401 -33.367  1.00  0.00     0.076 A 
HETATM    2  C   UNL     1      -6.007  -0.515 -32.063  1.00  0.00     0.039 A 
HETATM    3  C   UNL     1      -7.015   0.339 -31.605  1.00  0.00     0.032 A 
HETATM    4  C   UNL     1      -7.542   1.326 -32.444  1.00  0.00     0.035 A 
HETATM    5  C   UNL     1      -7.033   1.454 -33.746  1.00  0.00     0.032 A 
HETATM    6  C   UNL     1      -6.030   0.597 -34.207  1.00  0.00     0.039 A 
ENDROOT
BRANCH   4   7
HETATM    7  N   UNL     1      -8.578   2.208 -32.070  1.00  0.00    -0.323 N 
HETATM    8  C   UNL     1      -9.904   2.155 -32.452  1.00  0.00     0.257 C 
HETATM    9  O   UNL     1     -10.443   1.278 -33.119  1.00  0.00    -0.267 OA
HETATM   10  H   UNL     1      -8.313   2.947 -31.431  1.00  0.00     0.169 HD
BRANCH   8  11
HETATM   11  C   UNL     1     -10.714   3.303 -31.930  1.00  0.00     0.048 A 
HETATM   12  C   UNL     1     -10.361   3.824 -30.741  1.00  0.00     0.108 A 
HETATM   13  N   UNL     1     -11.068   4.869 -30.196  1.00  0.00    -0.333 N 
HETATM   14  C   UNL     1     -12.167   5.444 -30.788  1.00  0.00     0.245 A 
HETATM   15  H   UNL     1     -10.792   5.259 -29.302  1.00  0.00     0.168 HD
HETATM   16  O   UNL     1     -12.779   6.384 -30.295  1.00  0.00    -0.268 OA
HETATM   17  C   UNL     1     -12.588   4.846 -32.083  1.00  0.00     0.075 A 
HETATM   18  C   UNL     1     -11.889   3.826 -32.606  1.00  0.00     0.024 A 
ENDBRANCH   8  11
ENDBRANCH   4   7
BRANCH   1  19
HETATM   19  O   UNL     1      -4.539  -1.249 -33.775  1.00  0.00    -0.311 OA
BRANCH  19  20
HETATM   20  C   UNL     1      -4.903  -2.524 -34.157  1.00  0.00     0.076 A 
HETATM   21  C   UNL     1      -4.011  -3.540 -33.808  1.00  0.00     0.037 A 
HETATM   22  C   UNL     1      -4.303  -4.869 -34.118  1.00  0.00     0.003 A 
HETATM   23  C   UNL     1      -5.495  -5.186 -34.772  1.00  0.00     0.000 A 
HETATM   24  C   UNL     1      -6.396  -4.175 -35.107  1.00  0.00     0.003 A 
HETATM   25  C   UNL     1      -6.105  -2.846 -34.794  1.00  0.00     0.037 A 
ENDBRANCH  19  20
ENDBRANCH   1  19
TORSDOF 4
ENDMDL
MODEL 8
REMARK VINA RESULT:      -7.4      4.426      9.093
REMARK  4 active torsions:
REMARK  status: ('A' for Active; 'I' for Inactive)
REMARK    1  A    between atoms: C_4  and  O_5 
REMARK    2  A    between atoms: O_5  and  C_6 
REMARK    3  A    between atoms: C_9  and  N_10 
REMARK       I    between atoms: N_10  and  C_11 
REMARK    4  A    between atoms: C_11  and  C_12 
ROOT
HETATM    1  C   UNL     1      -9.261   0.833 -33.155  1.00  0.00     0.076 A 
HETATM    2  C   UNL     1      -8.449   0.595 -34.259  1.00  0.00     0.039 A 
HETATM    3  C   UNL     1      -7.293   1.359 -34.454  1.00  0.00     0.032 A 
HETATM    4  C   UNL     1      -6.959   2.378 -33.558  1.00  0.00     0.035 A 
HETATM    5  C   UNL     1      -7.807   2.631 -32.469  1.00  0.00     0.032 A 
HETATM    6  C   UNL     1      -8.959   1.866 -32.270  1.00  0.00     0.039 A 
ENDROOT
BRANCH   4   7
HETATM    7  N   UNL     1      -5.799   3.174 -33.667  1.00  0.00    -0.323 N 
HETATM    8  C   UNL     1      -4.649   3.089 -32.906  1.00  0.00     0.257 C 
HETATM    9  O   UNL     1      -4.391   2.247 -32.053  1.00  0.00    -0.267 OA
HETATM   10  H   UNL     1      -5.813   3.868 -34.402  1.00  0.00     0.169 HD
BRANCH   8  11
HETATM   11  C   UNL     1      -3.642   4.149 -33.240  1.00  0.00     0.048 A 
HETATM   12  C   UNL     1      -3.941   4.997 -34.240  1.00  0.00     0.108 A 
HETATM   13  N   UNL     1      -3.057   5.984 -34.609  1.00  0.00    -0.333 N 
HETATM   14  C   UNL     1      -1.830   6.175 -34.021  1.00  0.00     0.245 A 
HETATM   15  H   UNL     1      -3.292   6.622 -35.360  1.00  0.00     0.168 HD
HETATM   16  O   UNL     1      -1.059   7.067 -34.353  1.00  0.00    -0.268 OA
HETATM   17  C   UNL     1      -1.476   5.213 -32.943  1.00  0.00     0.075 A 
HETATM   18  C   UNL     1      -2.346   4.254 -32.590  1.00  0.00     0.024 A 
ENDBRANCH   8  11
ENDBRANCH   4   7
BRANCH   1  19
HETATM   19  O   UNL     1     -10.393   0.071 -33.006  1.00  0.00    -0.311 OA
BRANCH  19  20
HETATM   20  C   UNL     1     -11.557   0.542 -33.577  1.00  0.00     0.076 A 
HETATM   21  C   UNL     1     -12.677  -0.281 -33.439  1.00  0.00     0.037 A 
HETATM   22  C   UNL     1     -13.911   0.120 -33.953  1.00  0.00     0.003 A 
HETATM   23  C   UNL     1     -14.030   1.352 -34.597  1.00  0.00     0.000 A 
HETATM   24  C   UNL     1     -12.918   2.184 -34.720  1.00  0.00     0.003 A 
HETATM   25  C   UNL     1     -11.683   1.785 -34.205  1.00  0.00     0.037 A 
ENDBRANCH  19  20
ENDBRANCH   1  19
TORSDOF 4
ENDMDL
MODEL 9
REMARK VINA RESULT:      -7.3      2.245      9.068
REMARK  4 active torsions:
REMARK  status: ('A' for Active; 'I' for Inactive)
REMARK    1  A    between atoms: C_4  and  O_5 
REMARK    2  A    between atoms: O_5  and  C_6 
REMARK    3  A    between atoms: C_9  and  N_10 
REMARK       I    between atoms: N_10  and  C_11 
REMARK    4  A    between atoms: C_11  and  C_12 
ROOT
HETATM    1  C   UNL     1     -10.423   2.265 -33.125  1.00  0.00     0.076 A 
HETATM    2  C   UNL     1      -9.836   1.971 -34.351  1.00  0.00     0.039 A 
HETATM    3  C   UNL     1      -8.784   1.052 -34.420  1.00  0.00     0.032 A 
HETATM    4  C   UNL     1      -8.301   0.440 -33.259  1.00  0.00     0.035 A 
HETATM    5  C   UNL     1      -8.878   0.774 -32.025  1.00  0.00     0.032 A 
HETATM    6  C   UNL     1      -9.933   1.688 -31.955  1.00  0.00     0.039 A 
ENDROOT
BRANCH   4   7
HETATM    7  N   UNL     1      -7.264  -0.517 -33.246  1.00  0.00    -0.323 N 
HETATM    8  C   UNL     1      -5.906  -0.282 -33.332  1.00  0.00     0.257 C 
HETATM    9  O   UNL     1      -5.346   0.809 -33.347  1.00  0.00    -0.267 OA
HETATM   10  H   UNL     1      -7.559  -1.478 -33.139  1.00  0.00     0.169 HD
BRANCH   8  11
HETATM   11  C   UNL     1      -5.092  -1.541 -33.369  1.00  0.00     0.048 A 
HETATM   12  C   UNL     1      -5.388  -2.444 -34.320  1.00  0.00     0.108 A 
HETATM   13  N   UNL     1      -4.691  -3.627 -34.403  1.00  0.00    -0.333 N 
HETATM   14  C   UNL     1      -3.678  -3.984 -33.545  1.00  0.00     0.245 A 
HETATM   15  H   UNL     1      -4.917  -4.300 -35.126  1.00  0.00     0.168 HD
HETATM   16  O   UNL     1      -3.059  -5.036 -33.641  1.00  0.00    -0.268 OA
HETATM   17  C   UNL     1      -3.375  -3.008 -32.465  1.00  0.00     0.075 A 
HETATM   18  C   UNL     1      -4.061  -1.856 -32.394  1.00  0.00     0.024 A 
ENDBRANCH   8  11
ENDBRANCH   4   7
BRANCH   1  19
HETATM   19  O   UNL     1     -11.444   3.182 -33.097  1.00  0.00    -0.311 OA
BRANCH  19  20
HETATM   20  C   UNL     1     -12.734   2.697 -33.027  1.00  0.00     0.076 A 
HETATM   21  C   UNL     1     -13.066   1.720 -33.968  1.00  0.00     0.037 A 
HETATM   22  C   UNL     1     -14.336   1.140 -33.961  1.00  0.00     0.003 A 
HETATM   23  C   UNL     1     -15.274   1.530 -33.004  1.00  0.00     0.000 A 
HETATM   24  C   UNL     1     -14.939   2.493 -32.053  1.00  0.00     0.003 A 
HETATM   25  C   UNL     1     -13.669   3.072 -32.058  1.00  0.00     0.037 A 
ENDBRANCH  19  20
ENDBRANCH   1  19
TORSDOF 4
ENDMDL
MODEL 10
REMARK VINA RESULT:      -7.2      4.662      6.648
REMARK  4 active torsions:
REMARK  status: ('A' for Active; 'I' for Inactive)
REMARK    1  A    between atoms: C_4  and  O_5 
REMARK    2  A    between atoms: O_5  and  C_6 
REMARK    3  A    between atoms: C_9  and  N_10 
REMARK       I    between atoms: N_10  and  C_11 
REMARK    4  A    between atoms: C_11  and  C_12 
ROOT
HETATM    1  C   UNL     1      -6.931  -0.324 -34.077  1.00  0.00     0.076 A 
HETATM    2  C   UNL     1      -6.681   0.937 -34.609  1.00  0.00     0.039 A 
HETATM    3  C   UNL     1      -6.494   2.030 -33.757  1.00  0.00     0.032 A 
HETATM    4  C   UNL     1      -6.578   1.870 -32.371  1.00  0.00     0.035 A 
HETATM    5  C   UNL     1      -6.868   0.599 -31.850  1.00  0.00     0.032 A 
HETATM    6  C   UNL     1      -7.050  -0.495 -32.699  1.00  0.00     0.039 A 
ENDROOT
BRANCH   4   7
HETATM    7  N   UNL     1      -6.375   2.914 -31.443  1.00  0.00    -0.323 N 
HETATM    8  C   UNL     1      -5.244   3.693 -31.293  1.00  0.00     0.257 C 
HETATM    9  O   UNL     1      -4.241   3.679 -31.997  1.00  0.00    -0.267 OA
HETATM   10  H   UNL     1      -7.160   3.121 -30.840  1.00  0.00     0.169 HD
BRANCH   8  11
HETATM   11  C   UNL     1      -5.343   4.659 -30.150  1.00  0.00     0.048 A 
HETATM   12  C   UNL     1      -6.253   4.400 -29.194  1.00  0.00     0.108 A 
HETATM   13  N   UNL     1      -6.406   5.250 -28.125  1.00  0.00    -0.333 N 
HETATM   14  C   UNL     1      -5.682   6.405 -27.951  1.00  0.00     0.245 A 
HETATM   15  H   UNL     1      -7.090   5.045 -27.406  1.00  0.00     0.168 HD
HETATM   16  O   UNL     1      -5.822   7.146 -26.986  1.00  0.00    -0.268 OA
HETATM   17  C   UNL     1      -4.704   6.719 -29.027  1.00  0.00     0.075 A 
HETATM   18  C   UNL     1      -4.561   5.881 -30.066  1.00  0.00     0.024 A 
ENDBRANCH   8  11
ENDBRANCH   4   7
BRANCH   1  19
HETATM   19  O   UNL     1      -7.122  -1.369 -34.946  1.00  0.00    -0.311 OA
BRANCH  19  20
HETATM   20  C   UNL     1      -6.335  -2.489 -34.778  1.00  0.00     0.076 A 
HETATM   21  C   UNL     1      -5.014  -2.250 -34.394  1.00  0.00     0.037 A 
HETATM   22  C   UNL     1      -4.145  -3.318 -34.164  1.00  0.00     0.003 A 
HETATM   23  C   UNL     1      -4.599  -4.630 -34.309  1.00  0.00     0.000 A 
HETATM   24  C   UNL     1      -5.923  -4.872 -34.676  1.00  0.00     0.003 A 
HETATM   25  C   UNL     1      -6.793  -3.804 -34.904  1.00  0.00     0.037 A 
ENDBRANCH  19  20
ENDBRANCH   1  19
TORSDOF 4
ENDMDL
