MODEL 1
REMARK VINA RESULT:      -8.8      0.000      0.000
REMARK  7 active torsions:
REMARK  status: ('A' for Active; 'I' for Inactive)
REMARK    1  A    between atoms: O_2  and  C_3 
REMARK    2  A    between atoms: C_3  and  C_4 
REMARK    3  A    between atoms: C_4  and  N_5 
REMARK    4  A    between atoms: C_4  and  C_21 
REMARK    5  A    between atoms: N_5  and  C_6 
REMARK    6  A    between atoms: C_21  and  C_22 
REMARK    7  A    between atoms: C_25  and  O_26 
ROOT
HETATM    1  N   UNL     1      -5.303   0.711 -31.295  1.00  0.00    -0.277 NA
HETATM    2  H   UNL     1      -4.699   1.192 -30.626  1.00  0.00     0.128 HD
ENDROOT
BRANCH   1   3
HETATM    3  C   UNL     1      -4.538  -0.430 -31.902  1.00  0.00     0.164 C 
BRANCH   3   4
HETATM    4  C   UNL     1      -3.045  -0.439 -31.535  1.00  0.00     0.276 C 
HETATM    5  O   UNL     1      -2.487   0.364 -30.798  1.00  0.00    -0.263 OA
BRANCH   4   6
HETATM    6  O   UNL     1      -2.429  -1.510 -32.120  1.00  0.00    -0.325 OA
HETATM    7  C   UNL     1      -2.823  -2.778 -31.592  1.00  0.00     0.213 C 
ENDBRANCH   4   6
ENDBRANCH   3   4
BRANCH   3   8
HETATM    8  C   UNL     1      -4.674  -0.357 -33.436  1.00  0.00     0.068 C 
BRANCH   8   9
HETATM    9  C   UNL     1      -5.289  -1.615 -34.006  1.00  0.00    -0.056 A 
HETATM   10  C   UNL     1      -6.683  -1.780 -34.007  1.00  0.00     0.010 A 
HETATM   11  C   UNL     1      -7.259  -2.952 -34.502  1.00  0.00     0.037 A 
HETATM   12  C   UNL     1      -6.440  -3.960 -34.993  1.00  0.00     0.065 A 
HETATM   13  C   UNL     1      -5.058  -3.815 -35.000  1.00  0.00     0.037 A 
HETATM   14  C   UNL     1      -4.480  -2.643 -34.509  1.00  0.00     0.010 A 
BRANCH  12  15
HETATM   15  O   UNL     1      -6.957  -5.121 -35.484  1.00  0.00    -0.361 OA
HETATM   16  H   UNL     1      -6.693  -5.218 -36.414  1.00  0.00     0.217 HD
ENDBRANCH  12  15
ENDBRANCH   8   9
ENDBRANCH   3   8
ENDBRANCH   1   3
BRANCH   1  17
HETATM   17  C   UNL     1      -5.883   1.645 -32.187  1.00  0.00     0.034 A 
HETATM   18  C   UNL     1      -7.253   1.477 -32.526  1.00  0.00     0.013 A 
HETATM   19  C   UNL     1      -7.841   2.372 -33.440  1.00  0.00     0.044 A 
HETATM   20  C   UNL     1      -8.077   0.463 -31.992  1.00  0.00     0.015 A 
HETATM   21  C   UNL     1      -9.196   2.261 -33.795  1.00  0.00     0.030 A 
HETATM   22  N   UNL     1      -7.093   3.348 -33.975  1.00  0.00    -0.355 N 
HETATM   23  C   UNL     1      -9.985   1.254 -33.244  1.00  0.00     0.002 A 
HETATM   24  C   UNL     1      -9.425   0.353 -32.345  1.00  0.00     0.001 A 
HETATM   25  H   UNL     1      -7.538   3.974 -34.641  1.00  0.00     0.166 HD
HETATM   26  C   UNL     1      -5.800   3.563 -33.678  1.00  0.00     0.044 A 
HETATM   27  C   UNL     1      -5.147   2.722 -32.750  1.00  0.00     0.013 A 
HETATM   28  C   UNL     1      -5.123   4.629 -34.292  1.00  0.00     0.030 A 
HETATM   29  C   UNL     1      -3.800   3.028 -32.441  1.00  0.00     0.015 A 
HETATM   30  C   UNL     1      -3.131   4.090 -33.057  1.00  0.00     0.001 A 
HETATM   31  C   UNL     1      -3.789   4.886 -33.985  1.00  0.00     0.002 A 
ENDBRANCH   1  17
TORSDOF 7
ENDMDL
MODEL 2
REMARK VINA RESULT:      -8.6      3.091      6.556
REMARK  7 active torsions:
REMARK  status: ('A' for Active; 'I' for Inactive)
REMARK    1  A    between atoms: O_2  and  C_3 
REMARK    2  A    between atoms: C_3  and  C_4 
REMARK    3  A    between atoms: C_4  and  N_5 
REMARK    4  A    between atoms: C_4  and  C_21 
REMARK    5  A    between atoms: N_5  and  C_6 
REMARK    6  A    between atoms: C_21  and  C_22 
REMARK    7  A    between atoms: C_25  and  O_26 
ROOT
HETATM    1  N   UNL     1      -8.064  -0.350 -32.685  1.00  0.00    -0.277 NA
HETATM    2  H   UNL     1      -8.612  -1.191 -32.494  1.00  0.00     0.128 HD
ENDROOT
BRANCH   1   3
HETATM    3  C   UNL     1      -8.743   0.432 -33.774  1.00  0.00     0.164 C 
BRANCH   3   4
HETATM    4  C   UNL     1      -7.770   1.209 -34.677  1.00  0.00     0.276 C 
HETATM    5  O   UNL     1      -7.204   0.760 -35.666  1.00  0.00    -0.263 OA
BRANCH   4   6
HETATM    6  O   UNL     1      -7.659   2.499 -34.240  1.00  0.00    -0.325 OA
HETATM    7  C   UNL     1      -6.342   3.042 -34.337  1.00  0.00     0.213 C 
ENDBRANCH   4   6
ENDBRANCH   3   4
BRANCH   3   8
HETATM    8  C   UNL     1      -9.727   1.427 -33.130  1.00  0.00     0.068 C 
BRANCH   8   9
HETATM    9  C   UNL     1     -11.154   1.158 -33.549  1.00  0.00    -0.056 A 
HETATM   10  C   UNL     1     -11.769  -0.060 -33.217  1.00  0.00     0.010 A 
HETATM   11  C   UNL     1     -13.076  -0.332 -33.628  1.00  0.00     0.037 A 
HETATM   12  C   UNL     1     -13.767   0.614 -34.374  1.00  0.00     0.065 A 
HETATM   13  C   UNL     1     -13.175   1.826 -34.712  1.00  0.00     0.037 A 
HETATM   14  C   UNL     1     -11.870   2.100 -34.299  1.00  0.00     0.010 A 
BRANCH  12  15
HETATM   15  O   UNL     1     -15.042   0.393 -34.798  1.00  0.00    -0.361 OA
HETATM   16  H   UNL     1     -15.071   0.458 -35.767  1.00  0.00     0.217 HD
ENDBRANCH  12  15
ENDBRANCH   8   9
ENDBRANCH   3   8
ENDBRANCH   1   3
BRANCH   1  17
HETATM   17  C   UNL     1      -6.705  -0.689 -32.890  1.00  0.00     0.034 A 
HETATM   18  C   UNL     1      -5.716   0.131 -32.280  1.00  0.00     0.013 A 
HETATM   19  C   UNL     1      -4.358  -0.167 -32.499  1.00  0.00     0.044 A 
HETATM   20  C   UNL     1      -6.012   1.234 -31.450  1.00  0.00     0.015 A 
HETATM   21  C   UNL     1      -3.342   0.601 -31.906  1.00  0.00     0.030 A 
HETATM   22  N   UNL     1      -4.033  -1.205 -33.284  1.00  0.00    -0.355 N 
HETATM   23  C   UNL     1      -3.666   1.679 -31.086  1.00  0.00     0.002 A 
HETATM   24  C   UNL     1      -5.001   1.997 -30.860  1.00  0.00     0.001 A 
HETATM   25  H   UNL     1      -3.045  -1.392 -33.435  1.00  0.00     0.166 HD
HETATM   26  C   UNL     1      -4.925  -2.022 -33.870  1.00  0.00     0.044 A 
HETATM   27  C   UNL     1      -6.306  -1.803 -33.677  1.00  0.00     0.013 A 
HETATM   28  C   UNL     1      -4.462  -3.088 -34.660  1.00  0.00     0.030 A 
HETATM   29  C   UNL     1      -7.194  -2.725 -34.280  1.00  0.00     0.015 A 
HETATM   30  C   UNL     1      -6.728  -3.783 -35.065  1.00  0.00     0.001 A 
HETATM   31  C   UNL     1      -5.365  -3.961 -35.261  1.00  0.00     0.002 A 
ENDBRANCH   1  17
TORSDOF 7
ENDMDL
MODEL 3
REMARK VINA RESULT:      -8.6      0.157      3.559
REMARK  7 active torsions:
REMARK  status: ('A' for Active; 'I' for Inactive)
REMARK    1  A    between atoms: O_2  and  C_3 
REMARK    2  A    between atoms: C_3  and  C_4 
REMARK    3  A    between atoms: C_4  and  N_5 
REMARK    4  A    between atoms: C_4  and  C_21 
REMARK    5  A    between atoms: N_5  and  C_6 
REMARK    6  A    between atoms: C_21  and  C_22 
REMARK    7  A    between atoms: C_25  and  O_26 
ROOT
HETATM    1  N   UNL     1      -5.342   0.818 -31.309  1.00  0.00    -0.277 NA
HETATM    2  H   UNL     1      -4.687   1.367 -30.749  1.00  0.00     0.128 HD
ENDROOT
BRANCH   1   3
HETATM    3  C   UNL     1      -4.609  -0.353 -31.900  1.00  0.00     0.164 C 
BRANCH   3   4
HETATM    4  C   UNL     1      -3.109  -0.379 -31.562  1.00  0.00     0.276 C 
HETATM    5  O   UNL     1      -2.535   0.397 -30.809  1.00  0.00    -0.263 OA
BRANCH   4   6
HETATM    6  O   UNL     1      -2.509  -1.430 -32.196  1.00  0.00    -0.325 OA
HETATM    7  C   UNL     1      -2.768  -2.703 -31.600  1.00  0.00     0.213 C 
ENDBRANCH   4   6
ENDBRANCH   3   4
BRANCH   3   8
HETATM    8  C   UNL     1      -4.776  -0.320 -33.431  1.00  0.00     0.068 C 
BRANCH   8   9
HETATM    9  C   UNL     1      -5.346  -1.615 -33.963  1.00  0.00    -0.056 A 
HETATM   10  C   UNL     1      -4.491  -2.607 -34.468  1.00  0.00     0.010 A 
HETATM   11  C   UNL     1      -5.010  -3.793 -34.992  1.00  0.00     0.037 A 
HETATM   12  C   UNL     1      -6.386  -3.984 -35.014  1.00  0.00     0.065 A 
HETATM   13  C   UNL     1      -7.248  -3.013 -34.519  1.00  0.00     0.037 A 
HETATM   14  C   UNL     1      -6.731  -1.828 -33.992  1.00  0.00     0.010 A 
BRANCH  12  15
HETATM   15  O   UNL     1      -6.938  -5.124 -35.517  1.00  0.00    -0.361 OA
HETATM   16  H   UNL     1      -7.810  -5.260 -35.112  1.00  0.00     0.217 HD
ENDBRANCH  12  15
ENDBRANCH   8   9
ENDBRANCH   3   8
ENDBRANCH   1   3
BRANCH   1  17
HETATM   17  C   UNL     1      -6.040   1.660 -32.208  1.00  0.00     0.034 A 
HETATM   18  C   UNL     1      -5.336   2.760 -32.769  1.00  0.00     0.013 A 
HETATM   19  C   UNL     1      -6.020   3.632 -33.637  1.00  0.00     0.044 A 
HETATM   20  C   UNL     1      -3.974   3.035 -32.516  1.00  0.00     0.015 A 
HETATM   21  C   UNL     1      -5.367   4.724 -34.232  1.00  0.00     0.030 A 
HETATM   22  N   UNL     1      -7.316   3.410 -33.902  1.00  0.00    -0.355 N 
HETATM   23  C   UNL     1      -4.020   4.965 -33.969  1.00  0.00     0.002 A 
HETATM   24  C   UNL     1      -3.325   4.121 -33.109  1.00  0.00     0.001 A 
HETATM   25  H   UNL     1      -7.790   4.061 -34.523  1.00  0.00     0.166 HD
HETATM   26  C   UNL     1      -8.024   2.378 -33.413  1.00  0.00     0.044 A 
HETATM   27  C   UNL     1      -7.401   1.445 -32.555  1.00  0.00     0.013 A 
HETATM   28  C   UNL     1      -9.375   2.240 -33.775  1.00  0.00     0.030 A 
HETATM   29  C   UNL     1      -8.184   0.354 -32.112  1.00  0.00     0.015 A 
HETATM   30  C   UNL     1      -9.528   0.223 -32.474  1.00  0.00     0.001 A 
HETATM   31  C   UNL     1     -10.125   1.168 -33.300  1.00  0.00     0.002 A 
ENDBRANCH   1  17
TORSDOF 7
ENDMDL
MODEL 4
REMARK VINA RESULT:      -8.3      2.275      3.431
REMARK  7 active torsions:
REMARK  status: ('A' for Active; 'I' for Inactive)
REMARK    1  A    between atoms: O_2  and  C_3 
REMARK    2  A    between atoms: C_3  and  C_4 
REMARK    3  A    between atoms: C_4  and  N_5 
REMARK    4  A    between atoms: C_4  and  C_21 
REMARK    5  A    between atoms: N_5  and  C_6 
REMARK    6  A    between atoms: C_21  and  C_22 
REMARK    7  A    between atoms: C_25  and  O_26 
ROOT
HETATM    1  N   UNL     1      -8.265   0.980 -34.731  1.00  0.00    -0.277 NA
HETATM    2  H   UNL     1      -8.994   0.547 -35.300  1.00  0.00     0.128 HD
ENDROOT
BRANCH   1   3
HETATM    3  C   UNL     1      -7.713  -0.051 -33.787  1.00  0.00     0.164 C 
BRANCH   3   4
HETATM    4  C   UNL     1      -7.851   0.330 -32.304  1.00  0.00     0.276 C 
HETATM    5  O   UNL     1      -8.869   0.221 -31.632  1.00  0.00    -0.263 OA
BRANCH   4   6
HETATM    6  O   UNL     1      -6.651   0.773 -31.824  1.00  0.00    -0.325 OA
HETATM    7  C   UNL     1      -6.754   1.660 -30.709  1.00  0.00     0.213 C 
ENDBRANCH   4   6
ENDBRANCH   3   4
BRANCH   3   8
HETATM    8  C   UNL     1      -6.222  -0.270 -34.109  1.00  0.00     0.068 C 
BRANCH   8   9
HETATM    9  C   UNL     1      -5.887  -1.737 -34.252  1.00  0.00    -0.056 A 
HETATM   10  C   UNL     1      -4.578  -2.187 -34.017  1.00  0.00     0.010 A 
HETATM   11  C   UNL     1      -4.250  -3.535 -34.178  1.00  0.00     0.037 A 
HETATM   12  C   UNL     1      -5.232  -4.432 -34.579  1.00  0.00     0.065 A 
HETATM   13  C   UNL     1      -6.533  -4.005 -34.816  1.00  0.00     0.037 A 
HETATM   14  C   UNL     1      -6.863  -2.659 -34.652  1.00  0.00     0.010 A 
BRANCH  12  15
HETATM   15  O   UNL     1      -4.959  -5.756 -34.750  1.00  0.00    -0.361 OA
HETATM   16  H   UNL     1      -4.537  -6.100 -33.946  1.00  0.00     0.217 HD
ENDBRANCH  12  15
ENDBRANCH   8   9
ENDBRANCH   3   8
ENDBRANCH   1   3
BRANCH   1  17
HETATM   17  C   UNL     1      -8.743   2.184 -34.159  1.00  0.00     0.034 A 
HETATM   18  C   UNL     1     -10.131   2.274 -33.864  1.00  0.00     0.013 A 
HETATM   19  C   UNL     1     -10.634   3.475 -33.328  1.00  0.00     0.044 A 
HETATM   20  C   UNL     1     -11.048   1.221 -34.067  1.00  0.00     0.015 A 
HETATM   21  C   UNL     1     -11.994   3.610 -33.004  1.00  0.00     0.030 A 
HETATM   22  N   UNL     1      -9.797   4.503 -33.123  1.00  0.00    -0.355 N 
HETATM   23  C   UNL     1     -12.873   2.550 -33.208  1.00  0.00     0.002 A 
HETATM   24  C   UNL     1     -12.401   1.356 -33.742  1.00  0.00     0.001 A 
HETATM   25  H   UNL     1     -10.188   5.363 -32.747  1.00  0.00     0.166 HD
HETATM   26  C   UNL     1      -8.476   4.467 -33.368  1.00  0.00     0.044 A 
HETATM   27  C   UNL     1      -7.892   3.288 -33.882  1.00  0.00     0.013 A 
HETATM   28  C   UNL     1      -7.697   5.604 -33.098  1.00  0.00     0.030 A 
HETATM   29  C   UNL     1      -6.490   3.295 -34.073  1.00  0.00     0.015 A 
HETATM   30  C   UNL     1      -5.721   4.430 -33.803  1.00  0.00     0.001 A 
HETATM   31  C   UNL     1      -6.323   5.586 -33.322  1.00  0.00     0.002 A 
ENDBRANCH   1  17
TORSDOF 7
ENDMDL
MODEL 5
REMARK VINA RESULT:      -8.3      2.277      4.787
REMARK  7 active torsions:
REMARK  status: ('A' for Active; 'I' for Inactive)
REMARK    1  A    between atoms: O_2  and  C_3 
REMARK    2  A    between atoms: C_3  and  C_4 
REMARK    3  A    between atoms: C_4  and  N_5 
REMARK    4  A    between atoms: C_4  and  C_21 
REMARK    5  A    between atoms: N_5  and  C_6 
REMARK    6  A    between atoms: C_21  and  C_22 
REMARK    7  A    between atoms: C_25  and  O_26 
ROOT
HETATM    1  N   UNL     1      -8.168   1.013 -34.728  1.00  0.00    -0.277 NA
HETATM    2  H   UNL     1      -8.818   0.576 -35.385  1.00  0.00     0.128 HD
ENDROOT
BRANCH   1   3
HETATM    3  C   UNL     1      -7.662  -0.035 -33.779  1.00  0.00     0.164 C 
BRANCH   3   4
HETATM    4  C   UNL     1      -7.855   0.326 -32.297  1.00  0.00     0.276 C 
HETATM    5  O   UNL     1      -8.894   0.198 -31.662  1.00  0.00    -0.263 OA
BRANCH   4   6
HETATM    6  O   UNL     1      -6.678   0.777 -31.771  1.00  0.00    -0.325 OA
HETATM    7  C   UNL     1      -6.829   1.725 -30.712  1.00  0.00     0.213 C 
ENDBRANCH   4   6
ENDBRANCH   3   4
BRANCH   3   8
HETATM    8  C   UNL     1      -6.161  -0.263 -34.045  1.00  0.00     0.068 C 
BRANCH   8   9
HETATM    9  C   UNL     1      -5.844  -1.724 -34.264  1.00  0.00    -0.056 A 
HETATM   10  C   UNL     1      -6.853  -2.612 -34.669  1.00  0.00     0.010 A 
HETATM   11  C   UNL     1      -6.577  -3.970 -34.842  1.00  0.00     0.037 A 
HETATM   12  C   UNL     1      -5.291  -4.440 -34.604  1.00  0.00     0.065 A 
HETATM   13  C   UNL     1      -4.280  -3.577 -34.202  1.00  0.00     0.037 A 
HETATM   14  C   UNL     1      -4.553  -2.218 -34.033  1.00  0.00     0.010 A 
BRANCH  12  15
HETATM   15  O   UNL     1      -4.976  -5.757 -34.758  1.00  0.00    -0.361 OA
HETATM   16  H   UNL     1      -5.531  -6.288 -34.164  1.00  0.00     0.217 HD
ENDBRANCH  12  15
ENDBRANCH   8   9
ENDBRANCH   3   8
ENDBRANCH   1   3
BRANCH   1  17
HETATM   17  C   UNL     1      -8.755   2.168 -34.157  1.00  0.00     0.034 A 
HETATM   18  C   UNL     1      -7.906   3.271 -33.868  1.00  0.00     0.013 A 
HETATM   19  C   UNL     1      -8.462   4.416 -33.267  1.00  0.00     0.044 A 
HETATM   20  C   UNL     1      -6.524   3.297 -34.156  1.00  0.00     0.015 A 
HETATM   21  C   UNL     1      -7.670   5.540 -32.976  1.00  0.00     0.030 A 
HETATM   22  N   UNL     1      -9.771   4.433 -32.973  1.00  0.00    -0.355 N 
HETATM   23  C   UNL     1      -6.311   5.538 -33.279  1.00  0.00     0.002 A 
HETATM   24  C   UNL     1      -5.737   4.415 -33.867  1.00  0.00     0.001 A 
HETATM   25  H   UNL     1     -10.145   5.267 -32.529  1.00  0.00     0.166 HD
HETATM   26  C   UNL     1     -10.621   3.427 -33.240  1.00  0.00     0.044 A 
HETATM   27  C   UNL     1     -10.143   2.254 -33.865  1.00  0.00     0.013 A 
HETATM   28  C   UNL     1     -11.976   3.566 -32.898  1.00  0.00     0.030 A 
HETATM   29  C   UNL     1     -11.095   1.251 -34.164  1.00  0.00     0.015 A 
HETATM   30  C   UNL     1     -12.442   1.395 -33.821  1.00  0.00     0.001 A 
HETATM   31  C   UNL     1     -12.882   2.548 -33.183  1.00  0.00     0.002 A 
ENDBRANCH   1  17
TORSDOF 7
ENDMDL
MODEL 6
REMARK VINA RESULT:      -8.1      2.361      3.166
REMARK  7 active torsions:
REMARK  status: ('A' for Active; 'I' for Inactive)
REMARK    1  A    between atoms: O_2  and  C_3 
REMARK    2  A    between atoms: C_3  and  C_4 
REMARK    3  A    between atoms: C_4  and  N_5 
REMARK    4  A    between atoms: C_4  and  C_21 
REMARK    5  A    between atoms: N_5  and  C_6 
REMARK    6  A    between atoms: C_21  and  C_22 
REMARK    7  A    between atoms: C_25  and  O_26 
ROOT
HETATM    1  N   UNL     1      -7.329   0.193 -31.797  1.00  0.00    -0.277 NA
HETATM    2  H   UNL     1      -6.853  -0.040 -30.923  1.00  0.00     0.128 HD
ENDROOT
BRANCH   1   3
HETATM    3  C   UNL     1      -6.341   0.103 -32.925  1.00  0.00     0.164 C 
BRANCH   3   4
HETATM    4  C   UNL     1      -5.898   1.470 -33.471  1.00  0.00     0.276 C 
HETATM    5  O   UNL     1      -6.478   2.113 -34.338  1.00  0.00    -0.263 OA
BRANCH   4   6
HETATM    6  O   UNL     1      -4.777   1.893 -32.814  1.00  0.00    -0.325 OA
HETATM    7  C   UNL     1      -3.882   0.843 -32.442  1.00  0.00     0.213 C 
ENDBRANCH   4   6
ENDBRANCH   3   4
BRANCH   3   8
HETATM    8  C   UNL     1      -6.969  -0.713 -34.071  1.00  0.00     0.068 C 
BRANCH   8   9
HETATM    9  C   UNL     1      -6.330  -2.076 -34.208  1.00  0.00    -0.056 A 
HETATM   10  C   UNL     1      -4.950  -2.232 -33.999  1.00  0.00     0.010 A 
HETATM   11  C   UNL     1      -4.344  -3.481 -34.156  1.00  0.00     0.037 A 
HETATM   12  C   UNL     1      -5.119  -4.573 -34.524  1.00  0.00     0.065 A 
HETATM   13  C   UNL     1      -6.486  -4.438 -34.735  1.00  0.00     0.037 A 
HETATM   14  C   UNL     1      -7.094  -3.191 -34.576  1.00  0.00     0.010 A 
BRANCH  12  15
HETATM   15  O   UNL     1      -4.571  -5.810 -34.690  1.00  0.00    -0.361 OA
HETATM   16  H   UNL     1      -4.263  -5.900 -35.607  1.00  0.00     0.217 HD
ENDBRANCH  12  15
ENDBRANCH   8   9
ENDBRANCH   3   8
ENDBRANCH   1   3
BRANCH   1  17
HETATM   17  C   UNL     1      -8.037   1.411 -31.658  1.00  0.00     0.034 A 
HETATM   18  C   UNL     1      -9.298   1.525 -32.304  1.00  0.00     0.013 A 
HETATM   19  C   UNL     1     -10.002   2.740 -32.209  1.00  0.00     0.044 A 
HETATM   20  C   UNL     1      -9.903   0.482 -33.038  1.00  0.00     0.015 A 
HETATM   21  C   UNL     1     -11.259   2.899 -32.815  1.00  0.00     0.030 A 
HETATM   22  N   UNL     1      -9.462   3.760 -31.524  1.00  0.00    -0.355 N 
HETATM   23  C   UNL     1     -11.834   1.848 -33.525  1.00  0.00     0.002 A 
HETATM   24  C   UNL     1     -11.154   0.640 -33.639  1.00  0.00     0.001 A 
HETATM   25  H   UNL     1      -9.985   4.630 -31.481  1.00  0.00     0.166 HD
HETATM   26  C   UNL     1      -8.283   3.701 -30.881  1.00  0.00     0.044 A 
HETATM   27  C   UNL     1      -7.529   2.507 -30.909  1.00  0.00     0.013 A 
HETATM   28  C   UNL     1      -7.826   4.831 -30.183  1.00  0.00     0.030 A 
HETATM   29  C   UNL     1      -6.321   2.492 -30.173  1.00  0.00     0.015 A 
HETATM   30  C   UNL     1      -5.871   3.620 -29.481  1.00  0.00     0.001 A 
HETATM   31  C   UNL     1      -6.619   4.790 -29.490  1.00  0.00     0.002 A 
ENDBRANCH   1  17
TORSDOF 7
ENDMDL
MODEL 7
REMARK VINA RESULT:      -8.1      3.405      5.932
REMARK  7 active torsions:
REMARK  status: ('A' for Active; 'I' for Inactive)
REMARK    1  A    between atoms: O_2  and  C_3 
REMARK    2  A    between atoms: C_3  and  C_4 
REMARK    3  A    between atoms: C_4  and  N_5 
REMARK    4  A    between atoms: C_4  and  C_21 
REMARK    5  A    between atoms: N_5  and  C_6 
REMARK    6  A    between atoms: C_21  and  C_22 
REMARK    7  A    between atoms: C_25  and  O_26 
ROOT
HETATM    1  N   UNL     1      -6.004   2.339 -30.203  1.00  0.00    -0.277 NA
HETATM    2  H   UNL     1      -6.916   2.618 -29.836  1.00  0.00     0.128 HD
ENDROOT
BRANCH   1   3
HETATM    3  C   UNL     1      -5.274   3.567 -30.667  1.00  0.00     0.164 C 
BRANCH   3   4
HETATM    4  C   UNL     1      -5.513   4.801 -29.781  1.00  0.00     0.276 C 
HETATM    5  O   UNL     1      -4.801   5.797 -29.738  1.00  0.00    -0.263 OA
BRANCH   4   6
HETATM    6  O   UNL     1      -6.670   4.646 -29.070  1.00  0.00    -0.325 OA
HETATM    7  C   UNL     1      -6.975   5.734 -28.196  1.00  0.00     0.213 C 
ENDBRANCH   4   6
ENDBRANCH   3   4
BRANCH   3   8
HETATM    8  C   UNL     1      -5.716   3.893 -32.106  1.00  0.00     0.068 C 
BRANCH   8   9
HETATM    9  C   UNL     1      -4.544   4.267 -32.984  1.00  0.00    -0.056 A 
HETATM   10  C   UNL     1      -4.759   4.935 -34.201  1.00  0.00     0.010 A 
HETATM   11  C   UNL     1      -3.685   5.255 -35.035  1.00  0.00     0.037 A 
HETATM   12  C   UNL     1      -2.397   4.904 -34.653  1.00  0.00     0.065 A 
HETATM   13  C   UNL     1      -2.165   4.243 -33.453  1.00  0.00     0.037 A 
HETATM   14  C   UNL     1      -3.236   3.925 -32.616  1.00  0.00     0.010 A 
BRANCH  12  15
HETATM   15  O   UNL     1      -1.319   5.194 -35.435  1.00  0.00    -0.361 OA
HETATM   16  H   UNL     1      -0.859   4.369 -35.661  1.00  0.00     0.217 HD
ENDBRANCH  12  15
ENDBRANCH   8   9
ENDBRANCH   3   8
ENDBRANCH   1   3
BRANCH   1  17
HETATM   17  C   UNL     1      -6.156   1.289 -31.141  1.00  0.00     0.034 A 
HETATM   18  C   UNL     1      -7.431   1.117 -31.745  1.00  0.00     0.013 A 
HETATM   19  C   UNL     1      -7.615   0.057 -32.653  1.00  0.00     0.044 A 
HETATM   20  C   UNL     1      -8.539   1.957 -31.497  1.00  0.00     0.015 A 
HETATM   21  C   UNL     1      -8.850  -0.146 -33.290  1.00  0.00     0.030 A 
HETATM   22  N   UNL     1      -6.590  -0.767 -32.914  1.00  0.00    -0.355 N 
HETATM   23  C   UNL     1      -9.922   0.705 -33.031  1.00  0.00     0.002 A 
HETATM   24  C   UNL     1      -9.767   1.755 -32.132  1.00  0.00     0.001 A 
HETATM   25  H   UNL     1      -6.752  -1.532 -33.565  1.00  0.00     0.166 HD
HETATM   26  C   UNL     1      -5.361  -0.641 -32.385  1.00  0.00     0.044 A 
HETATM   27  C   UNL     1      -5.091   0.413 -31.485  1.00  0.00     0.013 A 
HETATM   28  C   UNL     1      -4.361  -1.559 -32.747  1.00  0.00     0.030 A 
HETATM   29  C   UNL     1      -3.767   0.523 -31.001  1.00  0.00     0.015 A 
HETATM   30  C   UNL     1      -2.776  -0.395 -31.363  1.00  0.00     0.001 A 
HETATM   31  C   UNL     1      -3.074  -1.438 -32.231  1.00  0.00     0.002 A 
ENDBRANCH   1  17
TORSDOF 7
ENDMDL
MODEL 8
REMARK VINA RESULT:      -8.1      3.399      6.550
REMARK  7 active torsions:
REMARK  status: ('A' for Active; 'I' for Inactive)
REMARK    1  A    between atoms: O_2  and  C_3 
REMARK    2  A    between atoms: C_3  and  C_4 
REMARK    3  A    between atoms: C_4  and  N_5 
REMARK    4  A    between atoms: C_4  and  C_21 
REMARK    5  A    between atoms: N_5  and  C_6 
REMARK    6  A    between atoms: C_21  and  C_22 
REMARK    7  A    between atoms: C_25  and  O_26 
ROOT
HETATM    1  N   UNL     1      -6.137   2.326 -30.274  1.00  0.00    -0.277 NA
HETATM    2  H   UNL     1      -7.049   2.615 -29.916  1.00  0.00     0.128 HD
ENDROOT
BRANCH   1   3
HETATM    3  C   UNL     1      -5.376   3.550 -30.700  1.00  0.00     0.164 C 
BRANCH   3   4
HETATM    4  C   UNL     1      -5.589   4.763 -29.779  1.00  0.00     0.276 C 
HETATM    5  O   UNL     1      -4.871   5.754 -29.729  1.00  0.00    -0.263 OA
BRANCH   4   6
HETATM    6  O   UNL     1      -6.729   4.595 -29.046  1.00  0.00    -0.325 OA
HETATM    7  C   UNL     1      -7.134   5.753 -28.313  1.00  0.00     0.213 C 
ENDBRANCH   4   6
ENDBRANCH   3   4
BRANCH   3   8
HETATM    8  C   UNL     1      -5.807   3.928 -32.131  1.00  0.00     0.068 C 
BRANCH   8   9
HETATM    9  C   UNL     1      -4.622   4.284 -32.999  1.00  0.00    -0.056 A 
HETATM   10  C   UNL     1      -4.819   4.934 -34.228  1.00  0.00     0.010 A 
HETATM   11  C   UNL     1      -3.734   5.238 -35.053  1.00  0.00     0.037 A 
HETATM   12  C   UNL     1      -2.452   4.888 -34.650  1.00  0.00     0.065 A 
HETATM   13  C   UNL     1      -2.237   4.244 -33.438  1.00  0.00     0.037 A 
HETATM   14  C   UNL     1      -3.320   3.943 -32.610  1.00  0.00     0.010 A 
BRANCH  12  15
HETATM   15  O   UNL     1      -1.364   5.163 -35.423  1.00  0.00    -0.361 OA
HETATM   16  H   UNL     1      -1.569   5.913 -36.004  1.00  0.00     0.217 HD
ENDBRANCH  12  15
ENDBRANCH   8   9
ENDBRANCH   3   8
ENDBRANCH   1   3
BRANCH   1  17
HETATM   17  C   UNL     1      -6.293   1.299 -31.236  1.00  0.00     0.034 A 
HETATM   18  C   UNL     1      -5.163   0.490 -31.533  1.00  0.00     0.013 A 
HETATM   19  C   UNL     1      -5.286  -0.514 -32.512  1.00  0.00     0.044 A 
HETATM   20  C   UNL     1      -3.910   0.624 -30.897  1.00  0.00     0.015 A 
HETATM   21  C   UNL     1      -4.204  -1.352 -32.832  1.00  0.00     0.030 A 
HETATM   22  N   UNL     1      -6.458  -0.673 -33.145  1.00  0.00    -0.355 N 
HETATM   23  C   UNL     1      -2.983  -1.201 -32.180  1.00  0.00     0.002 A 
HETATM   24  C   UNL     1      -2.835  -0.211 -31.214  1.00  0.00     0.001 A 
HETATM   25  H   UNL     1      -6.517  -1.398 -33.856  1.00  0.00     0.166 HD
HETATM   26  C   UNL     1      -7.561   0.051 -32.892  1.00  0.00     0.044 A 
HETATM   27  C   UNL     1      -7.524   1.060 -31.904  1.00  0.00     0.013 A 
HETATM   28  C   UNL     1      -8.738  -0.218 -33.610  1.00  0.00     0.030 A 
HETATM   29  C   UNL     1      -8.730   1.754 -31.649  1.00  0.00     0.015 A 
HETATM   30  C   UNL     1      -9.897   1.483 -32.368  1.00  0.00     0.001 A 
HETATM   31  C   UNL     1      -9.901   0.502 -33.351  1.00  0.00     0.002 A 
ENDBRANCH   1  17
TORSDOF 7
ENDMDL
MODEL 9
REMARK VINA RESULT:      -8.1      2.999      6.495
REMARK  7 active torsions:
REMARK  status: ('A' for Active; 'I' for Inactive)
REMARK    1  A    between atoms: O_2  and  C_3 
REMARK    2  A    between atoms: C_3  and  C_4 
REMARK    3  A    between atoms: C_4  and  N_5 
REMARK    4  A    between atoms: C_4  and  C_21 
REMARK    5  A    between atoms: N_5  and  C_6 
REMARK    6  A    between atoms: C_21  and  C_22 
REMARK    7  A    between atoms: C_25  and  O_26 
ROOT
HETATM    1  N   UNL     1      -8.822  -0.078 -32.670  1.00  0.00    -0.277 NA
HETATM    2  H   UNL     1      -9.068  -0.874 -33.261  1.00  0.00     0.128 HD
ENDROOT
BRANCH   1   3
HETATM    3  C   UNL     1      -9.480   1.155 -33.222  1.00  0.00     0.164 C 
BRANCH   3   4
HETATM    4  C   UNL     1     -10.946   0.942 -33.634  1.00  0.00     0.276 C 
HETATM    5  O   UNL     1     -11.660   0.014 -33.274  1.00  0.00    -0.263 OA
BRANCH   4   6
HETATM    6  O   UNL     1     -11.358   1.970 -34.435  1.00  0.00    -0.325 OA
HETATM    7  C   UNL     1     -12.479   1.659 -35.264  1.00  0.00     0.213 C 
ENDBRANCH   4   6
ENDBRANCH   3   4
BRANCH   3   8
HETATM    8  C   UNL     1      -8.682   1.636 -34.449  1.00  0.00     0.068 C 
BRANCH   8   9
HETATM    9  C   UNL     1      -7.883   2.883 -34.147  1.00  0.00    -0.056 A 
HETATM   10  C   UNL     1      -8.534   4.053 -33.724  1.00  0.00     0.010 A 
HETATM   11  C   UNL     1      -7.808   5.220 -33.474  1.00  0.00     0.037 A 
HETATM   12  C   UNL     1      -6.430   5.216 -33.650  1.00  0.00     0.065 A 
HETATM   13  C   UNL     1      -5.768   4.068 -34.068  1.00  0.00     0.037 A 
HETATM   14  C   UNL     1      -6.492   2.900 -34.315  1.00  0.00     0.010 A 
BRANCH  12  15
HETATM   15  O   UNL     1      -5.681   6.331 -33.420  1.00  0.00    -0.361 OA
HETATM   16  H   UNL     1      -6.173   6.928 -32.833  1.00  0.00     0.217 HD
ENDBRANCH  12  15
ENDBRANCH   8   9
ENDBRANCH   3   8
ENDBRANCH   1   3
BRANCH   1  17
HETATM   17  C   UNL     1      -7.420  -0.027 -32.479  1.00  0.00     0.034 A 
HETATM   18  C   UNL     1      -6.618  -0.957 -33.196  1.00  0.00     0.013 A 
HETATM   19  C   UNL     1      -5.225  -0.948 -32.993  1.00  0.00     0.044 A 
HETATM   20  C   UNL     1      -7.133  -1.895 -34.116  1.00  0.00     0.015 A 
HETATM   21  C   UNL     1      -4.385  -1.834 -33.689  1.00  0.00     0.030 A 
HETATM   22  N   UNL     1      -4.694  -0.075 -32.124  1.00  0.00    -0.355 N 
HETATM   23  C   UNL     1      -4.923  -2.743 -34.597  1.00  0.00     0.002 A 
HETATM   24  C   UNL     1      -6.297  -2.775 -34.808  1.00  0.00     0.001 A 
HETATM   25  H   UNL     1      -3.686  -0.098 -31.988  1.00  0.00     0.166 HD
HETATM   26  C   UNL     1      -5.402   0.835 -31.434  1.00  0.00     0.044 A 
HETATM   27  C   UNL     1      -6.802   0.905 -31.602  1.00  0.00     0.013 A 
HETATM   28  C   UNL     1      -4.731   1.708 -30.562  1.00  0.00     0.030 A 
HETATM   29  C   UNL     1      -7.486   1.916 -30.887  1.00  0.00     0.015 A 
HETATM   30  C   UNL     1      -6.814   2.782 -30.019  1.00  0.00     0.001 A 
HETATM   31  C   UNL     1      -5.439   2.675 -29.852  1.00  0.00     0.002 A 
ENDBRANCH   1  17
TORSDOF 7
ENDMDL
MODEL 10
REMARK VINA RESULT:      -8.0      2.680      6.255
REMARK  7 active torsions:
REMARK  status: ('A' for Active; 'I' for Inactive)
REMARK    1  A    between atoms: O_2  and  C_3 
REMARK    2  A    between atoms: C_3  and  C_4 
REMARK    3  A    between atoms: C_4  and  N_5 
REMARK    4  A    between atoms: C_4  and  C_21 
REMARK    5  A    between atoms: N_5  and  C_6 
REMARK    6  A    between atoms: C_21  and  C_22 
REMARK    7  A    between atoms: C_25  and  O_26 
ROOT
HETATM    1  N   UNL     1      -5.647   0.980 -31.066  1.00  0.00    -0.277 NA
HETATM    2  H   UNL     1      -6.198   1.152 -30.223  1.00  0.00     0.128 HD
ENDROOT
BRANCH   1   3
HETATM    3  C   UNL     1      -4.872   2.223 -31.398  1.00  0.00     0.164 C 
BRANCH   3   4
HETATM    4  C   UNL     1      -3.348   2.050 -31.289  1.00  0.00     0.276 C 
HETATM    5  O   UNL     1      -2.761   0.989 -31.121  1.00  0.00    -0.263 OA
BRANCH   4   6
HETATM    6  O   UNL     1      -2.730   3.258 -31.452  1.00  0.00    -0.325 OA
HETATM    7  C   UNL     1      -2.581   3.666 -32.813  1.00  0.00     0.213 C 
ENDBRANCH   4   6
ENDBRANCH   3   4
BRANCH   3   8
HETATM    8  C   UNL     1      -5.315   3.353 -30.448  1.00  0.00     0.068 C 
BRANCH   8   9
HETATM    9  C   UNL     1      -6.178   4.374 -31.152  1.00  0.00    -0.056 A 
HETATM   10  C   UNL     1      -6.101   4.522 -32.546  1.00  0.00     0.010 A 
HETATM   11  C   UNL     1      -6.871   5.485 -33.202  1.00  0.00     0.037 A 
HETATM   12  C   UNL     1      -7.715   6.303 -32.462  1.00  0.00     0.065 A 
HETATM   13  C   UNL     1      -7.804   6.172 -31.081  1.00  0.00     0.037 A 
HETATM   14  C   UNL     1      -7.039   5.207 -30.424  1.00  0.00     0.010 A 
BRANCH  12  15
HETATM   15  O   UNL     1      -8.483   7.258 -33.058  1.00  0.00    -0.361 OA
HETATM   16  H   UNL     1      -8.458   7.130 -34.021  1.00  0.00     0.217 HD
ENDBRANCH  12  15
ENDBRANCH   8   9
ENDBRANCH   3   8
ENDBRANCH   1   3
BRANCH   1  17
HETATM   17  C   UNL     1      -6.470   0.444 -32.086  1.00  0.00     0.034 A 
HETATM   18  C   UNL     1      -5.944  -0.615 -32.875  1.00  0.00     0.013 A 
HETATM   19  C   UNL     1      -6.732  -1.139 -33.918  1.00  0.00     0.044 A 
HETATM   20  C   UNL     1      -4.670  -1.189 -32.674  1.00  0.00     0.015 A 
HETATM   21  C   UNL     1      -6.267  -2.196 -34.718  1.00  0.00     0.030 A 
HETATM   22  N   UNL     1      -7.947  -0.620 -34.147  1.00  0.00    -0.355 N 
HETATM   23  C   UNL     1      -5.008  -2.747 -34.489  1.00  0.00     0.002 A 
HETATM   24  C   UNL     1      -4.209  -2.242 -33.469  1.00  0.00     0.001 A 
HETATM   25  H   UNL     1      -8.491  -1.008 -34.913  1.00  0.00     0.166 HD
HETATM   26  C   UNL     1      -8.499   0.368 -33.421  1.00  0.00     0.044 A 
HETATM   27  C   UNL     1      -7.781   0.928 -32.342  1.00  0.00     0.013 A 
HETATM   28  C   UNL     1      -9.789   0.819 -33.747  1.00  0.00     0.030 A 
HETATM   29  C   UNL     1      -8.434   1.930 -31.586  1.00  0.00     0.015 A 
HETATM   30  C   UNL     1      -9.717   2.376 -31.915  1.00  0.00     0.001 A 
HETATM   31  C   UNL     1     -10.392   1.826 -32.998  1.00  0.00     0.002 A 
ENDBRANCH   1  17
TORSDOF 7
ENDMDL
