MODEL 1
REMARK VINA RESULT:      -9.5      0.000      0.000
REMARK  7 active torsions:
REMARK  status: ('A' for Active; 'I' for Inactive)
REMARK    1  A    between atoms: C_8  and  C_9 
REMARK    2  A    between atoms: C_9  and  C_10 
REMARK    3  A    between atoms: C_10  and  N_11 
REMARK       I    between atoms: N_11  and  C_12 
REMARK    4  A    between atoms: C_12  and  C_13 
REMARK    5  A    between atoms: C_13  and  C_14 
REMARK    6  A    between atoms: C_14  and  C_15 
REMARK    7  A    between atoms: C_15  and  N_16 
ROOT
HETATM    1  C   UNL     1      -5.391   5.027 -33.717  1.00  0.00     0.104 C 
ENDROOT
BRANCH   1   2
HETATM    2  C   UNL     1      -4.076   5.206 -34.445  1.00  0.00     0.217 C 
HETATM    3  N   UNL     1      -2.960   5.137 -33.645  1.00  0.00    -0.361 N 
HETATM    4  H   UNL     1      -3.072   5.307 -32.652  1.00  0.00     0.162 HD
HETATM    5  O   UNL     1      -4.027   5.343 -35.664  1.00  0.00    -0.274 OA
BRANCH   3   6
HETATM    6  C   UNL     1      -1.635   5.342 -34.208  1.00  0.00     0.127 C 
BRANCH   6   7
HETATM    7  C   UNL     1      -1.088   6.747 -33.950  1.00  0.00     0.060 C 
BRANCH   7   8
HETATM    8  C   UNL     1      -1.174   7.153 -32.510  1.00  0.00    -0.029 A 
HETATM    9  C   UNL     1      -0.539   6.520 -31.393  1.00  0.00    -0.002 A 
HETATM   10  C   UNL     1       0.318   5.410 -31.247  1.00  0.00     0.014 A 
HETATM   11  C   UNL     1      -0.916   7.221 -30.247  1.00  0.00     0.042 A 
HETATM   12  C   UNL     1       0.754   5.036 -29.971  1.00  0.00     0.001 A 
HETATM   13  C   UNL     1       0.358   5.757 -28.847  1.00  0.00     0.002 A 
HETATM   14  C   UNL     1      -0.485   6.866 -28.963  1.00  0.00     0.030 A 
HETATM   15  N   UNL     1      -1.733   8.250 -30.650  1.00  0.00    -0.365 N 
HETATM   16  H   UNL     1      -2.150   8.929 -30.028  1.00  0.00     0.165 HD
HETATM   17  C   UNL     1      -1.898   8.219 -32.008  1.00  0.00     0.096 A 
ENDBRANCH   7   8
ENDBRANCH   6   7
ENDBRANCH   3   6
ENDBRANCH   1   2
BRANCH   1  18
HETATM   18  C   UNL     1      -6.137   3.757 -34.116  1.00  0.00     0.029 C 
BRANCH  18  19
HETATM   19  C   UNL     1      -6.361   2.865 -32.891  1.00  0.00     0.135 C 
BRANCH  19  20
HETATM   20  N   UNL     1      -5.650   1.583 -32.995  1.00  0.00    -0.290 N 
HETATM   21  C   UNL     1      -4.415   1.375 -32.382  1.00  0.00     0.181 A 
HETATM   22  S   UNL     1      -3.527   2.485 -31.491  1.00  0.00    -0.040 SA
HETATM   23  N   UNL     1      -3.862   0.129 -32.510  1.00  0.00    -0.332 N 
HETATM   24  C   UNL     1      -4.455  -0.922 -33.203  1.00  0.00     0.050 A 
HETATM   25  H   UNL     1      -2.970  -0.013 -32.047  1.00  0.00     0.168 HD
HETATM   26  C   UNL     1      -5.667  -0.723 -33.848  1.00  0.00     0.060 A 
HETATM   27  C   UNL     1      -3.831  -2.169 -33.243  1.00  0.00     0.032 A 
HETATM   28  C   UNL     1      -6.296   0.608 -33.772  1.00  0.00     0.262 A 
HETATM   29  C   UNL     1      -6.278  -1.771 -34.545  1.00  0.00     0.038 A 
HETATM   30  O   UNL     1      -7.344   0.801 -34.386  1.00  0.00    -0.267 OA
HETATM   31  C   UNL     1      -5.656  -3.017 -34.581  1.00  0.00     0.012 A 
HETATM   32  C   UNL     1      -4.436  -3.222 -33.934  1.00  0.00     0.021 A 
HETATM   33 BR   UNL     1      -6.473  -4.446 -35.512  1.00  0.00    -0.051 Br
ENDBRANCH  19  20
ENDBRANCH  18  19
ENDBRANCH   1  18
TORSDOF 7
ENDMDL
MODEL 2
REMARK VINA RESULT:      -9.1      2.081      3.019
REMARK  7 active torsions:
REMARK  status: ('A' for Active; 'I' for Inactive)
REMARK    1  A    between atoms: C_8  and  C_9 
REMARK    2  A    between atoms: C_9  and  C_10 
REMARK    3  A    between atoms: C_10  and  N_11 
REMARK       I    between atoms: N_11  and  C_12 
REMARK    4  A    between atoms: C_12  and  C_13 
REMARK    5  A    between atoms: C_13  and  C_14 
REMARK    6  A    between atoms: C_14  and  C_15 
REMARK    7  A    between atoms: C_15  and  N_16 
ROOT
HETATM    1  C   UNL     1      -3.107   4.021 -33.107  1.00  0.00     0.104 C 
ENDROOT
BRANCH   1   2
HETATM    2  C   UNL     1      -2.164   5.194 -33.261  1.00  0.00     0.217 C 
HETATM    3  N   UNL     1      -2.012   5.965 -32.132  1.00  0.00    -0.361 N 
HETATM    4  H   UNL     1      -2.737   5.925 -31.425  1.00  0.00     0.162 HD
HETATM    5  O   UNL     1      -1.546   5.393 -34.303  1.00  0.00    -0.274 OA
BRANCH   3   6
HETATM    6  C   UNL     1      -1.174   7.152 -32.156  1.00  0.00     0.127 C 
BRANCH   6   7
HETATM    7  C   UNL     1       0.247   6.889 -31.651  1.00  0.00     0.060 C 
BRANCH   7   8
HETATM    8  C   UNL     1       0.279   6.339 -30.258  1.00  0.00    -0.029 A 
HETATM    9  C   UNL     1      -0.030   7.035 -29.045  1.00  0.00    -0.002 A 
HETATM   10  C   UNL     1      -0.444   8.349 -28.742  1.00  0.00     0.014 A 
HETATM   11  C   UNL     1       0.154   6.139 -27.991  1.00  0.00     0.042 A 
HETATM   12  C   UNL     1      -0.645   8.719 -27.408  1.00  0.00     0.001 A 
HETATM   13  C   UNL     1      -0.451   7.801 -26.379  1.00  0.00     0.002 A 
HETATM   14  C   UNL     1      -0.049   6.490 -26.651  1.00  0.00     0.030 A 
HETATM   15  N   UNL     1       0.542   4.940 -28.541  1.00  0.00    -0.365 N 
HETATM   16  H   UNL     1       0.739   4.103 -28.009  1.00  0.00     0.165 HD
HETATM   17  C   UNL     1       0.623   5.048 -29.902  1.00  0.00     0.096 A 
ENDBRANCH   7   8
ENDBRANCH   6   7
ENDBRANCH   3   6
ENDBRANCH   1   2
BRANCH   1  18
HETATM   18  C   UNL     1      -2.923   3.263 -31.795  1.00  0.00     0.029 C 
BRANCH  18  19
HETATM   19  C   UNL     1      -4.270   2.729 -31.297  1.00  0.00     0.135 C 
BRANCH  19  20
HETATM   20  N   UNL     1      -4.813   1.676 -32.166  1.00  0.00    -0.290 N 
HETATM   21  C   UNL     1      -5.885   1.913 -33.026  1.00  0.00     0.181 A 
HETATM   22  S   UNL     1      -6.742   3.344 -33.206  1.00  0.00    -0.040 SA
HETATM   23  N   UNL     1      -6.284   0.871 -33.820  1.00  0.00    -0.332 N 
HETATM   24  C   UNL     1      -5.687  -0.386 -33.817  1.00  0.00     0.050 A 
HETATM   25  H   UNL     1      -7.055   1.061 -34.452  1.00  0.00     0.168 HD
HETATM   26  C   UNL     1      -4.642  -0.649 -32.943  1.00  0.00     0.060 A 
HETATM   27  C   UNL     1      -6.140  -1.373 -34.693  1.00  0.00     0.032 A 
HETATM   28  C   UNL     1      -4.190   0.425 -32.040  1.00  0.00     0.262 A 
HETATM   29  C   UNL     1      -4.030  -1.908 -32.931  1.00  0.00     0.038 A 
HETATM   30  O   UNL     1      -3.299   0.177 -31.230  1.00  0.00    -0.267 OA
HETATM   31  C   UNL     1      -4.480  -2.891 -33.810  1.00  0.00     0.012 A 
HETATM   32  C   UNL     1      -5.531  -2.630 -34.691  1.00  0.00     0.021 A 
HETATM   33 BR   UNL     1      -3.657  -4.593 -33.812  1.00  0.00    -0.051 Br
ENDBRANCH  19  20
ENDBRANCH  18  19
ENDBRANCH   1  18
TORSDOF 7
ENDMDL
MODEL 3
REMARK VINA RESULT:      -8.9      1.921      2.272
REMARK  7 active torsions:
REMARK  status: ('A' for Active; 'I' for Inactive)
REMARK    1  A    between atoms: C_8  and  C_9 
REMARK    2  A    between atoms: C_9  and  C_10 
REMARK    3  A    between atoms: C_10  and  N_11 
REMARK       I    between atoms: N_11  and  C_12 
REMARK    4  A    between atoms: C_12  and  C_13 
REMARK    5  A    between atoms: C_13  and  C_14 
REMARK    6  A    between atoms: C_14  and  C_15 
REMARK    7  A    between atoms: C_15  and  N_16 
ROOT
HETATM    1  C   UNL     1      -4.613   4.178 -32.102  1.00  0.00     0.104 C 
ENDROOT
BRANCH   1   2
HETATM    2  C   UNL     1      -3.165   4.237 -32.539  1.00  0.00     0.217 C 
HETATM    3  N   UNL     1      -2.895   5.165 -33.516  1.00  0.00    -0.361 N 
HETATM    4  H   UNL     1      -3.662   5.489 -34.094  1.00  0.00     0.162 HD
HETATM    5  O   UNL     1      -2.303   3.543 -32.009  1.00  0.00    -0.274 OA
BRANCH   3   6
HETATM    6  C   UNL     1      -1.554   5.293 -34.063  1.00  0.00     0.127 C 
BRANCH   6   7
HETATM    7  C   UNL     1      -0.938   6.672 -33.819  1.00  0.00     0.060 C 
BRANCH   7   8
HETATM    8  C   UNL     1      -1.057   7.121 -32.394  1.00  0.00    -0.029 A 
HETATM    9  C   UNL     1      -0.440   6.528 -31.245  1.00  0.00    -0.002 A 
HETATM   10  C   UNL     1       0.423   5.430 -31.049  1.00  0.00     0.014 A 
HETATM   11  C   UNL     1      -0.845   7.261 -30.129  1.00  0.00     0.042 A 
HETATM   12  C   UNL     1       0.836   5.099 -29.753  1.00  0.00     0.001 A 
HETATM   13  C   UNL     1       0.412   5.851 -28.660  1.00  0.00     0.002 A 
HETATM   14  C   UNL     1      -0.436   6.949 -28.827  1.00  0.00     0.030 A 
HETATM   15  N   UNL     1      -1.661   8.271 -30.581  1.00  0.00    -0.365 N 
HETATM   16  H   UNL     1      -2.095   8.965 -29.988  1.00  0.00     0.165 HD
HETATM   17  C   UNL     1      -1.798   8.196 -31.940  1.00  0.00     0.096 A 
ENDBRANCH   7   8
ENDBRANCH   6   7
ENDBRANCH   3   6
ENDBRANCH   1   2
BRANCH   1  18
HETATM   18  C   UNL     1      -5.496   3.357 -33.037  1.00  0.00     0.029 C 
BRANCH  18  19
HETATM   19  C   UNL     1      -6.340   2.362 -32.233  1.00  0.00     0.135 C 
BRANCH  19  20
HETATM   20  N   UNL     1      -6.519   1.083 -32.934  1.00  0.00    -0.290 N 
HETATM   21  C   UNL     1      -7.617   0.844 -33.759  1.00  0.00     0.181 A 
HETATM   22  S   UNL     1      -8.895   1.886 -34.071  1.00  0.00    -0.040 SA
HETATM   23  N   UNL     1      -7.663  -0.368 -34.394  1.00  0.00    -0.332 N 
HETATM   24  C   UNL     1      -6.690  -1.355 -34.265  1.00  0.00     0.050 A 
HETATM   25  H   UNL     1      -8.460  -0.523 -35.003  1.00  0.00     0.168 HD
HETATM   26  C   UNL     1      -5.608  -1.147 -33.422  1.00  0.00     0.060 A 
HETATM   27  C   UNL     1      -6.805  -2.543 -34.986  1.00  0.00     0.032 A 
HETATM   28  C   UNL     1      -5.522   0.127 -32.685  1.00  0.00     0.262 A 
HETATM   29  C   UNL     1      -4.620  -2.129 -33.285  1.00  0.00     0.038 A 
HETATM   30  O   UNL     1      -4.591   0.290 -31.899  1.00  0.00    -0.267 OA
HETATM   31  C   UNL     1      -4.734  -3.313 -34.008  1.00  0.00     0.012 A 
HETATM   32  C   UNL     1      -5.820  -3.526 -34.858  1.00  0.00     0.021 A 
HETATM   33 BR   UNL     1      -3.402  -4.645 -33.841  1.00  0.00    -0.051 Br
ENDBRANCH  19  20
ENDBRANCH  18  19
ENDBRANCH   1  18
TORSDOF 7
ENDMDL
MODEL 4
REMARK VINA RESULT:      -8.8      5.022      8.877
REMARK  7 active torsions:
REMARK  status: ('A' for Active; 'I' for Inactive)
REMARK    1  A    between atoms: C_8  and  C_9 
REMARK    2  A    between atoms: C_9  and  C_10 
REMARK    3  A    between atoms: C_10  and  N_11 
REMARK       I    between atoms: N_11  and  C_12 
REMARK    4  A    between atoms: C_12  and  C_13 
REMARK    5  A    between atoms: C_13  and  C_14 
REMARK    6  A    between atoms: C_14  and  C_15 
REMARK    7  A    between atoms: C_15  and  N_16 
ROOT
HETATM    1  C   UNL     1      -9.273   3.142 -30.893  1.00  0.00     0.104 C 
ENDROOT
BRANCH   1   2
HETATM    2  C   UNL     1     -10.304   4.216 -30.622  1.00  0.00     0.217 C 
HETATM    3  N   UNL     1     -11.560   3.746 -30.318  1.00  0.00    -0.361 N 
HETATM    4  H   UNL     1     -11.802   2.805 -30.607  1.00  0.00     0.162 HD
HETATM    5  O   UNL     1     -10.009   5.408 -30.621  1.00  0.00    -0.274 OA
BRANCH   3   6
HETATM    6  C   UNL     1     -12.657   4.671 -30.085  1.00  0.00     0.127 C 
BRANCH   6   7
HETATM    7  C   UNL     1     -13.582   4.817 -31.295  1.00  0.00     0.060 C 
BRANCH   7   8
HETATM    8  C   UNL     1     -13.827   3.519 -32.003  1.00  0.00    -0.029 A 
HETATM    9  C   UNL     1     -13.202   3.059 -33.207  1.00  0.00    -0.002 A 
HETATM   10  C   UNL     1     -12.224   3.591 -34.073  1.00  0.00     0.014 A 
HETATM   11  C   UNL     1     -13.748   1.812 -33.510  1.00  0.00     0.042 A 
HETATM   12  C   UNL     1     -11.841   2.867 -35.208  1.00  0.00     0.001 A 
HETATM   13  C   UNL     1     -12.407   1.626 -35.483  1.00  0.00     0.002 A 
HETATM   14  C   UNL     1     -13.372   1.071 -34.637  1.00  0.00     0.030 A 
HETATM   15  N   UNL     1     -14.656   1.515 -32.522  1.00  0.00    -0.365 N 
HETATM   16  H   UNL     1     -15.201   0.665 -32.480  1.00  0.00     0.165 HD
HETATM   17  C   UNL     1     -14.715   2.535 -31.611  1.00  0.00     0.096 A 
ENDBRANCH   7   8
ENDBRANCH   6   7
ENDBRANCH   3   6
ENDBRANCH   1   2
BRANCH   1  18
HETATM   18  C   UNL     1      -9.535   2.358 -32.176  1.00  0.00     0.029 C 
BRANCH  18  19
HETATM   19  C   UNL     1      -8.509   2.738 -33.249  1.00  0.00     0.135 C 
BRANCH  19  20
HETATM   20  N   UNL     1      -7.405   1.772 -33.336  1.00  0.00    -0.290 N 
HETATM   21  C   UNL     1      -6.133   2.062 -32.843  1.00  0.00     0.181 A 
HETATM   22  S   UNL     1      -5.626   3.494 -32.131  1.00  0.00    -0.040 SA
HETATM   23  N   UNL     1      -5.191   1.074 -32.941  1.00  0.00    -0.332 N 
HETATM   24  C   UNL     1      -5.429  -0.181 -33.492  1.00  0.00     0.050 A 
HETATM   25  H   UNL     1      -4.274   1.293 -32.566  1.00  0.00     0.168 HD
HETATM   26  C   UNL     1      -6.679  -0.475 -34.018  1.00  0.00     0.060 A 
HETATM   27  C   UNL     1      -4.413  -1.137 -33.510  1.00  0.00     0.032 A 
HETATM   28  C   UNL     1      -7.725   0.562 -33.971  1.00  0.00     0.262 A 
HETATM   29  C   UNL     1      -6.934  -1.734 -34.573  1.00  0.00     0.038 A 
HETATM   30  O   UNL     1      -8.817   0.320 -34.483  1.00  0.00    -0.267 OA
HETATM   31  C   UNL     1      -5.921  -2.690 -34.586  1.00  0.00     0.012 A 
HETATM   32  C   UNL     1      -4.662  -2.398 -34.058  1.00  0.00     0.021 A 
HETATM   33 BR   UNL     1      -6.253  -4.399 -35.323  1.00  0.00    -0.051 Br
ENDBRANCH  19  20
ENDBRANCH  18  19
ENDBRANCH   1  18
TORSDOF 7
ENDMDL
MODEL 5
REMARK VINA RESULT:      -8.5      3.797      9.213
REMARK  7 active torsions:
REMARK  status: ('A' for Active; 'I' for Inactive)
REMARK    1  A    between atoms: C_8  and  C_9 
REMARK    2  A    between atoms: C_9  and  C_10 
REMARK    3  A    between atoms: C_10  and  N_11 
REMARK       I    between atoms: N_11  and  C_12 
REMARK    4  A    between atoms: C_12  and  C_13 
REMARK    5  A    between atoms: C_13  and  C_14 
REMARK    6  A    between atoms: C_14  and  C_15 
REMARK    7  A    between atoms: C_15  and  N_16 
ROOT
HETATM    1  C   UNL     1      -8.351   2.655 -31.084  1.00  0.00     0.104 C 
ENDROOT
BRANCH   1   2
HETATM    2  C   UNL     1      -8.099   1.279 -31.662  1.00  0.00     0.217 C 
HETATM    3  N   UNL     1      -8.722   1.036 -32.864  1.00  0.00    -0.361 N 
HETATM    4  H   UNL     1      -9.526   1.603 -33.109  1.00  0.00     0.162 HD
HETATM    5  O   UNL     1      -7.347   0.478 -31.116  1.00  0.00    -0.274 OA
BRANCH   3   6
HETATM    6  C   UNL     1      -8.605  -0.262 -33.506  1.00  0.00     0.127 C 
BRANCH   6   7
HETATM    7  C   UNL     1      -7.607  -0.267 -34.666  1.00  0.00     0.060 C 
BRANCH   7   8
HETATM    8  C   UNL     1      -6.327  -0.971 -34.333  1.00  0.00    -0.029 A 
HETATM    9  C   UNL     1      -6.042  -2.366 -34.485  1.00  0.00    -0.002 A 
HETATM   10  C   UNL     1      -6.773  -3.474 -34.963  1.00  0.00     0.014 A 
HETATM   11  C   UNL     1      -4.740  -2.578 -34.030  1.00  0.00     0.042 A 
HETATM   12  C   UNL     1      -6.185  -4.744 -34.957  1.00  0.00     0.001 A 
HETATM   13  C   UNL     1      -4.884  -4.922 -34.494  1.00  0.00     0.002 A 
HETATM   14  C   UNL     1      -4.134  -3.841 -34.023  1.00  0.00     0.030 A 
HETATM   15  N   UNL     1      -4.245  -1.359 -33.634  1.00  0.00    -0.365 N 
HETATM   16  H   UNL     1      -3.315  -1.210 -33.265  1.00  0.00     0.165 HD
HETATM   17  C   UNL     1      -5.190  -0.385 -33.808  1.00  0.00     0.096 A 
ENDBRANCH   7   8
ENDBRANCH   6   7
ENDBRANCH   3   6
ENDBRANCH   1   2
BRANCH   1  18
HETATM   18  C   UNL     1      -7.078   3.367 -30.634  1.00  0.00     0.029 C 
BRANCH  18  19
HETATM   19  C   UNL     1      -6.290   3.864 -31.850  1.00  0.00     0.135 C 
BRANCH  19  20
HETATM   20  N   UNL     1      -5.024   4.509 -31.473  1.00  0.00    -0.290 N 
HETATM   21  C   UNL     1      -3.841   3.783 -31.336  1.00  0.00     0.181 A 
HETATM   22  S   UNL     1      -3.640   2.128 -31.523  1.00  0.00    -0.040 SA
HETATM   23  N   UNL     1      -2.713   4.492 -31.019  1.00  0.00    -0.332 N 
HETATM   24  C   UNL     1      -2.683   5.871 -30.834  1.00  0.00     0.050 A 
HETATM   25  H   UNL     1      -1.857   3.955 -30.936  1.00  0.00     0.168 HD
HETATM   26  C   UNL     1      -3.857   6.604 -30.933  1.00  0.00     0.060 A 
HETATM   27  C   UNL     1      -1.475   6.509 -30.553  1.00  0.00     0.032 A 
HETATM   28  C   UNL     1      -5.110   5.890 -31.239  1.00  0.00     0.262 A 
HETATM   29  C   UNL     1      -3.842   7.991 -30.752  1.00  0.00     0.038 A 
HETATM   30  O   UNL     1      -6.159   6.531 -31.276  1.00  0.00    -0.267 OA
HETATM   31  C   UNL     1      -2.634   8.628 -30.477  1.00  0.00     0.012 A 
HETATM   32  C   UNL     1      -1.450   7.895 -30.377  1.00  0.00     0.021 A 
HETATM   33 BR   UNL     1      -2.596  10.503 -30.240  1.00  0.00    -0.051 Br
ENDBRANCH  19  20
ENDBRANCH  18  19
ENDBRANCH   1  18
TORSDOF 7
ENDMDL
MODEL 6
REMARK VINA RESULT:      -8.5      2.439      3.261
REMARK  7 active torsions:
REMARK  status: ('A' for Active; 'I' for Inactive)
REMARK    1  A    between atoms: C_8  and  C_9 
REMARK    2  A    between atoms: C_9  and  C_10 
REMARK    3  A    between atoms: C_10  and  N_11 
REMARK       I    between atoms: N_11  and  C_12 
REMARK    4  A    between atoms: C_12  and  C_13 
REMARK    5  A    between atoms: C_13  and  C_14 
REMARK    6  A    between atoms: C_14  and  C_15 
REMARK    7  A    between atoms: C_15  and  N_16 
ROOT
HETATM    1  C   UNL     1      -2.883   3.293 -31.800  1.00  0.00     0.104 C 
ENDROOT
BRANCH   1   2
HETATM    2  C   UNL     1      -1.925   4.450 -31.980  1.00  0.00     0.217 C 
HETATM    3  N   UNL     1      -1.331   4.893 -30.822  1.00  0.00    -0.361 N 
HETATM    4  H   UNL     1      -1.784   4.680 -29.940  1.00  0.00     0.162 HD
HETATM    5  O   UNL     1      -1.665   4.907 -33.090  1.00  0.00    -0.274 OA
BRANCH   3   6
HETATM    6  C   UNL     1      -0.427   6.031 -30.844  1.00  0.00     0.127 C 
BRANCH   6   7
HETATM    7  C   UNL     1      -1.136   7.362 -30.587  1.00  0.00     0.060 C 
BRANCH   7   8
HETATM    8  C   UNL     1      -1.311   7.658 -29.128  1.00  0.00    -0.029 A 
HETATM    9  C   UNL     1      -0.294   8.037 -28.194  1.00  0.00    -0.002 A 
HETATM   10  C   UNL     1       1.096   8.260 -28.288  1.00  0.00     0.014 A 
HETATM   11  C   UNL     1      -0.907   8.190 -26.949  1.00  0.00     0.042 A 
HETATM   12  C   UNL     1       1.818   8.611 -27.142  1.00  0.00     0.001 A 
HETATM   13  C   UNL     1       1.176   8.753 -25.914  1.00  0.00     0.002 A 
HETATM   14  C   UNL     1      -0.201   8.547 -25.794  1.00  0.00     0.030 A 
HETATM   15  N   UNL     1      -2.246   7.932 -27.122  1.00  0.00    -0.365 N 
HETATM   16  H   UNL     1      -2.937   7.975 -26.386  1.00  0.00     0.165 HD
HETATM   17  C   UNL     1      -2.501   7.609 -28.427  1.00  0.00     0.096 A 
ENDBRANCH   7   8
ENDBRANCH   6   7
ENDBRANCH   3   6
ENDBRANCH   1   2
BRANCH   1  18
HETATM   18  C   UNL     1      -4.327   3.730 -31.575  1.00  0.00     0.029 C 
BRANCH  18  19
HETATM   19  C   UNL     1      -5.140   2.584 -30.964  1.00  0.00     0.135 C 
BRANCH  19  20
HETATM   20  N   UNL     1      -5.512   1.568 -31.959  1.00  0.00    -0.290 N 
HETATM   21  C   UNL     1      -6.510   1.798 -32.906  1.00  0.00     0.181 A 
HETATM   22  S   UNL     1      -7.453   3.175 -33.070  1.00  0.00    -0.040 SA
HETATM   23  N   UNL     1      -6.747   0.797 -33.810  1.00  0.00    -0.332 N 
HETATM   24  C   UNL     1      -6.059  -0.412 -33.836  1.00  0.00     0.050 A 
HETATM   25  H   UNL     1      -7.465   0.982 -34.503  1.00  0.00     0.168 HD
HETATM   26  C   UNL     1      -5.087  -0.671 -32.880  1.00  0.00     0.060 A 
HETATM   27  C   UNL     1      -6.346  -1.355 -34.823  1.00  0.00     0.032 A 
HETATM   28  C   UNL     1      -4.810   0.357 -31.860  1.00  0.00     0.262 A 
HETATM   29  C   UNL     1      -4.384  -1.880 -32.895  1.00  0.00     0.038 A 
HETATM   30  O   UNL     1      -3.986   0.108 -30.981  1.00  0.00    -0.267 OA
HETATM   31  C   UNL     1      -4.668  -2.819 -33.884  1.00  0.00     0.012 A 
HETATM   32  C   UNL     1      -5.645  -2.563 -34.848  1.00  0.00     0.021 A 
HETATM   33 BR   UNL     1      -3.720  -4.455 -33.924  1.00  0.00    -0.051 Br
ENDBRANCH  19  20
ENDBRANCH  18  19
ENDBRANCH   1  18
TORSDOF 7
ENDMDL
MODEL 7
REMARK VINA RESULT:      -8.5      3.682      9.113
REMARK  7 active torsions:
REMARK  status: ('A' for Active; 'I' for Inactive)
REMARK    1  A    between atoms: C_8  and  C_9 
REMARK    2  A    between atoms: C_9  and  C_10 
REMARK    3  A    between atoms: C_10  and  N_11 
REMARK       I    between atoms: N_11  and  C_12 
REMARK    4  A    between atoms: C_12  and  C_13 
REMARK    5  A    between atoms: C_13  and  C_14 
REMARK    6  A    between atoms: C_14  and  C_15 
REMARK    7  A    between atoms: C_15  and  N_16 
ROOT
HETATM    1  C   UNL     1      -7.910   4.136 -30.875  1.00  0.00     0.104 C 
ENDROOT
BRANCH   1   2
HETATM    2  C   UNL     1      -8.255   2.891 -31.664  1.00  0.00     0.217 C 
HETATM    3  N   UNL     1      -7.392   1.836 -31.484  1.00  0.00    -0.361 N 
HETATM    4  H   UNL     1      -6.459   2.035 -31.140  1.00  0.00     0.162 HD
HETATM    5  O   UNL     1      -9.264   2.828 -32.361  1.00  0.00    -0.274 OA
BRANCH   3   6
HETATM    6  C   UNL     1      -7.577   0.597 -32.220  1.00  0.00     0.127 C 
BRANCH   6   7
HETATM    7  C   UNL     1      -6.823   0.574 -33.552  1.00  0.00     0.060 C 
BRANCH   7   8
HETATM    8  C   UNL     1      -5.743  -0.462 -33.593  1.00  0.00    -0.029 A 
HETATM    9  C   UNL     1      -5.860  -1.818 -34.042  1.00  0.00    -0.002 A 
HETATM   10  C   UNL     1      -6.916  -2.593 -34.564  1.00  0.00     0.014 A 
HETATM   11  C   UNL     1      -4.611  -2.419 -33.883  1.00  0.00     0.042 A 
HETATM   12  C   UNL     1      -6.689  -3.935 -34.893  1.00  0.00     0.001 A 
HETATM   13  C   UNL     1      -5.431  -4.506 -34.720  1.00  0.00     0.002 A 
HETATM   14  C   UNL     1      -4.365  -3.757 -34.213  1.00  0.00     0.030 A 
HETATM   15  N   UNL     1      -3.762  -1.465 -33.375  1.00  0.00    -0.365 N 
HETATM   16  H   UNL     1      -2.785  -1.619 -33.166  1.00  0.00     0.165 HD
HETATM   17  C   UNL     1      -4.431  -0.285 -33.195  1.00  0.00     0.096 A 
ENDBRANCH   7   8
ENDBRANCH   6   7
ENDBRANCH   3   6
ENDBRANCH   1   2
BRANCH   1  18
HETATM   18  C   UNL     1      -6.409   4.352 -30.708  1.00  0.00     0.029 C 
BRANCH  18  19
HETATM   19  C   UNL     1      -6.013   5.741 -31.218  1.00  0.00     0.135 C 
BRANCH  19  20
HETATM   20  N   UNL     1      -4.566   5.864 -31.444  1.00  0.00    -0.290 N 
HETATM   21  C   UNL     1      -3.982   5.532 -32.666  1.00  0.00     0.181 A 
HETATM   22  S   UNL     1      -4.755   4.928 -34.027  1.00  0.00    -0.040 SA
HETATM   23  N   UNL     1      -2.631   5.722 -32.779  1.00  0.00    -0.332 N 
HETATM   24  C   UNL     1      -1.825   6.222 -31.761  1.00  0.00     0.050 A 
HETATM   25  H   UNL     1      -2.221   5.491 -33.678  1.00  0.00     0.168 HD
HETATM   26  C   UNL     1      -2.383   6.525 -30.527  1.00  0.00     0.060 A 
HETATM   27  C   UNL     1      -0.462   6.419 -31.986  1.00  0.00     0.032 A 
HETATM   28  C   UNL     1      -3.829   6.310 -30.336  1.00  0.00     0.262 A 
HETATM   29  C   UNL     1      -1.586   7.032 -29.495  1.00  0.00     0.038 A 
HETATM   30  O   UNL     1      -4.315   6.529 -29.228  1.00  0.00    -0.267 OA
HETATM   31  C   UNL     1      -0.227   7.233 -29.722  1.00  0.00     0.012 A 
HETATM   32  C   UNL     1       0.340   6.930 -30.962  1.00  0.00     0.021 A 
HETATM   33 BR   UNL     1       0.863   7.926 -28.341  1.00  0.00    -0.051 Br
ENDBRANCH  19  20
ENDBRANCH  18  19
ENDBRANCH   1  18
TORSDOF 7
ENDMDL
MODEL 8
REMARK VINA RESULT:      -8.5      4.624      7.794
REMARK  7 active torsions:
REMARK  status: ('A' for Active; 'I' for Inactive)
REMARK    1  A    between atoms: C_8  and  C_9 
REMARK    2  A    between atoms: C_9  and  C_10 
REMARK    3  A    between atoms: C_10  and  N_11 
REMARK       I    between atoms: N_11  and  C_12 
REMARK    4  A    between atoms: C_12  and  C_13 
REMARK    5  A    between atoms: C_13  and  C_14 
REMARK    6  A    between atoms: C_14  and  C_15 
REMARK    7  A    between atoms: C_15  and  N_16 
ROOT
HETATM    1  C   UNL     1     -11.406   2.884 -34.587  1.00  0.00     0.104 C 
ENDROOT
BRANCH   1   2
HETATM    2  C   UNL     1     -10.681   1.620 -34.179  1.00  0.00     0.217 C 
HETATM    3  N   UNL     1      -9.385   1.528 -34.631  1.00  0.00    -0.361 N 
HETATM    4  H   UNL     1      -9.117   2.087 -35.433  1.00  0.00     0.162 HD
HETATM    5  O   UNL     1     -11.204   0.782 -33.451  1.00  0.00    -0.274 OA
BRANCH   3   6
HETATM    6  C   UNL     1      -8.590   0.343 -34.354  1.00  0.00     0.127 C 
BRANCH   6   7
HETATM    7  C   UNL     1      -7.195   0.401 -34.979  1.00  0.00     0.060 C 
BRANCH   7   8
HETATM    8  C   UNL     1      -6.300  -0.707 -34.514  1.00  0.00    -0.029 A 
HETATM    9  C   UNL     1      -5.282  -0.633 -33.508  1.00  0.00    -0.002 A 
HETATM   10  C   UNL     1      -4.804   0.392 -32.666  1.00  0.00     0.014 A 
HETATM   11  C   UNL     1      -4.691  -1.894 -33.421  1.00  0.00     0.042 A 
HETATM   12  C   UNL     1      -3.750   0.124 -31.783  1.00  0.00     0.001 A 
HETATM   13  C   UNL     1      -3.181  -1.145 -31.722  1.00  0.00     0.002 A 
HETATM   14  C   UNL     1      -3.641  -2.181 -32.539  1.00  0.00     0.030 A 
HETATM   15  N   UNL     1      -5.333  -2.708 -34.323  1.00  0.00    -0.365 N 
HETATM   16  H   UNL     1      -5.116  -3.684 -34.471  1.00  0.00     0.165 HD
HETATM   17  C   UNL     1      -6.301  -2.005 -34.988  1.00  0.00     0.096 A 
ENDBRANCH   7   8
ENDBRANCH   6   7
ENDBRANCH   3   6
ENDBRANCH   1   2
BRANCH   1  18
HETATM   18  C   UNL     1     -10.470   4.016 -34.998  1.00  0.00     0.029 C 
BRANCH  18  19
HETATM   19  C   UNL     1     -10.352   5.045 -33.870  1.00  0.00     0.135 C 
BRANCH  19  20
HETATM   20  N   UNL     1      -9.391   4.637 -32.836  1.00  0.00    -0.290 N 
HETATM   21  C   UNL     1      -9.805   4.205 -31.576  1.00  0.00     0.181 A 
HETATM   22  S   UNL     1     -11.380   4.106 -31.007  1.00  0.00    -0.040 SA
HETATM   23  N   UNL     1      -8.826   3.811 -30.704  1.00  0.00    -0.332 N 
HETATM   24  C   UNL     1      -7.467   3.815 -31.001  1.00  0.00     0.050 A 
HETATM   25  H   UNL     1      -9.142   3.485 -29.796  1.00  0.00     0.168 HD
HETATM   26  C   UNL     1      -7.035   4.273 -32.237  1.00  0.00     0.060 A 
HETATM   27  C   UNL     1      -6.548   3.355 -30.058  1.00  0.00     0.032 A 
HETATM   28  C   UNL     1      -8.041   4.742 -33.207  1.00  0.00     0.262 A 
HETATM   29  C   UNL     1      -5.671   4.280 -32.552  1.00  0.00     0.038 A 
HETATM   30  O   UNL     1      -7.656   5.197 -34.282  1.00  0.00    -0.267 OA
HETATM   31  C   UNL     1      -4.755   3.816 -31.611  1.00  0.00     0.012 A 
HETATM   32  C   UNL     1      -5.185   3.354 -30.366  1.00  0.00     0.021 A 
HETATM   33 BR   UNL     1      -2.909   3.810 -32.025  1.00  0.00    -0.051 Br
ENDBRANCH  19  20
ENDBRANCH  18  19
ENDBRANCH   1  18
TORSDOF 7
ENDMDL
MODEL 9
REMARK VINA RESULT:      -8.4      3.260      8.549
REMARK  7 active torsions:
REMARK  status: ('A' for Active; 'I' for Inactive)
REMARK    1  A    between atoms: C_8  and  C_9 
REMARK    2  A    between atoms: C_9  and  C_10 
REMARK    3  A    between atoms: C_10  and  N_11 
REMARK       I    between atoms: N_11  and  C_12 
REMARK    4  A    between atoms: C_12  and  C_13 
REMARK    5  A    between atoms: C_13  and  C_14 
REMARK    6  A    between atoms: C_14  and  C_15 
REMARK    7  A    between atoms: C_15  and  N_16 
ROOT
HETATM    1  C   UNL     1      -9.225   2.574 -31.013  1.00  0.00     0.104 C 
ENDROOT
BRANCH   1   2
HETATM    2  C   UNL     1      -9.368   1.579 -32.146  1.00  0.00     0.217 C 
HETATM    3  N   UNL     1      -8.237   0.845 -32.415  1.00  0.00    -0.361 N 
HETATM    4  H   UNL     1      -7.344   1.213 -32.109  1.00  0.00     0.162 HD
HETATM    5  O   UNL     1     -10.436   1.414 -32.729  1.00  0.00    -0.274 OA
BRANCH   3   6
HETATM    6  C   UNL     1      -8.221  -0.111 -33.509  1.00  0.00     0.127 C 
BRANCH   6   7
HETATM    7  C   UNL     1      -7.018   0.066 -34.438  1.00  0.00     0.060 C 
BRANCH   7   8
HETATM    8  C   UNL     1      -5.863  -0.816 -34.072  1.00  0.00    -0.029 A 
HETATM    9  C   UNL     1      -5.736  -2.221 -34.315  1.00  0.00    -0.002 A 
HETATM   10  C   UNL     1      -6.553  -3.191 -34.932  1.00  0.00     0.014 A 
HETATM   11  C   UNL     1      -4.509  -2.627 -33.787  1.00  0.00     0.042 A 
HETATM   12  C   UNL     1      -6.125  -4.523 -34.985  1.00  0.00     0.001 A 
HETATM   13  C   UNL     1      -4.895  -4.895 -34.446  1.00  0.00     0.002 A 
HETATM   14  C   UNL     1      -4.062  -3.953 -33.838  1.00  0.00     0.030 A 
HETATM   15  N   UNL     1      -3.906  -1.511 -33.260  1.00  0.00    -0.365 N 
HETATM   16  H   UNL     1      -2.998  -1.506 -32.815  1.00  0.00     0.165 HD
HETATM   17  C   UNL     1      -4.710  -0.416 -33.422  1.00  0.00     0.096 A 
ENDBRANCH   7   8
ENDBRANCH   6   7
ENDBRANCH   3   6
ENDBRANCH   1   2
BRANCH   1  18
HETATM   18  C   UNL     1      -7.780   2.981 -30.743  1.00  0.00     0.029 C 
BRANCH  18  19
HETATM   19  C   UNL     1      -7.655   4.508 -30.719  1.00  0.00     0.135 C 
BRANCH  19  20
HETATM   20  N   UNL     1      -6.255   4.956 -30.724  1.00  0.00    -0.290 N 
HETATM   21  C   UNL     1      -5.620   5.396 -29.563  1.00  0.00     0.181 A 
HETATM   22  S   UNL     1      -6.290   5.531 -28.031  1.00  0.00    -0.040 SA
HETATM   23  N   UNL     1      -4.303   5.753 -29.675  1.00  0.00    -0.332 N 
HETATM   24  C   UNL     1      -3.577   5.699 -30.861  1.00  0.00     0.050 A 
HETATM   25  H   UNL     1      -3.849   6.057 -28.820  1.00  0.00     0.168 HD
HETATM   26  C   UNL     1      -4.202   5.296 -32.032  1.00  0.00     0.060 A 
HETATM   27  C   UNL     1      -2.226   6.045 -30.865  1.00  0.00     0.032 A 
HETATM   28  C   UNL     1      -5.629   4.931 -31.980  1.00  0.00     0.262 A 
HETATM   29  C   UNL     1      -3.484   5.233 -33.232  1.00  0.00     0.038 A 
HETATM   30  O   UNL     1      -6.198   4.623 -33.027  1.00  0.00    -0.267 OA
HETATM   31  C   UNL     1      -2.134   5.575 -33.234  1.00  0.00     0.012 A 
HETATM   32  C   UNL     1      -1.501   5.980 -32.058  1.00  0.00     0.021 A 
HETATM   33 BR   UNL     1      -1.148   5.486 -34.845  1.00  0.00    -0.051 Br
ENDBRANCH  19  20
ENDBRANCH  18  19
ENDBRANCH   1  18
TORSDOF 7
ENDMDL
MODEL 10
REMARK VINA RESULT:      -8.2      3.002      3.972
REMARK  7 active torsions:
REMARK  status: ('A' for Active; 'I' for Inactive)
REMARK    1  A    between atoms: C_8  and  C_9 
REMARK    2  A    between atoms: C_9  and  C_10 
REMARK    3  A    between atoms: C_10  and  N_11 
REMARK       I    between atoms: N_11  and  C_12 
REMARK    4  A    between atoms: C_12  and  C_13 
REMARK    5  A    between atoms: C_13  and  C_14 
REMARK    6  A    between atoms: C_14  and  C_15 
REMARK    7  A    between atoms: C_15  and  N_16 
ROOT
HETATM    1  C   UNL     1      -8.056   5.281 -30.522  1.00  0.00     0.104 C 
ENDROOT
BRANCH   1   2
HETATM    2  C   UNL     1      -6.675   4.714 -30.274  1.00  0.00     0.217 C 
HETATM    3  N   UNL     1      -5.973   4.390 -31.411  1.00  0.00    -0.361 N 
HETATM    4  H   UNL     1      -6.494   4.229 -32.266  1.00  0.00     0.162 HD
HETATM    5  O   UNL     1      -6.212   4.615 -29.142  1.00  0.00    -0.274 OA
BRANCH   3   6
HETATM    6  C   UNL     1      -4.652   3.790 -31.317  1.00  0.00     0.127 C 
BRANCH   6   7
HETATM    7  C   UNL     1      -3.958   3.658 -32.674  1.00  0.00     0.060 C 
BRANCH   7   8
HETATM    8  C   UNL     1      -3.118   4.850 -33.018  1.00  0.00    -0.029 A 
HETATM    9  C   UNL     1      -1.967   5.331 -32.314  1.00  0.00    -0.002 A 
HETATM   10  C   UNL     1      -1.266   4.903 -31.168  1.00  0.00     0.014 A 
HETATM   11  C   UNL     1      -1.520   6.474 -32.977  1.00  0.00     0.042 A 
HETATM   12  C   UNL     1      -0.159   5.635 -30.723  1.00  0.00     0.001 A 
HETATM   13  C   UNL     1       0.261   6.773 -31.407  1.00  0.00     0.002 A 
HETATM   14  C   UNL     1      -0.411   7.214 -32.550  1.00  0.00     0.030 A 
HETATM   15  N   UNL     1      -2.353   6.672 -34.052  1.00  0.00    -0.365 N 
HETATM   16  H   UNL     1      -2.260   7.428 -34.718  1.00  0.00     0.165 HD
HETATM   17  C   UNL     1      -3.319   5.704 -34.087  1.00  0.00     0.096 A 
ENDBRANCH   7   8
ENDBRANCH   6   7
ENDBRANCH   3   6
ENDBRANCH   1   2
BRANCH   1  18
HETATM   18  C   UNL     1      -8.692   4.787 -31.818  1.00  0.00     0.029 C 
BRANCH  18  19
HETATM   19  C   UNL     1      -9.382   3.438 -31.591  1.00  0.00     0.135 C 
BRANCH  19  20
HETATM   20  N   UNL     1      -8.958   2.421 -32.563  1.00  0.00    -0.290 N 
HETATM   21  C   UNL     1      -9.587   2.279 -33.799  1.00  0.00     0.181 A 
HETATM   22  S   UNL     1     -10.894   3.156 -34.378  1.00  0.00    -0.040 SA
HETATM   23  N   UNL     1      -9.084   1.324 -34.643  1.00  0.00    -0.332 N 
HETATM   24  C   UNL     1      -8.000   0.507 -34.341  1.00  0.00     0.050 A 
HETATM   25  H   UNL     1      -9.541   1.241 -35.545  1.00  0.00     0.168 HD
HETATM   26  C   UNL     1      -7.384   0.612 -33.102  1.00  0.00     0.060 A 
HETATM   27  C   UNL     1      -7.536  -0.410 -35.284  1.00  0.00     0.032 A 
HETATM   28  C   UNL     1      -7.902   1.599 -32.138  1.00  0.00     0.262 A 
HETATM   29  C   UNL     1      -6.290  -0.202 -32.785  1.00  0.00     0.038 A 
HETATM   30  O   UNL     1      -7.391   1.657 -31.021  1.00  0.00    -0.267 OA
HETATM   31  C   UNL     1      -5.824  -1.113 -33.729  1.00  0.00     0.012 A 
HETATM   32  C   UNL     1      -6.440  -1.222 -34.977  1.00  0.00     0.021 A 
HETATM   33 BR   UNL     1      -4.341  -2.212 -33.319  1.00  0.00    -0.051 Br
ENDBRANCH  19  20
ENDBRANCH  18  19
ENDBRANCH   1  18
TORSDOF 7
ENDMDL
