MODEL 1
REMARK VINA RESULT:      -9.4      0.000      0.000
REMARK  5 active torsions:
REMARK  status: ('A' for Active; 'I' for Inactive)
REMARK    1  A    between atoms: C_7  and  C_8 
REMARK    2  A    between atoms: C_16  and  C_17 
REMARK    3  A    between atoms: C_19  and  O_20 
REMARK    4  A    between atoms: C_24  and  C_25 
REMARK       I    between atoms: C_25  and  N_26 
REMARK    5  A    between atoms: N_26  and  C_27 
ROOT
HETATM    1  C   UNL     1      -7.989   5.719 -30.324  1.00  0.00     0.070 C 
HETATM    2  C   UNL     1      -6.997   4.716 -30.862  1.00  0.00     0.037 C 
HETATM    3  N   UNL     1      -7.523   3.740 -31.710  1.00  0.00    -0.192 N 
HETATM    4  C   UNL     1      -6.828   2.646 -32.078  1.00  0.00     0.726 A 
HETATM    5  N   UNL     1      -5.498   2.576 -31.784  1.00  0.00    -0.083 N 
HETATM    6  N   UNL     1      -4.965   1.399 -32.156  1.00  0.00    -0.135 NA
HETATM    7  C   UNL     1      -6.026   0.799 -32.727  1.00  0.00     0.199 A 
HETATM    8  N   UNL     1      -7.194   1.546 -32.681  1.00  0.00    -0.041 NA
HETATM    9  C   UNL     1      -4.740   3.658 -31.153  1.00  0.00     0.202 C 
HETATM   10  C   UNL     1      -5.673   4.710 -30.561  1.00  0.00     0.062 C 
HETATM   11  H   UNL     1      -8.536   3.719 -31.813  1.00  0.00     0.184 HD
ENDROOT
BRANCH  10  12
HETATM   12  C   UNL     1      -5.140   5.581 -29.472  1.00  0.00     0.256 C 
HETATM   13  N   UNL     1      -4.395   6.653 -29.911  1.00  0.00    -0.323 N 
HETATM   14  H   UNL     1      -4.295   6.797 -30.906  1.00  0.00     0.169 HD
HETATM   15  O   UNL     1      -5.360   5.275 -28.306  1.00  0.00    -0.267 OA
BRANCH  13  16
HETATM   16  C   UNL     1      -3.720   7.608 -29.118  1.00  0.00     0.035 A 
HETATM   17  C   UNL     1      -4.353   8.641 -28.425  1.00  0.00     0.029 A 
HETATM   18  C   UNL     1      -3.605   9.544 -27.663  1.00  0.00     0.002 A 
HETATM   19  C   UNL     1      -2.222   9.417 -27.579  1.00  0.00     0.000 A 
HETATM   20  C   UNL     1      -1.580   8.389 -28.264  1.00  0.00     0.002 A 
HETATM   21  C   UNL     1      -2.325   7.493 -29.036  1.00  0.00     0.029 A 
ENDBRANCH  13  16
ENDBRANCH  10  12
BRANCH   9  22
HETATM   22  C   UNL     1      -3.759   4.225 -32.180  1.00  0.00    -0.025 A 
HETATM   23  C   UNL     1      -4.189   4.685 -33.440  1.00  0.00     0.046 A 
HETATM   24  C   UNL     1      -3.268   5.211 -34.342  1.00  0.00     0.066 A 
HETATM   25  C   UNL     1      -1.919   5.281 -34.023  1.00  0.00     0.036 A 
HETATM   26  C   UNL     1      -1.476   4.808 -32.790  1.00  0.00     0.003 A 
HETATM   27  C   UNL     1      -2.388   4.283 -31.873  1.00  0.00     0.010 A 
BRANCH  24  28
HETATM   28  O   UNL     1      -3.656   5.678 -35.561  1.00  0.00    -0.361 OA
HETATM   29  H   UNL     1      -4.620   5.598 -35.643  1.00  0.00     0.217 HD
ENDBRANCH  24  28
ENDBRANCH   9  22
BRANCH   7  30
HETATM   30  C   UNL     1      -5.966  -0.521 -33.350  1.00  0.00     0.014 A 
HETATM   31  C   UNL     1      -4.741  -1.188 -33.503  1.00  0.00     0.017 A 
HETATM   32  C   UNL     1      -4.683  -2.447 -34.109  1.00  0.00     0.025 A 
HETATM   33  C   UNL     1      -5.854  -3.048 -34.563  1.00  0.00     0.034 A 
HETATM   34 CL   UNL     1      -5.785  -4.596 -35.310  1.00  0.00    -0.084 Cl
HETATM   35  C   UNL     1      -7.080  -2.403 -34.418  1.00  0.00     0.025 A 
HETATM   36  C   UNL     1      -7.136  -1.141 -33.814  1.00  0.00     0.017 A 
ENDBRANCH   7  30
TORSDOF 5
ENDMDL
MODEL 2
REMARK VINA RESULT:      -9.4      1.647      1.825
REMARK  5 active torsions:
REMARK  status: ('A' for Active; 'I' for Inactive)
REMARK    1  A    between atoms: C_7  and  C_8 
REMARK    2  A    between atoms: C_16  and  C_17 
REMARK    3  A    between atoms: C_19  and  O_20 
REMARK    4  A    between atoms: C_24  and  C_25 
REMARK       I    between atoms: C_25  and  N_26 
REMARK    5  A    between atoms: N_26  and  C_27 
ROOT
HETATM    1  C   UNL     1      -7.352   5.702 -30.113  1.00  0.00     0.070 C 
HETATM    2  C   UNL     1      -6.226   4.827 -30.608  1.00  0.00     0.037 C 
HETATM    3  N   UNL     1      -6.611   3.638 -31.229  1.00  0.00    -0.192 N 
HETATM    4  C   UNL     1      -5.741   2.648 -31.508  1.00  0.00     0.726 A 
HETATM    5  N   UNL     1      -4.404   2.882 -31.368  1.00  0.00    -0.083 N 
HETATM    6  N   UNL     1      -3.675   1.781 -31.620  1.00  0.00    -0.135 NA
HETATM    7  C   UNL     1      -4.635   0.902 -31.962  1.00  0.00     0.199 A 
HETATM    8  N   UNL     1      -5.923   1.412 -31.890  1.00  0.00    -0.041 NA
HETATM    9  C   UNL     1      -3.833   4.180 -31.004  1.00  0.00     0.202 C 
HETATM   10  C   UNL     1      -4.908   5.123 -30.470  1.00  0.00     0.062 C 
HETATM   11  H   UNL     1      -7.603   3.409 -31.206  1.00  0.00     0.184 HD
ENDROOT
BRANCH  10  12
HETATM   12  C   UNL     1      -4.472   6.253 -29.597  1.00  0.00     0.256 C 
HETATM   13  N   UNL     1      -4.493   5.975 -28.249  1.00  0.00    -0.323 N 
HETATM   14  H   UNL     1      -4.754   5.044 -27.951  1.00  0.00     0.169 HD
HETATM   15  O   UNL     1      -4.173   7.322 -30.116  1.00  0.00    -0.267 OA
BRANCH  13  16
HETATM   16  C   UNL     1      -4.192   6.857 -27.188  1.00  0.00     0.035 A 
HETATM   17  C   UNL     1      -5.035   7.884 -26.758  1.00  0.00     0.029 A 
HETATM   18  C   UNL     1      -4.657   8.712 -25.697  1.00  0.00     0.002 A 
HETATM   19  C   UNL     1      -3.440   8.516 -25.050  1.00  0.00     0.000 A 
HETATM   20  C   UNL     1      -2.593   7.494 -25.469  1.00  0.00     0.002 A 
HETATM   21  C   UNL     1      -2.964   6.673 -26.537  1.00  0.00     0.029 A 
ENDBRANCH  13  16
ENDBRANCH  10  12
BRANCH   9  22
HETATM   22  C   UNL     1      -3.083   4.737 -32.215  1.00  0.00    -0.025 A 
HETATM   23  C   UNL     1      -3.721   4.929 -33.457  1.00  0.00     0.046 A 
HETATM   24  C   UNL     1      -3.009   5.455 -34.531  1.00  0.00     0.066 A 
HETATM   25  C   UNL     1      -1.667   5.786 -34.403  1.00  0.00     0.036 A 
HETATM   26  C   UNL     1      -1.018   5.580 -33.188  1.00  0.00     0.003 A 
HETATM   27  C   UNL     1      -1.719   5.059 -32.100  1.00  0.00     0.010 A 
BRANCH  24  28
HETATM   28  O   UNL     1      -3.601   5.666 -35.740  1.00  0.00    -0.361 OA
HETATM   29  H   UNL     1      -4.018   4.842 -36.040  1.00  0.00     0.217 HD
ENDBRANCH  24  28
ENDBRANCH   9  22
BRANCH   7  30
HETATM   30  C   UNL     1      -4.359  -0.470 -32.381  1.00  0.00     0.014 A 
HETATM   31  C   UNL     1      -3.475  -1.279 -31.652  1.00  0.00     0.017 A 
HETATM   32  C   UNL     1      -3.203  -2.589 -32.059  1.00  0.00     0.025 A 
HETATM   33  C   UNL     1      -3.820  -3.098 -33.199  1.00  0.00     0.034 A 
HETATM   34 CL   UNL     1      -3.486  -4.709 -33.703  1.00  0.00    -0.084 Cl
HETATM   35  C   UNL     1      -4.702  -2.311 -33.935  1.00  0.00     0.025 A 
HETATM   36  C   UNL     1      -4.971  -0.999 -33.528  1.00  0.00     0.017 A 
ENDBRANCH   7  30
TORSDOF 5
ENDMDL
MODEL 3
REMARK VINA RESULT:      -9.1      1.861      2.459
REMARK  5 active torsions:
REMARK  status: ('A' for Active; 'I' for Inactive)
REMARK    1  A    between atoms: C_7  and  C_8 
REMARK    2  A    between atoms: C_16  and  C_17 
REMARK    3  A    between atoms: C_19  and  O_20 
REMARK    4  A    between atoms: C_24  and  C_25 
REMARK       I    between atoms: C_25  and  N_26 
REMARK    5  A    between atoms: N_26  and  C_27 
ROOT
HETATM    1  C   UNL     1      -5.874   6.350 -29.307  1.00  0.00     0.070 C 
HETATM    2  C   UNL     1      -4.983   5.391 -30.058  1.00  0.00     0.037 C 
HETATM    3  N   UNL     1      -5.599   4.227 -30.519  1.00  0.00    -0.192 N 
HETATM    4  C   UNL     1      -4.904   3.173 -30.990  1.00  0.00     0.726 A 
HETATM    5  N   UNL     1      -3.565   3.311 -31.218  1.00  0.00    -0.083 N 
HETATM    6  N   UNL     1      -3.006   2.157 -31.622  1.00  0.00    -0.135 NA
HETATM    7  C   UNL     1      -4.079   1.348 -31.671  1.00  0.00     0.199 A 
HETATM    8  N   UNL     1      -5.264   1.950 -31.273  1.00  0.00    -0.041 NA
HETATM    9  C   UNL     1      -2.832   4.568 -31.056  1.00  0.00     0.202 C 
HETATM   10  C   UNL     1      -3.659   5.592 -30.284  1.00  0.00     0.062 C 
HETATM   11  H   UNL     1      -6.562   4.071 -30.227  1.00  0.00     0.184 HD
ENDROOT
BRANCH  10  12
HETATM   12  C   UNL     1      -2.931   6.697 -29.592  1.00  0.00     0.256 C 
HETATM   13  N   UNL     1      -1.746   6.318 -29.002  1.00  0.00    -0.323 N 
HETATM   14  H   UNL     1      -1.437   5.361 -29.107  1.00  0.00     0.169 HD
HETATM   15  O   UNL     1      -3.435   7.813 -29.564  1.00  0.00    -0.267 OA
BRANCH  13  16
HETATM   16  C   UNL     1      -0.876   7.123 -28.234  1.00  0.00     0.035 A 
HETATM   17  C   UNL     1      -1.144   7.546 -26.931  1.00  0.00     0.029 A 
HETATM   18  C   UNL     1      -0.224   8.344 -26.243  1.00  0.00     0.002 A 
HETATM   19  C   UNL     1       0.973   8.717 -26.847  1.00  0.00     0.000 A 
HETATM   20  C   UNL     1       1.252   8.300 -28.145  1.00  0.00     0.002 A 
HETATM   21  C   UNL     1       0.328   7.513 -28.838  1.00  0.00     0.029 A 
ENDBRANCH  13  16
ENDBRANCH  10  12
BRANCH   9  22
HETATM   22  C   UNL     1      -2.398   5.057 -32.439  1.00  0.00    -0.025 A 
HETATM   23  C   UNL     1      -3.283   5.063 -33.535  1.00  0.00     0.046 A 
HETATM   24  C   UNL     1      -2.856   5.532 -34.774  1.00  0.00     0.066 A 
HETATM   25  C   UNL     1      -1.557   5.987 -34.954  1.00  0.00     0.036 A 
HETATM   26  C   UNL     1      -0.663   5.965 -33.885  1.00  0.00     0.003 A 
HETATM   27  C   UNL     1      -1.079   5.503 -32.636  1.00  0.00     0.010 A 
BRANCH  24  28
HETATM   28  O   UNL     1      -3.693   5.565 -35.848  1.00  0.00    -0.361 OA
HETATM   29  H   UNL     1      -4.017   4.667 -36.028  1.00  0.00     0.217 HD
ENDBRANCH  24  28
ENDBRANCH   9  22
BRANCH   7  30
HETATM   30  C   UNL     1      -4.018  -0.045 -32.108  1.00  0.00     0.014 A 
HETATM   31  C   UNL     1      -3.121  -0.945 -31.512  1.00  0.00     0.017 A 
HETATM   32  C   UNL     1      -3.056  -2.276 -31.938  1.00  0.00     0.025 A 
HETATM   33  C   UNL     1      -3.893  -2.714 -32.961  1.00  0.00     0.034 A 
HETATM   34 CL   UNL     1      -3.813  -4.350 -33.488  1.00  0.00    -0.084 Cl
HETATM   35  C   UNL     1      -4.791  -1.836 -33.563  1.00  0.00     0.025 A 
HETATM   36  C   UNL     1      -4.853  -0.504 -33.138  1.00  0.00     0.017 A 
ENDBRANCH   7  30
TORSDOF 5
ENDMDL
MODEL 4
REMARK VINA RESULT:      -8.9      1.773      2.201
REMARK  5 active torsions:
REMARK  status: ('A' for Active; 'I' for Inactive)
REMARK    1  A    between atoms: C_7  and  C_8 
REMARK    2  A    between atoms: C_16  and  C_17 
REMARK    3  A    between atoms: C_19  and  O_20 
REMARK    4  A    between atoms: C_24  and  C_25 
REMARK       I    between atoms: C_25  and  N_26 
REMARK    5  A    between atoms: N_26  and  C_27 
ROOT
HETATM    1  C   UNL     1      -8.550   6.259 -33.062  1.00  0.00     0.070 C 
HETATM    2  C   UNL     1      -7.484   5.192 -32.986  1.00  0.00     0.037 C 
HETATM    3  N   UNL     1      -7.706   4.059 -33.769  1.00  0.00    -0.192 N 
HETATM    4  C   UNL     1      -6.984   2.929 -33.634  1.00  0.00     0.726 A 
HETATM    5  N   UNL     1      -5.866   2.947 -32.851  1.00  0.00    -0.083 N 
HETATM    6  N   UNL     1      -5.296   1.732 -32.766  1.00  0.00    -0.135 NA
HETATM    7  C   UNL     1      -6.097   1.009 -33.571  1.00  0.00     0.199 A 
HETATM    8  N   UNL     1      -7.155   1.725 -34.111  1.00  0.00    -0.041 NA
HETATM    9  C   UNL     1      -5.343   4.147 -32.198  1.00  0.00     0.202 C 
HETATM   10  C   UNL     1      -6.372   5.275 -32.212  1.00  0.00     0.062 C 
HETATM   11  H   UNL     1      -8.605   3.996 -34.241  1.00  0.00     0.184 HD
ENDROOT
BRANCH  10  12
HETATM   12  C   UNL     1      -6.239   6.353 -31.187  1.00  0.00     0.256 C 
HETATM   13  N   UNL     1      -5.424   7.398 -31.560  1.00  0.00    -0.323 N 
HETATM   14  H   UNL     1      -5.016   7.387 -32.485  1.00  0.00     0.169 HD
HETATM   15  O   UNL     1      -6.811   6.222 -30.112  1.00  0.00    -0.267 OA
BRANCH  13  16
HETATM   16  C   UNL     1      -5.066   8.522 -30.784  1.00  0.00     0.035 A 
HETATM   17  C   UNL     1      -4.137   8.493 -29.742  1.00  0.00     0.029 A 
HETATM   18  C   UNL     1      -3.841   9.657 -29.025  1.00  0.00     0.002 A 
HETATM   19  C   UNL     1      -4.463  10.860 -29.349  1.00  0.00     0.000 A 
HETATM   20  C   UNL     1      -5.389  10.901 -30.387  1.00  0.00     0.002 A 
HETATM   21  C   UNL     1      -5.694   9.736 -31.097  1.00  0.00     0.029 A 
ENDBRANCH  13  16
ENDBRANCH  10  12
BRANCH   9  22
HETATM   22  C   UNL     1      -4.019   4.526 -32.865  1.00  0.00    -0.025 A 
HETATM   23  C   UNL     1      -2.803   4.520 -32.154  1.00  0.00     0.046 A 
HETATM   24  C   UNL     1      -1.616   4.853 -32.800  1.00  0.00     0.066 A 
HETATM   25  C   UNL     1      -1.611   5.206 -34.143  1.00  0.00     0.036 A 
HETATM   26  C   UNL     1      -2.809   5.239 -34.853  1.00  0.00     0.003 A 
HETATM   27  C   UNL     1      -4.006   4.902 -34.220  1.00  0.00     0.010 A 
BRANCH  24  28
HETATM   28  O   UNL     1      -0.423   4.841 -32.144  1.00  0.00    -0.361 OA
HETATM   29  H   UNL     1      -0.204   3.928 -31.894  1.00  0.00     0.217 HD
ENDBRANCH  24  28
ENDBRANCH   9  22
BRANCH   7  30
HETATM   30  C   UNL     1      -5.879  -0.405 -33.864  1.00  0.00     0.014 A 
HETATM   31  C   UNL     1      -4.651  -1.018 -33.571  1.00  0.00     0.017 A 
HETATM   32  C   UNL     1      -4.439  -2.370 -33.861  1.00  0.00     0.025 A 
HETATM   33  C   UNL     1      -5.459  -3.117 -34.444  1.00  0.00     0.034 A 
HETATM   34 CL   UNL     1      -5.200  -4.780 -34.804  1.00  0.00    -0.084 Cl
HETATM   35  C   UNL     1      -6.686  -2.527 -34.742  1.00  0.00     0.025 A 
HETATM   36  C   UNL     1      -6.895  -1.174 -34.453  1.00  0.00     0.017 A 
ENDBRANCH   7  30
TORSDOF 5
ENDMDL
MODEL 5
REMARK VINA RESULT:      -8.9      3.313      5.292
REMARK  5 active torsions:
REMARK  status: ('A' for Active; 'I' for Inactive)
REMARK    1  A    between atoms: C_7  and  C_8 
REMARK    2  A    between atoms: C_16  and  C_17 
REMARK    3  A    between atoms: C_19  and  O_20 
REMARK    4  A    between atoms: C_24  and  C_25 
REMARK       I    between atoms: C_25  and  N_26 
REMARK    5  A    between atoms: N_26  and  C_27 
ROOT
HETATM    1  C   UNL     1      -3.207   0.739 -31.198  1.00  0.00     0.070 C 
HETATM    2  C   UNL     1      -4.457   1.507 -31.554  1.00  0.00     0.037 C 
HETATM    3  N   UNL     1      -5.649   0.786 -31.487  1.00  0.00    -0.192 N 
HETATM    4  C   UNL     1      -6.808   1.248 -31.997  1.00  0.00     0.726 A 
HETATM    5  N   UNL     1      -6.877   2.545 -32.415  1.00  0.00    -0.083 N 
HETATM    6  N   UNL     1      -8.074   2.832 -32.956  1.00  0.00    -0.135 NA
HETATM    7  C   UNL     1      -8.723   1.664 -32.794  1.00  0.00     0.199 A 
HETATM    8  N   UNL     1      -7.957   0.664 -32.214  1.00  0.00    -0.041 NA
HETATM    9  C   UNL     1      -5.786   3.510 -32.275  1.00  0.00     0.202 C 
HETATM   10  C   UNL     1      -4.473   2.811 -31.934  1.00  0.00     0.062 C 
HETATM   11  H   UNL     1      -5.572  -0.213 -31.308  1.00  0.00     0.184 HD
ENDROOT
BRANCH  10  12
HETATM   12  C   UNL     1      -3.200   3.524 -32.251  1.00  0.00     0.256 C 
HETATM   13  N   UNL     1      -2.727   4.326 -31.237  1.00  0.00    -0.323 N 
HETATM   14  H   UNL     1      -3.233   4.348 -30.362  1.00  0.00     0.169 HD
HETATM   15  O   UNL     1      -2.702   3.382 -33.362  1.00  0.00    -0.267 OA
BRANCH  13  16
HETATM   16  C   UNL     1      -1.588   5.160 -31.267  1.00  0.00     0.035 A 
HETATM   17  C   UNL     1      -1.502   6.346 -31.999  1.00  0.00     0.029 A 
HETATM   18  C   UNL     1      -0.332   7.112 -31.971  1.00  0.00     0.002 A 
HETATM   19  C   UNL     1       0.757   6.705 -31.203  1.00  0.00     0.000 A 
HETATM   20  C   UNL     1       0.681   5.526 -30.468  1.00  0.00     0.002 A 
HETATM   21  C   UNL     1      -0.483   4.753 -30.505  1.00  0.00     0.029 A 
ENDBRANCH  13  16
ENDBRANCH  10  12
BRANCH   9  22
HETATM   22  C   UNL     1      -6.198   4.563 -31.244  1.00  0.00    -0.025 A 
HETATM   23  C   UNL     1      -6.272   4.264 -29.870  1.00  0.00     0.046 A 
HETATM   24  C   UNL     1      -6.634   5.254 -28.960  1.00  0.00     0.066 A 
HETATM   25  C   UNL     1      -6.938   6.538 -29.388  1.00  0.00     0.036 A 
HETATM   26  C   UNL     1      -6.892   6.842 -30.747  1.00  0.00     0.003 A 
HETATM   27  C   UNL     1      -6.526   5.862 -31.671  1.00  0.00     0.010 A 
BRANCH  24  28
HETATM   28  O   UNL     1      -6.699   5.000 -27.623  1.00  0.00    -0.361 OA
HETATM   29  H   UNL     1      -6.573   4.049 -27.471  1.00  0.00     0.217 HD
ENDBRANCH  24  28
ENDBRANCH   9  22
BRANCH   7  30
HETATM   30  C   UNL     1     -10.115   1.455 -33.186  1.00  0.00     0.014 A 
HETATM   31  C   UNL     1     -10.900   2.524 -33.644  1.00  0.00     0.017 A 
HETATM   32  C   UNL     1     -12.235   2.326 -34.009  1.00  0.00     0.025 A 
HETATM   33  C   UNL     1     -12.792   1.052 -33.922  1.00  0.00     0.034 A 
HETATM   34 CL   UNL     1     -14.435   0.805 -34.369  1.00  0.00    -0.084 Cl
HETATM   35  C   UNL     1     -12.027  -0.022 -33.471  1.00  0.00     0.025 A 
HETATM   36  C   UNL     1     -10.692   0.179 -33.103  1.00  0.00     0.017 A 
ENDBRANCH   7  30
TORSDOF 5
ENDMDL
MODEL 6
REMARK VINA RESULT:      -8.8      4.922      7.851
REMARK  5 active torsions:
REMARK  status: ('A' for Active; 'I' for Inactive)
REMARK    1  A    between atoms: C_7  and  C_8 
REMARK    2  A    between atoms: C_16  and  C_17 
REMARK    3  A    between atoms: C_19  and  O_20 
REMARK    4  A    between atoms: C_24  and  C_25 
REMARK       I    between atoms: C_25  and  N_26 
REMARK    5  A    between atoms: N_26  and  C_27 
ROOT
HETATM    1  C   UNL     1      -8.969   5.805 -31.933  1.00  0.00     0.070 C 
HETATM    2  C   UNL     1      -8.955   4.502 -32.696  1.00  0.00     0.037 C 
HETATM    3  N   UNL     1      -8.158   3.493 -32.155  1.00  0.00    -0.192 N 
HETATM    4  C   UNL     1      -7.850   2.368 -32.831  1.00  0.00     0.726 A 
HETATM    5  N   UNL     1      -8.495   2.103 -34.004  1.00  0.00    -0.083 N 
HETATM    6  N   UNL     1      -8.031   0.984 -34.587  1.00  0.00    -0.135 NA
HETATM    7  C   UNL     1      -7.121   0.574 -33.683  1.00  0.00     0.199 A 
HETATM    8  N   UNL     1      -6.982   1.421 -32.593  1.00  0.00    -0.041 NA
HETATM    9  C   UNL     1      -9.572   2.929 -34.551  1.00  0.00     0.202 C 
HETATM   10  C   UNL     1      -9.642   4.280 -33.846  1.00  0.00     0.062 C 
HETATM   11  H   UNL     1      -7.576   3.745 -31.358  1.00  0.00     0.184 HD
ENDROOT
BRANCH  10  12
HETATM   12  C   UNL     1     -10.294   5.412 -34.570  1.00  0.00     0.256 C 
HETATM   13  N   UNL     1     -11.576   5.694 -34.153  1.00  0.00    -0.323 N 
HETATM   14  H   UNL     1     -11.963   5.162 -33.385  1.00  0.00     0.169 HD
HETATM   15  O   UNL     1      -9.684   5.966 -35.476  1.00  0.00    -0.267 OA
BRANCH  13  16
HETATM   16  C   UNL     1     -12.455   6.662 -34.686  1.00  0.00     0.035 A 
HETATM   17  C   UNL     1     -12.530   7.983 -34.242  1.00  0.00     0.029 A 
HETATM   18  C   UNL     1     -13.433   8.877 -34.828  1.00  0.00     0.002 A 
HETATM   19  C   UNL     1     -14.260   8.460 -35.867  1.00  0.00     0.000 A 
HETATM   20  C   UNL     1     -14.192   7.146 -36.319  1.00  0.00     0.002 A 
HETATM   21  C   UNL     1     -13.299   6.249 -35.726  1.00  0.00     0.029 A 
ENDBRANCH  13  16
ENDBRANCH  10  12
BRANCH   9  22
HETATM   22  C   UNL     1     -10.878   2.135 -34.476  1.00  0.00    -0.025 A 
HETATM   23  C   UNL     1     -10.993   0.973 -33.689  1.00  0.00     0.046 A 
HETATM   24  C   UNL     1     -12.204   0.288 -33.631  1.00  0.00     0.066 A 
HETATM   25  C   UNL     1     -13.306   0.727 -34.352  1.00  0.00     0.036 A 
HETATM   26  C   UNL     1     -13.199   1.862 -35.154  1.00  0.00     0.003 A 
HETATM   27  C   UNL     1     -11.994   2.563 -35.217  1.00  0.00     0.010 A 
BRANCH  24  28
HETATM   28  O   UNL     1     -12.352  -0.830 -32.867  1.00  0.00    -0.361 OA
HETATM   29  H   UNL     1     -13.276  -0.897 -32.574  1.00  0.00     0.217 HD
ENDBRANCH  24  28
ENDBRANCH   9  22
BRANCH   7  30
HETATM   30  C   UNL     1      -6.344  -0.655 -33.823  1.00  0.00     0.014 A 
HETATM   31  C   UNL     1      -5.088  -0.784 -33.209  1.00  0.00     0.017 A 
HETATM   32  C   UNL     1      -4.340  -1.956 -33.351  1.00  0.00     0.025 A 
HETATM   33  C   UNL     1      -4.848  -3.011 -34.107  1.00  0.00     0.034 A 
HETATM   34 CL   UNL     1      -3.928  -4.454 -34.285  1.00  0.00    -0.084 Cl
HETATM   35  C   UNL     1      -6.093  -2.902 -34.722  1.00  0.00     0.025 A 
HETATM   36  C   UNL     1      -6.839  -1.726 -34.581  1.00  0.00     0.017 A 
ENDBRANCH   7  30
TORSDOF 5
ENDMDL
MODEL 7
REMARK VINA RESULT:      -8.8      4.617      9.372
REMARK  5 active torsions:
REMARK  status: ('A' for Active; 'I' for Inactive)
REMARK    1  A    between atoms: C_7  and  C_8 
REMARK    2  A    between atoms: C_16  and  C_17 
REMARK    3  A    between atoms: C_19  and  O_20 
REMARK    4  A    between atoms: C_24  and  C_25 
REMARK       I    between atoms: C_25  and  N_26 
REMARK    5  A    between atoms: N_26  and  C_27 
ROOT
HETATM    1  C   UNL     1      -4.097   2.295 -32.922  1.00  0.00     0.070 C 
HETATM    2  C   UNL     1      -5.469   2.593 -32.368  1.00  0.00     0.037 C 
HETATM    3  N   UNL     1      -5.718   3.930 -32.058  1.00  0.00    -0.192 N 
HETATM    4  C   UNL     1      -6.790   4.323 -31.341  1.00  0.00     0.726 A 
HETATM    5  N   UNL     1      -7.777   3.419 -31.076  1.00  0.00    -0.083 N 
HETATM    6  N   UNL     1      -8.740   3.944 -30.299  1.00  0.00    -0.135 NA
HETATM    7  C   UNL     1      -8.304   5.209 -30.159  1.00  0.00     0.199 A 
HETATM    8  N   UNL     1      -7.093   5.466 -30.785  1.00  0.00    -0.041 NA
HETATM    9  C   UNL     1      -7.792   2.048 -31.589  1.00  0.00     0.202 C 
HETATM   10  C   UNL     1      -6.428   1.656 -32.153  1.00  0.00     0.062 C 
HETATM   11  H   UNL     1      -4.932   4.572 -32.130  1.00  0.00     0.184 HD
ENDROOT
BRANCH  10  12
HETATM   12  C   UNL     1      -6.102   0.202 -32.240  1.00  0.00     0.256 C 
HETATM   13  N   UNL     1      -6.039  -0.293 -33.523  1.00  0.00    -0.323 N 
HETATM   14  H   UNL     1      -6.175   0.345 -34.295  1.00  0.00     0.169 HD
HETATM   15  O   UNL     1      -5.954  -0.436 -31.204  1.00  0.00    -0.267 OA
BRANCH  13  16
HETATM   16  C   UNL     1      -5.810  -1.631 -33.914  1.00  0.00     0.035 A 
HETATM   17  C   UNL     1      -4.562  -2.254 -33.885  1.00  0.00     0.029 A 
HETATM   18  C   UNL     1      -4.426  -3.586 -34.291  1.00  0.00     0.002 A 
HETATM   19  C   UNL     1      -5.537  -4.307 -34.720  1.00  0.00     0.000 A 
HETATM   20  C   UNL     1      -6.786  -3.696 -34.751  1.00  0.00     0.002 A 
HETATM   21  C   UNL     1      -6.922  -2.362 -34.357  1.00  0.00     0.029 A 
ENDBRANCH  13  16
ENDBRANCH  10  12
BRANCH   9  22
HETATM   22  C   UNL     1      -8.927   1.924 -32.607  1.00  0.00    -0.025 A 
HETATM   23  C   UNL     1      -9.156   2.911 -33.585  1.00  0.00     0.046 A 
HETATM   24  C   UNL     1     -10.189   2.753 -34.505  1.00  0.00     0.066 A 
HETATM   25  C   UNL     1     -11.012   1.636 -34.468  1.00  0.00     0.036 A 
HETATM   26  C   UNL     1     -10.812   0.663 -33.492  1.00  0.00     0.003 A 
HETATM   27  C   UNL     1      -9.778   0.804 -32.566  1.00  0.00     0.010 A 
BRANCH  24  28
HETATM   28  O   UNL     1     -10.426   3.683 -35.473  1.00  0.00    -0.361 OA
HETATM   29  H   UNL     1      -9.662   4.280 -35.537  1.00  0.00     0.217 HD
ENDBRANCH  24  28
ENDBRANCH   9  22
BRANCH   7  30
HETATM   30  C   UNL     1      -9.035   6.236 -29.420  1.00  0.00     0.014 A 
HETATM   31  C   UNL     1     -10.199   6.812 -29.951  1.00  0.00     0.017 A 
HETATM   32  C   UNL     1     -10.892   7.802 -29.248  1.00  0.00     0.025 A 
HETATM   33  C   UNL     1     -10.425   8.219 -28.004  1.00  0.00     0.034 A 
HETATM   34 CL   UNL     1     -11.275   9.438 -27.137  1.00  0.00    -0.084 Cl
HETATM   35  C   UNL     1      -9.272   7.658 -27.459  1.00  0.00     0.025 A 
HETATM   36  C   UNL     1      -8.578   6.669 -28.165  1.00  0.00     0.017 A 
ENDBRANCH   7  30
TORSDOF 5
ENDMDL
MODEL 8
REMARK VINA RESULT:      -8.5      4.807      9.111
REMARK  5 active torsions:
REMARK  status: ('A' for Active; 'I' for Inactive)
REMARK    1  A    between atoms: C_7  and  C_8 
REMARK    2  A    between atoms: C_16  and  C_17 
REMARK    3  A    between atoms: C_19  and  O_20 
REMARK    4  A    between atoms: C_24  and  C_25 
REMARK       I    between atoms: C_25  and  N_26 
REMARK    5  A    between atoms: N_26  and  C_27 
ROOT
HETATM    1  C   UNL     1     -10.469  -0.898 -32.609  1.00  0.00     0.070 C 
HETATM    2  C   UNL     1     -10.027   0.510 -32.927  1.00  0.00     0.037 C 
HETATM    3  N   UNL     1     -11.048   1.412 -33.225  1.00  0.00    -0.192 N 
HETATM    4  C   UNL     1     -10.812   2.628 -33.757  1.00  0.00     0.726 A 
HETATM    5  N   UNL     1      -9.528   3.084 -33.823  1.00  0.00    -0.083 N 
HETATM    6  N   UNL     1      -9.453   4.279 -34.436  1.00  0.00    -0.135 NA
HETATM    7  C   UNL     1     -10.752   4.529 -34.683  1.00  0.00     0.199 A 
HETATM    8  N   UNL     1     -11.612   3.517 -34.283  1.00  0.00    -0.041 NA
HETATM    9  C   UNL     1      -8.375   2.367 -33.278  1.00  0.00     0.202 C 
HETATM   10  C   UNL     1      -8.732   0.920 -32.948  1.00  0.00     0.062 C 
HETATM   11  H   UNL     1     -11.988   1.030 -33.307  1.00  0.00     0.184 HD
ENDROOT
BRANCH  10  12
HETATM   12  C   UNL     1      -7.621  -0.074 -32.879  1.00  0.00     0.256 C 
HETATM   13  N   UNL     1      -7.444  -0.815 -34.026  1.00  0.00    -0.323 N 
HETATM   14  H   UNL     1      -8.032  -0.617 -34.825  1.00  0.00     0.169 HD
HETATM   15  O   UNL     1      -6.989  -0.186 -31.834  1.00  0.00    -0.267 OA
BRANCH  13  16
HETATM   16  C   UNL     1      -6.519  -1.861 -34.236  1.00  0.00     0.035 A 
HETATM   17  C   UNL     1      -5.138  -1.729 -34.085  1.00  0.00     0.029 A 
HETATM   18  C   UNL     1      -4.293  -2.820 -34.314  1.00  0.00     0.002 A 
HETATM   19  C   UNL     1      -4.822  -4.053 -34.685  1.00  0.00     0.000 A 
HETATM   20  C   UNL     1      -6.198  -4.197 -34.836  1.00  0.00     0.002 A 
HETATM   21  C   UNL     1      -7.042  -3.104 -34.620  1.00  0.00     0.029 A 
ENDBRANCH  13  16
ENDBRANCH  10  12
BRANCH   9  22
HETATM   22  C   UNL     1      -7.840   3.149 -32.076  1.00  0.00    -0.025 A 
HETATM   23  C   UNL     1      -6.632   3.870 -32.141  1.00  0.00     0.046 A 
HETATM   24  C   UNL     1      -6.187   4.584 -31.032  1.00  0.00     0.066 A 
HETATM   25  C   UNL     1      -6.913   4.589 -29.848  1.00  0.00     0.036 A 
HETATM   26  C   UNL     1      -8.098   3.860 -29.763  1.00  0.00     0.003 A 
HETATM   27  C   UNL     1      -8.560   3.144 -30.868  1.00  0.00     0.010 A 
BRANCH  24  28
HETATM   28  O   UNL     1      -5.031   5.304 -31.067  1.00  0.00    -0.361 OA
HETATM   29  H   UNL     1      -4.328   4.802 -30.624  1.00  0.00     0.217 HD
ENDBRANCH  24  28
ENDBRANCH   9  22
BRANCH   7  30
HETATM   30  C   UNL     1     -11.230   5.758 -35.313  1.00  0.00     0.014 A 
HETATM   31  C   UNL     1     -12.594   5.942 -35.583  1.00  0.00     0.017 A 
HETATM   32  C   UNL     1     -13.050   7.114 -36.195  1.00  0.00     0.025 A 
HETATM   33  C   UNL     1     -12.140   8.112 -36.538  1.00  0.00     0.034 A 
HETATM   34 CL   UNL     1     -12.698   9.553 -37.293  1.00  0.00    -0.084 Cl
HETATM   35  C   UNL     1     -10.781   7.947 -36.276  1.00  0.00     0.025 A 
HETATM   36  C   UNL     1     -10.327   6.772 -35.666  1.00  0.00     0.017 A 
ENDBRANCH   7  30
TORSDOF 5
ENDMDL
MODEL 9
REMARK VINA RESULT:      -8.5      4.715      9.095
REMARK  5 active torsions:
REMARK  status: ('A' for Active; 'I' for Inactive)
REMARK    1  A    between atoms: C_7  and  C_8 
REMARK    2  A    between atoms: C_16  and  C_17 
REMARK    3  A    between atoms: C_19  and  O_20 
REMARK    4  A    between atoms: C_24  and  C_25 
REMARK       I    between atoms: C_25  and  N_26 
REMARK    5  A    between atoms: N_26  and  C_27 
ROOT
HETATM    1  C   UNL     1     -10.347  -0.214 -32.805  1.00  0.00     0.070 C 
HETATM    2  C   UNL     1      -9.557   1.066 -32.932  1.00  0.00     0.037 C 
HETATM    3  N   UNL     1     -10.177   2.211 -32.431  1.00  0.00    -0.192 N 
HETATM    4  C   UNL     1      -9.717   3.454 -32.680  1.00  0.00     0.726 A 
HETATM    5  N   UNL     1      -8.495   3.603 -33.268  1.00  0.00    -0.083 N 
HETATM    6  N   UNL     1      -8.211   4.895 -33.508  1.00  0.00    -0.135 NA
HETATM    7  C   UNL     1      -9.294   5.503 -32.990  1.00  0.00     0.199 A 
HETATM    8  N   UNL     1     -10.246   4.632 -32.482  1.00  0.00    -0.041 NA
HETATM    9  C   UNL     1      -7.598   2.491 -33.585  1.00  0.00     0.202 C 
HETATM   10  C   UNL     1      -8.327   1.153 -33.500  1.00  0.00     0.062 C 
HETATM   11  H   UNL     1     -11.141   2.113 -32.120  1.00  0.00     0.184 HD
ENDROOT
BRANCH  10  12
HETATM   12  C   UNL     1      -7.758  -0.000 -34.259  1.00  0.00     0.256 C 
HETATM   13  N   UNL     1      -7.044  -0.892 -33.491  1.00  0.00    -0.323 N 
HETATM   14  H   UNL     1      -6.986  -0.735 -32.494  1.00  0.00     0.169 HD
HETATM   15  O   UNL     1      -7.927  -0.053 -35.471  1.00  0.00    -0.267 OA
BRANCH  13  16
HETATM   16  C   UNL     1      -6.347  -2.038 -33.936  1.00  0.00     0.035 A 
HETATM   17  C   UNL     1      -4.956  -2.151 -33.958  1.00  0.00     0.029 A 
HETATM   18  C   UNL     1      -4.349  -3.325 -34.415  1.00  0.00     0.002 A 
HETATM   19  C   UNL     1      -5.126  -4.398 -34.844  1.00  0.00     0.000 A 
HETATM   20  C   UNL     1      -6.513  -4.296 -34.825  1.00  0.00     0.002 A 
HETATM   21  C   UNL     1      -7.121  -3.119 -34.379  1.00  0.00     0.029 A 
ENDBRANCH  13  16
ENDBRANCH  10  12
BRANCH   9  22
HETATM   22  C   UNL     1      -6.377   2.577 -32.667  1.00  0.00    -0.025 A 
HETATM   23  C   UNL     1      -6.496   2.929 -31.308  1.00  0.00     0.046 A 
HETATM   24  C   UNL     1      -5.363   2.979 -30.500  1.00  0.00     0.066 A 
HETATM   25  C   UNL     1      -4.106   2.696 -31.016  1.00  0.00     0.036 A 
HETATM   26  C   UNL     1      -3.971   2.369 -32.364  1.00  0.00     0.003 A 
HETATM   27  C   UNL     1      -5.097   2.310 -33.185  1.00  0.00     0.010 A 
BRANCH  24  28
HETATM   28  O   UNL     1      -5.448   3.301 -29.179  1.00  0.00    -0.361 OA
HETATM   29  H   UNL     1      -6.071   4.037 -29.068  1.00  0.00     0.217 HD
ENDBRANCH  24  28
ENDBRANCH   9  22
BRANCH   7  30
HETATM   30  C   UNL     1      -9.463   6.954 -32.955  1.00  0.00     0.014 A 
HETATM   31  C   UNL     1      -8.731   7.740 -32.052  1.00  0.00     0.017 A 
HETATM   32  C   UNL     1      -8.901   9.127 -32.011  1.00  0.00     0.025 A 
HETATM   33  C   UNL     1      -9.804   9.737 -32.879  1.00  0.00     0.034 A 
HETATM   34 CL   UNL     1     -10.016  11.444 -32.829  1.00  0.00    -0.084 Cl
HETATM   35  C   UNL     1     -10.539   8.973 -33.783  1.00  0.00     0.025 A 
HETATM   36  C   UNL     1     -10.369   7.585 -33.821  1.00  0.00     0.017 A 
ENDBRANCH   7  30
TORSDOF 5
ENDMDL
MODEL 10
REMARK VINA RESULT:      -8.5      4.018      8.381
REMARK  5 active torsions:
REMARK  status: ('A' for Active; 'I' for Inactive)
REMARK    1  A    between atoms: C_7  and  C_8 
REMARK    2  A    between atoms: C_16  and  C_17 
REMARK    3  A    between atoms: C_19  and  O_20 
REMARK    4  A    between atoms: C_24  and  C_25 
REMARK       I    between atoms: C_25  and  N_26 
REMARK    5  A    between atoms: N_26  and  C_27 
ROOT
HETATM    1  C   UNL     1      -5.864   0.294 -29.491  1.00  0.00     0.070 C 
HETATM    2  C   UNL     1      -6.196   1.512 -30.320  1.00  0.00     0.037 C 
HETATM    3  N   UNL     1      -6.957   2.490 -29.679  1.00  0.00    -0.192 N 
HETATM    4  C   UNL     1      -7.533   3.513 -30.342  1.00  0.00     0.726 A 
HETATM    5  N   UNL     1      -7.204   3.724 -31.649  1.00  0.00    -0.083 N 
HETATM    6  N   UNL     1      -7.910   4.736 -32.184  1.00  0.00    -0.135 NA
HETATM    7  C   UNL     1      -8.632   5.143 -31.123  1.00  0.00     0.199 A 
HETATM    8  N   UNL     1      -8.425   4.394 -29.974  1.00  0.00    -0.041 NA
HETATM    9  C   UNL     1      -6.194   2.954 -32.374  1.00  0.00     0.202 C 
HETATM   10  C   UNL     1      -5.815   1.687 -31.611  1.00  0.00     0.062 C 
HETATM   11  H   UNL     1      -7.312   2.262 -28.753  1.00  0.00     0.184 HD
ENDROOT
BRANCH  10  12
HETATM   12  C   UNL     1      -5.221   0.557 -32.387  1.00  0.00     0.256 C 
HETATM   13  N   UNL     1      -6.141  -0.335 -32.891  1.00  0.00    -0.323 N 
HETATM   14  H   UNL     1      -7.124  -0.152 -32.742  1.00  0.00     0.169 HD
HETATM   15  O   UNL     1      -4.003   0.482 -32.487  1.00  0.00    -0.267 OA
BRANCH  13  16
HETATM   16  C   UNL     1      -5.877  -1.522 -33.609  1.00  0.00     0.035 A 
HETATM   17  C   UNL     1      -4.603  -2.062 -33.793  1.00  0.00     0.029 A 
HETATM   18  C   UNL     1      -4.433  -3.244 -34.520  1.00  0.00     0.002 A 
HETATM   19  C   UNL     1      -5.535  -3.902 -35.059  1.00  0.00     0.000 A 
HETATM   20  C   UNL     1      -6.810  -3.375 -34.880  1.00  0.00     0.002 A 
HETATM   21  C   UNL     1      -6.980  -2.186 -34.165  1.00  0.00     0.029 A 
ENDBRANCH  13  16
ENDBRANCH  10  12
BRANCH   9  22
HETATM   22  C   UNL     1      -5.001   3.867 -32.663  1.00  0.00    -0.025 A 
HETATM   23  C   UNL     1      -4.801   4.443 -33.933  1.00  0.00     0.046 A 
HETATM   24  C   UNL     1      -3.713   5.284 -34.152  1.00  0.00     0.066 A 
HETATM   25  C   UNL     1      -2.807   5.558 -33.137  1.00  0.00     0.036 A 
HETATM   26  C   UNL     1      -2.980   4.976 -31.883  1.00  0.00     0.003 A 
HETATM   27  C   UNL     1      -4.069   4.136 -31.645  1.00  0.00     0.010 A 
BRANCH  24  28
HETATM   28  O   UNL     1      -3.501   5.869 -35.365  1.00  0.00    -0.361 OA
HETATM   29  H   UNL     1      -2.826   6.561 -35.272  1.00  0.00     0.217 HD
ENDBRANCH  24  28
ENDBRANCH   9  22
BRANCH   7  30
HETATM   30  C   UNL     1      -9.552   6.276 -31.163  1.00  0.00     0.014 A 
HETATM   31  C   UNL     1     -10.357   6.587 -30.056  1.00  0.00     0.017 A 
HETATM   32  C   UNL     1     -11.246   7.666 -30.098  1.00  0.00     0.025 A 
HETATM   33  C   UNL     1     -11.331   8.444 -31.250  1.00  0.00     0.034 A 
HETATM   34 CL   UNL     1     -12.425   9.771 -31.304  1.00  0.00    -0.084 Cl
HETATM   35  C   UNL     1     -10.539   8.152 -32.358  1.00  0.00     0.025 A 
HETATM   36  C   UNL     1      -9.653   7.071 -32.315  1.00  0.00     0.017 A 
ENDBRANCH   7  30
TORSDOF 5
ENDMDL
