MODEL 1
REMARK VINA RESULT:     -11.9      0.000      0.000
REMARK  6 active torsions:
REMARK  status: ('A' for Active; 'I' for Inactive)
REMARK    1  A    between atoms: C_2  and  N_3 
REMARK    2  A    between atoms: C_2  and  C_32 
REMARK       I    between atoms: N_3  and  C_4 
REMARK    3  A    between atoms: C_4  and  C_5 
REMARK    4  A    between atoms: C_6  and  N_7 
REMARK       I    between atoms: N_7  and  C_8 
REMARK    5  A    between atoms: C_8  and  C_9 
REMARK    6  A    between atoms: C_9  and  N_10 
ROOT
HETATM    1  N   UNL     1      -3.848   4.296 -33.379  1.00  0.00    -0.325 N 
HETATM    2  C   UNL     1      -3.189   4.993 -34.377  1.00  0.00     0.240 C 
HETATM    3  O   UNL     1      -3.691   5.385 -35.427  1.00  0.00    -0.271 OA
HETATM    4  H   UNL     1      -3.281   3.916 -32.612  1.00  0.00     0.169 HD
ENDROOT
BRANCH   1   5
HETATM    5  C   UNL     1      -5.239   4.018 -33.295  1.00  0.00     0.050 A 
HETATM    6  C   UNL     1      -5.673   2.712 -32.979  1.00  0.00     0.058 A 
HETATM    7  C   UNL     1      -7.043   2.422 -32.848  1.00  0.00     0.019 A 
HETATM    8  C   UNL     1      -7.993   3.419 -33.052  1.00  0.00     0.001 A 
HETATM    9  C   UNL     1      -7.578   4.705 -33.382  1.00  0.00     0.002 A 
HETATM   10  C   UNL     1      -6.216   5.002 -33.499  1.00  0.00     0.030 A 
BRANCH   6  11
HETATM   11  C   UNL     1      -4.687   1.618 -32.780  1.00  0.00     0.254 C 
HETATM   12  N   UNL     1      -5.133   0.347 -33.077  1.00  0.00    -0.349 N 
HETATM   13  H   UNL     1      -5.995   0.259 -33.596  1.00  0.00     0.163 HD
HETATM   14  O   UNL     1      -3.548   1.887 -32.417  1.00  0.00    -0.268 OA
BRANCH  12  15
HETATM   15  C   UNL     1      -4.222  -0.785 -33.126  1.00  0.00     0.114 C 
HETATM   16  C   UNL     1      -3.689  -1.088 -31.725  1.00  0.00     0.037 C 
BRANCH  15  17
HETATM   17  C   UNL     1      -4.910  -1.987 -33.751  1.00  0.00    -0.036 A 
HETATM   18  C   UNL     1      -6.253  -1.888 -34.150  1.00  0.00     0.009 A 
HETATM   19  C   UNL     1      -6.901  -2.967 -34.752  1.00  0.00     0.001 A 
HETATM   20  C   UNL     1      -6.226  -4.170 -34.944  1.00  0.00     0.000 A 
HETATM   21  C   UNL     1      -4.902  -4.294 -34.531  1.00  0.00     0.001 A 
HETATM   22  C   UNL     1      -4.247  -3.211 -33.939  1.00  0.00     0.009 A 
ENDBRANCH  15  17
ENDBRANCH  12  15
ENDBRANCH   6  11
ENDBRANCH   1   5
BRANCH   2  23
HETATM   23  C   UNL     1      -1.698   5.184 -34.109  1.00  0.00     0.240 C 
BRANCH  23  24
HETATM   24  N   UNL     1      -1.532   6.045 -32.961  1.00  0.00    -0.259 N 
HETATM   25  C   UNL     1      -1.541   7.401 -33.019  1.00  0.00     0.326 A 
HETATM   26  O   UNL     1      -1.688   8.092 -34.011  1.00  0.00    -0.247 OA
HETATM   27  N   UNL     1      -1.322   7.893 -31.757  1.00  0.00    -0.324 N 
HETATM   28  C   UNL     1      -1.224   6.846 -30.761  1.00  0.00     0.120 A 
HETATM   29  H   UNL     1      -1.303   8.887 -31.575  1.00  0.00     0.165 HD
HETATM   30  C   UNL     1       0.097   6.866 -29.991  1.00  0.00     0.080 C 
HETATM   31  C   UNL     1      -2.425   6.857 -29.815  1.00  0.00     0.046 C 
HETATM   32  C   UNL     1      -1.286   5.618 -31.686  1.00  0.00     0.257 A 
HETATM   33  C   UNL     1       0.116   7.874 -28.865  1.00  0.00    -0.049 A 
HETATM   34  C   UNL     1      -1.070   8.428 -28.350  1.00  0.00    -0.052 A 
HETATM   35  C   UNL     1       1.346   8.212 -28.281  1.00  0.00     0.007 A 
HETATM   36  C   UNL     1      -2.422   8.110 -28.942  1.00  0.00     0.042 C 
HETATM   37  C   UNL     1      -0.995   9.344 -27.289  1.00  0.00     0.007 A 
HETATM   38  C   UNL     1       0.235   9.681 -26.726  1.00  0.00     0.001 A 
HETATM   39  C   UNL     1       1.405   9.113 -27.219  1.00  0.00     0.001 A 
HETATM   40  O   UNL     1      -1.144   4.459 -31.326  1.00  0.00    -0.270 OA
ENDBRANCH  23  24
ENDBRANCH   2  23
TORSDOF 6
ENDMDL
MODEL 2
REMARK VINA RESULT:     -11.5      4.812      8.944
REMARK  6 active torsions:
REMARK  status: ('A' for Active; 'I' for Inactive)
REMARK    1  A    between atoms: C_2  and  N_3 
REMARK    2  A    between atoms: C_2  and  C_32 
REMARK       I    between atoms: N_3  and  C_4 
REMARK    3  A    between atoms: C_4  and  C_5 
REMARK    4  A    between atoms: C_6  and  N_7 
REMARK       I    between atoms: N_7  and  C_8 
REMARK    5  A    between atoms: C_8  and  C_9 
REMARK    6  A    between atoms: C_9  and  N_10 
ROOT
HETATM    1  N   UNL     1      -6.795   3.526 -30.216  1.00  0.00    -0.325 N 
HETATM    2  C   UNL     1      -5.563   3.673 -30.830  1.00  0.00     0.240 C 
HETATM    3  O   UNL     1      -5.255   4.570 -31.611  1.00  0.00    -0.271 OA
HETATM    4  H   UNL     1      -6.961   2.662 -29.688  1.00  0.00     0.169 HD
ENDROOT
BRANCH   1   5
HETATM    5  C   UNL     1      -7.888   4.434 -30.246  1.00  0.00     0.050 A 
HETATM    6  C   UNL     1      -8.942   4.230 -31.163  1.00  0.00     0.058 A 
HETATM    7  C   UNL     1     -10.054   5.089 -31.183  1.00  0.00     0.019 A 
HETATM    8  C   UNL     1     -10.119   6.171 -30.309  1.00  0.00     0.001 A 
HETATM    9  C   UNL     1      -9.078   6.394 -29.414  1.00  0.00     0.002 A 
HETATM   10  C   UNL     1      -7.975   5.533 -29.380  1.00  0.00     0.030 A 
BRANCH   6  11
HETATM   11  C   UNL     1      -8.892   3.099 -32.128  1.00  0.00     0.254 C 
HETATM   12  N   UNL     1      -9.923   2.188 -32.035  1.00  0.00    -0.349 N 
HETATM   13  H   UNL     1     -10.732   2.444 -31.489  1.00  0.00     0.163 HD
HETATM   14  O   UNL     1      -7.996   3.052 -32.961  1.00  0.00    -0.268 OA
BRANCH  12  15
HETATM   15  C   UNL     1     -10.114   1.154 -33.041  1.00  0.00     0.114 C 
HETATM   16  C   UNL     1      -9.720  -0.209 -32.470  1.00  0.00     0.037 C 
BRANCH  15  17
HETATM   17  C   UNL     1     -11.546   1.172 -33.547  1.00  0.00    -0.036 A 
HETATM   18  C   UNL     1     -12.309  -0.006 -33.512  1.00  0.00     0.009 A 
HETATM   19  C   UNL     1     -13.637  -0.010 -33.944  1.00  0.00     0.001 A 
HETATM   20  C   UNL     1     -14.215   1.156 -34.440  1.00  0.00     0.000 A 
HETATM   21  C   UNL     1     -13.464   2.327 -34.505  1.00  0.00     0.001 A 
HETATM   22  C   UNL     1     -12.139   2.337 -34.062  1.00  0.00     0.009 A 
ENDBRANCH  15  17
ENDBRANCH  12  15
ENDBRANCH   6  11
ENDBRANCH   1   5
BRANCH   2  23
HETATM   23  C   UNL     1      -4.585   2.543 -30.520  1.00  0.00     0.240 C 
BRANCH  23  24
HETATM   24  N   UNL     1      -4.996   1.355 -31.232  1.00  0.00    -0.259 N 
HETATM   25  C   UNL     1      -5.889   0.452 -30.754  1.00  0.00     0.326 A 
HETATM   26  O   UNL     1      -6.475   0.493 -29.687  1.00  0.00    -0.247 OA
HETATM   27  N   UNL     1      -6.017  -0.562 -31.669  1.00  0.00    -0.324 N 
HETATM   28  C   UNL     1      -5.237  -0.330 -32.868  1.00  0.00     0.120 A 
HETATM   29  H   UNL     1      -6.648  -1.337 -31.514  1.00  0.00     0.165 HD
HETATM   30  C   UNL     1      -4.233  -1.447 -33.160  1.00  0.00     0.080 C 
HETATM   31  C   UNL     1      -6.132  -0.051 -34.075  1.00  0.00     0.046 C 
HETATM   32  C   UNL     1      -4.502   0.952 -32.441  1.00  0.00     0.257 A 
HETATM   33  C   UNL     1      -4.852  -2.641 -33.850  1.00  0.00    -0.049 A 
HETATM   34  C   UNL     1      -6.100  -2.556 -34.493  1.00  0.00    -0.052 A 
HETATM   35  C   UNL     1      -4.129  -3.842 -33.901  1.00  0.00     0.007 A 
HETATM   36  C   UNL     1      -6.929  -1.295 -34.465  1.00  0.00     0.042 C 
HETATM   37  C   UNL     1      -6.618  -3.691 -35.137  1.00  0.00     0.007 A 
HETATM   38  C   UNL     1      -5.895  -4.883 -35.170  1.00  0.00     0.001 A 
HETATM   39  C   UNL     1      -4.649  -4.957 -34.556  1.00  0.00     0.001 A 
HETATM   40  O   UNL     1      -3.629   1.511 -33.090  1.00  0.00    -0.270 OA
ENDBRANCH  23  24
ENDBRANCH   2  23
TORSDOF 6
ENDMDL
MODEL 3
REMARK VINA RESULT:     -10.9      2.791      4.256
REMARK  6 active torsions:
REMARK  status: ('A' for Active; 'I' for Inactive)
REMARK    1  A    between atoms: C_2  and  N_3 
REMARK    2  A    between atoms: C_2  and  C_32 
REMARK       I    between atoms: N_3  and  C_4 
REMARK    3  A    between atoms: C_4  and  C_5 
REMARK    4  A    between atoms: C_6  and  N_7 
REMARK       I    between atoms: N_7  and  C_8 
REMARK    5  A    between atoms: C_8  and  C_9 
REMARK    6  A    between atoms: C_9  and  N_10 
ROOT
HETATM    1  N   UNL     1      -8.895   3.272 -31.257  1.00  0.00    -0.325 N 
HETATM    2  C   UNL     1      -8.641   4.619 -31.061  1.00  0.00     0.240 C 
HETATM    3  O   UNL     1      -8.928   5.522 -31.843  1.00  0.00    -0.271 OA
HETATM    4  H   UNL     1      -8.488   2.611 -30.585  1.00  0.00     0.169 HD
ENDROOT
BRANCH   1   5
HETATM    5  C   UNL     1      -9.646   2.679 -32.306  1.00  0.00     0.050 A 
HETATM    6  C   UNL     1      -9.008   1.807 -33.216  1.00  0.00     0.058 A 
HETATM    7  C   UNL     1      -9.739   1.174 -34.237  1.00  0.00     0.019 A 
HETATM    8  C   UNL     1     -11.102   1.419 -34.378  1.00  0.00     0.001 A 
HETATM    9  C   UNL     1     -11.737   2.291 -33.500  1.00  0.00     0.002 A 
HETATM   10  C   UNL     1     -11.018   2.912 -32.473  1.00  0.00     0.030 A 
BRANCH   6  11
HETATM   11  C   UNL     1      -7.549   1.543 -33.110  1.00  0.00     0.254 C 
HETATM   12  N   UNL     1      -7.194   0.234 -32.860  1.00  0.00    -0.349 N 
HETATM   13  H   UNL     1      -7.901  -0.477 -32.975  1.00  0.00     0.163 HD
HETATM   14  O   UNL     1      -6.753   2.458 -33.286  1.00  0.00    -0.268 OA
BRANCH  12  15
HETATM   15  C   UNL     1      -5.808  -0.203 -32.936  1.00  0.00     0.114 C 
HETATM   16  C   UNL     1      -5.191  -0.226 -31.537  1.00  0.00     0.037 C 
BRANCH  15  17
HETATM   17  C   UNL     1      -5.722  -1.555 -33.624  1.00  0.00    -0.036 A 
HETATM   18  C   UNL     1      -6.869  -2.107 -34.215  1.00  0.00     0.009 A 
HETATM   19  C   UNL     1      -6.810  -3.334 -34.879  1.00  0.00     0.001 A 
HETATM   20  C   UNL     1      -5.611  -4.039 -34.942  1.00  0.00     0.000 A 
HETATM   21  C   UNL     1      -4.470  -3.518 -34.338  1.00  0.00     0.001 A 
HETATM   22  C   UNL     1      -4.522  -2.284 -33.684  1.00  0.00     0.009 A 
ENDBRANCH  15  17
ENDBRANCH  12  15
ENDBRANCH   6  11
ENDBRANCH   1   5
BRANCH   2  23
HETATM   23  C   UNL     1      -7.869   4.919 -29.779  1.00  0.00     0.240 C 
BRANCH  23  24
HETATM   24  N   UNL     1      -6.469   5.078 -30.099  1.00  0.00    -0.259 N 
HETATM   25  C   UNL     1      -5.584   4.053 -30.175  1.00  0.00     0.326 A 
HETATM   26  O   UNL     1      -5.814   2.870 -29.998  1.00  0.00    -0.247 OA
HETATM   27  N   UNL     1      -4.345   4.566 -30.462  1.00  0.00    -0.324 N 
HETATM   28  C   UNL     1      -4.370   6.001 -30.664  1.00  0.00     0.120 A 
HETATM   29  H   UNL     1      -3.538   3.967 -30.576  1.00  0.00     0.165 HD
HETATM   30  C   UNL     1      -3.440   6.761 -29.717  1.00  0.00     0.080 C 
HETATM   31  C   UNL     1      -4.105   6.367 -32.124  1.00  0.00     0.046 C 
HETATM   32  C   UNL     1      -5.841   6.275 -30.304  1.00  0.00     0.257 A 
HETATM   33  C   UNL     1      -2.000   6.769 -30.175  1.00  0.00    -0.049 A 
HETATM   34  C   UNL     1      -1.645   6.461 -31.501  1.00  0.00    -0.052 A 
HETATM   35  C   UNL     1      -1.004   7.157 -29.266  1.00  0.00     0.007 A 
HETATM   36  C   UNL     1      -2.670   6.029 -32.522  1.00  0.00     0.042 C 
HETATM   37  C   UNL     1      -0.293   6.506 -31.877  1.00  0.00     0.007 A 
HETATM   38  C   UNL     1       0.689   6.881 -30.961  1.00  0.00     0.001 A 
HETATM   39  C   UNL     1       0.334   7.210 -29.657  1.00  0.00     0.001 A 
HETATM   40  O   UNL     1      -6.350   7.383 -30.226  1.00  0.00    -0.270 OA
ENDBRANCH  23  24
ENDBRANCH   2  23
TORSDOF 6
ENDMDL
MODEL 4
REMARK VINA RESULT:     -10.7      1.721      2.632
REMARK  6 active torsions:
REMARK  status: ('A' for Active; 'I' for Inactive)
REMARK    1  A    between atoms: C_2  and  N_3 
REMARK    2  A    between atoms: C_2  and  C_32 
REMARK       I    between atoms: N_3  and  C_4 
REMARK    3  A    between atoms: C_4  and  C_5 
REMARK    4  A    between atoms: C_6  and  N_7 
REMARK       I    between atoms: N_7  and  C_8 
REMARK    5  A    between atoms: C_8  and  C_9 
REMARK    6  A    between atoms: C_9  and  N_10 
ROOT
HETATM    1  N   UNL     1      -6.343   4.466 -33.834  1.00  0.00    -0.325 N 
HETATM    2  C   UNL     1      -5.472   5.453 -33.404  1.00  0.00     0.240 C 
HETATM    3  O   UNL     1      -5.794   6.490 -32.829  1.00  0.00    -0.271 OA
HETATM    4  H   UNL     1      -5.956   3.713 -34.414  1.00  0.00     0.169 HD
ENDROOT
BRANCH   1   5
HETATM    5  C   UNL     1      -7.738   4.377 -33.583  1.00  0.00     0.050 A 
HETATM    6  C   UNL     1      -8.218   3.471 -32.612  1.00  0.00     0.058 A 
HETATM    7  C   UNL     1      -9.591   3.396 -32.315  1.00  0.00     0.019 A 
HETATM    8  C   UNL     1     -10.500   4.201 -32.995  1.00  0.00     0.001 A 
HETATM    9  C   UNL     1     -10.041   5.084 -33.968  1.00  0.00     0.002 A 
HETATM   10  C   UNL     1      -8.675   5.174 -34.256  1.00  0.00     0.030 A 
BRANCH   6  11
HETATM   11  C   UNL     1      -7.278   2.578 -31.885  1.00  0.00     0.254 C 
HETATM   12  N   UNL     1      -7.171   1.294 -32.375  1.00  0.00    -0.349 N 
HETATM   13  H   UNL     1      -7.555   1.104 -33.289  1.00  0.00     0.163 HD
HETATM   14  O   UNL     1      -6.629   3.019 -30.944  1.00  0.00    -0.268 OA
BRANCH  12  15
HETATM   15  C   UNL     1      -6.146   0.381 -31.895  1.00  0.00     0.114 C 
HETATM   16  C   UNL     1      -6.534  -0.165 -30.520  1.00  0.00     0.037 C 
BRANCH  15  17
HETATM   17  C   UNL     1      -5.913  -0.727 -32.908  1.00  0.00    -0.036 A 
HETATM   18  C   UNL     1      -6.976  -1.165 -33.713  1.00  0.00     0.009 A 
HETATM   19  C   UNL     1      -6.782  -2.161 -34.672  1.00  0.00     0.001 A 
HETATM   20  C   UNL     1      -5.530  -2.751 -34.825  1.00  0.00     0.000 A 
HETATM   21  C   UNL     1      -4.471  -2.346 -34.017  1.00  0.00     0.001 A 
HETATM   22  C   UNL     1      -4.659  -1.340 -33.065  1.00  0.00     0.009 A 
ENDBRANCH  15  17
ENDBRANCH  12  15
ENDBRANCH   6  11
ENDBRANCH   1   5
BRANCH   2  23
HETATM   23  C   UNL     1      -4.016   5.193 -33.781  1.00  0.00     0.240 C 
BRANCH  23  24
HETATM   24  N   UNL     1      -3.167   5.589 -32.681  1.00  0.00    -0.259 N 
HETATM   25  C   UNL     1      -3.062   4.902 -31.516  1.00  0.00     0.326 A 
HETATM   26  O   UNL     1      -3.639   3.873 -31.215  1.00  0.00    -0.247 OA
HETATM   27  N   UNL     1      -2.200   5.577 -30.688  1.00  0.00    -0.324 N 
HETATM   28  C   UNL     1      -1.625   6.747 -31.319  1.00  0.00     0.120 A 
HETATM   29  H   UNL     1      -1.970   5.227 -29.768  1.00  0.00     0.165 HD
HETATM   30  C   UNL     1      -1.900   8.043 -30.554  1.00  0.00     0.080 C 
HETATM   31  C   UNL     1      -0.132   6.562 -31.589  1.00  0.00     0.046 C 
HETATM   32  C   UNL     1      -2.412   6.728 -32.640  1.00  0.00     0.257 A 
HETATM   33  C   UNL     1      -0.956   8.262 -29.394  1.00  0.00    -0.049 A 
HETATM   34  C   UNL     1       0.260   7.564 -29.289  1.00  0.00    -0.052 A 
HETATM   35  C   UNL     1      -1.279   9.235 -28.435  1.00  0.00     0.007 A 
HETATM   36  C   UNL     1       0.658   6.501 -30.283  1.00  0.00     0.042 C 
HETATM   37  C   UNL     1       1.108   7.824 -28.201  1.00  0.00     0.007 A 
HETATM   38  C   UNL     1       0.770   8.784 -27.248  1.00  0.00     0.001 A 
HETATM   39  C   UNL     1      -0.421   9.493 -27.367  1.00  0.00     0.001 A 
HETATM   40  O   UNL     1      -2.356   7.591 -33.504  1.00  0.00    -0.270 OA
ENDBRANCH  23  24
ENDBRANCH   2  23
TORSDOF 6
ENDMDL
MODEL 5
REMARK VINA RESULT:     -10.7      2.880      9.326
REMARK  6 active torsions:
REMARK  status: ('A' for Active; 'I' for Inactive)
REMARK    1  A    between atoms: C_2  and  N_3 
REMARK    2  A    between atoms: C_2  and  C_32 
REMARK       I    between atoms: N_3  and  C_4 
REMARK    3  A    between atoms: C_4  and  C_5 
REMARK    4  A    between atoms: C_6  and  N_7 
REMARK       I    between atoms: N_7  and  C_8 
REMARK    5  A    between atoms: C_8  and  C_9 
REMARK    6  A    between atoms: C_9  and  N_10 
ROOT
HETATM    1  N   UNL     1      -7.903   4.331 -31.324  1.00  0.00    -0.325 N 
HETATM    2  C   UNL     1      -8.881   3.359 -31.447  1.00  0.00     0.240 C 
HETATM    3  O   UNL     1      -9.550   2.897 -30.526  1.00  0.00    -0.271 OA
HETATM    4  H   UNL     1      -7.331   4.535 -32.151  1.00  0.00     0.169 HD
ENDROOT
BRANCH   1   5
HETATM    5  C   UNL     1      -7.573   5.082 -30.164  1.00  0.00     0.050 A 
HETATM    6  C   UNL     1      -6.228   5.162 -29.742  1.00  0.00     0.058 A 
HETATM    7  C   UNL     1      -5.870   5.933 -28.622  1.00  0.00     0.019 A 
HETATM    8  C   UNL     1      -6.846   6.612 -27.898  1.00  0.00     0.001 A 
HETATM    9  C   UNL     1      -8.178   6.526 -28.293  1.00  0.00     0.002 A 
HETATM   10  C   UNL     1      -8.537   5.771 -29.415  1.00  0.00     0.030 A 
BRANCH   6  11
HETATM   11  C   UNL     1      -5.163   4.428 -30.476  1.00  0.00     0.254 C 
HETATM   12  N   UNL     1      -4.196   5.212 -31.069  1.00  0.00    -0.349 N 
HETATM   13  H   UNL     1      -4.145   6.184 -30.801  1.00  0.00     0.163 HD
HETATM   14  O   UNL     1      -5.166   3.203 -30.485  1.00  0.00    -0.268 OA
BRANCH  12  15
HETATM   15  C   UNL     1      -2.992   4.629 -31.640  1.00  0.00     0.114 C 
HETATM   16  C   UNL     1      -3.129   4.530 -33.160  1.00  0.00     0.037 C 
BRANCH  15  17
HETATM   17  C   UNL     1      -1.771   5.433 -31.225  1.00  0.00    -0.036 A 
HETATM   18  C   UNL     1      -1.917   6.500 -30.325  1.00  0.00     0.009 A 
HETATM   19  C   UNL     1      -0.808   7.236 -29.905  1.00  0.00     0.001 A 
HETATM   20  C   UNL     1       0.460   6.934 -30.396  1.00  0.00     0.000 A 
HETATM   21  C   UNL     1       0.618   5.896 -31.309  1.00  0.00     0.001 A 
HETATM   22  C   UNL     1      -0.488   5.148 -31.722  1.00  0.00     0.009 A 
ENDBRANCH  15  17
ENDBRANCH  12  15
ENDBRANCH   6  11
ENDBRANCH   1   5
BRANCH   2  23
HETATM   23  C   UNL     1      -9.028   2.812 -32.864  1.00  0.00     0.240 C 
BRANCH  23  24
HETATM   24  N   UNL     1      -8.258   1.595 -32.980  1.00  0.00    -0.259 N 
HETATM   25  C   UNL     1      -8.721   0.365 -32.640  1.00  0.00     0.326 A 
HETATM   26  O   UNL     1      -9.824   0.092 -32.201  1.00  0.00    -0.247 OA
HETATM   27  N   UNL     1      -7.720  -0.550 -32.844  1.00  0.00    -0.324 N 
HETATM   28  C   UNL     1      -6.529   0.045 -33.414  1.00  0.00     0.120 A 
HETATM   29  H   UNL     1      -7.862  -1.535 -32.665  1.00  0.00     0.165 HD
HETATM   30  C   UNL     1      -5.279  -0.166 -32.559  1.00  0.00     0.080 C 
HETATM   31  C   UNL     1      -6.307  -0.413 -34.855  1.00  0.00     0.046 C 
HETATM   32  C   UNL     1      -6.954   1.524 -33.384  1.00  0.00     0.257 A 
HETATM   33  C   UNL     1      -4.641  -1.522 -32.761  1.00  0.00    -0.049 A 
HETATM   34  C   UNL     1      -4.935  -2.316 -33.884  1.00  0.00    -0.052 A 
HETATM   35  C   UNL     1      -3.685  -1.964 -31.833  1.00  0.00     0.007 A 
HETATM   36  C   UNL     1      -5.960  -1.899 -34.910  1.00  0.00     0.042 C 
HETATM   37  C   UNL     1      -4.296  -3.558 -34.032  1.00  0.00     0.007 A 
HETATM   38  C   UNL     1      -3.357  -3.991 -33.096  1.00  0.00     0.001 A 
HETATM   39  C   UNL     1      -3.048  -3.192 -32.000  1.00  0.00     0.001 A 
HETATM   40  O   UNL     1      -6.236   2.467 -33.683  1.00  0.00    -0.270 OA
ENDBRANCH  23  24
ENDBRANCH   2  23
TORSDOF 6
ENDMDL
MODEL 6
REMARK VINA RESULT:     -10.7      2.194     10.360
REMARK  6 active torsions:
REMARK  status: ('A' for Active; 'I' for Inactive)
REMARK    1  A    between atoms: C_2  and  N_3 
REMARK    2  A    between atoms: C_2  and  C_32 
REMARK       I    between atoms: N_3  and  C_4 
REMARK    3  A    between atoms: C_4  and  C_5 
REMARK    4  A    between atoms: C_6  and  N_7 
REMARK       I    between atoms: N_7  and  C_8 
REMARK    5  A    between atoms: C_8  and  C_9 
REMARK    6  A    between atoms: C_9  and  N_10 
ROOT
HETATM    1  N   UNL     1      -2.890   4.043 -31.350  1.00  0.00    -0.325 N 
HETATM    2  C   UNL     1      -4.197   3.595 -31.279  1.00  0.00     0.240 C 
HETATM    3  O   UNL     1      -5.159   4.100 -31.853  1.00  0.00    -0.271 OA
HETATM    4  H   UNL     1      -2.205   3.609 -30.721  1.00  0.00     0.169 HD
ENDROOT
BRANCH   1   5
HETATM    5  C   UNL     1      -2.372   5.065 -32.190  1.00  0.00     0.050 A 
HETATM    6  C   UNL     1      -1.279   5.844 -31.752  1.00  0.00     0.058 A 
HETATM    7  C   UNL     1      -0.722   6.832 -32.582  1.00  0.00     0.019 A 
HETATM    8  C   UNL     1      -1.259   7.072 -33.844  1.00  0.00     0.001 A 
HETATM    9  C   UNL     1      -2.348   6.324 -34.279  1.00  0.00     0.002 A 
HETATM   10  C   UNL     1      -2.897   5.329 -33.463  1.00  0.00     0.030 A 
BRANCH   6  11
HETATM   11  C   UNL     1      -0.697   5.632 -30.400  1.00  0.00     0.254 C 
HETATM   12  N   UNL     1      -0.839   6.680 -29.516  1.00  0.00    -0.349 N 
HETATM   13  H   UNL     1      -1.490   7.414 -29.754  1.00  0.00     0.163 HD
HETATM   14  O   UNL     1      -0.175   4.558 -30.126  1.00  0.00    -0.268 OA
BRANCH  12  15
HETATM   15  C   UNL     1      -0.504   6.536 -28.108  1.00  0.00     0.114 C 
HETATM   16  C   UNL     1       0.969   6.879 -27.884  1.00  0.00     0.037 C 
BRANCH  15  17
HETATM   17  C   UNL     1      -1.429   7.391 -27.258  1.00  0.00    -0.036 A 
HETATM   18  C   UNL     1      -1.339   8.790 -27.327  1.00  0.00     0.009 A 
HETATM   19  C   UNL     1      -2.196   9.599 -26.579  1.00  0.00     0.001 A 
HETATM   20  C   UNL     1      -3.139   9.023 -25.731  1.00  0.00     0.000 A 
HETATM   21  C   UNL     1      -3.224   7.637 -25.631  1.00  0.00     0.001 A 
HETATM   22  C   UNL     1      -2.376   6.825 -26.388  1.00  0.00     0.009 A 
ENDBRANCH  15  17
ENDBRANCH  12  15
ENDBRANCH   6  11
ENDBRANCH   1   5
BRANCH   2  23
HETATM   23  C   UNL     1      -4.392   2.418 -30.326  1.00  0.00     0.240 C 
BRANCH  23  24
HETATM   24  N   UNL     1      -4.837   1.270 -31.082  1.00  0.00    -0.259 N 
HETATM   25  C   UNL     1      -5.815   0.422 -30.673  1.00  0.00     0.326 A 
HETATM   26  O   UNL     1      -6.461   0.489 -29.643  1.00  0.00    -0.247 OA
HETATM   27  N   UNL     1      -5.954  -0.569 -31.612  1.00  0.00    -0.324 N 
HETATM   28  C   UNL     1      -5.089  -0.375 -32.758  1.00  0.00     0.120 A 
HETATM   29  H   UNL     1      -6.643  -1.301 -31.508  1.00  0.00     0.165 HD
HETATM   30  C   UNL     1      -4.145  -1.552 -33.008  1.00  0.00     0.080 C 
HETATM   31  C   UNL     1      -5.888  -0.021 -34.011  1.00  0.00     0.046 C 
HETATM   32  C   UNL     1      -4.298   0.850 -32.266  1.00  0.00     0.257 A 
HETATM   33  C   UNL     1      -4.799  -2.693 -33.754  1.00  0.00    -0.049 A 
HETATM   34  C   UNL     1      -5.997  -2.517 -34.469  1.00  0.00    -0.052 A 
HETATM   35  C   UNL     1      -4.155  -3.940 -33.781  1.00  0.00     0.007 A 
HETATM   36  C   UNL     1      -6.740  -1.203 -34.470  1.00  0.00     0.042 C 
HETATM   37  C   UNL     1      -6.548  -3.606 -35.162  1.00  0.00     0.007 A 
HETATM   38  C   UNL     1      -5.905  -4.843 -35.171  1.00  0.00     0.001 A 
HETATM   39  C   UNL     1      -4.707  -5.009 -34.485  1.00  0.00     0.001 A 
HETATM   40  O   UNL     1      -3.352   1.357 -32.851  1.00  0.00    -0.270 OA
ENDBRANCH  23  24
ENDBRANCH   2  23
TORSDOF 6
ENDMDL
MODEL 7
REMARK VINA RESULT:     -10.6      4.188      7.256
REMARK  6 active torsions:
REMARK  status: ('A' for Active; 'I' for Inactive)
REMARK    1  A    between atoms: C_2  and  N_3 
REMARK    2  A    between atoms: C_2  and  C_32 
REMARK       I    between atoms: N_3  and  C_4 
REMARK    3  A    between atoms: C_4  and  C_5 
REMARK    4  A    between atoms: C_6  and  N_7 
REMARK       I    between atoms: N_7  and  C_8 
REMARK    5  A    between atoms: C_8  and  C_9 
REMARK    6  A    between atoms: C_9  and  N_10 
ROOT
HETATM    1  N   UNL     1      -7.718  -0.737 -33.823  1.00  0.00    -0.325 N 
HETATM    2  C   UNL     1      -8.139   0.307 -34.629  1.00  0.00     0.240 C 
HETATM    3  O   UNL     1      -7.536   0.744 -35.606  1.00  0.00    -0.271 OA
HETATM    4  H   UNL     1      -8.252  -0.917 -32.965  1.00  0.00     0.169 HD
ENDROOT
BRANCH   1   5
HETATM    5  C   UNL     1      -6.604  -1.592 -34.030  1.00  0.00     0.050 A 
HETATM    6  C   UNL     1      -5.418  -1.388 -33.292  1.00  0.00     0.058 A 
HETATM    7  C   UNL     1      -4.316  -2.248 -33.448  1.00  0.00     0.019 A 
HETATM    8  C   UNL     1      -4.374  -3.303 -34.354  1.00  0.00     0.001 A 
HETATM    9  C   UNL     1      -5.530  -3.503 -35.102  1.00  0.00     0.002 A 
HETATM   10  C   UNL     1      -6.634  -2.659 -34.940  1.00  0.00     0.030 A 
BRANCH   6  11
HETATM   11  C   UNL     1      -5.313  -0.256 -32.334  1.00  0.00     0.254 C 
HETATM   12  N   UNL     1      -4.487   0.779 -32.718  1.00  0.00    -0.349 N 
HETATM   13  H   UNL     1      -4.184   0.809 -33.680  1.00  0.00     0.163 HD
HETATM   14  O   UNL     1      -5.975  -0.271 -31.303  1.00  0.00    -0.268 OA
BRANCH  12  15
HETATM   15  C   UNL     1      -4.450   2.033 -31.981  1.00  0.00     0.114 C 
HETATM   16  C   UNL     1      -3.408   1.952 -30.864  1.00  0.00     0.037 C 
BRANCH  15  17
HETATM   17  C   UNL     1      -4.187   3.191 -32.929  1.00  0.00    -0.036 A 
HETATM   18  C   UNL     1      -2.889   3.713 -33.044  1.00  0.00     0.009 A 
HETATM   19  C   UNL     1      -2.614   4.757 -33.929  1.00  0.00     0.001 A 
HETATM   20  C   UNL     1      -3.636   5.312 -34.694  1.00  0.00     0.000 A 
HETATM   21  C   UNL     1      -4.934   4.824 -34.574  1.00  0.00     0.001 A 
HETATM   22  C   UNL     1      -5.210   3.770 -33.699  1.00  0.00     0.009 A 
ENDBRANCH  15  17
ENDBRANCH  12  15
ENDBRANCH   6  11
ENDBRANCH   1   5
BRANCH   2  23
HETATM   23  C   UNL     1      -9.431   0.968 -34.154  1.00  0.00     0.240 C 
BRANCH  23  24
HETATM   24  N   UNL     1      -9.103   2.044 -33.248  1.00  0.00    -0.259 N 
HETATM   25  C   UNL     1      -8.882   3.325 -33.637  1.00  0.00     0.326 A 
HETATM   26  O   UNL     1      -8.926   3.767 -34.771  1.00  0.00    -0.247 OA
HETATM   27  N   UNL     1      -8.563   4.069 -32.529  1.00  0.00    -0.324 N 
HETATM   28  C   UNL     1      -8.629   3.298 -31.304  1.00  0.00     0.120 A 
HETATM   29  H   UNL     1      -8.373   5.060 -32.595  1.00  0.00     0.165 HD
HETATM   30  C   UNL     1      -7.311   3.284 -30.527  1.00  0.00     0.080 C 
HETATM   31  C   UNL     1      -9.795   3.743 -30.422  1.00  0.00     0.046 C 
HETATM   32  C   UNL     1      -8.912   1.909 -31.902  1.00  0.00     0.257 A 
HETATM   33  C   UNL     1      -7.104   4.521 -29.683  1.00  0.00    -0.049 A 
HETATM   34  C   UNL     1      -8.171   5.375 -29.351  1.00  0.00    -0.052 A 
HETATM   35  C   UNL     1      -5.825   4.780 -29.167  1.00  0.00     0.007 A 
HETATM   36  C   UNL     1      -9.566   5.153 -29.882  1.00  0.00     0.042 C 
HETATM   37  C   UNL     1      -7.925   6.498 -28.545  1.00  0.00     0.007 A 
HETATM   38  C   UNL     1      -6.646   6.752 -28.049  1.00  0.00     0.001 A 
HETATM   39  C   UNL     1      -5.598   5.891 -28.356  1.00  0.00     0.001 A 
HETATM   40  O   UNL     1      -8.963   0.867 -31.264  1.00  0.00    -0.270 OA
ENDBRANCH  23  24
ENDBRANCH   2  23
TORSDOF 6
ENDMDL
MODEL 8
REMARK VINA RESULT:     -10.4      3.433      5.534
REMARK  6 active torsions:
REMARK  status: ('A' for Active; 'I' for Inactive)
REMARK    1  A    between atoms: C_2  and  N_3 
REMARK    2  A    between atoms: C_2  and  C_32 
REMARK       I    between atoms: N_3  and  C_4 
REMARK    3  A    between atoms: C_4  and  C_5 
REMARK    4  A    between atoms: C_6  and  N_7 
REMARK       I    between atoms: N_7  and  C_8 
REMARK    5  A    between atoms: C_8  and  C_9 
REMARK    6  A    between atoms: C_9  and  N_10 
ROOT
HETATM    1  N   UNL     1      -6.704   3.338 -33.088  1.00  0.00    -0.325 N 
HETATM    2  C   UNL     1      -6.067   4.374 -33.750  1.00  0.00     0.240 C 
HETATM    3  O   UNL     1      -5.477   4.281 -34.823  1.00  0.00    -0.271 OA
HETATM    4  H   UNL     1      -7.048   3.523 -32.139  1.00  0.00     0.169 HD
ENDROOT
BRANCH   1   5
HETATM    5  C   UNL     1      -6.927   2.018 -33.563  1.00  0.00     0.050 A 
HETATM    6  C   UNL     1      -8.232   1.612 -33.916  1.00  0.00     0.058 A 
HETATM    7  C   UNL     1      -8.471   0.325 -34.429  1.00  0.00     0.019 A 
HETATM    8  C   UNL     1      -7.421  -0.578 -34.574  1.00  0.00     0.001 A 
HETATM    9  C   UNL     1      -6.133  -0.196 -34.212  1.00  0.00     0.002 A 
HETATM   10  C   UNL     1      -5.888   1.089 -33.715  1.00  0.00     0.030 A 
BRANCH   6  11
HETATM   11  C   UNL     1      -9.381   2.541 -33.749  1.00  0.00     0.254 C 
HETATM   12  N   UNL     1     -10.185   2.704 -34.857  1.00  0.00    -0.349 N 
HETATM   13  H   UNL     1     -10.081   2.048 -35.617  1.00  0.00     0.163 HD
HETATM   14  O   UNL     1      -9.582   3.068 -32.661  1.00  0.00    -0.268 OA
BRANCH  12  15
HETATM   15  C   UNL     1     -11.451   3.416 -34.778  1.00  0.00     0.114 C 
HETATM   16  C   UNL     1     -11.800   4.015 -36.141  1.00  0.00     0.037 C 
BRANCH  15  17
HETATM   17  C   UNL     1     -12.541   2.493 -34.260  1.00  0.00    -0.036 A 
HETATM   18  C   UNL     1     -12.680   1.209 -34.808  1.00  0.00     0.009 A 
HETATM   19  C   UNL     1     -13.654   0.330 -34.330  1.00  0.00     0.001 A 
HETATM   20  C   UNL     1     -14.519   0.729 -33.315  1.00  0.00     0.000 A 
HETATM   21  C   UNL     1     -14.411   2.009 -32.778  1.00  0.00     0.001 A 
HETATM   22  C   UNL     1     -13.429   2.886 -33.245  1.00  0.00     0.009 A 
ENDBRANCH  15  17
ENDBRANCH  12  15
ENDBRANCH   6  11
ENDBRANCH   1   5
BRANCH   2  23
HETATM   23  C   UNL     1      -6.078   5.692 -32.981  1.00  0.00     0.240 C 
BRANCH  23  24
HETATM   24  N   UNL     1      -4.935   5.731 -32.098  1.00  0.00    -0.259 N 
HETATM   25  C   UNL     1      -4.919   5.199 -30.850  1.00  0.00     0.326 A 
HETATM   26  O   UNL     1      -5.830   4.616 -30.288  1.00  0.00    -0.247 OA
HETATM   27  N   UNL     1      -3.694   5.447 -30.285  1.00  0.00    -0.324 N 
HETATM   28  C   UNL     1      -2.788   6.119 -31.194  1.00  0.00     0.120 A 
HETATM   29  H   UNL     1      -3.466   5.121 -29.355  1.00  0.00     0.165 HD
HETATM   30  C   UNL     1      -2.271   7.453 -30.654  1.00  0.00     0.080 C 
HETATM   31  C   UNL     1      -1.641   5.205 -31.623  1.00  0.00     0.046 C 
HETATM   32  C   UNL     1      -3.750   6.355 -32.371  1.00  0.00     0.257 A 
HETATM   33  C   UNL     1      -1.115   7.299 -29.692  1.00  0.00    -0.049 A 
HETATM   34  C   UNL     1      -0.365   6.111 -29.623  1.00  0.00    -0.052 A 
HETATM   35  C   UNL     1      -0.747   8.395 -28.897  1.00  0.00     0.007 A 
HETATM   36  C   UNL     1      -0.718   4.896 -30.446  1.00  0.00     0.042 C 
HETATM   37  C   UNL     1       0.712   6.031 -28.726  1.00  0.00     0.007 A 
HETATM   38  C   UNL     1       1.060   7.123 -27.932  1.00  0.00     0.001 A 
HETATM   39  C   UNL     1       0.334   8.306 -28.020  1.00  0.00     0.001 A 
HETATM   40  O   UNL     1      -3.483   6.992 -33.380  1.00  0.00    -0.270 OA
ENDBRANCH  23  24
ENDBRANCH   2  23
TORSDOF 6
ENDMDL
MODEL 9
REMARK VINA RESULT:     -10.3      2.667      8.992
REMARK  6 active torsions:
REMARK  status: ('A' for Active; 'I' for Inactive)
REMARK    1  A    between atoms: C_2  and  N_3 
REMARK    2  A    between atoms: C_2  and  C_32 
REMARK       I    between atoms: N_3  and  C_4 
REMARK    3  A    between atoms: C_4  and  C_5 
REMARK    4  A    between atoms: C_6  and  N_7 
REMARK       I    between atoms: N_7  and  C_8 
REMARK    5  A    between atoms: C_8  and  C_9 
REMARK    6  A    between atoms: C_9  and  N_10 
ROOT
HETATM    1  N   UNL     1      -7.919   4.470 -31.335  1.00  0.00    -0.325 N 
HETATM    2  C   UNL     1      -8.293   5.008 -32.555  1.00  0.00     0.240 C 
HETATM    3  O   UNL     1      -8.350   6.205 -32.821  1.00  0.00    -0.271 OA
HETATM    4  H   UNL     1      -8.038   3.459 -31.207  1.00  0.00     0.169 HD
ENDROOT
BRANCH   1   5
HETATM    5  C   UNL     1      -7.399   5.163 -30.210  1.00  0.00     0.050 A 
HETATM    6  C   UNL     1      -6.004   5.342 -30.081  1.00  0.00     0.058 A 
HETATM    7  C   UNL     1      -5.468   6.061 -28.998  1.00  0.00     0.019 A 
HETATM    8  C   UNL     1      -6.310   6.590 -28.023  1.00  0.00     0.001 A 
HETATM    9  C   UNL     1      -7.684   6.404 -28.129  1.00  0.00     0.002 A 
HETATM   10  C   UNL     1      -8.224   5.701 -29.212  1.00  0.00     0.030 A 
BRANCH   6  11
HETATM   11  C   UNL     1      -5.075   4.769 -31.090  1.00  0.00     0.254 C 
HETATM   12  N   UNL     1      -4.331   5.683 -31.806  1.00  0.00    -0.349 N 
HETATM   13  H   UNL     1      -4.300   6.634 -31.469  1.00  0.00     0.163 HD
HETATM   14  O   UNL     1      -4.982   3.553 -31.207  1.00  0.00    -0.268 OA
BRANCH  12  15
HETATM   15  C   UNL     1      -3.242   5.261 -32.673  1.00  0.00     0.114 C 
HETATM   16  C   UNL     1      -3.383   5.919 -34.047  1.00  0.00     0.037 C 
BRANCH  15  17
HETATM   17  C   UNL     1      -1.903   5.569 -32.023  1.00  0.00    -0.036 A 
HETATM   18  C   UNL     1      -1.176   6.698 -32.434  1.00  0.00     0.009 A 
HETATM   19  C   UNL     1       0.042   7.020 -31.833  1.00  0.00     0.001 A 
HETATM   20  C   UNL     1       0.564   6.208 -30.831  1.00  0.00     0.000 A 
HETATM   21  C   UNL     1      -0.131   5.070 -30.429  1.00  0.00     0.001 A 
HETATM   22  C   UNL     1      -1.357   4.752 -31.020  1.00  0.00     0.009 A 
ENDBRANCH  15  17
ENDBRANCH  12  15
ENDBRANCH   6  11
ENDBRANCH   1   5
BRANCH   2  23
HETATM   23  C   UNL     1      -8.731   3.963 -33.578  1.00  0.00     0.240 C 
BRANCH  23  24
HETATM   24  N   UNL     1      -7.798   2.860 -33.553  1.00  0.00    -0.259 N 
HETATM   25  C   UNL     1      -6.535   2.920 -34.044  1.00  0.00     0.326 A 
HETATM   26  O   UNL     1      -5.995   3.879 -34.565  1.00  0.00    -0.247 OA
HETATM   27  N   UNL     1      -5.947   1.690 -33.888  1.00  0.00    -0.324 N 
HETATM   28  C   UNL     1      -6.804   0.747 -33.198  1.00  0.00     0.120 A 
HETATM   29  H   UNL     1      -4.994   1.520 -34.179  1.00  0.00     0.165 HD
HETATM   30  C   UNL     1      -7.081  -0.521 -34.007  1.00  0.00     0.080 C 
HETATM   31  C   UNL     1      -6.269   0.418 -31.805  1.00  0.00     0.046 C 
HETATM   32  C   UNL     1      -8.078   1.603 -33.092  1.00  0.00     0.257 A 
HETATM   33  C   UNL     1      -5.967  -1.540 -33.918  1.00  0.00    -0.049 A 
HETATM   34  C   UNL     1      -4.996  -1.486 -32.903  1.00  0.00    -0.052 A 
HETATM   35  C   UNL     1      -5.947  -2.600 -34.838  1.00  0.00     0.007 A 
HETATM   36  C   UNL     1      -4.961  -0.366 -31.891  1.00  0.00     0.042 C 
HETATM   37  C   UNL     1      -3.997  -2.471 -32.856  1.00  0.00     0.007 A 
HETATM   38  C   UNL     1      -3.980  -3.512 -33.783  1.00  0.00     0.001 A 
HETATM   39  C   UNL     1      -4.957  -3.580 -34.771  1.00  0.00     0.001 A 
HETATM   40  O   UNL     1      -9.153   1.213 -32.660  1.00  0.00    -0.270 OA
ENDBRANCH  23  24
ENDBRANCH   2  23
TORSDOF 6
ENDMDL
MODEL 10
REMARK VINA RESULT:     -10.3      2.706      9.811
REMARK  6 active torsions:
REMARK  status: ('A' for Active; 'I' for Inactive)
REMARK    1  A    between atoms: C_2  and  N_3 
REMARK    2  A    between atoms: C_2  and  C_32 
REMARK       I    between atoms: N_3  and  C_4 
REMARK    3  A    between atoms: C_4  and  C_5 
REMARK    4  A    between atoms: C_6  and  N_7 
REMARK       I    between atoms: N_7  and  C_8 
REMARK    5  A    between atoms: C_8  and  C_9 
REMARK    6  A    between atoms: C_9  and  N_10 
ROOT
HETATM    1  N   UNL     1      -5.392   4.464 -29.478  1.00  0.00    -0.325 N 
HETATM    2  C   UNL     1      -5.492   3.546 -30.510  1.00  0.00     0.240 C 
HETATM    3  O   UNL     1      -6.404   3.488 -31.330  1.00  0.00    -0.271 OA
HETATM    4  H   UNL     1      -4.646   4.321 -28.788  1.00  0.00     0.169 HD
ENDROOT
BRANCH   1   5
HETATM    5  C   UNL     1      -6.224   5.590 -29.242  1.00  0.00     0.050 A 
HETATM    6  C   UNL     1      -5.995   6.790 -29.950  1.00  0.00     0.058 A 
HETATM    7  C   UNL     1      -6.832   7.905 -29.765  1.00  0.00     0.019 A 
HETATM    8  C   UNL     1      -7.888   7.846 -28.859  1.00  0.00     0.001 A 
HETATM    9  C   UNL     1      -8.112   6.675 -28.142  1.00  0.00     0.002 A 
HETATM   10  C   UNL     1      -7.291   5.558 -28.333  1.00  0.00     0.030 A 
BRANCH   6  11
HETATM   11  C   UNL     1      -4.862   6.896 -30.905  1.00  0.00     0.254 C 
HETATM   12  N   UNL     1      -3.659   7.300 -30.366  1.00  0.00    -0.349 N 
HETATM   13  H   UNL     1      -3.566   7.292 -29.360  1.00  0.00     0.163 HD
HETATM   14  O   UNL     1      -5.027   6.588 -32.080  1.00  0.00    -0.268 OA
BRANCH  12  15
HETATM   15  C   UNL     1      -2.426   7.250 -31.136  1.00  0.00     0.114 C 
HETATM   16  C   UNL     1      -2.057   8.651 -31.624  1.00  0.00     0.037 C 
BRANCH  15  17
HETATM   17  C   UNL     1      -1.317   6.618 -30.312  1.00  0.00    -0.036 A 
HETATM   18  C   UNL     1      -0.472   5.664 -30.901  1.00  0.00     0.009 A 
HETATM   19  C   UNL     1       0.573   5.090 -30.174  1.00  0.00     0.001 A 
HETATM   20  C   UNL     1       0.775   5.442 -28.842  1.00  0.00     0.000 A 
HETATM   21  C   UNL     1      -0.070   6.367 -28.235  1.00  0.00     0.001 A 
HETATM   22  C   UNL     1      -1.109   6.953 -28.964  1.00  0.00     0.009 A 
ENDBRANCH  15  17
ENDBRANCH  12  15
ENDBRANCH   6  11
ENDBRANCH   1   5
BRANCH   2  23
HETATM   23  C   UNL     1      -4.377   2.503 -30.514  1.00  0.00     0.240 C 
BRANCH  23  24
HETATM   24  N   UNL     1      -4.840   1.321 -31.202  1.00  0.00    -0.259 N 
HETATM   25  C   UNL     1      -5.676   0.401 -30.657  1.00  0.00     0.326 A 
HETATM   26  O   UNL     1      -6.161   0.421 -29.539  1.00  0.00    -0.247 OA
HETATM   27  N   UNL     1      -5.878  -0.602 -31.571  1.00  0.00    -0.324 N 
HETATM   28  C   UNL     1      -5.215  -0.345 -32.833  1.00  0.00     0.120 A 
HETATM   29  H   UNL     1      -6.484  -1.386 -31.369  1.00  0.00     0.165 HD
HETATM   30  C   UNL     1      -4.230  -1.446 -33.233  1.00  0.00     0.080 C 
HETATM   31  C   UNL     1      -6.220  -0.060 -33.948  1.00  0.00     0.046 C 
HETATM   32  C   UNL     1      -4.457   0.939 -32.458  1.00  0.00     0.257 A 
HETATM   33  C   UNL     1      -4.899  -2.638 -33.880  1.00  0.00    -0.049 A 
HETATM   34  C   UNL     1      -6.202  -2.559 -34.403  1.00  0.00    -0.052 A 
HETATM   35  C   UNL     1      -4.172  -3.830 -34.014  1.00  0.00     0.007 A 
HETATM   36  C   UNL     1      -7.037  -1.307 -34.281  1.00  0.00     0.042 C 
HETATM   37  C   UNL     1      -6.766  -3.691 -35.013  1.00  0.00     0.007 A 
HETATM   38  C   UNL     1      -6.037  -4.874 -35.130  1.00  0.00     0.001 A 
HETATM   39  C   UNL     1      -4.739  -4.942 -34.635  1.00  0.00     0.001 A 
HETATM   40  O   UNL     1      -3.653   1.517 -33.176  1.00  0.00    -0.270 OA
ENDBRANCH  23  24
ENDBRANCH   2  23
TORSDOF 6
ENDMDL
