MODEL 1
REMARK VINA RESULT:      -8.4      0.000      0.000
REMARK  7 active torsions:
REMARK  status: ('A' for Active; 'I' for Inactive)
REMARK    1  A    between atoms: C_4  and  C_5 
REMARK    2  A    between atoms: C_10  and  C_11 
REMARK       I    between atoms: C_11  and  N_12 
REMARK    3  A    between atoms: N_12  and  C_13 
REMARK    4  A    between atoms: C_13  and  C_14 
REMARK    5  A    between atoms: C_14  and  C_15 
REMARK    6  A    between atoms: C_15  and  N_16 
REMARK    7  A    between atoms: C_26  and  C_27 
ROOT
HETATM    1  C   UNL     1      -2.506   6.475 -30.972  1.00  0.00     0.125 C 
HETATM    2  N   UNL     1      -3.166   5.231 -30.562  1.00  0.00    -0.365 N 
HETATM    3  C   UNL     1      -4.012   4.625 -31.429  1.00  0.00     0.141 A 
HETATM    4  N   UNL     1      -3.934   4.877 -32.775  1.00  0.00    -0.238 N 
HETATM    5  N   UNL     1      -4.900   4.268 -33.490  1.00  0.00    -0.163 NA
HETATM    6  C   UNL     1      -5.566   3.522 -32.578  1.00  0.00     0.165 A 
HETATM    7  C   UNL     1      -5.031   3.721 -31.283  1.00  0.00     0.092 A 
HETATM    8 BR   UNL     1      -5.614   2.932 -29.689  1.00  0.00    -0.044 Br
HETATM    9  C   UNL     1      -3.022   5.842 -33.373  1.00  0.00     0.221 C 
HETATM   10  C   UNL     1      -1.920   6.258 -32.377  1.00  0.00     0.067 C 
HETATM   11  H   UNL     1      -3.362   5.186 -29.559  1.00  0.00     0.162 HD
ENDROOT
BRANCH   6  12
HETATM   12  C   UNL     1      -6.677   2.666 -33.005  1.00  0.00     0.273 C 
HETATM   13  N   UNL     1      -6.443   1.998 -34.191  1.00  0.00    -0.355 N 
HETATM   14  H   UNL     1      -5.570   2.253 -34.658  1.00  0.00     0.162 HD
HETATM   15  O   UNL     1      -7.724   2.494 -32.377  1.00  0.00    -0.266 OA
BRANCH  13  16
HETATM   16  C   UNL     1      -7.454   1.246 -34.893  1.00  0.00     0.124 C 
BRANCH  16  17
HETATM   17  C   UNL     1      -7.051  -0.196 -35.202  1.00  0.00     0.047 C 
BRANCH  17  18
HETATM   18  C   UNL     1      -6.249  -0.942 -34.134  1.00  0.00     0.236 C 
BRANCH  18  19
HETATM   19  N   UNL     1      -5.703  -2.269 -34.585  1.00  0.00    -0.067 N 
HETATM   20  H   UNL     1      -5.404  -2.149 -35.576  1.00  0.00     0.280 HD
HETATM   21  C   UNL     1      -4.531  -2.797 -33.780  1.00  0.00     0.261 C 
HETATM   22  C   UNL     1      -4.067  -4.140 -34.358  1.00  0.00     0.195 C 
HETATM   23  O   UNL     1      -5.137  -5.089 -34.383  1.00  0.00    -0.388 OA
HETATM   24  C   UNL     1      -6.218  -4.636 -35.207  1.00  0.00     0.195 C 
HETATM   25  C   UNL     1      -6.802  -3.328 -34.665  1.00  0.00     0.261 C 
ENDBRANCH  18  19
ENDBRANCH  17  18
ENDBRANCH  16  17
ENDBRANCH  13  16
ENDBRANCH   6  12
BRANCH   9  26
HETATM   26  C   UNL     1      -2.390   5.291 -34.634  1.00  0.00     0.409 C 
HETATM   27  F   UNL     1      -3.232   5.300 -35.691  1.00  0.00    -0.169 F 
HETATM   28  F   UNL     1      -1.320   6.046 -34.989  1.00  0.00    -0.169 F 
HETATM   29  F   UNL     1      -1.943   4.026 -34.470  1.00  0.00    -0.169 F 
ENDBRANCH   9  26
BRANCH   1  30
HETATM   30  C   UNL     1      -1.442   6.915 -30.000  1.00  0.00     0.005 A 
HETATM   31  S   UNL     1      -1.882   7.373 -28.404  1.00  0.00    -0.104 SA
HETATM   32  C   UNL     1      -0.258   7.687 -27.974  1.00  0.00     0.050 A 
HETATM   33  C   UNL     1       0.607   7.451 -29.018  1.00  0.00     0.008 A 
HETATM   34  C   UNL     1      -0.075   6.996 -30.184  1.00  0.00     0.017 A 
ENDBRANCH   1  30
TORSDOF 7
ENDMDL
MODEL 2
REMARK VINA RESULT:      -8.4      4.599      9.114
REMARK  7 active torsions:
REMARK  status: ('A' for Active; 'I' for Inactive)
REMARK    1  A    between atoms: C_4  and  C_5 
REMARK    2  A    between atoms: C_10  and  C_11 
REMARK       I    between atoms: C_11  and  N_12 
REMARK    3  A    between atoms: N_12  and  C_13 
REMARK    4  A    between atoms: C_13  and  C_14 
REMARK    5  A    between atoms: C_14  and  C_15 
REMARK    6  A    between atoms: C_15  and  N_16 
REMARK    7  A    between atoms: C_26  and  C_27 
ROOT
HETATM    1  C   UNL     1      -6.538  -0.995 -34.232  1.00  0.00     0.125 C 
HETATM    2  N   UNL     1      -5.681  -0.162 -33.382  1.00  0.00    -0.365 N 
HETATM    3  C   UNL     1      -6.131   1.058 -33.000  1.00  0.00     0.141 A 
HETATM    4  N   UNL     1      -7.472   1.345 -33.010  1.00  0.00    -0.238 N 
HETATM    5  N   UNL     1      -7.748   2.625 -32.691  1.00  0.00    -0.163 NA
HETATM    6  C   UNL     1      -6.543   3.154 -32.374  1.00  0.00     0.165 A 
HETATM    7  C   UNL     1      -5.514   2.198 -32.553  1.00  0.00     0.092 A 
HETATM    8 BR   UNL     1      -3.681   2.446 -32.267  1.00  0.00    -0.044 Br
HETATM    9  C   UNL     1      -8.499   0.429 -33.485  1.00  0.00     0.221 C 
HETATM   10  C   UNL     1      -7.947  -1.005 -33.618  1.00  0.00     0.067 C 
HETATM   11  H   UNL     1      -4.682  -0.294 -33.556  1.00  0.00     0.162 HD
ENDROOT
BRANCH   6  12
HETATM   12  C   UNL     1      -6.450   4.545 -31.922  1.00  0.00     0.273 C 
HETATM   13  N   UNL     1      -5.784   4.699 -30.723  1.00  0.00    -0.355 N 
HETATM   14  H   UNL     1      -5.521   3.822 -30.267  1.00  0.00     0.162 HD
HETATM   15  O   UNL     1      -6.876   5.523 -32.539  1.00  0.00    -0.266 OA
BRANCH  13  16
HETATM   16  C   UNL     1      -5.727   5.944 -29.998  1.00  0.00     0.124 C 
BRANCH  16  17
HETATM   17  C   UNL     1      -4.417   6.711 -30.184  1.00  0.00     0.047 C 
BRANCH  17  18
HETATM   18  C   UNL     1      -4.171   7.354 -31.550  1.00  0.00     0.236 C 
BRANCH  18  19
HETATM   19  N   UNL     1      -3.028   6.751 -32.319  1.00  0.00    -0.067 N 
HETATM   20  H   UNL     1      -2.591   6.038 -31.698  1.00  0.00     0.280 HD
HETATM   21  C   UNL     1      -3.404   6.092 -33.633  1.00  0.00     0.261 C 
HETATM   22  C   UNL     1      -2.152   5.507 -34.298  1.00  0.00     0.195 C 
HETATM   23  O   UNL     1      -1.157   6.516 -34.500  1.00  0.00    -0.388 OA
HETATM   24  C   UNL     1      -0.734   7.089 -33.258  1.00  0.00     0.195 C 
HETATM   25  C   UNL     1      -1.910   7.768 -32.547  1.00  0.00     0.261 C 
ENDBRANCH  18  19
ENDBRANCH  17  18
ENDBRANCH  16  17
ENDBRANCH  13  16
ENDBRANCH   6  12
BRANCH   9  26
HETATM   26  C   UNL     1      -9.704   0.431 -32.567  1.00  0.00     0.409 C 
HETATM   27  F   UNL     1     -10.568   1.434 -32.836  1.00  0.00    -0.169 F 
HETATM   28  F   UNL     1     -10.400  -0.724 -32.708  1.00  0.00    -0.169 F 
HETATM   29  F   UNL     1      -9.352   0.524 -31.265  1.00  0.00    -0.169 F 
ENDBRANCH   9  26
BRANCH   1  30
HETATM   30  C   UNL     1      -6.005  -2.395 -34.397  1.00  0.00     0.005 A 
HETATM   31  S   UNL     1      -4.366  -2.734 -34.012  1.00  0.00    -0.104 SA
HETATM   32  C   UNL     1      -4.544  -4.386 -34.414  1.00  0.00     0.050 A 
HETATM   33  C   UNL     1      -5.821  -4.681 -34.832  1.00  0.00     0.008 A 
HETATM   34  C   UNL     1      -6.667  -3.535 -34.814  1.00  0.00     0.017 A 
ENDBRANCH   1  30
TORSDOF 7
ENDMDL
MODEL 3
REMARK VINA RESULT:      -8.4      4.325      9.246
REMARK  7 active torsions:
REMARK  status: ('A' for Active; 'I' for Inactive)
REMARK    1  A    between atoms: C_4  and  C_5 
REMARK    2  A    between atoms: C_10  and  C_11 
REMARK       I    between atoms: C_11  and  N_12 
REMARK    3  A    between atoms: N_12  and  C_13 
REMARK    4  A    between atoms: C_13  and  C_14 
REMARK    5  A    between atoms: C_14  and  C_15 
REMARK    6  A    between atoms: C_15  and  N_16 
REMARK    7  A    between atoms: C_26  and  C_27 
ROOT
HETATM    1  C   UNL     1      -6.396  -0.886 -34.124  1.00  0.00     0.125 C 
HETATM    2  N   UNL     1      -5.553  -0.221 -33.125  1.00  0.00    -0.365 N 
HETATM    3  C   UNL     1      -5.914   1.006 -32.680  1.00  0.00     0.141 A 
HETATM    4  N   UNL     1      -7.212   1.438 -32.791  1.00  0.00    -0.238 N 
HETATM    5  N   UNL     1      -7.389   2.711 -32.386  1.00  0.00    -0.163 NA
HETATM    6  C   UNL     1      -6.176   3.078 -31.910  1.00  0.00     0.165 A 
HETATM    7  C   UNL     1      -5.236   2.033 -32.076  1.00  0.00     0.092 A 
HETATM    8 BR   UNL     1      -3.427   2.056 -31.597  1.00  0.00    -0.044 Br
HETATM    9  C   UNL     1      -8.271   0.679 -33.441  1.00  0.00     0.221 C 
HETATM   10  C   UNL     1      -7.855  -0.791 -33.649  1.00  0.00     0.067 C 
HETATM   11  H   UNL     1      -4.560  -0.447 -33.215  1.00  0.00     0.162 HD
ENDROOT
BRANCH   6  12
HETATM   12  C   UNL     1      -5.992   4.412 -31.328  1.00  0.00     0.273 C 
HETATM   13  N   UNL     1      -5.315   5.290 -32.151  1.00  0.00    -0.355 N 
HETATM   14  H   UNL     1      -4.956   4.875 -33.014  1.00  0.00     0.162 HD
HETATM   15  O   UNL     1      -6.418   4.773 -30.230  1.00  0.00    -0.266 OA
BRANCH  13  16
HETATM   16  C   UNL     1      -4.862   6.591 -31.723  1.00  0.00     0.124 C 
BRANCH  16  17
HETATM   17  C   UNL     1      -3.355   6.802 -31.873  1.00  0.00     0.047 C 
BRANCH  17  18
HETATM   18  C   UNL     1      -2.457   5.576 -31.699  1.00  0.00     0.236 C 
BRANCH  18  19
HETATM   19  N   UNL     1      -1.606   5.605 -30.460  1.00  0.00    -0.067 N 
HETATM   20  H   UNL     1      -2.033   4.936 -29.785  1.00  0.00     0.280 HD
HETATM   21  C   UNL     1      -0.149   5.232 -30.663  1.00  0.00     0.261 C 
HETATM   22  C   UNL     1       0.593   5.286 -29.322  1.00  0.00     0.195 C 
HETATM   23  O   UNL     1       0.477   6.578 -28.719  1.00  0.00    -0.388 OA
HETATM   24  C   UNL     1      -0.890   6.907 -28.447  1.00  0.00     0.195 C 
HETATM   25  C   UNL     1      -1.705   6.952 -29.744  1.00  0.00     0.261 C 
ENDBRANCH  18  19
ENDBRANCH  17  18
ENDBRANCH  16  17
ENDBRANCH  13  16
ENDBRANCH   6  12
BRANCH   9  26
HETATM   26  C   UNL     1      -9.558   0.741 -32.645  1.00  0.00     0.409 C 
HETATM   27  F   UNL     1     -10.250   1.882 -32.852  1.00  0.00    -0.169 F 
HETATM   28  F   UNL     1     -10.378  -0.278 -33.006  1.00  0.00    -0.169 F 
HETATM   29  F   UNL     1      -9.341   0.621 -31.316  1.00  0.00    -0.169 F 
ENDBRANCH   9  26
BRANCH   1  30
HETATM   30  C   UNL     1      -5.992  -2.318 -34.362  1.00  0.00     0.005 A 
HETATM   31  S   UNL     1      -4.415  -2.843 -33.931  1.00  0.00    -0.104 SA
HETATM   32  C   UNL     1      -4.730  -4.439 -34.454  1.00  0.00     0.050 A 
HETATM   33  C   UNL     1      -6.007  -4.578 -34.948  1.00  0.00     0.008 A 
HETATM   34  C   UNL     1      -6.739  -3.357 -34.886  1.00  0.00     0.017 A 
ENDBRANCH   1  30
TORSDOF 7
ENDMDL
MODEL 4
REMARK VINA RESULT:      -7.9      4.606      9.480
REMARK  7 active torsions:
REMARK  status: ('A' for Active; 'I' for Inactive)
REMARK    1  A    between atoms: C_4  and  C_5 
REMARK    2  A    between atoms: C_10  and  C_11 
REMARK       I    between atoms: C_11  and  N_12 
REMARK    3  A    between atoms: N_12  and  C_13 
REMARK    4  A    between atoms: C_13  and  C_14 
REMARK    5  A    between atoms: C_14  and  C_15 
REMARK    6  A    between atoms: C_15  and  N_16 
REMARK    7  A    between atoms: C_26  and  C_27 
ROOT
HETATM    1  C   UNL     1     -10.331   1.383 -33.310  1.00  0.00     0.125 C 
HETATM    2  N   UNL     1     -10.021   2.740 -33.771  1.00  0.00    -0.365 N 
HETATM    3  C   UNL     1      -8.726   3.134 -33.814  1.00  0.00     0.141 A 
HETATM    4  N   UNL     1      -7.713   2.210 -33.865  1.00  0.00    -0.238 N 
HETATM    5  N   UNL     1      -6.484   2.759 -33.812  1.00  0.00    -0.163 NA
HETATM    6  C   UNL     1      -6.717   4.092 -33.822  1.00  0.00     0.165 A 
HETATM    7  C   UNL     1      -8.107   4.357 -33.828  1.00  0.00     0.092 A 
HETATM    8 BR   UNL     1      -8.936   6.035 -33.825  1.00  0.00    -0.044 Br
HETATM    9  C   UNL     1      -7.920   0.770 -33.802  1.00  0.00     0.221 C 
HETATM   10  C   UNL     1      -9.399   0.408 -34.048  1.00  0.00     0.067 C 
HETATM   11  H   UNL     1     -10.744   3.424 -33.538  1.00  0.00     0.162 HD
ENDROOT
BRANCH   6  12
HETATM   12  C   UNL     1      -5.591   5.031 -33.821  1.00  0.00     0.273 C 
HETATM   13  N   UNL     1      -4.656   4.781 -34.806  1.00  0.00    -0.355 N 
HETATM   14  H   UNL     1      -4.824   3.928 -35.345  1.00  0.00     0.162 HD
HETATM   15  O   UNL     1      -5.468   5.994 -33.061  1.00  0.00    -0.266 OA
BRANCH  13  16
HETATM   16  C   UNL     1      -3.384   5.456 -34.885  1.00  0.00     0.124 C 
BRANCH  16  17
HETATM   17  C   UNL     1      -2.299   4.840 -34.001  1.00  0.00     0.047 C 
BRANCH  17  18
HETATM   18  C   UNL     1      -1.158   5.756 -33.555  1.00  0.00     0.236 C 
BRANCH  18  19
HETATM   19  N   UNL     1      -1.463   6.570 -32.328  1.00  0.00    -0.067 N 
HETATM   20  H   UNL     1      -0.574   6.644 -31.788  1.00  0.00     0.280 HD
HETATM   21  C   UNL     1      -1.994   7.967 -32.591  1.00  0.00     0.261 C 
HETATM   22  C   UNL     1      -2.243   8.688 -31.260  1.00  0.00     0.195 C 
HETATM   23  O   UNL     1      -3.145   7.946 -30.433  1.00  0.00    -0.388 OA
HETATM   24  C   UNL     1      -2.617   6.655 -30.111  1.00  0.00     0.195 C 
HETATM   25  C   UNL     1      -2.402   5.825 -31.380  1.00  0.00     0.261 C 
ENDBRANCH  18  19
ENDBRANCH  17  18
ENDBRANCH  16  17
ENDBRANCH  13  16
ENDBRANCH   6  12
BRANCH   9  26
HETATM   26  C   UNL     1      -7.042   0.045 -34.802  1.00  0.00     0.409 C 
HETATM   27  F   UNL     1      -6.929   0.704 -35.976  1.00  0.00    -0.169 F 
HETATM   28  F   UNL     1      -5.785  -0.084 -34.310  1.00  0.00    -0.169 F 
HETATM   29  F   UNL     1      -7.493  -1.201 -35.066  1.00  0.00    -0.169 F 
ENDBRANCH   9  26
BRANCH   1  30
HETATM   30  C   UNL     1     -11.778   1.016 -33.517  1.00  0.00     0.005 A 
HETATM   31  S   UNL     1     -12.916   2.234 -33.928  1.00  0.00    -0.104 SA
HETATM   32  C   UNL     1     -14.199   1.107 -33.999  1.00  0.00     0.050 A 
HETATM   33  C   UNL     1     -13.778  -0.172 -33.717  1.00  0.00     0.008 A 
HETATM   34  C   UNL     1     -12.379  -0.227 -33.448  1.00  0.00     0.017 A 
ENDBRANCH   1  30
TORSDOF 7
ENDMDL
MODEL 5
REMARK VINA RESULT:      -7.8      5.188      9.271
REMARK  7 active torsions:
REMARK  status: ('A' for Active; 'I' for Inactive)
REMARK    1  A    between atoms: C_4  and  C_5 
REMARK    2  A    between atoms: C_10  and  C_11 
REMARK       I    between atoms: C_11  and  N_12 
REMARK    3  A    between atoms: N_12  and  C_13 
REMARK    4  A    between atoms: C_13  and  C_14 
REMARK    5  A    between atoms: C_14  and  C_15 
REMARK    6  A    between atoms: C_15  and  N_16 
REMARK    7  A    between atoms: C_26  and  C_27 
ROOT
HETATM    1  C   UNL     1      -6.405  -1.018 -34.027  1.00  0.00     0.125 C 
HETATM    2  N   UNL     1      -5.560  -0.415 -32.991  1.00  0.00    -0.365 N 
HETATM    3  C   UNL     1      -5.919   0.784 -32.474  1.00  0.00     0.141 A 
HETATM    4  N   UNL     1      -7.216   1.224 -32.557  1.00  0.00    -0.238 N 
HETATM    5  N   UNL     1      -7.390   2.470 -32.077  1.00  0.00    -0.163 NA
HETATM    6  C   UNL     1      -6.176   2.807 -31.582  1.00  0.00     0.165 A 
HETATM    7  C   UNL     1      -5.239   1.772 -31.810  1.00  0.00     0.092 A 
HETATM    8 BR   UNL     1      -3.429   1.763 -31.332  1.00  0.00    -0.044 Br
HETATM    9  C   UNL     1      -8.277   0.507 -33.251  1.00  0.00     0.221 C 
HETATM   10  C   UNL     1      -7.864  -0.950 -33.546  1.00  0.00     0.067 C 
HETATM   11  H   UNL     1      -4.567  -0.638 -33.095  1.00  0.00     0.162 HD
ENDROOT
BRANCH   6  12
HETATM   12  C   UNL     1      -5.989   4.103 -30.921  1.00  0.00     0.273 C 
HETATM   13  N   UNL     1      -5.832   4.013 -29.552  1.00  0.00    -0.355 N 
HETATM   14  H   UNL     1      -5.954   3.072 -29.171  1.00  0.00     0.162 HD
HETATM   15  O   UNL     1      -5.930   5.191 -31.496  1.00  0.00    -0.266 OA
BRANCH  13  16
HETATM   16  C   UNL     1      -5.814   5.160 -28.678  1.00  0.00     0.124 C 
BRANCH  16  17
HETATM   17  C   UNL     1      -7.198   5.587 -28.188  1.00  0.00     0.047 C 
BRANCH  17  18
HETATM   18  C   UNL     1      -7.843   6.791 -28.877  1.00  0.00     0.236 C 
BRANCH  18  19
HETATM   19  N   UNL     1      -8.500   6.471 -30.192  1.00  0.00    -0.067 N 
HETATM   20  H   UNL     1      -7.733   6.320 -30.882  1.00  0.00     0.280 HD
HETATM   21  C   UNL     1      -9.403   5.252 -30.188  1.00  0.00     0.261 C 
HETATM   22  C   UNL     1      -9.987   5.034 -31.589  1.00  0.00     0.195 C 
HETATM   23  O   UNL     1     -10.697   6.193 -32.038  1.00  0.00    -0.388 OA
HETATM   24  C   UNL     1      -9.835   7.333 -32.124  1.00  0.00     0.195 C 
HETATM   25  C   UNL     1      -9.254   7.678 -30.748  1.00  0.00     0.261 C 
ENDBRANCH  18  19
ENDBRANCH  17  18
ENDBRANCH  16  17
ENDBRANCH  13  16
ENDBRANCH   6  12
BRANCH   9  26
HETATM   26  C   UNL     1      -9.563   0.523 -32.451  1.00  0.00     0.409 C 
HETATM   27  F   UNL     1     -10.267   1.665 -32.609  1.00  0.00    -0.169 F 
HETATM   28  F   UNL     1     -10.374  -0.488 -32.853  1.00  0.00    -0.169 F 
HETATM   29  F   UNL     1      -9.343   0.350 -31.128  1.00  0.00    -0.169 F 
ENDBRANCH   9  26
BRANCH   1  30
HETATM   30  C   UNL     1      -6.004  -2.434 -34.351  1.00  0.00     0.005 A 
HETATM   31  S   UNL     1      -4.398  -2.957 -34.043  1.00  0.00    -0.104 SA
HETATM   32  C   UNL     1      -4.731  -4.535 -34.611  1.00  0.00     0.050 A 
HETATM   33  C   UNL     1      -6.035  -4.668 -35.029  1.00  0.00     0.008 A 
HETATM   34  C   UNL     1      -6.773  -3.459 -34.870  1.00  0.00     0.017 A 
ENDBRANCH   1  30
TORSDOF 7
ENDMDL
MODEL 6
REMARK VINA RESULT:      -7.8      5.089      9.161
REMARK  7 active torsions:
REMARK  status: ('A' for Active; 'I' for Inactive)
REMARK    1  A    between atoms: C_4  and  C_5 
REMARK    2  A    between atoms: C_10  and  C_11 
REMARK       I    between atoms: C_11  and  N_12 
REMARK    3  A    between atoms: N_12  and  C_13 
REMARK    4  A    between atoms: C_13  and  C_14 
REMARK    5  A    between atoms: C_14  and  C_15 
REMARK    6  A    between atoms: C_15  and  N_16 
REMARK    7  A    between atoms: C_26  and  C_27 
ROOT
HETATM    1  C   UNL     1      -6.442  -0.979 -34.155  1.00  0.00     0.125 C 
HETATM    2  N   UNL     1      -5.587  -0.290 -33.184  1.00  0.00    -0.365 N 
HETATM    3  C   UNL     1      -5.952   0.941 -32.752  1.00  0.00     0.141 A 
HETATM    4  N   UNL     1      -7.256   1.358 -32.844  1.00  0.00    -0.238 N 
HETATM    5  N   UNL     1      -7.439   2.635 -32.457  1.00  0.00    -0.163 NA
HETATM    6  C   UNL     1      -6.220   3.022 -32.011  1.00  0.00     0.165 A 
HETATM    7  C   UNL     1      -5.273   1.984 -32.178  1.00  0.00     0.092 A 
HETATM    8 BR   UNL     1      -3.455   2.034 -31.735  1.00  0.00    -0.044 Br
HETATM    9  C   UNL     1      -8.319   0.578 -33.461  1.00  0.00     0.221 C 
HETATM   10  C   UNL     1      -7.893  -0.892 -33.654  1.00  0.00     0.067 C 
HETATM   11  H   UNL     1      -4.593  -0.508 -33.290  1.00  0.00     0.162 HD
ENDROOT
BRANCH   6  12
HETATM   12  C   UNL     1      -6.039   4.367 -31.454  1.00  0.00     0.273 C 
HETATM   13  N   UNL     1      -6.247   5.381 -32.367  1.00  0.00    -0.355 N 
HETATM   14  H   UNL     1      -6.413   5.064 -33.326  1.00  0.00     0.162 HD
HETATM   15  O   UNL     1      -5.766   4.619 -30.279  1.00  0.00    -0.266 OA
BRANCH  13  16
HETATM   16  C   UNL     1      -5.952   6.767 -32.098  1.00  0.00     0.124 C 
BRANCH  16  17
HETATM   17  C   UNL     1      -7.181   7.676 -32.115  1.00  0.00     0.047 C 
BRANCH  17  18
HETATM   18  C   UNL     1      -8.552   6.998 -32.140  1.00  0.00     0.236 C 
BRANCH  18  19
HETATM   19  N   UNL     1      -9.172   6.909 -33.507  1.00  0.00    -0.067 N 
HETATM   20  H   UNL     1      -8.480   7.308 -34.177  1.00  0.00     0.280 HD
HETATM   21  C   UNL     1      -9.544   5.510 -33.963  1.00  0.00     0.261 C 
HETATM   22  C   UNL     1     -10.145   5.566 -35.373  1.00  0.00     0.195 C 
HETATM   23  O   UNL     1     -11.281   6.435 -35.416  1.00  0.00    -0.388 OA
HETATM   24  C   UNL     1     -10.924   7.778 -35.067  1.00  0.00     0.195 C 
HETATM   25  C   UNL     1     -10.378   7.839 -33.637  1.00  0.00     0.261 C 
ENDBRANCH  18  19
ENDBRANCH  17  18
ENDBRANCH  16  17
ENDBRANCH  13  16
ENDBRANCH   6  12
BRANCH   9  26
HETATM   26  C   UNL     1      -9.591   0.639 -32.641  1.00  0.00     0.409 C 
HETATM   27  F   UNL     1     -10.447  -0.369 -32.921  1.00  0.00    -0.169 F 
HETATM   28  F   UNL     1      -9.300   0.539 -31.320  1.00  0.00    -0.169 F 
HETATM   29  F   UNL     1     -10.253   1.805 -32.813  1.00  0.00    -0.169 F 
ENDBRANCH   9  26
BRANCH   1  30
HETATM   30  C   UNL     1      -6.028  -2.411 -34.379  1.00  0.00     0.005 A 
HETATM   31  S   UNL     1      -4.427  -2.904 -34.005  1.00  0.00    -0.104 SA
HETATM   32  C   UNL     1      -4.740  -4.517 -34.477  1.00  0.00     0.050 A 
HETATM   33  C   UNL     1      -6.035  -4.684 -34.912  1.00  0.00     0.008 A 
HETATM   34  C   UNL     1      -6.782  -3.472 -34.846  1.00  0.00     0.017 A 
ENDBRANCH   1  30
TORSDOF 7
ENDMDL
MODEL 7
REMARK VINA RESULT:      -7.7      7.191      9.264
REMARK  7 active torsions:
REMARK  status: ('A' for Active; 'I' for Inactive)
REMARK    1  A    between atoms: C_4  and  C_5 
REMARK    2  A    between atoms: C_10  and  C_11 
REMARK       I    between atoms: C_11  and  N_12 
REMARK    3  A    between atoms: N_12  and  C_13 
REMARK    4  A    between atoms: C_13  and  C_14 
REMARK    5  A    between atoms: C_14  and  C_15 
REMARK    6  A    between atoms: C_15  and  N_16 
REMARK    7  A    between atoms: C_26  and  C_27 
ROOT
HETATM    1  C   UNL     1     -13.925   3.763 -31.657  1.00  0.00     0.125 C 
HETATM    2  N   UNL     1     -12.691   4.358 -32.178  1.00  0.00    -0.365 N 
HETATM    3  C   UNL     1     -11.750   3.544 -32.713  1.00  0.00     0.141 A 
HETATM    4  N   UNL     1     -12.082   2.293 -33.168  1.00  0.00    -0.238 N 
HETATM    5  N   UNL     1     -11.021   1.577 -33.587  1.00  0.00    -0.163 NA
HETATM    6  C   UNL     1      -9.980   2.436 -33.482  1.00  0.00     0.165 A 
HETATM    7  C   UNL     1     -10.405   3.674 -32.944  1.00  0.00     0.092 A 
HETATM    8 BR   UNL     1      -9.343   5.174 -32.590  1.00  0.00    -0.044 Br
HETATM    9  C   UNL     1     -13.412   1.711 -33.056  1.00  0.00     0.221 C 
HETATM   10  C   UNL     1     -14.464   2.787 -32.715  1.00  0.00     0.067 C 
HETATM   11  H   UNL     1     -12.397   5.196 -31.670  1.00  0.00     0.162 HD
ENDROOT
BRANCH   6  12
HETATM   12  C   UNL     1      -8.639   2.015 -33.902  1.00  0.00     0.273 C 
HETATM   13  N   UNL     1      -8.641   1.054 -34.893  1.00  0.00    -0.355 N 
HETATM   14  H   UNL     1      -9.569   0.700 -35.141  1.00  0.00     0.162 HD
HETATM   15  O   UNL     1      -7.581   2.477 -33.470  1.00  0.00    -0.266 OA
BRANCH  13  16
HETATM   16  C   UNL     1      -7.455   0.363 -35.334  1.00  0.00     0.124 C 
BRANCH  16  17
HETATM   17  C   UNL     1      -7.094  -0.854 -34.482  1.00  0.00     0.047 C 
BRANCH  17  18
HETATM   18  C   UNL     1      -5.607  -1.145 -34.272  1.00  0.00     0.236 C 
BRANCH  18  19
HETATM   19  N   UNL     1      -5.193  -2.543 -34.639  1.00  0.00    -0.067 N 
HETATM   20  H   UNL     1      -4.782  -2.494 -35.596  1.00  0.00     0.280 HD
HETATM   21  C   UNL     1      -4.187  -3.190 -33.706  1.00  0.00     0.261 C 
HETATM   22  C   UNL     1      -3.843  -4.598 -34.207  1.00  0.00     0.195 C 
HETATM   23  O   UNL     1      -5.019  -5.405 -34.327  1.00  0.00    -0.388 OA
HETATM   24  C   UNL     1      -5.942  -4.846 -35.268  1.00  0.00     0.195 C 
HETATM   25  C   UNL     1      -6.406  -3.458 -34.814  1.00  0.00     0.261 C 
ENDBRANCH  18  19
ENDBRANCH  17  18
ENDBRANCH  16  17
ENDBRANCH  13  16
ENDBRANCH   6  12
BRANCH   9  26
HETATM   26  C   UNL     1     -13.806   0.994 -34.330  1.00  0.00     0.409 C 
HETATM   27  F   UNL     1     -13.454  -0.310 -34.331  1.00  0.00    -0.169 F 
HETATM   28  F   UNL     1     -15.154   1.028 -34.487  1.00  0.00    -0.169 F 
HETATM   29  F   UNL     1     -13.267   1.571 -35.427  1.00  0.00    -0.169 F 
ENDBRANCH   9  26
BRANCH   1  30
HETATM   30  C   UNL     1     -14.959   4.797 -31.293  1.00  0.00     0.005 A 
HETATM   31  S   UNL     1     -16.553   4.667 -31.919  1.00  0.00    -0.104 SA
HETATM   32  C   UNL     1     -17.064   6.075 -31.096  1.00  0.00     0.050 A 
HETATM   33  C   UNL     1     -16.048   6.639 -30.359  1.00  0.00     0.008 A 
HETATM   34  C   UNL     1     -14.836   5.896 -30.464  1.00  0.00     0.017 A 
ENDBRANCH   1  30
TORSDOF 7
ENDMDL
MODEL 8
REMARK VINA RESULT:      -7.7      4.343      9.510
REMARK  7 active torsions:
REMARK  status: ('A' for Active; 'I' for Inactive)
REMARK    1  A    between atoms: C_4  and  C_5 
REMARK    2  A    between atoms: C_10  and  C_11 
REMARK       I    between atoms: C_11  and  N_12 
REMARK    3  A    between atoms: N_12  and  C_13 
REMARK    4  A    between atoms: C_13  and  C_14 
REMARK    5  A    between atoms: C_14  and  C_15 
REMARK    6  A    between atoms: C_15  and  N_16 
REMARK    7  A    between atoms: C_26  and  C_27 
ROOT
HETATM    1  C   UNL     1      -6.917   1.492 -32.030  1.00  0.00     0.125 C 
HETATM    2  N   UNL     1      -6.312   2.713 -32.569  1.00  0.00    -0.365 N 
HETATM    3  C   UNL     1      -5.037   3.016 -32.224  1.00  0.00     0.141 A 
HETATM    4  N   UNL     1      -4.184   2.042 -31.771  1.00  0.00    -0.238 N 
HETATM    5  N   UNL     1      -2.984   2.518 -31.385  1.00  0.00    -0.163 NA
HETATM    6  C   UNL     1      -3.038   3.836 -31.691  1.00  0.00     0.165 A 
HETATM    7  C   UNL     1      -4.306   4.175 -32.221  1.00  0.00     0.092 A 
HETATM    8 BR   UNL     1      -4.880   5.868 -32.777  1.00  0.00    -0.044 Br
HETATM    9  C   UNL     1      -4.572   0.656 -31.551  1.00  0.00     0.221 C 
HETATM   10  C   UNL     1      -5.920   0.340 -32.232  1.00  0.00     0.067 C 
HETATM   11  H   UNL     1      -6.983   3.471 -32.714  1.00  0.00     0.162 HD
ENDROOT
BRANCH   6  12
HETATM   12  C   UNL     1      -1.870   4.690 -31.453  1.00  0.00     0.273 C 
HETATM   13  N   UNL     1      -2.034   5.580 -30.410  1.00  0.00    -0.355 N 
HETATM   14  H   UNL     1      -2.971   5.588 -30.000  1.00  0.00     0.162 HD
HETATM   15  O   UNL     1      -0.806   4.629 -32.073  1.00  0.00    -0.266 OA
BRANCH  13  16
HETATM   16  C   UNL     1      -1.097   6.634 -30.110  1.00  0.00     0.124 C 
BRANCH  16  17
HETATM   17  C   UNL     1      -1.756   7.973 -29.778  1.00  0.00     0.047 C 
BRANCH  17  18
HETATM   18  C   UNL     1      -3.254   7.957 -29.468  1.00  0.00     0.236 C 
BRANCH  18  19
HETATM   19  N   UNL     1      -3.600   8.379 -28.067  1.00  0.00    -0.067 N 
HETATM   20  H   UNL     1      -2.992   9.195 -27.841  1.00  0.00     0.280 HD
HETATM   21  C   UNL     1      -5.049   8.772 -27.846  1.00  0.00     0.261 C 
HETATM   22  C   UNL     1      -5.255   9.196 -26.386  1.00  0.00     0.195 C 
HETATM   23  O   UNL     1      -4.866   8.154 -25.486  1.00  0.00    -0.388 OA
HETATM   24  C   UNL     1      -3.478   7.831 -25.630  1.00  0.00     0.195 C 
HETATM   25  C   UNL     1      -3.184   7.323 -27.045  1.00  0.00     0.261 C 
ENDBRANCH  18  19
ENDBRANCH  17  18
ENDBRANCH  16  17
ENDBRANCH  13  16
ENDBRANCH   6  12
BRANCH   9  26
HETATM   26  C   UNL     1      -3.508  -0.298 -32.054  1.00  0.00     0.409 C 
HETATM   27  F   UNL     1      -2.451  -0.394 -31.219  1.00  0.00    -0.169 F 
HETATM   28  F   UNL     1      -4.021  -1.549 -32.172  1.00  0.00    -0.169 F 
HETATM   29  F   UNL     1      -3.043   0.054 -33.274  1.00  0.00    -0.169 F 
ENDBRANCH   9  26
BRANCH   1  30
HETATM   30  C   UNL     1      -8.249   1.177 -32.663  1.00  0.00     0.005 A 
HETATM   31  S   UNL     1      -8.662   1.879 -34.174  1.00  0.00    -0.104 SA
HETATM   32  C   UNL     1     -10.173   1.081 -34.208  1.00  0.00     0.050 A 
HETATM   33  C   UNL     1     -10.366   0.294 -33.096  1.00  0.00     0.008 A 
HETATM   34  C   UNL     1      -9.252   0.341 -32.208  1.00  0.00     0.017 A 
ENDBRANCH   1  30
TORSDOF 7
ENDMDL
MODEL 9
REMARK VINA RESULT:      -7.6      4.180      9.304
REMARK  7 active torsions:
REMARK  status: ('A' for Active; 'I' for Inactive)
REMARK    1  A    between atoms: C_4  and  C_5 
REMARK    2  A    between atoms: C_10  and  C_11 
REMARK       I    between atoms: C_11  and  N_12 
REMARK    3  A    between atoms: N_12  and  C_13 
REMARK    4  A    between atoms: C_13  and  C_14 
REMARK    5  A    between atoms: C_14  and  C_15 
REMARK    6  A    between atoms: C_15  and  N_16 
REMARK    7  A    between atoms: C_26  and  C_27 
ROOT
HETATM    1  C   UNL     1      -9.285   1.636 -33.195  1.00  0.00     0.125 C 
HETATM    2  N   UNL     1      -8.363   2.700 -33.605  1.00  0.00    -0.365 N 
HETATM    3  C   UNL     1      -7.055   2.595 -33.267  1.00  0.00     0.141 A 
HETATM    4  N   UNL     1      -6.507   1.376 -32.957  1.00  0.00    -0.238 N 
HETATM    5  N   UNL     1      -5.224   1.453 -32.555  1.00  0.00    -0.163 NA
HETATM    6  C   UNL     1      -4.909   2.762 -32.702  1.00  0.00     0.165 A 
HETATM    7  C   UNL     1      -6.032   3.499 -33.149  1.00  0.00     0.092 A 
HETATM    8 BR   UNL     1      -6.113   5.338 -33.484  1.00  0.00    -0.044 Br
HETATM    9  C   UNL     1      -7.265   0.135 -32.890  1.00  0.00     0.221 C 
HETATM   10  C   UNL     1      -8.645   0.287 -33.561  1.00  0.00     0.067 C 
HETATM   11  H   UNL     1      -8.798   3.625 -33.639  1.00  0.00     0.162 HD
ENDROOT
BRANCH   6  12
HETATM   12  C   UNL     1      -3.551   3.226 -32.401  1.00  0.00     0.273 C 
HETATM   13  N   UNL     1      -3.086   4.190 -33.273  1.00  0.00    -0.355 N 
HETATM   14  H   UNL     1      -3.709   4.389 -34.060  1.00  0.00     0.162 HD
HETATM   15  O   UNL     1      -2.866   2.851 -31.448  1.00  0.00    -0.266 OA
BRANCH  13  16
HETATM   16  C   UNL     1      -1.723   4.662 -33.284  1.00  0.00     0.124 C 
BRANCH  16  17
HETATM   17  C   UNL     1      -1.547   6.063 -32.699  1.00  0.00     0.047 C 
BRANCH  17  18
HETATM   18  C   UNL     1      -2.806   6.919 -32.546  1.00  0.00     0.236 C 
BRANCH  18  19
HETATM   19  N   UNL     1      -3.103   7.334 -31.131  1.00  0.00    -0.067 N 
HETATM   20  H   UNL     1      -3.614   8.241 -31.184  1.00  0.00     0.280 HD
HETATM   21  C   UNL     1      -3.934   6.351 -30.326  1.00  0.00     0.261 C 
HETATM   22  C   UNL     1      -4.174   6.906 -28.917  1.00  0.00     0.195 C 
HETATM   23  O   UNL     1      -2.937   7.189 -28.256  1.00  0.00    -0.388 OA
HETATM   24  C   UNL     1      -2.181   8.177 -28.964  1.00  0.00     0.195 C 
HETATM   25  C   UNL     1      -1.824   7.682 -30.370  1.00  0.00     0.261 C 
ENDBRANCH  18  19
ENDBRANCH  17  18
ENDBRANCH  16  17
ENDBRANCH  13  16
ENDBRANCH   6  12
BRANCH   9  26
HETATM   26  C   UNL     1      -6.505  -1.007 -33.534  1.00  0.00     0.409 C 
HETATM   27  F   UNL     1      -5.850  -0.636 -34.656  1.00  0.00    -0.169 F 
HETATM   28  F   UNL     1      -5.566  -1.483 -32.679  1.00  0.00    -0.169 F 
HETATM   29  F   UNL     1      -7.314  -2.043 -33.850  1.00  0.00    -0.169 F 
ENDBRANCH   9  26
BRANCH   1  30
HETATM   30  C   UNL     1     -10.649   1.779 -33.819  1.00  0.00     0.005 A 
HETATM   31  S   UNL     1     -11.013   3.165 -34.765  1.00  0.00    -0.104 SA
HETATM   32  C   UNL     1     -12.596   2.609 -35.095  1.00  0.00     0.050 A 
HETATM   33  C   UNL     1     -12.849   1.394 -34.500  1.00  0.00     0.008 A 
HETATM   34  C   UNL     1     -11.723   0.910 -33.772  1.00  0.00     0.017 A 
ENDBRANCH   1  30
TORSDOF 7
ENDMDL
MODEL 10
REMARK VINA RESULT:      -7.5      2.112      2.430
REMARK  7 active torsions:
REMARK  status: ('A' for Active; 'I' for Inactive)
REMARK    1  A    between atoms: C_4  and  C_5 
REMARK    2  A    between atoms: C_10  and  C_11 
REMARK       I    between atoms: C_11  and  N_12 
REMARK    3  A    between atoms: N_12  and  C_13 
REMARK    4  A    between atoms: C_13  and  C_14 
REMARK    5  A    between atoms: C_14  and  C_15 
REMARK    6  A    between atoms: C_15  and  N_16 
REMARK    7  A    between atoms: C_26  and  C_27 
ROOT
HETATM    1  C   UNL     1      -2.980   5.581 -30.489  1.00  0.00     0.125 C 
HETATM    2  N   UNL     1      -2.951   4.217 -31.026  1.00  0.00    -0.365 N 
HETATM    3  C   UNL     1      -4.125   3.588 -31.272  1.00  0.00     0.141 A 
HETATM    4  N   UNL     1      -5.281   4.305 -31.449  1.00  0.00    -0.238 N 
HETATM    5  N   UNL     1      -6.374   3.532 -31.594  1.00  0.00    -0.163 NA
HETATM    6  C   UNL     1      -5.887   2.269 -31.603  1.00  0.00     0.165 A 
HETATM    7  C   UNL     1      -4.485   2.272 -31.408  1.00  0.00     0.092 A 
HETATM    8 BR   UNL     1      -3.354   0.783 -31.323  1.00  0.00    -0.044 Br
HETATM    9  C   UNL     1      -5.370   5.753 -31.321  1.00  0.00     0.221 C 
HETATM   10  C   UNL     1      -3.970   6.400 -31.334  1.00  0.00     0.067 C 
HETATM   11  H   UNL     1      -2.149   3.670 -30.704  1.00  0.00     0.162 HD
ENDROOT
BRANCH   6  12
HETATM   12  C   UNL     1      -6.796   1.134 -31.794  1.00  0.00     0.273 C 
HETATM   13  N   UNL     1      -7.073   0.859 -33.118  1.00  0.00    -0.355 N 
HETATM   14  H   UNL     1      -6.682   1.531 -33.783  1.00  0.00     0.162 HD
HETATM   15  O   UNL     1      -7.262   0.437 -30.891  1.00  0.00    -0.266 OA
BRANCH  13  16
HETATM   16  C   UNL     1      -8.076  -0.088 -33.541  1.00  0.00     0.124 C 
BRANCH  16  17
HETATM   17  C   UNL     1      -7.546  -1.173 -34.479  1.00  0.00     0.047 C 
BRANCH  17  18
HETATM   18  C   UNL     1      -6.038  -1.198 -34.738  1.00  0.00     0.236 C 
BRANCH  18  19
HETATM   19  N   UNL     1      -5.462  -2.578 -34.897  1.00  0.00    -0.067 N 
HETATM   20  H   UNL     1      -5.036  -2.618 -35.848  1.00  0.00     0.280 HD
HETATM   21  C   UNL     1      -4.411  -2.965 -33.874  1.00  0.00     0.261 C 
HETATM   22  C   UNL     1      -3.900  -4.382 -34.165  1.00  0.00     0.195 C 
HETATM   23  O   UNL     1      -4.974  -5.327 -34.175  1.00  0.00    -0.388 OA
HETATM   24  C   UNL     1      -5.933  -5.016 -35.194  1.00  0.00     0.195 C 
HETATM   25  C   UNL     1      -6.559  -3.640 -34.947  1.00  0.00     0.261 C 
ENDBRANCH  18  19
ENDBRANCH  17  18
ENDBRANCH  16  17
ENDBRANCH  13  16
ENDBRANCH   6  12
BRANCH   9  26
HETATM   26  C   UNL     1      -6.221   6.350 -32.422  1.00  0.00     0.409 C 
HETATM   27  F   UNL     1      -7.535   6.072 -32.280  1.00  0.00    -0.169 F 
HETATM   28  F   UNL     1      -6.111   7.702 -32.415  1.00  0.00    -0.169 F 
HETATM   29  F   UNL     1      -5.837   5.929 -33.648  1.00  0.00    -0.169 F 
ENDBRANCH   9  26
BRANCH   1  30
HETATM   30  C   UNL     1      -1.618   6.226 -30.469  1.00  0.00     0.005 A 
HETATM   31  S   UNL     1      -0.984   6.833 -28.993  1.00  0.00    -0.104 SA
HETATM   32  C   UNL     1       0.466   7.336 -29.744  1.00  0.00     0.050 A 
HETATM   33  C   UNL     1       0.475   7.051 -31.090  1.00  0.00     0.008 A 
HETATM   34  C   UNL     1      -0.723   6.402 -31.508  1.00  0.00     0.017 A 
ENDBRANCH   1  30
TORSDOF 7
ENDMDL
