MODEL 1
REMARK VINA RESULT:      -8.8      0.000      0.000
REMARK  8 active torsions:
REMARK  status: ('A' for Active; 'I' for Inactive)
REMARK    1  A    between atoms: C_3  and  C_4 
REMARK    2  A    between atoms: C_4  and  C_5 
REMARK       I    between atoms: C_5  and  N_6 
REMARK    3  A    between atoms: N_6  and  C_7 
REMARK    4  A    between atoms: C_14  and  N_15 
REMARK       I    between atoms: N_15  and  C_16 
REMARK    5  A    between atoms: C_16  and  C_17 
REMARK    6  A    between atoms: C_26  and  C_27 
REMARK    7  A    between atoms: C_27  and  O_28 
REMARK    8  A    between atoms: C_30  and  O_31 
ROOT
HETATM    1  C   UNL     1      -4.491  -3.659 -34.015  1.00  0.00     0.216 C 
HETATM    2  C   UNL     1      -5.692  -4.195 -34.779  1.00  0.00    -0.098 C 
HETATM    3  C   UNL     1      -6.721  -4.653 -35.434  1.00  0.00     0.014 C 
ENDROOT
BRANCH   1   4
HETATM    4  N   UNL     1      -4.266  -2.253 -34.247  1.00  0.00    -0.351 N 
HETATM    5  C   UNL     1      -4.554  -1.339 -33.248  1.00  0.00     0.219 C 
HETATM    6  O   UNL     1      -4.788  -1.685 -32.095  1.00  0.00    -0.274 OA
HETATM    7  H   UNL     1      -4.139  -1.937 -35.198  1.00  0.00     0.163 HD
BRANCH   5   8
HETATM    8  C   UNL     1      -4.500   0.113 -33.686  1.00  0.00     0.114 C 
BRANCH   8   9
HETATM    9  C   UNL     1      -5.625   1.022 -33.105  1.00  0.00     0.056 C 
HETATM   10  C   UNL     1      -7.064   0.916 -33.818  1.00  0.00    -0.030 C 
HETATM   11  C   UNL     1      -6.869   0.840 -35.364  1.00  0.00     0.016 C 
HETATM   12  C   UNL     1      -7.976   2.188 -33.498  1.00  0.00     0.012 C 
HETATM   13  C   UNL     1      -7.840  -0.382 -33.426  1.00  0.00     0.013 C 
HETATM   14  C   UNL     1      -7.311   3.494 -34.002  1.00  0.00     0.055 C 
HETATM   15  C   UNL     1      -8.583   2.259 -32.018  1.00  0.00     0.008 C 
HETATM   16  C   UNL     1      -5.902   3.542 -33.545  1.00  0.00     0.012 C 
HETATM   17  C   UNL     1      -5.146   2.470 -33.109  1.00  0.00     0.056 C 
HETATM   18  S   UNL     1      -5.031   4.995 -33.391  1.00  0.00    -0.055 SA
HETATM   19  N   UNL     1      -3.958   2.834 -32.490  1.00  0.00    -0.227 NA
HETATM   20  C   UNL     1      -3.847   4.139 -32.506  1.00  0.00     0.174 C 
HETATM   21  C   UNL     1      -9.950   2.999 -32.130  1.00  0.00     0.020 C 
HETATM   22  C   UNL     1      -8.877   0.826 -31.477  1.00  0.00     0.128 C 
HETATM   23  C   UNL     1      -9.111  -0.167 -32.606  1.00  0.00     0.033 C 
BRANCH  20  24
HETATM   24  N   UNL     1      -3.005   4.972 -31.835  1.00  0.00    -0.300 N 
HETATM   25  C   UNL     1      -1.722   5.227 -32.257  1.00  0.00     0.281 C 
HETATM   26  O   UNL     1      -1.289   5.094 -33.395  1.00  0.00    -0.265 OA
HETATM   27  H   UNL     1      -3.215   5.126 -30.859  1.00  0.00     0.171 HD
BRANCH  25  28
HETATM   28  C   UNL     1      -0.877   5.647 -31.149  1.00  0.00     0.142 A 
HETATM   29  O   UNL     1      -0.265   4.688 -30.375  1.00  0.00    -0.317 OA
HETATM   30  C   UNL     1       0.506   5.338 -29.467  1.00  0.00     0.143 A 
HETATM   31  C   UNL     1       0.407   6.698 -29.636  1.00  0.00     0.027 A 
HETATM   32  C   UNL     1      -0.488   6.899 -30.714  1.00  0.00     0.045 A 
ENDBRANCH  25  28
ENDBRANCH  20  24
BRANCH  15  33
HETATM   33  C   UNL     1      -7.741   3.017 -30.956  1.00  0.00     0.176 C 
BRANCH  33  34
HETATM   34  O   UNL     1      -8.341   2.999 -29.664  1.00  0.00    -0.400 OA
HETATM   35  H   UNL     1      -7.887   2.296 -29.168  1.00  0.00     0.209 HD
ENDBRANCH  33  34
ENDBRANCH  15  33
BRANCH  22  36
HETATM   36  O   UNL     1      -7.804   0.365 -30.659  1.00  0.00    -0.395 OA
HETATM   37  H   UNL     1      -7.347  -0.365 -31.114  1.00  0.00     0.210 HD
ENDBRANCH  22  36
ENDBRANCH   8   9
ENDBRANCH   5   8
ENDBRANCH   1   4
TORSDOF 8
ENDMDL
MODEL 2
REMARK VINA RESULT:      -8.4      1.785      2.500
REMARK  8 active torsions:
REMARK  status: ('A' for Active; 'I' for Inactive)
REMARK    1  A    between atoms: C_3  and  C_4 
REMARK    2  A    between atoms: C_4  and  C_5 
REMARK       I    between atoms: C_5  and  N_6 
REMARK    3  A    between atoms: N_6  and  C_7 
REMARK    4  A    between atoms: C_14  and  N_15 
REMARK       I    between atoms: N_15  and  C_16 
REMARK    5  A    between atoms: C_16  and  C_17 
REMARK    6  A    between atoms: C_26  and  C_27 
REMARK    7  A    between atoms: C_27  and  O_28 
REMARK    8  A    between atoms: C_30  and  O_31 
ROOT
HETATM    1  C   UNL     1      -4.325  -1.946 -33.277  1.00  0.00     0.216 C 
HETATM    2  C   UNL     1      -5.618  -2.243 -34.021  1.00  0.00    -0.098 C 
HETATM    3  C   UNL     1      -6.726  -2.497 -34.658  1.00  0.00     0.014 C 
ENDROOT
BRANCH   1   4
HETATM    4  N   UNL     1      -3.905  -0.573 -33.417  1.00  0.00    -0.351 N 
HETATM    5  C   UNL     1      -3.803   0.231 -32.296  1.00  0.00     0.219 C 
HETATM    6  O   UNL     1      -3.844  -0.227 -31.159  1.00  0.00    -0.274 OA
HETATM    7  H   UNL     1      -3.929  -0.155 -34.337  1.00  0.00     0.163 HD
BRANCH   5   8
HETATM    8  C   UNL     1      -3.582   1.703 -32.591  1.00  0.00     0.114 C 
BRANCH   8   9
HETATM    9  C   UNL     1      -4.589   2.674 -31.904  1.00  0.00     0.056 C 
HETATM   10  C   UNL     1      -6.066   2.734 -32.542  1.00  0.00    -0.030 C 
HETATM   11  C   UNL     1      -5.957   2.726 -34.097  1.00  0.00     0.016 C 
HETATM   12  C   UNL     1      -6.841   4.062 -32.108  1.00  0.00     0.012 C 
HETATM   13  C   UNL     1      -6.936   1.490 -32.173  1.00  0.00     0.013 C 
HETATM   14  C   UNL     1      -6.087   5.330 -32.582  1.00  0.00     0.055 C 
HETATM   15  C   UNL     1      -7.365   4.105 -30.596  1.00  0.00     0.008 C 
HETATM   16  C   UNL     1      -4.658   5.229 -32.202  1.00  0.00     0.012 C 
HETATM   17  C   UNL     1      -3.982   4.072 -31.863  1.00  0.00     0.056 C 
HETATM   18  S   UNL     1      -3.652   6.589 -32.024  1.00  0.00    -0.055 SA
HETATM   19  N   UNL     1      -2.736   4.296 -31.292  1.00  0.00    -0.227 NA
HETATM   20  C   UNL     1      -2.508   5.585 -31.249  1.00  0.00     0.174 C 
HETATM   21  C   UNL     1      -8.662   4.967 -30.595  1.00  0.00     0.020 C 
HETATM   22  C   UNL     1      -7.760   2.676 -30.112  1.00  0.00     0.128 C 
HETATM   23  C   UNL     1      -8.140   1.771 -31.275  1.00  0.00     0.033 C 
BRANCH  20  24
HETATM   24  N   UNL     1      -1.561   6.302 -30.584  1.00  0.00    -0.300 N 
HETATM   25  C   UNL     1      -0.308   5.807 -30.316  1.00  0.00     0.281 C 
HETATM   26  O   UNL     1       0.259   4.897 -30.909  1.00  0.00    -0.265 OA
HETATM   27  H   UNL     1      -1.900   7.056 -30.004  1.00  0.00     0.171 HD
BRANCH  25  28
HETATM   28  C   UNL     1       0.286   6.473 -29.166  1.00  0.00     0.142 A 
HETATM   29  O   UNL     1       0.780   7.748 -29.313  1.00  0.00    -0.317 OA
HETATM   30  C   UNL     1       1.212   8.155 -28.092  1.00  0.00     0.143 A 
HETATM   31  C   UNL     1       1.006   7.170 -27.156  1.00  0.00     0.027 A 
HETATM   32  C   UNL     1       0.417   6.084 -27.846  1.00  0.00     0.045 A 
ENDBRANCH  25  28
ENDBRANCH  20  24
BRANCH  15  33
HETATM   33  C   UNL     1      -6.405   4.727 -29.545  1.00  0.00     0.176 C 
BRANCH  33  34
HETATM   34  O   UNL     1      -6.980   4.785 -28.243  1.00  0.00    -0.400 OA
HETATM   35  H   UNL     1      -6.485   4.145 -27.703  1.00  0.00     0.209 HD
ENDBRANCH  33  34
ENDBRANCH  15  33
BRANCH  22  36
HETATM   36  O   UNL     1      -6.693   2.078 -29.378  1.00  0.00    -0.395 OA
HETATM   37  H   UNL     1      -6.218   2.770 -28.886  1.00  0.00     0.210 HD
ENDBRANCH  22  36
ENDBRANCH   8   9
ENDBRANCH   5   8
ENDBRANCH   1   4
TORSDOF 8
ENDMDL
MODEL 3
REMARK VINA RESULT:      -8.3      2.529      7.449
REMARK  8 active torsions:
REMARK  status: ('A' for Active; 'I' for Inactive)
REMARK    1  A    between atoms: C_3  and  C_4 
REMARK    2  A    between atoms: C_4  and  C_5 
REMARK       I    between atoms: C_5  and  N_6 
REMARK    3  A    between atoms: N_6  and  C_7 
REMARK    4  A    between atoms: C_14  and  N_15 
REMARK       I    between atoms: N_15  and  C_16 
REMARK    5  A    between atoms: C_16  and  C_17 
REMARK    6  A    between atoms: C_26  and  C_27 
REMARK    7  A    between atoms: C_27  and  O_28 
REMARK    8  A    between atoms: C_30  and  O_31 
ROOT
HETATM    1  C   UNL     1      -1.695   5.133 -33.150  1.00  0.00     0.216 C 
HETATM    2  C   UNL     1      -0.748   5.981 -32.315  1.00  0.00    -0.098 C 
HETATM    3  C   UNL     1       0.064   6.707 -31.599  1.00  0.00     0.014 C 
ENDROOT
BRANCH   1   4
HETATM    4  N   UNL     1      -2.753   4.544 -32.365  1.00  0.00    -0.351 N 
HETATM    5  C   UNL     1      -4.013   5.114 -32.376  1.00  0.00     0.219 C 
HETATM    6  O   UNL     1      -4.335   5.973 -33.191  1.00  0.00    -0.274 OA
HETATM    7  H   UNL     1      -2.504   3.884 -31.641  1.00  0.00     0.163 HD
BRANCH   5   8
HETATM    8  C   UNL     1      -4.970   4.551 -31.340  1.00  0.00     0.114 C 
BRANCH   8   9
HETATM    9  C   UNL     1      -6.374   4.151 -31.886  1.00  0.00     0.056 C 
HETATM   10  C   UNL     1      -7.640   4.826 -31.156  1.00  0.00    -0.030 C 
HETATM   11  C   UNL     1      -7.398   4.843 -29.616  1.00  0.00     0.016 C 
HETATM   12  C   UNL     1      -8.985   4.012 -31.436  1.00  0.00     0.012 C 
HETATM   13  C   UNL     1      -7.850   6.319 -31.567  1.00  0.00     0.013 C 
HETATM   14  C   UNL     1      -8.878   2.558 -30.912  1.00  0.00     0.055 C 
HETATM   15  C   UNL     1      -9.603   4.163 -32.905  1.00  0.00     0.008 C 
HETATM   16  C   UNL     1      -7.611   1.951 -31.386  1.00  0.00     0.012 C 
HETATM   17  C   UNL     1      -6.504   2.631 -31.856  1.00  0.00     0.056 C 
HETATM   18  S   UNL     1      -7.387   0.271 -31.519  1.00  0.00    -0.055 SA
HETATM   19  N   UNL     1      -5.569   1.819 -32.483  1.00  0.00    -0.227 NA
HETATM   20  C   UNL     1      -5.980   0.577 -32.439  1.00  0.00     0.174 C 
HETATM   21  C   UNL     1     -11.147   4.024 -32.760  1.00  0.00     0.020 C 
HETATM   22  C   UNL     1      -9.320   5.588 -33.475  1.00  0.00     0.128 C 
HETATM   23  C   UNL     1      -9.120   6.610 -32.365  1.00  0.00     0.033 C 
BRANCH  20  24
HETATM   24  N   UNL     1      -5.548  -0.531 -33.102  1.00  0.00    -0.300 N 
HETATM   25  C   UNL     1      -6.105  -0.950 -34.286  1.00  0.00     0.281 C 
HETATM   26  O   UNL     1      -6.738  -0.261 -35.078  1.00  0.00    -0.265 OA
HETATM   27  H   UNL     1      -5.055  -1.218 -32.549  1.00  0.00     0.171 HD
BRANCH  25  28
HETATM   28  C   UNL     1      -5.897  -2.376 -34.491  1.00  0.00     0.142 A 
HETATM   29  O   UNL     1      -4.657  -2.914 -34.236  1.00  0.00    -0.317 OA
HETATM   30  C   UNL     1      -4.751  -4.253 -34.440  1.00  0.00     0.143 A 
HETATM   31  C   UNL     1      -6.027  -4.593 -34.821  1.00  0.00     0.027 A 
HETATM   32  C   UNL     1      -6.765  -3.386 -34.861  1.00  0.00     0.045 A 
ENDBRANCH  25  28
ENDBRANCH  20  24
BRANCH  15  33
HETATM   33  C   UNL     1      -9.150   3.119 -33.962  1.00  0.00     0.176 C 
BRANCH  33  34
HETATM   34  O   UNL     1     -10.010   3.076 -35.096  1.00  0.00    -0.400 OA
HETATM   35  H   UNL     1      -9.689   3.767 -35.702  1.00  0.00     0.209 HD
ENDBRANCH  33  34
ENDBRANCH  15  33
BRANCH  22  36
HETATM   36  O   UNL     1      -8.169   5.576 -34.317  1.00  0.00    -0.395 OA
HETATM   37  H   UNL     1      -7.618   4.805 -34.093  1.00  0.00     0.210 HD
ENDBRANCH  22  36
ENDBRANCH   8   9
ENDBRANCH   5   8
ENDBRANCH   1   4
TORSDOF 8
ENDMDL
MODEL 4
REMARK VINA RESULT:      -8.0      3.479      9.659
REMARK  8 active torsions:
REMARK  status: ('A' for Active; 'I' for Inactive)
REMARK    1  A    between atoms: C_3  and  C_4 
REMARK    2  A    between atoms: C_4  and  C_5 
REMARK       I    between atoms: C_5  and  N_6 
REMARK    3  A    between atoms: N_6  and  C_7 
REMARK    4  A    between atoms: C_14  and  N_15 
REMARK       I    between atoms: N_15  and  C_16 
REMARK    5  A    between atoms: C_16  and  C_17 
REMARK    6  A    between atoms: C_26  and  C_27 
REMARK    7  A    between atoms: C_27  and  O_28 
REMARK    8  A    between atoms: C_30  and  O_31 
ROOT
HETATM    1  C   UNL     1      -4.488   8.616 -25.024  1.00  0.00     0.216 C 
HETATM    2  C   UNL     1      -3.058   8.928 -24.613  1.00  0.00    -0.098 C 
HETATM    3  C   UNL     1      -1.832   9.196 -24.262  1.00  0.00     0.014 C 
ENDROOT
BRANCH   1   4
HETATM    4  N   UNL     1      -4.695   8.727 -26.448  1.00  0.00    -0.351 N 
HETATM    5  C   UNL     1      -5.009   7.599 -27.185  1.00  0.00     0.219 C 
HETATM    6  O   UNL     1      -5.333   6.542 -26.654  1.00  0.00    -0.274 OA
HETATM    7  H   UNL     1      -4.373   9.562 -26.917  1.00  0.00     0.163 HD
BRANCH   5   8
HETATM    8  C   UNL     1      -4.972   7.797 -28.690  1.00  0.00     0.114 C 
BRANCH   8   9
HETATM    9  C   UNL     1      -3.699   7.244 -29.398  1.00  0.00     0.056 C 
HETATM   10  C   UNL     1      -2.571   8.327 -29.782  1.00  0.00    -0.030 C 
HETATM   11  C   UNL     1      -3.259   9.610 -30.342  1.00  0.00     0.016 C 
HETATM   12  C   UNL     1      -1.576   7.771 -30.901  1.00  0.00     0.012 C 
HETATM   13  C   UNL     1      -1.740   8.799 -28.546  1.00  0.00     0.013 C 
HETATM   14  C   UNL     1      -2.338   7.424 -32.205  1.00  0.00     0.055 C 
HETATM   15  C   UNL     1      -0.520   6.670 -30.414  1.00  0.00     0.008 C 
HETATM   16  C   UNL     1      -3.522   6.592 -31.881  1.00  0.00     0.012 C 
HETATM   17  C   UNL     1      -4.120   6.467 -30.642  1.00  0.00     0.056 C 
HETATM   18  S   UNL     1      -4.262   5.562 -33.013  1.00  0.00    -0.055 SA
HETATM   19  N   UNL     1      -5.034   5.425 -30.560  1.00  0.00    -0.227 NA
HETATM   20  C   UNL     1      -5.115   4.832 -31.725  1.00  0.00     0.174 C 
HETATM   21  C   UNL     1       0.753   6.850 -31.294  1.00  0.00     0.020 C 
HETATM   22  C   UNL     1      -0.099   6.930 -28.935  1.00  0.00     0.128 C 
HETATM   23  C   UNL     1      -0.267   8.393 -28.549  1.00  0.00     0.033 C 
BRANCH  20  24
HETATM   24  N   UNL     1      -5.675   3.645 -32.086  1.00  0.00    -0.300 N 
HETATM   25  C   UNL     1      -4.934   2.503 -32.274  1.00  0.00     0.281 C 
HETATM   26  O   UNL     1      -3.825   2.269 -31.811  1.00  0.00    -0.265 OA
HETATM   27  H   UNL     1      -6.577   3.697 -32.538  1.00  0.00     0.171 HD
BRANCH  25  28
HETATM   28  C   UNL     1      -5.615   1.574 -33.165  1.00  0.00     0.142 A 
HETATM   29  O   UNL     1      -6.408   2.074 -34.171  1.00  0.00    -0.317 OA
HETATM   30  C   UNL     1      -6.866   1.014 -34.886  1.00  0.00     0.143 A 
HETATM   31  C   UNL     1      -6.384  -0.162 -34.363  1.00  0.00     0.027 A 
HETATM   32  C   UNL     1      -5.584   0.196 -33.251  1.00  0.00     0.045 A 
ENDBRANCH  25  28
ENDBRANCH  20  24
BRANCH  15  33
HETATM   33  C   UNL     1      -0.955   5.184 -30.542  1.00  0.00     0.176 C 
BRANCH  33  34
HETATM   34  O   UNL     1       0.004   4.283 -29.998  1.00  0.00    -0.400 OA
HETATM   35  H   UNL     1       0.211   3.651 -30.709  1.00  0.00     0.209 HD
ENDBRANCH  33  34
ENDBRANCH  15  33
BRANCH  22  36
HETATM   36  O   UNL     1      -0.860   6.118 -28.043  1.00  0.00    -0.395 OA
HETATM   37  H   UNL     1      -1.266   6.684 -27.363  1.00  0.00     0.210 HD
ENDBRANCH  22  36
ENDBRANCH   8   9
ENDBRANCH   5   8
ENDBRANCH   1   4
TORSDOF 8
ENDMDL
MODEL 5
REMARK VINA RESULT:      -8.0      3.253      7.379
REMARK  8 active torsions:
REMARK  status: ('A' for Active; 'I' for Inactive)
REMARK    1  A    between atoms: C_3  and  C_4 
REMARK    2  A    between atoms: C_4  and  C_5 
REMARK       I    between atoms: C_5  and  N_6 
REMARK    3  A    between atoms: N_6  and  C_7 
REMARK    4  A    between atoms: C_14  and  N_15 
REMARK       I    between atoms: N_15  and  C_16 
REMARK    5  A    between atoms: C_16  and  C_17 
REMARK    6  A    between atoms: C_26  and  C_27 
REMARK    7  A    between atoms: C_27  and  O_28 
REMARK    8  A    between atoms: C_30  and  O_31 
ROOT
HETATM    1  C   UNL     1      -7.056  -2.460 -34.261  1.00  0.00     0.216 C 
HETATM    2  C   UNL     1      -6.573  -3.779 -34.843  1.00  0.00    -0.098 C 
HETATM    3  C   UNL     1      -6.158  -4.909 -35.343  1.00  0.00     0.014 C 
ENDROOT
BRANCH   1   4
HETATM    4  N   UNL     1      -6.095  -1.396 -34.421  1.00  0.00    -0.351 N 
HETATM    5  C   UNL     1      -5.546  -0.794 -33.302  1.00  0.00     0.219 C 
HETATM    6  O   UNL     1      -5.673  -1.268 -32.178  1.00  0.00    -0.274 OA
HETATM    7  H   UNL     1      -6.023  -0.945 -35.323  1.00  0.00     0.163 HD
BRANCH   5   8
HETATM    8  C   UNL     1      -4.735   0.456 -33.591  1.00  0.00     0.114 C 
BRANCH   8   9
HETATM    9  C   UNL     1      -5.405   1.794 -33.155  1.00  0.00     0.056 C 
HETATM   10  C   UNL     1      -4.655   2.620 -31.995  1.00  0.00    -0.030 C 
HETATM   11  C   UNL     1      -4.149   1.629 -30.902  1.00  0.00     0.016 C 
HETATM   12  C   UNL     1      -5.632   3.672 -31.294  1.00  0.00     0.012 C 
HETATM   13  C   UNL     1      -3.383   3.367 -32.509  1.00  0.00     0.013 C 
HETATM   14  C   UNL     1      -6.843   2.960 -30.639  1.00  0.00     0.055 C 
HETATM   15  C   UNL     1      -5.990   4.975 -32.153  1.00  0.00     0.008 C 
HETATM   16  C   UNL     1      -7.450   2.018 -31.609  1.00  0.00     0.012 C 
HETATM   17  C   UNL     1      -6.849   1.516 -32.748  1.00  0.00     0.056 C 
HETATM   18  S   UNL     1      -9.064   1.495 -31.499  1.00  0.00    -0.055 SA
HETATM   19  N   UNL     1      -7.727   0.875 -33.611  1.00  0.00    -0.227 NA
HETATM   20  C   UNL     1      -8.928   0.889 -33.091  1.00  0.00     0.174 C 
HETATM   21  C   UNL     1      -6.215   6.134 -31.137  1.00  0.00     0.020 C 
HETATM   22  C   UNL     1      -4.787   5.382 -33.058  1.00  0.00     0.128 C 
HETATM   23  C   UNL     1      -3.462   4.892 -32.491  1.00  0.00     0.033 C 
BRANCH  20  24
HETATM   24  N   UNL     1     -10.143   0.609 -33.639  1.00  0.00    -0.300 N 
HETATM   25  C   UNL     1     -10.951   1.577 -34.184  1.00  0.00     0.281 C 
HETATM   26  O   UNL     1     -10.598   2.675 -34.597  1.00  0.00    -0.265 OA
HETATM   27  H   UNL     1     -10.580  -0.250 -33.337  1.00  0.00     0.171 HD
BRANCH  25  28
HETATM   28  C   UNL     1     -12.347   1.163 -34.174  1.00  0.00     0.142 A 
HETATM   29  O   UNL     1     -12.695   0.000 -33.529  1.00  0.00    -0.317 OA
HETATM   30  C   UNL     1     -14.045  -0.117 -33.612  1.00  0.00     0.143 A 
HETATM   31  C   UNL     1     -14.579   0.947 -34.298  1.00  0.00     0.027 A 
HETATM   32  C   UNL     1     -13.487   1.770 -34.667  1.00  0.00     0.045 A 
ENDBRANCH  25  28
ENDBRANCH  20  24
BRANCH  15  33
HETATM   33  C   UNL     1      -7.262   4.895 -33.041  1.00  0.00     0.176 C 
BRANCH  33  34
HETATM   34  O   UNL     1      -7.378   5.998 -33.935  1.00  0.00    -0.400 OA
HETATM   35  H   UNL     1      -7.166   6.790 -33.412  1.00  0.00     0.209 HD
ENDBRANCH  33  34
ENDBRANCH  15  33
BRANCH  22  36
HETATM   36  O   UNL     1      -4.952   4.869 -34.379  1.00  0.00    -0.395 OA
HETATM   37  H   UNL     1      -5.862   5.044 -34.677  1.00  0.00     0.210 HD
ENDBRANCH  22  36
ENDBRANCH   8   9
ENDBRANCH   5   8
ENDBRANCH   1   4
TORSDOF 8
ENDMDL
MODEL 6
REMARK VINA RESULT:      -7.7      3.892      6.891
REMARK  8 active torsions:
REMARK  status: ('A' for Active; 'I' for Inactive)
REMARK    1  A    between atoms: C_3  and  C_4 
REMARK    2  A    between atoms: C_4  and  C_5 
REMARK       I    between atoms: C_5  and  N_6 
REMARK    3  A    between atoms: N_6  and  C_7 
REMARK    4  A    between atoms: C_14  and  N_15 
REMARK       I    between atoms: N_15  and  C_16 
REMARK    5  A    between atoms: C_16  and  C_17 
REMARK    6  A    between atoms: C_26  and  C_27 
REMARK    7  A    between atoms: C_27  and  O_28 
REMARK    8  A    between atoms: C_30  and  O_31 
ROOT
HETATM    1  C   UNL     1     -11.544   7.832 -36.354  1.00  0.00     0.216 C 
HETATM    2  C   UNL     1     -10.572   8.653 -37.187  1.00  0.00    -0.098 C 
HETATM    3  C   UNL     1      -9.739   9.357 -37.900  1.00  0.00     0.014 C 
ENDROOT
BRANCH   1   4
HETATM    4  N   UNL     1     -10.908   7.188 -35.230  1.00  0.00    -0.351 N 
HETATM    5  C   UNL     1     -11.682   6.687 -34.199  1.00  0.00     0.219 C 
HETATM    6  O   UNL     1     -12.900   6.571 -34.294  1.00  0.00    -0.274 OA
HETATM    7  H   UNL     1      -9.916   7.327 -35.095  1.00  0.00     0.163 HD
BRANCH   5   8
HETATM    8  C   UNL     1     -10.898   6.247 -32.976  1.00  0.00     0.114 C 
BRANCH   8   9
HETATM    9  C   UNL     1     -10.301   4.810 -33.055  1.00  0.00     0.056 C 
HETATM   10  C   UNL     1     -11.112   3.659 -32.275  1.00  0.00    -0.030 C 
HETATM   11  C   UNL     1     -11.591   4.210 -30.897  1.00  0.00     0.016 C 
HETATM   12  C   UNL     1     -10.200   2.376 -32.004  1.00  0.00     0.012 C 
HETATM   13  C   UNL     1     -12.408   3.217 -33.027  1.00  0.00     0.013 C 
HETATM   14  C   UNL     1      -8.970   2.737 -31.134  1.00  0.00     0.055 C 
HETATM   15  C   UNL     1      -9.888   1.457 -33.278  1.00  0.00     0.008 C 
HETATM   16  C   UNL     1      -8.300   3.935 -31.695  1.00  0.00     0.012 C 
HETATM   17  C   UNL     1      -8.854   4.846 -32.574  1.00  0.00     0.056 C 
HETATM   18  S   UNL     1      -6.665   4.299 -31.401  1.00  0.00    -0.055 SA
HETATM   19  N   UNL     1      -7.930   5.711 -33.145  1.00  0.00    -0.227 NA
HETATM   20  C   UNL     1      -6.740   5.447 -32.664  1.00  0.00     0.174 C 
HETATM   21  C   UNL     1      -9.738  -0.002 -32.752  1.00  0.00     0.020 C 
HETATM   22  C   UNL     1     -11.091   1.468 -34.270  1.00  0.00     0.128 C 
HETATM   23  C   UNL     1     -12.402   1.787 -33.565  1.00  0.00     0.033 C 
BRANCH  20  24
HETATM   24  N   UNL     1      -5.504   5.845 -33.072  1.00  0.00    -0.300 N 
HETATM   25  C   UNL     1      -4.809   5.201 -34.068  1.00  0.00     0.281 C 
HETATM   26  O   UNL     1      -5.284   4.491 -34.946  1.00  0.00    -0.265 OA
HETATM   27  H   UNL     1      -4.973   6.395 -32.412  1.00  0.00     0.171 HD
BRANCH  25  28
HETATM   28  C   UNL     1      -3.376   5.419 -33.936  1.00  0.00     0.142 A 
HETATM   29  O   UNL     1      -2.832   6.590 -34.409  1.00  0.00    -0.317 OA
HETATM   30  C   UNL     1      -1.509   6.570 -34.106  1.00  0.00     0.143 A 
HETATM   31  C   UNL     1      -1.185   5.410 -33.445  1.00  0.00     0.027 A 
HETATM   32  C   UNL     1      -2.384   4.664 -33.340  1.00  0.00     0.045 A 
ENDBRANCH  25  28
ENDBRANCH  20  24
BRANCH  15  33
HETATM   33  C   UNL     1      -8.597   1.788 -34.075  1.00  0.00     0.176 C 
BRANCH  33  34
HETATM   34  O   UNL     1      -8.349   0.861 -35.128  1.00  0.00    -0.400 OA
HETATM   35  H   UNL     1      -7.381   0.792 -35.201  1.00  0.00     0.209 HD
ENDBRANCH  33  34
ENDBRANCH  15  33
BRANCH  22  36
HETATM   36  O   UNL     1     -10.876   2.416 -35.314  1.00  0.00    -0.395 OA
HETATM   37  H   UNL     1     -11.729   2.626 -35.735  1.00  0.00     0.210 HD
ENDBRANCH  22  36
ENDBRANCH   8   9
ENDBRANCH   5   8
ENDBRANCH   1   4
TORSDOF 8
ENDMDL
MODEL 7
REMARK VINA RESULT:      -7.7      4.422      7.799
REMARK  8 active torsions:
REMARK  status: ('A' for Active; 'I' for Inactive)
REMARK    1  A    between atoms: C_3  and  C_4 
REMARK    2  A    between atoms: C_4  and  C_5 
REMARK       I    between atoms: C_5  and  N_6 
REMARK    3  A    between atoms: N_6  and  C_7 
REMARK    4  A    between atoms: C_14  and  N_15 
REMARK       I    between atoms: N_15  and  C_16 
REMARK    5  A    between atoms: C_16  and  C_17 
REMARK    6  A    between atoms: C_26  and  C_27 
REMARK    7  A    between atoms: C_27  and  O_28 
REMARK    8  A    between atoms: C_30  and  O_31 
ROOT
HETATM    1  C   UNL     1     -15.209   1.473 -32.857  1.00  0.00     0.216 C 
HETATM    2  C   UNL     1     -16.388   2.305 -32.378  1.00  0.00    -0.098 C 
HETATM    3  C   UNL     1     -17.399   3.019 -31.968  1.00  0.00     0.014 C 
ENDROOT
BRANCH   1   4
HETATM    4  N   UNL     1     -14.215   2.261 -33.545  1.00  0.00    -0.351 N 
HETATM    5  C   UNL     1     -13.137   1.634 -34.143  1.00  0.00     0.219 C 
HETATM    6  O   UNL     1     -13.096   0.419 -34.304  1.00  0.00    -0.274 OA
HETATM    7  H   UNL     1     -14.187   3.257 -33.373  1.00  0.00     0.163 HD
BRANCH   5   8
HETATM    8  C   UNL     1     -12.047   2.574 -34.628  1.00  0.00     0.114 C 
BRANCH   8   9
HETATM    9  C   UNL     1     -10.974   2.947 -33.561  1.00  0.00     0.056 C 
HETATM   10  C   UNL     1     -10.748   4.519 -33.299  1.00  0.00    -0.030 C 
HETATM   11  C   UNL     1     -10.764   5.276 -34.663  1.00  0.00     0.016 C 
HETATM   12  C   UNL     1      -9.344   4.804 -32.592  1.00  0.00     0.012 C 
HETATM   13  C   UNL     1     -11.890   5.161 -32.447  1.00  0.00     0.013 C 
HETATM   14  C   UNL     1      -8.166   4.314 -33.471  1.00  0.00     0.055 C 
HETATM   15  C   UNL     1      -9.249   4.412 -31.043  1.00  0.00     0.008 C 
HETATM   16  C   UNL     1      -8.426   2.925 -33.921  1.00  0.00     0.012 C 
HETATM   17  C   UNL     1      -9.651   2.286 -33.936  1.00  0.00     0.056 C 
HETATM   18  S   UNL     1      -7.186   1.862 -34.394  1.00  0.00    -0.055 SA
HETATM   19  N   UNL     1      -9.568   0.916 -34.145  1.00  0.00    -0.227 NA
HETATM   20  C   UNL     1      -8.313   0.581 -34.307  1.00  0.00     0.174 C 
HETATM   21  C   UNL     1      -8.249   5.411 -30.389  1.00  0.00     0.020 C 
HETATM   22  C   UNL     1     -10.627   4.612 -30.341  1.00  0.00     0.128 C 
HETATM   23  C   UNL     1     -11.481   5.647 -31.058  1.00  0.00     0.033 C 
BRANCH  20  24
HETATM   24  N   UNL     1      -7.706  -0.638 -34.304  1.00  0.00    -0.300 N 
HETATM   25  C   UNL     1      -6.786  -1.006 -33.352  1.00  0.00     0.281 C 
HETATM   26  O   UNL     1      -6.662  -0.522 -32.234  1.00  0.00    -0.265 OA
HETATM   27  H   UNL     1      -7.686  -1.127 -35.188  1.00  0.00     0.171 HD
BRANCH  25  28
HETATM   28  C   UNL     1      -5.900  -2.047 -33.851  1.00  0.00     0.142 A 
HETATM   29  O   UNL     1      -6.433  -3.092 -34.568  1.00  0.00    -0.317 OA
HETATM   30  C   UNL     1      -5.399  -3.875 -34.967  1.00  0.00     0.143 A 
HETATM   31  C   UNL     1      -4.205  -3.358 -34.523  1.00  0.00     0.027 A 
HETATM   32  C   UNL     1      -4.525  -2.185 -33.799  1.00  0.00     0.045 A 
ENDBRANCH  25  28
ENDBRANCH  20  24
BRANCH  15  33
HETATM   33  C   UNL     1      -8.741   2.981 -30.717  1.00  0.00     0.176 C 
BRANCH  33  34
HETATM   34  O   UNL     1      -7.897   2.945 -29.570  1.00  0.00    -0.400 OA
HETATM   35  H   UNL     1      -7.322   2.169 -29.685  1.00  0.00     0.209 HD
ENDBRANCH  33  34
ENDBRANCH  15  33
BRANCH  22  36
HETATM   36  O   UNL     1     -11.341   3.380 -30.269  1.00  0.00    -0.395 OA
HETATM   37  H   UNL     1     -10.812   2.679 -30.689  1.00  0.00     0.210 HD
ENDBRANCH  22  36
ENDBRANCH   8   9
ENDBRANCH   5   8
ENDBRANCH   1   4
TORSDOF 8
ENDMDL
MODEL 8
REMARK VINA RESULT:      -7.6      2.781      8.664
REMARK  8 active torsions:
REMARK  status: ('A' for Active; 'I' for Inactive)
REMARK    1  A    between atoms: C_3  and  C_4 
REMARK    2  A    between atoms: C_4  and  C_5 
REMARK       I    between atoms: C_5  and  N_6 
REMARK    3  A    between atoms: N_6  and  C_7 
REMARK    4  A    between atoms: C_14  and  N_15 
REMARK       I    between atoms: N_15  and  C_16 
REMARK    5  A    between atoms: C_16  and  C_17 
REMARK    6  A    between atoms: C_26  and  C_27 
REMARK    7  A    between atoms: C_27  and  O_28 
REMARK    8  A    between atoms: C_30  and  O_31 
ROOT
HETATM    1  C   UNL     1      -8.024   5.627 -29.285  1.00  0.00     0.216 C 
HETATM    2  C   UNL     1      -8.055   4.214 -29.845  1.00  0.00    -0.098 C 
HETATM    3  C   UNL     1      -8.080   3.002 -30.325  1.00  0.00     0.014 C 
ENDROOT
BRANCH   1   4
HETATM    4  N   UNL     1      -6.964   6.427 -29.849  1.00  0.00    -0.351 N 
HETATM    5  C   UNL     1      -5.949   6.893 -29.033  1.00  0.00     0.219 C 
HETATM    6  O   UNL     1      -5.788   6.479 -27.890  1.00  0.00    -0.274 OA
HETATM    7  H   UNL     1      -7.104   6.835 -30.763  1.00  0.00     0.163 HD
BRANCH   5   8
HETATM    8  C   UNL     1      -5.028   7.907 -29.687  1.00  0.00     0.114 C 
BRANCH   8   9
HETATM    9  C   UNL     1      -3.651   7.346 -30.154  1.00  0.00     0.056 C 
HETATM   10  C   UNL     1      -2.448   8.411 -30.260  1.00  0.00    -0.030 C 
HETATM   11  C   UNL     1      -2.985   9.733 -30.889  1.00  0.00     0.016 C 
HETATM   12  C   UNL     1      -1.262   7.870 -31.184  1.00  0.00     0.012 C 
HETATM   13  C   UNL     1      -1.869   8.811 -28.865  1.00  0.00     0.013 C 
HETATM   14  C   UNL     1      -1.757   7.595 -32.626  1.00  0.00     0.055 C 
HETATM   15  C   UNL     1      -0.347   6.722 -30.546  1.00  0.00     0.008 C 
HETATM   16  C   UNL     1      -2.999   6.786 -32.579  1.00  0.00     0.012 C 
HETATM   17  C   UNL     1      -3.833   6.630 -31.489  1.00  0.00     0.056 C 
HETATM   18  S   UNL     1      -3.520   5.821 -33.879  1.00  0.00    -0.055 SA
HETATM   19  N   UNL     1      -4.766   5.612 -31.634  1.00  0.00    -0.227 NA
HETATM   20  C   UNL     1      -4.626   5.067 -32.817  1.00  0.00     0.174 C 
HETATM   21  C   UNL     1       1.079   6.899 -31.149  1.00  0.00     0.020 C 
HETATM   22  C   UNL     1      -0.222   6.913 -29.003  1.00  0.00     0.128 C 
HETATM   23  C   UNL     1      -0.434   8.364 -28.595  1.00  0.00     0.033 C 
BRANCH  20  24
HETATM   24  N   UNL     1      -5.127   3.911 -33.332  1.00  0.00    -0.300 N 
HETATM   25  C   UNL     1      -6.394   3.820 -33.856  1.00  0.00     0.281 C 
HETATM   26  O   UNL     1      -7.075   4.746 -34.280  1.00  0.00    -0.265 OA
HETATM   27  H   UNL     1      -4.689   3.057 -33.017  1.00  0.00     0.171 HD
BRANCH  25  28
HETATM   28  C   UNL     1      -6.887   2.451 -33.808  1.00  0.00     0.142 A 
HETATM   29  O   UNL     1      -8.227   2.217 -34.007  1.00  0.00    -0.317 OA
HETATM   30  C   UNL     1      -8.408   0.872 -33.977  1.00  0.00     0.143 A 
HETATM   31  C   UNL     1      -7.211   0.230 -33.763  1.00  0.00     0.027 A 
HETATM   32  C   UNL     1      -6.232   1.245 -33.647  1.00  0.00     0.045 A 
ENDBRANCH  25  28
ENDBRANCH  20  24
BRANCH  15  33
HETATM   33  C   UNL     1      -0.777   5.255 -30.822  1.00  0.00     0.176 C 
BRANCH  33  34
HETATM   34  O   UNL     1      -0.046   4.313 -30.043  1.00  0.00    -0.400 OA
HETATM   35  H   UNL     1      -0.711   3.779 -29.574  1.00  0.00     0.209 HD
ENDBRANCH  33  34
ENDBRANCH  15  33
BRANCH  22  36
HETATM   36  O   UNL     1      -1.161   6.089 -28.315  1.00  0.00    -0.395 OA
HETATM   37  H   UNL     1      -1.174   6.338 -27.374  1.00  0.00     0.210 HD
ENDBRANCH  22  36
ENDBRANCH   8   9
ENDBRANCH   5   8
ENDBRANCH   1   4
TORSDOF 8
ENDMDL
MODEL 9
REMARK VINA RESULT:      -7.5      2.979      8.797
REMARK  8 active torsions:
REMARK  status: ('A' for Active; 'I' for Inactive)
REMARK    1  A    between atoms: C_3  and  C_4 
REMARK    2  A    between atoms: C_4  and  C_5 
REMARK       I    between atoms: C_5  and  N_6 
REMARK    3  A    between atoms: N_6  and  C_7 
REMARK    4  A    between atoms: C_14  and  N_15 
REMARK       I    between atoms: N_15  and  C_16 
REMARK    5  A    between atoms: C_16  and  C_17 
REMARK    6  A    between atoms: C_26  and  C_27 
REMARK    7  A    between atoms: C_27  and  O_28 
REMARK    8  A    between atoms: C_30  and  O_31 
ROOT
HETATM    1  C   UNL     1      -3.650   6.693 -25.979  1.00  0.00     0.216 C 
HETATM    2  C   UNL     1      -2.479   7.663 -25.967  1.00  0.00    -0.098 C 
HETATM    3  C   UNL     1      -1.475   8.495 -25.957  1.00  0.00     0.014 C 
ENDROOT
BRANCH   1   4
HETATM    4  N   UNL     1      -4.056   6.328 -27.314  1.00  0.00    -0.351 N 
HETATM    5  C   UNL     1      -5.342   6.608 -27.740  1.00  0.00     0.219 C 
HETATM    6  O   UNL     1      -6.091   7.349 -27.112  1.00  0.00    -0.274 OA
HETATM    7  H   UNL     1      -3.489   5.665 -27.825  1.00  0.00     0.163 HD
BRANCH   5   8
HETATM    8  C   UNL     1      -5.722   5.973 -29.066  1.00  0.00     0.114 C 
BRANCH   8   9
HETATM    9  C   UNL     1      -4.572   5.896 -30.115  1.00  0.00     0.056 C 
HETATM   10  C   UNL     1      -4.121   7.291 -30.780  1.00  0.00    -0.030 C 
HETATM   11  C   UNL     1      -5.388   8.142 -31.099  1.00  0.00     0.016 C 
HETATM   12  C   UNL     1      -3.323   7.062 -32.145  1.00  0.00     0.012 C 
HETATM   13  C   UNL     1      -3.254   8.167 -29.820  1.00  0.00     0.013 C 
HETATM   14  C   UNL     1      -4.197   6.321 -33.187  1.00  0.00     0.055 C 
HETATM   15  C   UNL     1      -1.826   6.514 -31.996  1.00  0.00     0.008 C 
HETATM   16  C   UNL     1      -4.815   5.129 -32.559  1.00  0.00     0.012 C 
HETATM   17  C   UNL     1      -4.959   4.900 -31.204  1.00  0.00     0.056 C 
HETATM   18  S   UNL     1      -5.349   3.787 -33.456  1.00  0.00    -0.055 SA
HETATM   19  N   UNL     1      -5.320   3.597 -30.888  1.00  0.00    -0.227 NA
HETATM   20  C   UNL     1      -5.462   2.910 -31.994  1.00  0.00     0.174 C 
HETATM   21  C   UNL     1      -1.016   7.091 -33.195  1.00  0.00     0.020 C 
HETATM   22  C   UNL     1      -1.169   7.059 -30.691  1.00  0.00     0.128 C 
HETATM   23  C   UNL     1      -1.801   8.370 -30.245  1.00  0.00     0.033 C 
BRANCH  20  24
HETATM   24  N   UNL     1      -5.571   1.570 -32.205  1.00  0.00    -0.300 N 
HETATM   25  C   UNL     1      -4.497   0.783 -32.545  1.00  0.00     0.281 C 
HETATM   26  O   UNL     1      -3.315   1.036 -32.345  1.00  0.00    -0.265 OA
HETATM   27  H   UNL     1      -6.493   1.230 -32.440  1.00  0.00     0.171 HD
BRANCH  25  28
HETATM   28  C   UNL     1      -4.926  -0.418 -33.247  1.00  0.00     0.142 A 
HETATM   29  O   UNL     1      -3.996  -1.388 -33.542  1.00  0.00    -0.317 OA
HETATM   30  C   UNL     1      -4.660  -2.415 -34.130  1.00  0.00     0.143 A 
HETATM   31  C   UNL     1      -6.002  -2.132 -34.222  1.00  0.00     0.027 A 
HETATM   32  C   UNL     1      -6.174  -0.844 -33.660  1.00  0.00     0.045 A 
ENDBRANCH  25  28
ENDBRANCH  20  24
BRANCH  15  33
HETATM   33  C   UNL     1      -1.643   4.971 -32.025  1.00  0.00     0.176 C 
BRANCH  33  34
HETATM   34  O   UNL     1      -0.330   4.567 -31.652  1.00  0.00    -0.400 OA
HETATM   35  H   UNL     1      -0.432   4.042 -30.839  1.00  0.00     0.209 HD
ENDBRANCH  33  34
ENDBRANCH  15  33
BRANCH  22  36
HETATM   36  O   UNL     1      -1.272   6.104 -29.637  1.00  0.00    -0.395 OA
HETATM   37  H   UNL     1      -0.440   6.097 -29.131  1.00  0.00     0.210 HD
ENDBRANCH  22  36
ENDBRANCH   8   9
ENDBRANCH   5   8
ENDBRANCH   1   4
TORSDOF 8
ENDMDL
MODEL 10
REMARK VINA RESULT:      -7.3     16.122     18.498
REMARK  8 active torsions:
REMARK  status: ('A' for Active; 'I' for Inactive)
REMARK    1  A    between atoms: C_3  and  C_4 
REMARK    2  A    between atoms: C_4  and  C_5 
REMARK       I    between atoms: C_5  and  N_6 
REMARK    3  A    between atoms: N_6  and  C_7 
REMARK    4  A    between atoms: C_14  and  N_15 
REMARK       I    between atoms: N_15  and  C_16 
REMARK    5  A    between atoms: C_16  and  C_17 
REMARK    6  A    between atoms: C_26  and  C_27 
REMARK    7  A    between atoms: C_27  and  O_28 
REMARK    8  A    between atoms: C_30  and  O_31 
ROOT
HETATM    1  C   UNL     1      -1.138 -13.934 -37.373  1.00  0.00     0.216 C 
HETATM    2  C   UNL     1      -0.041 -14.330 -38.349  1.00  0.00    -0.098 C 
HETATM    3  C   UNL     1       0.898 -14.670 -39.186  1.00  0.00     0.014 C 
ENDROOT
BRANCH   1   4
HETATM    4  N   UNL     1      -2.396 -13.668 -38.027  1.00  0.00    -0.351 N 
HETATM    5  C   UNL     1      -2.727 -12.370 -38.373  1.00  0.00     0.219 C 
HETATM    6  O   UNL     1      -1.908 -11.458 -38.346  1.00  0.00    -0.274 OA
HETATM    7  H   UNL     1      -3.112 -14.381 -38.002  1.00  0.00     0.163 HD
BRANCH   5   8
HETATM    8  C   UNL     1      -4.161 -12.186 -38.837  1.00  0.00     0.114 C 
BRANCH   8   9
HETATM    9  C   UNL     1      -4.876 -13.488 -39.308  1.00  0.00     0.056 C 
HETATM   10  C   UNL     1      -5.545 -13.442 -40.772  1.00  0.00    -0.030 C 
HETATM   11  C   UNL     1      -6.255 -12.068 -40.971  1.00  0.00     0.016 C 
HETATM   12  C   UNL     1      -6.636 -14.594 -40.957  1.00  0.00     0.012 C 
HETATM   13  C   UNL     1      -4.492 -13.544 -41.922  1.00  0.00     0.013 C 
HETATM   14  C   UNL     1      -7.783 -14.449 -39.926  1.00  0.00     0.055 C 
HETATM   15  C   UNL     1      -6.063 -16.078 -41.136  1.00  0.00     0.008 C 
HETATM   16  C   UNL     1      -7.212 -14.273 -38.569  1.00  0.00     0.012 C 
HETATM   17  C   UNL     1      -5.920 -13.885 -38.269  1.00  0.00     0.056 C 
HETATM   18  S   UNL     1      -8.074 -14.643 -37.151  1.00  0.00    -0.055 SA
HETATM   19  N   UNL     1      -5.574 -14.061 -36.936  1.00  0.00    -0.227 NA
HETATM   20  C   UNL     1      -6.605 -14.538 -36.285  1.00  0.00     0.174 C 
HETATM   21  C   UNL     1      -7.074 -16.843 -42.042  1.00  0.00     0.020 C 
HETATM   22  C   UNL     1      -4.698 -16.052 -41.889  1.00  0.00     0.128 C 
HETATM   23  C   UNL     1      -4.559 -14.816 -42.765  1.00  0.00     0.033 C 
BRANCH  20  24
HETATM   24  N   UNL     1      -6.700 -15.088 -35.043  1.00  0.00    -0.300 N 
HETATM   25  C   UNL     1      -6.957 -14.341 -33.919  1.00  0.00     0.281 C 
HETATM   26  O   UNL     1      -7.491 -13.239 -33.882  1.00  0.00    -0.265 OA
HETATM   27  H   UNL     1      -6.247 -15.982 -34.917  1.00  0.00     0.171 HD
BRANCH  25  28
HETATM   28  C   UNL     1      -6.462 -15.005 -32.721  1.00  0.00     0.142 A 
HETATM   29  O   UNL     1      -6.996 -16.220 -32.361  1.00  0.00    -0.317 OA
HETATM   30  C   UNL     1      -6.322 -16.645 -31.262  1.00  0.00     0.143 A 
HETATM   31  C   UNL     1      -5.362 -15.729 -30.902  1.00  0.00     0.027 A 
HETATM   32  C   UNL     1      -5.454 -14.670 -31.837  1.00  0.00     0.045 A 
ENDBRANCH  25  28
ENDBRANCH  20  24
BRANCH  15  33
HETATM   33  C   UNL     1      -5.889 -16.918 -39.841  1.00  0.00     0.176 C 
BRANCH  33  34
HETATM   34  O   UNL     1      -5.273 -18.179 -40.083  1.00  0.00    -0.400 OA
HETATM   35  H   UNL     1      -5.531 -18.435 -40.985  1.00  0.00     0.209 HD
ENDBRANCH  33  34
ENDBRANCH  15  33
BRANCH  22  36
HETATM   36  O   UNL     1      -3.611 -16.099 -40.966  1.00  0.00    -0.395 OA
HETATM   37  H   UNL     1      -3.856 -15.609 -40.160  1.00  0.00     0.210 HD
ENDBRANCH  22  36
ENDBRANCH   8   9
ENDBRANCH   5   8
ENDBRANCH   1   4
TORSDOF 8
ENDMDL
