MODEL 1
REMARK VINA RESULT:      -9.0      0.000      0.000
REMARK  6 active torsions:
REMARK  status: ('A' for Active; 'I' for Inactive)
REMARK    1  A    between atoms: O_2  and  C_3 
REMARK    2  A    between atoms: N_7  and  C_9 
REMARK    3  A    between atoms: C_9  and  C_10 
REMARK    4  A    between atoms: C_11  and  O_12 
REMARK    5  A    between atoms: C_22  and  N_23 
REMARK       I    between atoms: N_23  and  C_24 
REMARK    6  A    between atoms: C_24  and  C_25 
ROOT
HETATM    1  C   UNL     1      -6.256   1.625 -31.530  1.00  0.00     0.161 C 
HETATM    2  C   UNL     1      -7.112   1.204 -32.781  1.00  0.00     0.019 C 
HETATM    3  C   UNL     1      -7.168   2.323 -33.850  1.00  0.00     0.045 C 
HETATM    4  C   UNL     1      -8.035   3.503 -33.426  1.00  0.00     0.236 C 
HETATM    5  N   UNL     1      -9.413   3.035 -33.040  1.00  0.00    -0.067 N 
HETATM    6  H   UNL     1      -9.885   3.860 -32.633  1.00  0.00     0.280 HD
HETATM    7  C   UNL     1      -9.379   1.988 -31.958  1.00  0.00     0.236 C 
HETATM    8  C   UNL     1      -8.555   0.791 -32.420  1.00  0.00     0.045 C 
HETATM    9  C   UNL     1      -6.261   0.068 -33.314  1.00  0.00    -0.038 A 
HETATM   10  C   UNL     1      -4.954   0.120 -32.794  1.00  0.00    -0.026 A 
HETATM   11  C   UNL     1      -4.762   1.290 -31.854  1.00  0.00     0.148 C 
HETATM   12  C   UNL     1      -6.618  -0.923 -34.219  1.00  0.00     0.009 A 
HETATM   13  C   UNL     1      -5.661  -1.867 -34.594  1.00  0.00     0.001 A 
HETATM   14  C   UNL     1      -4.363  -1.817 -34.069  1.00  0.00     0.001 A 
HETATM   15  C   UNL     1      -4.000  -0.819 -33.165  1.00  0.00     0.010 A 
ENDROOT
BRANCH   1  16
HETATM   16  O   UNL     1      -6.762   1.058 -30.299  1.00  0.00    -0.387 OA
HETATM   17  C   UNL     1      -5.834   0.514 -29.367  1.00  0.00     0.202 C 
ENDBRANCH   1  16
BRANCH  11  18
HETATM   18  N   UNL     1      -3.913   2.276 -32.516  1.00  0.00    -0.346 N 
HETATM   19  C   UNL     1      -3.961   3.642 -32.381  1.00  0.00     0.252 C 
HETATM   20  O   UNL     1      -4.931   4.236 -31.923  1.00  0.00    -0.268 OA
HETATM   21  H   UNL     1      -3.088   1.890 -32.950  1.00  0.00     0.163 HD
BRANCH  19  22
HETATM   22  C   UNL     1      -2.785   4.365 -32.881  1.00  0.00     0.039 A 
HETATM   23  C   UNL     1      -2.686   4.739 -34.213  1.00  0.00     0.066 A 
HETATM   24  S   UNL     1      -1.242   5.576 -34.579  1.00  0.00    -0.113 SA
HETATM   25  C   UNL     1      -0.717   5.480 -32.959  1.00  0.00     0.050 A 
HETATM   26  C   UNL     1      -1.624   4.815 -32.160  1.00  0.00     0.024 A 
ENDBRANCH  19  22
ENDBRANCH  11  18
BRANCH   5  27
HETATM   27  C   UNL     1     -10.325   2.686 -34.197  1.00  0.00     0.276 C 
BRANCH  27  28
HETATM   28  C   UNL     1     -11.736   2.356 -33.792  1.00  0.00     0.002 A 
HETATM   29  C   UNL     1     -12.600   3.343 -33.299  1.00  0.00     0.073 A 
HETATM   30  C   UNL     1     -13.898   3.033 -32.897  1.00  0.00     0.039 A 
HETATM   31  C   UNL     1     -14.350   1.716 -32.988  1.00  0.00     0.026 A 
HETATM   32  C   UNL     1     -13.503   0.723 -33.474  1.00  0.00     0.034 A 
HETATM   33 CL   UNL     1     -14.058  -0.899 -33.591  1.00  0.00    -0.084 Cl
HETATM   34  C   UNL     1     -12.201   1.035 -33.871  1.00  0.00     0.035 A 
BRANCH  29  35
HETATM   35  O   UNL     1     -12.143   4.631 -33.243  1.00  0.00    -0.360 OA
HETATM   36  H   UNL     1     -12.872   5.222 -33.521  1.00  0.00     0.217 HD
ENDBRANCH  29  35
ENDBRANCH  27  28
ENDBRANCH   5  27
TORSDOF 6
ENDMDL
MODEL 2
REMARK VINA RESULT:      -8.5      4.501      6.770
REMARK  6 active torsions:
REMARK  status: ('A' for Active; 'I' for Inactive)
REMARK    1  A    between atoms: O_2  and  C_3 
REMARK    2  A    between atoms: N_7  and  C_9 
REMARK    3  A    between atoms: C_9  and  C_10 
REMARK    4  A    between atoms: C_11  and  O_12 
REMARK    5  A    between atoms: C_22  and  N_23 
REMARK       I    between atoms: N_23  and  C_24 
REMARK    6  A    between atoms: C_24  and  C_25 
ROOT
HETATM    1  C   UNL     1      -4.393   4.832 -32.343  1.00  0.00     0.161 C 
HETATM    2  C   UNL     1      -5.251   3.724 -31.628  1.00  0.00     0.019 C 
HETATM    3  C   UNL     1      -4.369   2.723 -30.841  1.00  0.00     0.045 C 
HETATM    4  C   UNL     1      -3.584   1.785 -31.751  1.00  0.00     0.236 C 
HETATM    5  N   UNL     1      -4.509   1.078 -32.707  1.00  0.00    -0.067 N 
HETATM    6  H   UNL     1      -3.894   0.581 -33.374  1.00  0.00     0.280 HD
HETATM    7  C   UNL     1      -5.332   2.040 -33.523  1.00  0.00     0.236 C 
HETATM    8  C   UNL     1      -6.153   2.933 -32.599  1.00  0.00     0.045 C 
HETATM    9  C   UNL     1      -6.014   4.580 -30.637  1.00  0.00    -0.038 A 
HETATM   10  C   UNL     1      -5.398   5.832 -30.459  1.00  0.00    -0.026 A 
HETATM   11  C   UNL     1      -4.150   5.975 -31.303  1.00  0.00     0.148 C 
HETATM   12  C   UNL     1      -7.160   4.253 -29.922  1.00  0.00     0.009 A 
HETATM   13  C   UNL     1      -7.689   5.192 -29.036  1.00  0.00     0.001 A 
HETATM   14  C   UNL     1      -7.077   6.441 -28.867  1.00  0.00     0.001 A 
HETATM   15  C   UNL     1      -5.923   6.769 -29.579  1.00  0.00     0.010 A 
ENDROOT
BRANCH   1  16
HETATM   16  O   UNL     1      -4.972   5.254 -33.600  1.00  0.00    -0.387 OA
HETATM   17  C   UNL     1      -4.154   5.246 -34.764  1.00  0.00     0.202 C 
ENDBRANCH   1  16
BRANCH  11  18
HETATM   18  N   UNL     1      -2.990   5.931 -30.417  1.00  0.00    -0.346 N 
HETATM   19  C   UNL     1      -1.897   6.763 -30.433  1.00  0.00     0.252 C 
HETATM   20  O   UNL     1      -1.602   7.462 -31.397  1.00  0.00    -0.268 OA
HETATM   21  H   UNL     1      -3.116   5.361 -29.595  1.00  0.00     0.163 HD
BRANCH  19  22
HETATM   22  C   UNL     1      -1.055   6.719 -29.231  1.00  0.00     0.039 A 
HETATM   23  C   UNL     1      -1.561   7.070 -27.988  1.00  0.00     0.066 A 
HETATM   24  S   UNL     1      -0.416   6.940 -26.727  1.00  0.00    -0.113 SA
HETATM   25  C   UNL     1       0.785   6.390 -27.806  1.00  0.00     0.050 A 
HETATM   26  C   UNL     1       0.320   6.316 -29.102  1.00  0.00     0.024 A 
ENDBRANCH  19  22
ENDBRANCH  11  18
BRANCH   5  27
HETATM   27  C   UNL     1      -5.313  -0.056 -32.108  1.00  0.00     0.276 C 
BRANCH  27  28
HETATM   28  C   UNL     1      -5.498  -1.233 -33.027  1.00  0.00     0.002 A 
HETATM   29  C   UNL     1      -6.698  -1.432 -33.721  1.00  0.00     0.073 A 
HETATM   30  C   UNL     1      -6.880  -2.537 -34.551  1.00  0.00     0.039 A 
HETATM   31  C   UNL     1      -5.847  -3.464 -34.698  1.00  0.00     0.026 A 
HETATM   32  C   UNL     1      -4.648  -3.282 -34.013  1.00  0.00     0.034 A 
HETATM   33 CL   UNL     1      -3.373  -4.419 -34.195  1.00  0.00    -0.084 Cl
HETATM   34  C   UNL     1      -4.470  -2.177 -33.178  1.00  0.00     0.035 A 
BRANCH  29  35
HETATM   35  O   UNL     1      -7.687  -0.497 -33.581  1.00  0.00    -0.360 OA
HETATM   36  H   UNL     1      -8.293  -0.582 -34.345  1.00  0.00     0.217 HD
ENDBRANCH  29  35
ENDBRANCH  27  28
ENDBRANCH   5  27
TORSDOF 6
ENDMDL
MODEL 3
REMARK VINA RESULT:      -8.3      4.219      7.295
REMARK  6 active torsions:
REMARK  status: ('A' for Active; 'I' for Inactive)
REMARK    1  A    between atoms: O_2  and  C_3 
REMARK    2  A    between atoms: N_7  and  C_9 
REMARK    3  A    between atoms: C_9  and  C_10 
REMARK    4  A    between atoms: C_11  and  O_12 
REMARK    5  A    between atoms: C_22  and  N_23 
REMARK       I    between atoms: N_23  and  C_24 
REMARK    6  A    between atoms: C_24  and  C_25 
ROOT
HETATM    1  C   UNL     1      -2.499   6.369 -32.565  1.00  0.00     0.161 C 
HETATM    2  C   UNL     1      -3.963   5.946 -32.172  1.00  0.00     0.019 C 
HETATM    3  C   UNL     1      -3.981   4.943 -30.992  1.00  0.00     0.045 C 
HETATM    4  C   UNL     1      -3.491   3.555 -31.389  1.00  0.00     0.236 C 
HETATM    5  N   UNL     1      -4.269   3.037 -32.570  1.00  0.00    -0.067 N 
HETATM    6  H   UNL     1      -3.787   2.170 -32.863  1.00  0.00     0.280 HD
HETATM    7  C   UNL     1      -4.212   3.975 -33.748  1.00  0.00     0.236 C 
HETATM    8  C   UNL     1      -4.757   5.341 -33.349  1.00  0.00     0.045 C 
HETATM    9  C   UNL     1      -4.501   7.277 -31.684  1.00  0.00    -0.038 A 
HETATM   10  C   UNL     1      -3.458   8.174 -31.389  1.00  0.00    -0.026 A 
HETATM   11  C   UNL     1      -2.096   7.563 -31.637  1.00  0.00     0.148 C 
HETATM   12  C   UNL     1      -5.825   7.650 -31.490  1.00  0.00     0.009 A 
HETATM   13  C   UNL     1      -6.098   8.931 -31.007  1.00  0.00     0.001 A 
HETATM   14  C   UNL     1      -5.057   9.824 -30.720  1.00  0.00     0.001 A 
HETATM   15  C   UNL     1      -3.727   9.449 -30.909  1.00  0.00     0.010 A 
ENDROOT
BRANCH   1  16
HETATM   16  O   UNL     1      -2.357   6.614 -33.984  1.00  0.00    -0.387 OA
HETATM   17  C   UNL     1      -1.302   5.966 -34.684  1.00  0.00     0.202 C 
ENDBRANCH   1  16
BRANCH  11  18
HETATM   18  N   UNL     1      -1.463   7.313 -30.346  1.00  0.00    -0.346 N 
HETATM   19  C   UNL     1      -0.128   7.103 -30.100  1.00  0.00     0.252 C 
HETATM   20  O   UNL     1       0.673   6.788 -30.973  1.00  0.00    -0.268 OA
HETATM   21  H   UNL     1      -2.046   7.520 -29.550  1.00  0.00     0.163 HD
BRANCH  19  22
HETATM   22  C   UNL     1       0.278   7.222 -28.694  1.00  0.00     0.039 A 
HETATM   23  C   UNL     1       1.175   8.198 -28.286  1.00  0.00     0.066 A 
HETATM   24  S   UNL     1       1.503   8.164 -26.609  1.00  0.00    -0.113 SA
HETATM   25  C   UNL     1       0.435   6.854 -26.377  1.00  0.00     0.050 A 
HETATM   26  C   UNL     1      -0.151   6.448 -27.558  1.00  0.00     0.024 A 
ENDBRANCH  19  22
ENDBRANCH  11  18
BRANCH   5  27
HETATM   27  C   UNL     1      -5.663   2.537 -32.256  1.00  0.00     0.276 C 
BRANCH  27  28
HETATM   28  C   UNL     1      -6.178   1.503 -33.221  1.00  0.00     0.002 A 
HETATM   29  C   UNL     1      -7.323   1.737 -33.994  1.00  0.00     0.073 A 
HETATM   30  C   UNL     1      -7.817   0.769 -34.868  1.00  0.00     0.039 A 
HETATM   31  C   UNL     1      -7.159  -0.457 -34.978  1.00  0.00     0.026 A 
HETATM   32  C   UNL     1      -6.022  -0.706 -34.215  1.00  0.00     0.034 A 
HETATM   33 CL   UNL     1      -5.208  -2.213 -34.352  1.00  0.00    -0.084 Cl
HETATM   34  C   UNL     1      -5.532   0.263 -33.337  1.00  0.00     0.035 A 
BRANCH  29  35
HETATM   35  O   UNL     1      -7.936   2.956 -33.888  1.00  0.00    -0.360 OA
HETATM   36  H   UNL     1      -8.893   2.826 -34.046  1.00  0.00     0.217 HD
ENDBRANCH  29  35
ENDBRANCH  27  28
ENDBRANCH   5  27
TORSDOF 6
ENDMDL
MODEL 4
REMARK VINA RESULT:      -8.3      2.062      2.337
REMARK  6 active torsions:
REMARK  status: ('A' for Active; 'I' for Inactive)
REMARK    1  A    between atoms: O_2  and  C_3 
REMARK    2  A    between atoms: N_7  and  C_9 
REMARK    3  A    between atoms: C_9  and  C_10 
REMARK    4  A    between atoms: C_11  and  O_12 
REMARK    5  A    between atoms: C_22  and  N_23 
REMARK       I    between atoms: N_23  and  C_24 
REMARK    6  A    between atoms: C_24  and  C_25 
ROOT
HETATM    1  C   UNL     1      -6.209   1.590 -31.439  1.00  0.00     0.161 C 
HETATM    2  C   UNL     1      -7.046   1.101 -32.679  1.00  0.00     0.019 C 
HETATM    3  C   UNL     1      -7.130   2.181 -33.786  1.00  0.00     0.045 C 
HETATM    4  C   UNL     1      -8.034   3.348 -33.406  1.00  0.00     0.236 C 
HETATM    5  N   UNL     1      -9.400   2.850 -33.010  1.00  0.00    -0.067 N 
HETATM    6  H   UNL     1      -9.899   3.675 -32.633  1.00  0.00     0.280 HD
HETATM    7  C   UNL     1      -9.339   1.842 -31.892  1.00  0.00     0.236 C 
HETATM    8  C   UNL     1      -8.477   0.657 -32.310  1.00  0.00     0.045 C 
HETATM    9  C   UNL     1      -6.157  -0.026 -33.169  1.00  0.00    -0.038 A 
HETATM   10  C   UNL     1      -4.855   0.084 -32.647  1.00  0.00    -0.026 A 
HETATM   11  C   UNL     1      -4.704   1.290 -31.747  1.00  0.00     0.148 C 
HETATM   12  C   UNL     1      -6.480  -1.057 -34.042  1.00  0.00     0.009 A 
HETATM   13  C   UNL     1      -5.493  -1.984 -34.380  1.00  0.00     0.001 A 
HETATM   14  C   UNL     1      -4.199  -1.877 -33.853  1.00  0.00     0.001 A 
HETATM   15  C   UNL     1      -3.872  -0.838 -32.981  1.00  0.00     0.010 A 
ENDROOT
BRANCH   1  16
HETATM   16  O   UNL     1      -6.704   1.050 -30.192  1.00  0.00    -0.387 OA
HETATM   17  C   UNL     1      -5.801   0.341 -29.351  1.00  0.00     0.202 C 
ENDBRANCH   1  16
BRANCH  11  18
HETATM   18  N   UNL     1      -3.882   2.279 -32.438  1.00  0.00    -0.346 N 
HETATM   19  C   UNL     1      -3.962   3.646 -32.339  1.00  0.00     0.252 C 
HETATM   20  O   UNL     1      -4.945   4.228 -31.892  1.00  0.00    -0.268 OA
HETATM   21  H   UNL     1      -3.050   1.901 -32.866  1.00  0.00     0.163 HD
BRANCH  19  22
HETATM   22  C   UNL     1      -2.807   4.384 -32.864  1.00  0.00     0.039 A 
HETATM   23  C   UNL     1      -2.736   4.751 -34.199  1.00  0.00     0.066 A 
HETATM   24  S   UNL     1      -1.312   5.608 -34.595  1.00  0.00    -0.113 SA
HETATM   25  C   UNL     1      -0.758   5.531 -32.984  1.00  0.00     0.050 A 
HETATM   26  C   UNL     1      -1.641   4.858 -32.165  1.00  0.00     0.024 A 
ENDBRANCH  19  22
ENDBRANCH  11  18
BRANCH   5  27
HETATM   27  C   UNL     1     -10.295   2.435 -34.158  1.00  0.00     0.276 C 
BRANCH  27  28
HETATM   28  C   UNL     1     -11.209   3.523 -34.652  1.00  0.00     0.002 A 
HETATM   29  C   UNL     1     -12.108   3.296 -35.702  1.00  0.00     0.073 A 
HETATM   30  C   UNL     1     -12.936   4.311 -36.178  1.00  0.00     0.039 A 
HETATM   31  C   UNL     1     -12.871   5.580 -35.599  1.00  0.00     0.026 A 
HETATM   32  C   UNL     1     -11.980   5.822 -34.556  1.00  0.00     0.034 A 
HETATM   33 CL   UNL     1     -11.901   7.382 -33.839  1.00  0.00    -0.084 Cl
HETATM   34  C   UNL     1     -11.149   4.805 -34.084  1.00  0.00     0.035 A 
BRANCH  29  35
HETATM   35  O   UNL     1     -12.172   2.038 -36.236  1.00  0.00    -0.360 OA
HETATM   36  H   UNL     1     -12.228   1.399 -35.497  1.00  0.00     0.217 HD
ENDBRANCH  29  35
ENDBRANCH  27  28
ENDBRANCH   5  27
TORSDOF 6
ENDMDL
MODEL 5
REMARK VINA RESULT:      -8.2      4.319      8.706
REMARK  6 active torsions:
REMARK  status: ('A' for Active; 'I' for Inactive)
REMARK    1  A    between atoms: O_2  and  C_3 
REMARK    2  A    between atoms: N_7  and  C_9 
REMARK    3  A    between atoms: C_9  and  C_10 
REMARK    4  A    between atoms: C_11  and  O_12 
REMARK    5  A    between atoms: C_22  and  N_23 
REMARK       I    between atoms: N_23  and  C_24 
REMARK    6  A    between atoms: C_24  and  C_25 
ROOT
HETATM    1  C   UNL     1      -9.734   3.644 -31.197  1.00  0.00     0.161 C 
HETATM    2  C   UNL     1      -9.177   3.404 -32.649  1.00  0.00     0.019 C 
HETATM    3  C   UNL     1      -9.780   2.133 -33.299  1.00  0.00     0.045 C 
HETATM    4  C   UNL     1      -9.246   0.845 -32.684  1.00  0.00     0.236 C 
HETATM    5  N   UNL     1      -7.740   0.827 -32.720  1.00  0.00    -0.067 N 
HETATM    6  H   UNL     1      -7.457   0.002 -32.163  1.00  0.00     0.280 HD
HETATM    7  C   UNL     1      -7.137   2.027 -32.038  1.00  0.00     0.236 C 
HETATM    8  C   UNL     1      -7.638   3.305 -32.701  1.00  0.00     0.045 C 
HETATM    9  C   UNL     1      -9.742   4.622 -33.353  1.00  0.00    -0.038 A 
HETATM   10  C   UNL     1     -10.797   5.195 -32.619  1.00  0.00    -0.026 A 
HETATM   11  C   UNL     1     -11.074   4.439 -31.338  1.00  0.00     0.148 C 
HETATM   12  C   UNL     1      -9.361   5.162 -34.575  1.00  0.00     0.009 A 
HETATM   13  C   UNL     1     -10.037   6.286 -35.053  1.00  0.00     0.001 A 
HETATM   14  C   UNL     1     -11.082   6.859 -34.316  1.00  0.00     0.001 A 
HETATM   15  C   UNL     1     -11.470   6.314 -33.092  1.00  0.00     0.010 A 
ENDROOT
BRANCH   1  16
HETATM   16  O   UNL     1      -8.751   4.243 -30.321  1.00  0.00    -0.387 OA
HETATM   17  C   UNL     1      -9.061   5.484 -29.696  1.00  0.00     0.202 C 
ENDBRANCH   1  16
BRANCH  11  18
HETATM   18  N   UNL     1     -12.340   3.729 -31.490  1.00  0.00    -0.346 N 
HETATM   19  C   UNL     1     -13.589   4.164 -31.119  1.00  0.00     0.252 C 
HETATM   20  O   UNL     1     -13.771   5.080 -30.324  1.00  0.00    -0.268 OA
HETATM   21  H   UNL     1     -12.300   2.936 -32.111  1.00  0.00     0.163 HD
BRANCH  19  22
HETATM   22  C   UNL     1     -14.713   3.413 -31.694  1.00  0.00     0.039 A 
HETATM   23  C   UNL     1     -16.008   3.906 -31.638  1.00  0.00     0.066 A 
HETATM   24  S   UNL     1     -17.159   2.879 -32.373  1.00  0.00    -0.113 SA
HETATM   25  C   UNL     1     -15.952   1.754 -32.807  1.00  0.00     0.050 A 
HETATM   26  C   UNL     1     -14.699   2.154 -32.390  1.00  0.00     0.024 A 
ENDBRANCH  19  22
ENDBRANCH  11  18
BRANCH   5  27
HETATM   27  C   UNL     1      -7.129   0.522 -34.071  1.00  0.00     0.276 C 
BRANCH  27  28
HETATM   28  C   UNL     1      -6.304  -0.736 -34.105  1.00  0.00     0.002 A 
HETATM   29  C   UNL     1      -5.000  -0.764 -33.595  1.00  0.00     0.073 A 
HETATM   30  C   UNL     1      -4.225  -1.921 -33.651  1.00  0.00     0.039 A 
HETATM   31  C   UNL     1      -4.757  -3.077 -34.225  1.00  0.00     0.026 A 
HETATM   32  C   UNL     1      -6.051  -3.065 -34.739  1.00  0.00     0.034 A 
HETATM   33 CL   UNL     1      -6.709  -4.488 -35.442  1.00  0.00    -0.084 Cl
HETATM   34  C   UNL     1      -6.823  -1.903 -34.686  1.00  0.00     0.035 A 
BRANCH  29  35
HETATM   35  O   UNL     1      -4.509   0.375 -33.015  1.00  0.00    -0.360 OA
HETATM   36  H   UNL     1      -3.749   0.682 -33.550  1.00  0.00     0.217 HD
ENDBRANCH  29  35
ENDBRANCH  27  28
ENDBRANCH   5  27
TORSDOF 6
ENDMDL
MODEL 6
REMARK VINA RESULT:      -8.1      4.035      8.116
REMARK  6 active torsions:
REMARK  status: ('A' for Active; 'I' for Inactive)
REMARK    1  A    between atoms: O_2  and  C_3 
REMARK    2  A    between atoms: N_7  and  C_9 
REMARK    3  A    between atoms: C_9  and  C_10 
REMARK    4  A    between atoms: C_11  and  O_12 
REMARK    5  A    between atoms: C_22  and  N_23 
REMARK       I    between atoms: N_23  and  C_24 
REMARK    6  A    between atoms: C_24  and  C_25 
ROOT
HETATM    1  C   UNL     1      -7.848   2.658 -31.511  1.00  0.00     0.161 C 
HETATM    2  C   UNL     1      -7.538   3.890 -32.440  1.00  0.00     0.019 C 
HETATM    3  C   UNL     1      -6.217   3.706 -33.228  1.00  0.00     0.045 C 
HETATM    4  C   UNL     1      -4.980   3.830 -32.345  1.00  0.00     0.236 C 
HETATM    5  N   UNL     1      -5.000   5.132 -31.587  1.00  0.00    -0.067 N 
HETATM    6  H   UNL     1      -4.216   5.075 -30.914  1.00  0.00     0.280 HD
HETATM    7  C   UNL     1      -6.253   5.299 -30.769  1.00  0.00     0.236 C 
HETATM    8  C   UNL     1      -7.477   5.229 -31.674  1.00  0.00     0.045 C 
HETATM    9  C   UNL     1      -8.698   3.787 -33.410  1.00  0.00    -0.038 A 
HETATM   10  C   UNL     1      -9.285   2.509 -33.373  1.00  0.00    -0.026 A 
HETATM   11  C   UNL     1      -8.598   1.596 -32.381  1.00  0.00     0.148 C 
HETATM   12  C   UNL     1      -9.176   4.755 -34.284  1.00  0.00     0.009 A 
HETATM   13  C   UNL     1     -10.253   4.438 -35.114  1.00  0.00     0.001 A 
HETATM   14  C   UNL     1     -10.840   3.166 -35.070  1.00  0.00     0.001 A 
HETATM   15  C   UNL     1     -10.357   2.191 -34.198  1.00  0.00     0.010 A 
ENDROOT
BRANCH   1  16
HETATM   16  O   UNL     1      -8.522   3.043 -30.290  1.00  0.00    -0.387 OA
HETATM   17  C   UNL     1      -9.932   3.233 -30.321  1.00  0.00     0.202 C 
ENDBRANCH   1  16
BRANCH  11  18
HETATM   18  N   UNL     1      -7.847   0.590 -33.127  1.00  0.00    -0.346 N 
HETATM   19  C   UNL     1      -6.687  -0.037 -32.743  1.00  0.00     0.252 C 
HETATM   20  O   UNL     1      -5.955   0.391 -31.857  1.00  0.00    -0.268 OA
HETATM   21  H   UNL     1      -8.351   0.183 -33.899  1.00  0.00     0.163 HD
BRANCH  19  22
HETATM   22  C   UNL     1      -6.339  -1.240 -33.511  1.00  0.00     0.039 A 
HETATM   23  C   UNL     1      -5.027  -1.678 -33.602  1.00  0.00     0.066 A 
HETATM   24  S   UNL     1      -4.846  -3.097 -34.536  1.00  0.00    -0.113 SA
HETATM   25  C   UNL     1      -6.525  -3.179 -34.826  1.00  0.00     0.050 A 
HETATM   26  C   UNL     1      -7.205  -2.138 -34.229  1.00  0.00     0.024 A 
ENDBRANCH  19  22
ENDBRANCH  11  18
BRANCH   5  27
HETATM   27  C   UNL     1      -4.634   6.357 -32.398  1.00  0.00     0.276 C 
BRANCH  27  28
HETATM   28  C   UNL     1      -3.157   6.515 -32.643  1.00  0.00     0.002 A 
HETATM   29  C   UNL     1      -2.614   6.377 -33.927  1.00  0.00     0.073 A 
HETATM   30  C   UNL     1      -1.244   6.496 -34.151  1.00  0.00     0.039 A 
HETATM   31  C   UNL     1      -0.393   6.758 -33.076  1.00  0.00     0.026 A 
HETATM   32  C   UNL     1      -0.916   6.895 -31.793  1.00  0.00     0.034 A 
HETATM   33 CL   UNL     1       0.130   7.221 -30.469  1.00  0.00    -0.084 Cl
HETATM   34  C   UNL     1      -2.289   6.771 -31.571  1.00  0.00     0.035 A 
BRANCH  29  35
HETATM   35  O   UNL     1      -3.472   6.146 -34.969  1.00  0.00    -0.360 OA
HETATM   36  H   UNL     1      -4.245   6.736 -34.859  1.00  0.00     0.217 HD
ENDBRANCH  29  35
ENDBRANCH  27  28
ENDBRANCH   5  27
TORSDOF 6
ENDMDL
MODEL 7
REMARK VINA RESULT:      -8.0      5.166      9.035
REMARK  6 active torsions:
REMARK  status: ('A' for Active; 'I' for Inactive)
REMARK    1  A    between atoms: O_2  and  C_3 
REMARK    2  A    between atoms: N_7  and  C_9 
REMARK    3  A    between atoms: C_9  and  C_10 
REMARK    4  A    between atoms: C_11  and  O_12 
REMARK    5  A    between atoms: C_22  and  N_23 
REMARK       I    between atoms: N_23  and  C_24 
REMARK    6  A    between atoms: C_24  and  C_25 
ROOT
HETATM    1  C   UNL     1      -5.586   5.989 -32.117  1.00  0.00     0.161 C 
HETATM    2  C   UNL     1      -4.392   6.797 -31.485  1.00  0.00     0.019 C 
HETATM    3  C   UNL     1      -3.867   6.136 -30.186  1.00  0.00     0.045 C 
HETATM    4  C   UNL     1      -4.830   6.290 -29.014  1.00  0.00     0.236 C 
HETATM    5  N   UNL     1      -5.175   7.740 -28.800  1.00  0.00    -0.067 N 
HETATM    6  H   UNL     1      -5.932   7.746 -28.095  1.00  0.00     0.280 HD
HETATM    7  C   UNL     1      -5.743   8.382 -30.039  1.00  0.00     0.236 C 
HETATM    8  C   UNL     1      -4.744   8.269 -31.185  1.00  0.00     0.045 C 
HETATM    9  C   UNL     1      -3.350   6.621 -32.572  1.00  0.00    -0.038 A 
HETATM   10  C   UNL     1      -3.674   5.550 -33.425  1.00  0.00    -0.026 A 
HETATM   11  C   UNL     1      -4.965   4.873 -33.021  1.00  0.00     0.148 C 
HETATM   12  C   UNL     1      -2.181   7.347 -32.768  1.00  0.00     0.009 A 
HETATM   13  C   UNL     1      -1.345   6.999 -33.829  1.00  0.00     0.001 A 
HETATM   14  C   UNL     1      -1.673   5.936 -34.681  1.00  0.00     0.001 A 
HETATM   15  C   UNL     1      -2.843   5.202 -34.482  1.00  0.00     0.010 A 
ENDROOT
BRANCH   1  16
HETATM   16  O   UNL     1      -6.548   6.849 -32.772  1.00  0.00    -0.387 OA
HETATM   17  C   UNL     1      -7.932   6.636 -32.522  1.00  0.00     0.202 C 
ENDBRANCH   1  16
BRANCH  11  18
HETATM   18  N   UNL     1      -4.642   3.565 -32.459  1.00  0.00    -0.346 N 
HETATM   19  C   UNL     1      -5.204   2.356 -32.785  1.00  0.00     0.252 C 
HETATM   20  O   UNL     1      -6.276   2.253 -33.372  1.00  0.00    -0.268 OA
HETATM   21  H   UNL     1      -3.782   3.540 -31.932  1.00  0.00     0.163 HD
BRANCH  19  22
HETATM   22  C   UNL     1      -4.463   1.173 -32.329  1.00  0.00     0.039 A 
HETATM   23  C   UNL     1      -4.735  -0.086 -32.841  1.00  0.00     0.066 A 
HETATM   24  S   UNL     1      -3.753  -1.317 -32.179  1.00  0.00    -0.113 SA
HETATM   25  C   UNL     1      -2.919  -0.195 -31.202  1.00  0.00     0.050 A 
HETATM   26  C   UNL     1      -3.389   1.090 -31.374  1.00  0.00     0.024 A 
ENDBRANCH  19  22
ENDBRANCH  11  18
BRANCH   5  27
HETATM   27  C   UNL     1      -4.103   8.566 -28.122  1.00  0.00     0.276 C 
BRANCH  27  28
HETATM   28  C   UNL     1      -3.009   7.752 -27.485  1.00  0.00     0.002 A 
HETATM   29  C   UNL     1      -3.229   7.044 -26.296  1.00  0.00     0.073 A 
HETATM   30  C   UNL     1      -2.209   6.313 -25.690  1.00  0.00     0.039 A 
HETATM   31  C   UNL     1      -0.943   6.281 -26.277  1.00  0.00     0.026 A 
HETATM   32  C   UNL     1      -0.708   6.981 -27.458  1.00  0.00     0.034 A 
HETATM   33 CL   UNL     1       0.848   6.940 -28.185  1.00  0.00    -0.084 Cl
HETATM   34  C   UNL     1      -1.730   7.717 -28.060  1.00  0.00     0.035 A 
BRANCH  29  35
HETATM   35  O   UNL     1      -4.485   7.070 -25.752  1.00  0.00    -0.360 OA
HETATM   36  H   UNL     1      -4.613   6.239 -25.251  1.00  0.00     0.217 HD
ENDBRANCH  29  35
ENDBRANCH  27  28
ENDBRANCH   5  27
TORSDOF 6
ENDMDL
MODEL 8
REMARK VINA RESULT:      -7.9      3.829      8.330
REMARK  6 active torsions:
REMARK  status: ('A' for Active; 'I' for Inactive)
REMARK    1  A    between atoms: O_2  and  C_3 
REMARK    2  A    between atoms: N_7  and  C_9 
REMARK    3  A    between atoms: C_9  and  C_10 
REMARK    4  A    between atoms: C_11  and  O_12 
REMARK    5  A    between atoms: C_22  and  N_23 
REMARK       I    between atoms: N_23  and  C_24 
REMARK    6  A    between atoms: C_24  and  C_25 
ROOT
HETATM    1  C   UNL     1     -10.157   3.975 -33.341  1.00  0.00     0.161 C 
HETATM    2  C   UNL     1     -10.013   2.454 -32.965  1.00  0.00     0.019 C 
HETATM    3  C   UNL     1      -9.816   2.247 -31.443  1.00  0.00     0.045 C 
HETATM    4  C   UNL     1      -8.438   2.685 -30.960  1.00  0.00     0.236 C 
HETATM    5  N   UNL     1      -7.358   2.002 -31.757  1.00  0.00    -0.067 N 
HETATM    6  H   UNL     1      -6.472   2.455 -31.471  1.00  0.00     0.280 HD
HETATM    7  C   UNL     1      -7.500   2.243 -33.237  1.00  0.00     0.236 C 
HETATM    8  C   UNL     1      -8.861   1.749 -33.713  1.00  0.00     0.045 C 
HETATM    9  C   UNL     1     -11.393   1.956 -33.347  1.00  0.00    -0.038 A 
HETATM   10  C   UNL     1     -12.308   3.018 -33.459  1.00  0.00    -0.026 A 
HETATM   11  C   UNL     1     -11.665   4.356 -33.168  1.00  0.00     0.148 C 
HETATM   12  C   UNL     1     -11.807   0.645 -33.551  1.00  0.00     0.009 A 
HETATM   13  C   UNL     1     -13.143   0.407 -33.877  1.00  0.00     0.001 A 
HETATM   14  C   UNL     1     -14.052   1.468 -33.995  1.00  0.00     0.001 A 
HETATM   15  C   UNL     1     -13.638   2.783 -33.785  1.00  0.00     0.010 A 
ENDROOT
BRANCH   1  16
HETATM   16  O   UNL     1      -9.588   4.280 -34.636  1.00  0.00    -0.387 OA
HETATM   17  C   UNL     1     -10.110   5.384 -35.366  1.00  0.00     0.202 C 
ENDBRANCH   1  16
BRANCH  11  18
HETATM   18  N   UNL     1     -12.161   4.833 -31.881  1.00  0.00    -0.346 N 
HETATM   19  C   UNL     1     -11.980   6.077 -31.327  1.00  0.00     0.252 C 
HETATM   20  O   UNL     1     -11.110   6.856 -31.702  1.00  0.00    -0.268 OA
HETATM   21  H   UNL     1     -12.872   4.249 -31.467  1.00  0.00     0.163 HD
BRANCH  19  22
HETATM   22  C   UNL     1     -12.866   6.399 -30.201  1.00  0.00     0.039 A 
HETATM   23  C   UNL     1     -12.691   7.558 -29.460  1.00  0.00     0.066 A 
HETATM   24  S   UNL     1     -13.835   7.741 -28.203  1.00  0.00    -0.113 SA
HETATM   25  C   UNL     1     -14.611   6.283 -28.630  1.00  0.00     0.050 A 
HETATM   26  C   UNL     1     -14.002   5.668 -29.704  1.00  0.00     0.024 A 
ENDBRANCH  19  22
ENDBRANCH  11  18
BRANCH   5  27
HETATM   27  C   UNL     1      -7.106   0.554 -31.396  1.00  0.00     0.276 C 
BRANCH  27  28
HETATM   28  C   UNL     1      -5.990  -0.090 -32.174  1.00  0.00     0.002 A 
HETATM   29  C   UNL     1      -4.656   0.294 -31.985  1.00  0.00     0.073 A 
HETATM   30  C   UNL     1      -3.625  -0.282 -32.725  1.00  0.00     0.039 A 
HETATM   31  C   UNL     1      -3.924  -1.261 -33.674  1.00  0.00     0.026 A 
HETATM   32  C   UNL     1      -5.245  -1.651 -33.876  1.00  0.00     0.034 A 
HETATM   33 CL   UNL     1      -5.615  -2.860 -35.041  1.00  0.00    -0.084 Cl
HETATM   34  C   UNL     1      -6.276  -1.070 -33.137  1.00  0.00     0.035 A 
BRANCH  29  35
HETATM   35  O   UNL     1      -4.385   1.238 -31.031  1.00  0.00    -0.360 OA
HETATM   36  H   UNL     1      -4.828   0.963 -30.202  1.00  0.00     0.217 HD
ENDBRANCH  29  35
ENDBRANCH  27  28
ENDBRANCH   5  27
TORSDOF 6
ENDMDL
MODEL 9
REMARK VINA RESULT:      -7.8      1.652      2.002
REMARK  6 active torsions:
REMARK  status: ('A' for Active; 'I' for Inactive)
REMARK    1  A    between atoms: O_2  and  C_3 
REMARK    2  A    between atoms: N_7  and  C_9 
REMARK    3  A    between atoms: C_9  and  C_10 
REMARK    4  A    between atoms: C_11  and  O_12 
REMARK    5  A    between atoms: C_22  and  N_23 
REMARK       I    between atoms: N_23  and  C_24 
REMARK    6  A    between atoms: C_24  and  C_25 
ROOT
HETATM    1  C   UNL     1      -7.382   2.732 -31.929  1.00  0.00     0.161 C 
HETATM    2  C   UNL     1      -8.287   2.321 -33.149  1.00  0.00     0.019 C 
HETATM    3  C   UNL     1      -8.321   3.418 -34.243  1.00  0.00     0.045 C 
HETATM    4  C   UNL     1      -9.125   4.644 -33.825  1.00  0.00     0.236 C 
HETATM    5  N   UNL     1     -10.512   4.246 -33.394  1.00  0.00    -0.067 N 
HETATM    6  H   UNL     1     -10.937   5.101 -32.995  1.00  0.00     0.280 HD
HETATM    7  C   UNL     1     -10.496   3.223 -32.289  1.00  0.00     0.236 C 
HETATM    8  C   UNL     1      -9.737   1.981 -32.743  1.00  0.00     0.045 C 
HETATM    9  C   UNL     1      -7.500   1.137 -33.675  1.00  0.00    -0.038 A 
HETATM   10  C   UNL     1      -6.180   1.143 -33.190  1.00  0.00    -0.026 A 
HETATM   11  C   UNL     1      -5.913   2.324 -32.283  1.00  0.00     0.148 C 
HETATM   12  C   UNL     1      -7.924   0.143 -34.549  1.00  0.00     0.009 A 
HETATM   13  C   UNL     1      -7.019  -0.851 -34.924  1.00  0.00     0.001 A 
HETATM   14  C   UNL     1      -5.707  -0.847 -34.433  1.00  0.00     0.001 A 
HETATM   15  C   UNL     1      -5.278   0.154 -33.561  1.00  0.00     0.010 A 
ENDROOT
BRANCH   1  16
HETATM   16  O   UNL     1      -7.881   2.215 -30.673  1.00  0.00    -0.387 OA
HETATM   17  C   UNL     1      -6.943   1.849 -29.667  1.00  0.00     0.202 C 
ENDBRANCH   1  16
BRANCH  11  18
HETATM   18  N   UNL     1      -5.039   3.256 -32.988  1.00  0.00    -0.346 N 
HETATM   19  C   UNL     1      -4.761   4.558 -32.648  1.00  0.00     0.252 C 
HETATM   20  O   UNL     1      -5.457   5.211 -31.878  1.00  0.00    -0.268 OA
HETATM   21  H   UNL     1      -4.432   2.824 -33.668  1.00  0.00     0.163 HD
BRANCH  19  22
HETATM   22  C   UNL     1      -3.597   5.148 -33.320  1.00  0.00     0.039 A 
HETATM   23  C   UNL     1      -3.180   6.439 -33.031  1.00  0.00     0.066 A 
HETATM   24  S   UNL     1      -1.804   6.925 -33.919  1.00  0.00    -0.113 SA
HETATM   25  C   UNL     1      -1.713   5.412 -34.701  1.00  0.00     0.050 A 
HETATM   26  C   UNL     1      -2.719   4.559 -34.297  1.00  0.00     0.024 A 
ENDBRANCH  19  22
ENDBRANCH  11  18
BRANCH   5  27
HETATM   27  C   UNL     1     -11.467   3.912 -34.520  1.00  0.00     0.276 C 
BRANCH  27  28
HETATM   28  C   UNL     1     -12.502   2.879 -34.164  1.00  0.00     0.002 A 
HETATM   29  C   UNL     1     -12.531   1.630 -34.798  1.00  0.00     0.073 A 
HETATM   30  C   UNL     1     -13.506   0.684 -34.489  1.00  0.00     0.039 A 
HETATM   31  C   UNL     1     -14.474   0.983 -33.528  1.00  0.00     0.026 A 
HETATM   32  C   UNL     1     -14.461   2.221 -32.892  1.00  0.00     0.034 A 
HETATM   33 CL   UNL     1     -15.649   2.589 -31.706  1.00  0.00    -0.084 Cl
HETATM   34  C   UNL     1     -13.486   3.169 -33.206  1.00  0.00     0.035 A 
BRANCH  29  35
HETATM   35  O   UNL     1     -11.557   1.351 -35.717  1.00  0.00    -0.360 OA
HETATM   36  H   UNL     1     -11.693   0.433 -36.031  1.00  0.00     0.217 HD
ENDBRANCH  29  35
ENDBRANCH  27  28
ENDBRANCH   5  27
TORSDOF 6
ENDMDL
MODEL 10
REMARK VINA RESULT:      -7.7     16.712     20.330
REMARK  6 active torsions:
REMARK  status: ('A' for Active; 'I' for Inactive)
REMARK    1  A    between atoms: O_2  and  C_3 
REMARK    2  A    between atoms: N_7  and  C_9 
REMARK    3  A    between atoms: C_9  and  C_10 
REMARK    4  A    between atoms: C_11  and  O_12 
REMARK    5  A    between atoms: C_22  and  N_23 
REMARK       I    between atoms: N_23  and  C_24 
REMARK    6  A    between atoms: C_24  and  C_25 
ROOT
HETATM    1  C   UNL     1      -8.601 -15.710 -39.489  1.00  0.00     0.161 C 
HETATM    2  C   UNL     1      -7.807 -14.418 -39.910  1.00  0.00     0.019 C 
HETATM    3  C   UNL     1      -7.115 -14.584 -41.285  1.00  0.00     0.045 C 
HETATM    4  C   UNL     1      -5.916 -15.524 -41.235  1.00  0.00     0.236 C 
HETATM    5  N   UNL     1      -4.943 -15.084 -40.172  1.00  0.00    -0.067 N 
HETATM    6  H   UNL     1      -4.243 -15.843 -40.103  1.00  0.00     0.280 HD
HETATM    7  C   UNL     1      -5.588 -14.976 -38.815  1.00  0.00     0.236 C 
HETATM    8  C   UNL     1      -6.749 -13.989 -38.871  1.00  0.00     0.045 C 
HETATM    9  C   UNL     1      -8.955 -13.440 -40.060  1.00  0.00    -0.038 A 
HETATM   10  C   UNL     1     -10.187 -14.110 -40.185  1.00  0.00    -0.026 A 
HETATM   11  C   UNL     1     -10.022 -15.613 -40.135  1.00  0.00     0.148 C 
HETATM   12  C   UNL     1      -8.902 -12.053 -40.112  1.00  0.00     0.009 A 
HETATM   13  C   UNL     1     -10.090 -11.341 -40.280  1.00  0.00     0.001 A 
HETATM   14  C   UNL     1     -11.316 -12.011 -40.396  1.00  0.00     0.001 A 
HETATM   15  C   UNL     1     -11.371 -13.404 -40.350  1.00  0.00     0.010 A 
ENDROOT
BRANCH   1  16
HETATM   16  O   UNL     1      -8.587 -15.925 -38.058  1.00  0.00    -0.387 OA
HETATM   17  C   UNL     1      -8.335 -17.238 -37.569  1.00  0.00     0.202 C 
ENDBRANCH   1  16
BRANCH  11  18
HETATM   18  N   UNL     1     -10.261 -16.145 -41.474  1.00  0.00    -0.346 N 
HETATM   19  C   UNL     1     -11.471 -16.471 -42.037  1.00  0.00     0.252 C 
HETATM   20  O   UNL     1     -12.489 -16.653 -41.378  1.00  0.00    -0.268 OA
HETATM   21  H   UNL     1      -9.474 -16.067 -42.099  1.00  0.00     0.163 HD
BRANCH  19  22
HETATM   22  C   UNL     1     -11.458 -16.651 -43.494  1.00  0.00     0.039 A 
HETATM   23  C   UNL     1     -12.638 -16.711 -44.220  1.00  0.00     0.066 A 
HETATM   24  S   UNL     1     -12.394 -16.916 -45.899  1.00  0.00    -0.113 SA
HETATM   25  C   UNL     1     -10.699 -16.910 -45.704  1.00  0.00     0.050 A 
HETATM   26  C   UNL     1     -10.331 -16.762 -44.383  1.00  0.00     0.024 A 
ENDBRANCH  19  22
ENDBRANCH  11  18
BRANCH   5  27
HETATM   27  C   UNL     1      -4.085 -13.891 -40.536  1.00  0.00     0.276 C 
BRANCH  27  28
HETATM   28  C   UNL     1      -2.801 -13.796 -39.759  1.00  0.00     0.002 A 
HETATM   29  C   UNL     1      -2.648 -12.872 -38.717  1.00  0.00     0.073 A 
HETATM   30  C   UNL     1      -1.449 -12.765 -38.014  1.00  0.00     0.039 A 
HETATM   31  C   UNL     1      -0.378 -13.592 -38.353  1.00  0.00     0.026 A 
HETATM   32  C   UNL     1      -0.512 -14.514 -39.388  1.00  0.00     0.034 A 
HETATM   33 CL   UNL     1       0.805 -15.537 -39.804  1.00  0.00    -0.084 Cl
HETATM   34  C   UNL     1      -1.712 -14.617 -40.093  1.00  0.00     0.035 A 
BRANCH  29  35
HETATM   35  O   UNL     1      -3.721 -12.089 -38.387  1.00  0.00    -0.360 OA
HETATM   36  H   UNL     1      -4.324 -12.623 -37.830  1.00  0.00     0.217 HD
ENDBRANCH  29  35
ENDBRANCH  27  28
ENDBRANCH   5  27
TORSDOF 6
ENDMDL
