MODEL 1
REMARK VINA RESULT:      -8.5      0.000      0.000
REMARK  3 active torsions:
REMARK  status: ('A' for Active; 'I' for Inactive)
REMARK    1  A    between atoms: C_2  and  N_3 
REMARK       I    between atoms: N_3  and  C_4 
REMARK    2  A    between atoms: C_4  and  C_5 
REMARK    3  A    between atoms: C_5  and  C_6 
ROOT
HETATM    1  C   UNL     1      -4.943   0.499 -31.250  1.00  0.00     0.286 C 
HETATM    2  N   UNL     1      -5.883   0.343 -32.454  1.00  0.00    -0.056 N 
HETATM    3  H   UNL     1      -6.836   0.651 -32.192  1.00  0.00     0.278 HD
HETATM    4  H   UNL     1      -5.595   0.999 -33.195  1.00  0.00     0.278 HD
HETATM    5  C   UNL     1      -5.869  -1.068 -32.958  1.00  0.00     0.209 C 
HETATM    6  C   UNL     1      -4.437  -1.371 -33.452  1.00  0.00     0.115 C 
HETATM    7  N   UNL     1      -3.444  -1.121 -32.409  1.00  0.00    -0.353 N 
HETATM    8  C   UNL     1      -3.529  -0.056 -31.535  1.00  0.00     0.249 C 
HETATM    9  O   UNL     1      -2.527   0.349 -30.956  1.00  0.00    -0.271 OA
HETATM   10  C   UNL     1      -6.899  -1.251 -34.061  1.00  0.00     0.035 C 
HETATM   11  C   UNL     1      -6.827  -2.679 -34.601  1.00  0.00     0.002 C 
HETATM   12  C   UNL     1      -5.418  -3.039 -35.075  1.00  0.00     0.002 C 
HETATM   13  C   UNL     1      -4.355  -2.796 -33.999  1.00  0.00     0.027 C 
HETATM   14  H   UNL     1      -2.482  -1.414 -32.580  1.00  0.00     0.163 HD
ENDROOT
BRANCH   1  15
HETATM   15  C   UNL     1      -4.897   1.960 -30.822  1.00  0.00     0.146 C 
BRANCH  15  16
HETATM   16  C   UNL     1      -5.915   2.699 -31.639  1.00  0.00     0.224 C 
HETATM   17  N   UNL     1      -5.623   3.603 -32.605  1.00  0.00    -0.327 N 
HETATM   18  H   UNL     1      -6.466   4.089 -32.905  1.00  0.00     0.169 HD
HETATM   19  O   UNL     1      -7.089   2.647 -31.242  1.00  0.00    -0.273 OA
BRANCH  17  20
HETATM   20  C   UNL     1      -4.439   4.062 -33.205  1.00  0.00     0.034 A 
HETATM   21  C   UNL     1      -3.146   3.863 -32.721  1.00  0.00     0.032 A 
HETATM   22  C   UNL     1      -2.044   4.395 -33.403  1.00  0.00     0.044 A 
HETATM   23  C   UNL     1      -2.233   5.116 -34.573  1.00  0.00     0.116 A 
HETATM   24  C   UNL     1      -3.505   5.301 -35.089  1.00  0.00     0.044 A 
HETATM   25  F   UNL     1      -1.176   5.626 -35.216  1.00  0.00    -0.206 F 
HETATM   26  C   UNL     1      -4.603   4.763 -34.413  1.00  0.00     0.032 A 
ENDBRANCH  17  20
ENDBRANCH  15  16
ENDBRANCH   1  15
TORSDOF 3
ENDMDL
MODEL 2
REMARK VINA RESULT:      -8.2      3.785      5.468
REMARK  3 active torsions:
REMARK  status: ('A' for Active; 'I' for Inactive)
REMARK    1  A    between atoms: C_2  and  N_3 
REMARK       I    between atoms: N_3  and  C_4 
REMARK    2  A    between atoms: C_4  and  C_5 
REMARK    3  A    between atoms: C_5  and  C_6 
ROOT
HETATM    1  C   UNL     1      -5.353   0.200 -33.588  1.00  0.00     0.286 C 
HETATM    2  N   UNL     1      -4.836  -0.986 -32.761  1.00  0.00    -0.056 N 
HETATM    3  H   UNL     1      -4.015  -0.689 -32.205  1.00  0.00     0.278 HD
HETATM    4  H   UNL     1      -5.545  -1.244 -32.059  1.00  0.00     0.278 HD
HETATM    5  C   UNL     1      -4.519  -2.152 -33.649  1.00  0.00     0.209 C 
HETATM    6  C   UNL     1      -5.837  -2.599 -34.317  1.00  0.00     0.115 C 
HETATM    7  N   UNL     1      -6.483  -1.494 -35.025  1.00  0.00    -0.353 N 
HETATM    8  C   UNL     1      -6.505  -0.204 -34.536  1.00  0.00     0.249 C 
HETATM    9  O   UNL     1      -7.354   0.590 -34.924  1.00  0.00    -0.271 OA
HETATM   10  C   UNL     1      -3.882  -3.275 -32.847  1.00  0.00     0.035 C 
HETATM   11  C   UNL     1      -3.621  -4.474 -33.758  1.00  0.00     0.002 C 
HETATM   12  C   UNL     1      -4.894  -4.937 -34.469  1.00  0.00     0.002 C 
HETATM   13  C   UNL     1      -5.589  -3.802 -35.227  1.00  0.00     0.027 C 
HETATM   14  H   UNL     1      -7.289  -1.705 -35.614  1.00  0.00     0.163 HD
ENDROOT
BRANCH   1  15
HETATM   15  C   UNL     1      -5.763   1.332 -32.656  1.00  0.00     0.146 C 
BRANCH  15  16
HETATM   16  C   UNL     1      -6.363   0.711 -31.430  1.00  0.00     0.224 C 
HETATM   17  N   UNL     1      -7.691   0.622 -31.179  1.00  0.00    -0.327 N 
HETATM   18  H   UNL     1      -7.854   0.312 -30.222  1.00  0.00     0.169 HD
HETATM   19  O   UNL     1      -5.588   0.474 -30.492  1.00  0.00    -0.273 OA
BRANCH  17  20
HETATM   20  C   UNL     1      -8.857   0.936 -31.897  1.00  0.00     0.034 A 
HETATM   21  C   UNL     1      -9.676   0.026 -32.566  1.00  0.00     0.032 A 
HETATM   22  C   UNL     1     -10.803   0.470 -33.268  1.00  0.00     0.044 A 
HETATM   23  C   UNL     1     -11.119   1.821 -33.293  1.00  0.00     0.116 A 
HETATM   24  C   UNL     1     -10.338   2.740 -32.611  1.00  0.00     0.044 A 
HETATM   25  F   UNL     1     -12.195   2.239 -33.971  1.00  0.00    -0.206 F 
HETATM   26  C   UNL     1      -9.219   2.295 -31.905  1.00  0.00     0.032 A 
ENDBRANCH  17  20
ENDBRANCH  15  16
ENDBRANCH   1  15
TORSDOF 3
ENDMDL
MODEL 3
REMARK VINA RESULT:      -8.1      2.970      7.251
REMARK  3 active torsions:
REMARK  status: ('A' for Active; 'I' for Inactive)
REMARK    1  A    between atoms: C_2  and  N_3 
REMARK       I    between atoms: N_3  and  C_4 
REMARK    2  A    between atoms: C_4  and  C_5 
REMARK    3  A    between atoms: C_5  and  C_6 
ROOT
HETATM    1  C   UNL     1      -4.595   3.809 -32.585  1.00  0.00     0.286 C 
HETATM    2  N   UNL     1      -3.106   3.714 -32.225  1.00  0.00    -0.056 N 
HETATM    3  H   UNL     1      -2.983   3.061 -31.431  1.00  0.00     0.278 HD
HETATM    4  H   UNL     1      -2.596   3.272 -33.004  1.00  0.00     0.278 HD
HETATM    5  C   UNL     1      -2.546   5.072 -31.926  1.00  0.00     0.209 C 
HETATM    6  C   UNL     1      -2.651   5.913 -33.216  1.00  0.00     0.115 C 
HETATM    7  N   UNL     1      -4.023   5.953 -33.721  1.00  0.00    -0.353 N 
HETATM    8  C   UNL     1      -4.865   4.861 -33.685  1.00  0.00     0.249 C 
HETATM    9  O   UNL     1      -5.830   4.799 -34.440  1.00  0.00    -0.271 OA
HETATM   10  C   UNL     1      -1.110   4.960 -31.439  1.00  0.00     0.035 C 
HETATM   11  C   UNL     1      -0.539   6.357 -31.196  1.00  0.00     0.002 C 
HETATM   12  C   UNL     1      -0.649   7.242 -32.439  1.00  0.00     0.002 C 
HETATM   13  C   UNL     1      -2.078   7.311 -32.986  1.00  0.00     0.027 C 
HETATM   14  H   UNL     1      -4.234   6.588 -34.491  1.00  0.00     0.163 HD
ENDROOT
BRANCH   1  15
HETATM   15  C   UNL     1      -5.114   2.434 -32.983  1.00  0.00     0.146 C 
BRANCH  15  16
HETATM   16  C   UNL     1      -4.990   1.542 -31.784  1.00  0.00     0.224 C 
HETATM   17  N   UNL     1      -5.194   0.203 -31.792  1.00  0.00    -0.327 N 
HETATM   18  H   UNL     1      -5.214  -0.160 -30.840  1.00  0.00     0.169 HD
HETATM   19  O   UNL     1      -4.925   2.103 -30.680  1.00  0.00    -0.273 OA
BRANCH  17  20
HETATM   20  C   UNL     1      -5.461  -0.752 -32.787  1.00  0.00     0.034 A 
HETATM   21  C   UNL     1      -6.702  -0.995 -33.376  1.00  0.00     0.032 A 
HETATM   22  C   UNL     1      -6.843  -1.996 -34.345  1.00  0.00     0.044 A 
HETATM   23  C   UNL     1      -5.743  -2.745 -34.735  1.00  0.00     0.116 A 
HETATM   24  C   UNL     1      -4.494  -2.501 -34.187  1.00  0.00     0.044 A 
HETATM   25  F   UNL     1      -5.886  -3.704 -35.658  1.00  0.00    -0.206 F 
HETATM   26  C   UNL     1      -4.353  -1.498 -33.226  1.00  0.00     0.032 A 
ENDBRANCH  17  20
ENDBRANCH  15  16
ENDBRANCH   1  15
TORSDOF 3
ENDMDL
MODEL 4
REMARK VINA RESULT:      -8.0      4.389      6.279
REMARK  3 active torsions:
REMARK  status: ('A' for Active; 'I' for Inactive)
REMARK    1  A    between atoms: C_2  and  N_3 
REMARK       I    between atoms: N_3  and  C_4 
REMARK    2  A    between atoms: C_4  and  C_5 
REMARK    3  A    between atoms: C_5  and  C_6 
ROOT
HETATM    1  C   UNL     1      -8.930   2.421 -31.949  1.00  0.00     0.286 C 
HETATM    2  N   UNL     1      -9.630   3.032 -33.171  1.00  0.00    -0.056 N 
HETATM    3  H   UNL     1      -9.599   4.065 -33.108  1.00  0.00     0.278 HD
HETATM    4  H   UNL     1      -9.088   2.808 -34.019  1.00  0.00     0.278 HD
HETATM    5  C   UNL     1     -11.034   2.520 -33.288  1.00  0.00     0.209 C 
HETATM    6  C   UNL     1     -10.955   0.996 -33.519  1.00  0.00     0.115 C 
HETATM    7  N   UNL     1     -10.185   0.331 -32.469  1.00  0.00    -0.353 N 
HETATM    8  C   UNL     1      -9.046   0.880 -31.916  1.00  0.00     0.249 C 
HETATM    9  O   UNL     1      -8.227   0.165 -31.350  1.00  0.00    -0.271 OA
HETATM   10  C   UNL     1     -11.767   3.227 -34.417  1.00  0.00     0.035 C 
HETATM   11  C   UNL     1     -13.176   2.650 -34.557  1.00  0.00     0.002 C 
HETATM   12  C   UNL     1     -13.152   1.134 -34.757  1.00  0.00     0.002 C 
HETATM   13  C   UNL     1     -12.359   0.408 -33.666  1.00  0.00     0.027 C 
HETATM   14  H   UNL     1     -10.181  -0.689 -32.447  1.00  0.00     0.163 HD
ENDROOT
BRANCH   1  15
HETATM   15  C   UNL     1      -7.478   2.876 -31.911  1.00  0.00     0.146 C 
BRANCH  15  16
HETATM   16  C   UNL     1      -7.085   3.244 -33.310  1.00  0.00     0.224 C 
HETATM   17  N   UNL     1      -6.633   2.371 -34.242  1.00  0.00    -0.327 N 
HETATM   18  H   UNL     1      -6.279   2.869 -35.057  1.00  0.00     0.169 HD
HETATM   19  O   UNL     1      -6.950   4.454 -33.549  1.00  0.00    -0.273 OA
BRANCH  17  20
HETATM   20  C   UNL     1      -6.471   0.976 -34.295  1.00  0.00     0.034 A 
HETATM   21  C   UNL     1      -7.226   0.094 -35.069  1.00  0.00     0.032 A 
HETATM   22  C   UNL     1      -6.980  -1.284 -35.015  1.00  0.00     0.044 A 
HETATM   23  C   UNL     1      -5.974  -1.779 -34.198  1.00  0.00     0.116 A 
HETATM   24  C   UNL     1      -5.192  -0.920 -33.444  1.00  0.00     0.044 A 
HETATM   25  F   UNL     1      -5.749  -3.097 -34.147  1.00  0.00    -0.206 F 
HETATM   26  C   UNL     1      -5.432   0.455 -33.504  1.00  0.00     0.032 A 
ENDBRANCH  17  20
ENDBRANCH  15  16
ENDBRANCH   1  15
TORSDOF 3
ENDMDL
MODEL 5
REMARK VINA RESULT:      -8.0      3.523      4.806
REMARK  3 active torsions:
REMARK  status: ('A' for Active; 'I' for Inactive)
REMARK    1  A    between atoms: C_2  and  N_3 
REMARK       I    between atoms: N_3  and  C_4 
REMARK    2  A    between atoms: C_4  and  C_5 
REMARK    3  A    between atoms: C_5  and  C_6 
ROOT
HETATM    1  C   UNL     1      -5.347  -0.140 -32.611  1.00  0.00     0.286 C 
HETATM    2  N   UNL     1      -6.022  -0.744 -33.851  1.00  0.00    -0.056 N 
HETATM    3  H   UNL     1      -6.996  -0.400 -33.916  1.00  0.00     0.278 HD
HETATM    4  H   UNL     1      -5.562  -0.379 -34.698  1.00  0.00     0.278 HD
HETATM    5  C   UNL     1      -5.957  -2.241 -33.813  1.00  0.00     0.209 C 
HETATM    6  C   UNL     1      -4.467  -2.643 -33.863  1.00  0.00     0.115 C 
HETATM    7  N   UNL     1      -3.702  -2.006 -32.791  1.00  0.00    -0.353 N 
HETATM    8  C   UNL     1      -3.926  -0.706 -32.384  1.00  0.00     0.249 C 
HETATM    9  O   UNL     1      -3.052  -0.086 -31.790  1.00  0.00    -0.271 OA
HETATM   10  C   UNL     1      -6.743  -2.838 -34.970  1.00  0.00     0.035 C 
HETATM   11  C   UNL     1      -6.614  -4.361 -34.948  1.00  0.00     0.002 C 
HETATM   12  C   UNL     1      -5.152  -4.810 -34.964  1.00  0.00     0.002 C 
HETATM   13  C   UNL     1      -4.327  -4.165 -33.846  1.00  0.00     0.027 C 
HETATM   14  H   UNL     1      -2.737  -2.303 -32.646  1.00  0.00     0.163 HD
ENDROOT
BRANCH   1  15
HETATM   15  C   UNL     1      -5.336   1.378 -32.723  1.00  0.00     0.146 C 
BRANCH  15  16
HETATM   16  C   UNL     1      -5.960   1.925 -31.475  1.00  0.00     0.224 C 
HETATM   17  N   UNL     1      -7.294   2.021 -31.255  1.00  0.00    -0.327 N 
HETATM   18  H   UNL     1      -7.479   2.568 -30.416  1.00  0.00     0.169 HD
HETATM   19  O   UNL     1      -5.209   2.536 -30.700  1.00  0.00    -0.273 OA
BRANCH  17  20
HETATM   20  C   UNL     1      -8.444   1.617 -31.954  1.00  0.00     0.034 A 
HETATM   21  C   UNL     1      -8.976   0.328 -31.978  1.00  0.00     0.032 A 
HETATM   22  C   UNL     1     -10.119   0.047 -32.737  1.00  0.00     0.044 A 
HETATM   23  C   UNL     1     -10.738   1.056 -33.461  1.00  0.00     0.116 A 
HETATM   24  C   UNL     1     -10.245   2.350 -33.429  1.00  0.00     0.044 A 
HETATM   25  F   UNL     1     -11.827   0.779 -34.189  1.00  0.00    -0.206 F 
HETATM   26  C   UNL     1      -9.109   2.631 -32.666  1.00  0.00     0.032 A 
ENDBRANCH  17  20
ENDBRANCH  15  16
ENDBRANCH   1  15
TORSDOF 3
ENDMDL
MODEL 6
REMARK VINA RESULT:      -7.9      5.385      7.446
REMARK  3 active torsions:
REMARK  status: ('A' for Active; 'I' for Inactive)
REMARK    1  A    between atoms: C_2  and  N_3 
REMARK       I    between atoms: N_3  and  C_4 
REMARK    2  A    between atoms: C_4  and  C_5 
REMARK    3  A    between atoms: C_5  and  C_6 
ROOT
HETATM    1  C   UNL     1      -0.985   5.775 -32.615  1.00  0.00     0.286 C 
HETATM    2  N   UNL     1      -1.795   4.813 -31.733  1.00  0.00    -0.056 N 
HETATM    3  H   UNL     1      -1.151   4.164 -31.247  1.00  0.00     0.278 HD
HETATM    4  H   UNL     1      -2.245   5.347 -30.975  1.00  0.00     0.278 HD
HETATM    5  C   UNL     1      -2.818   4.082 -32.549  1.00  0.00     0.209 C 
HETATM    6  C   UNL     1      -3.804   5.131 -33.107  1.00  0.00     0.115 C 
HETATM    7  N   UNL     1      -3.109   6.176 -33.857  1.00  0.00    -0.353 N 
HETATM    8  C   UNL     1      -1.892   6.694 -33.465  1.00  0.00     0.249 C 
HETATM    9  O   UNL     1      -1.532   7.797 -33.863  1.00  0.00    -0.271 OA
HETATM   10  C   UNL     1      -3.525   3.035 -31.702  1.00  0.00     0.035 C 
HETATM   11  C   UNL     1      -4.603   2.343 -32.536  1.00  0.00     0.002 C 
HETATM   12  C   UNL     1      -5.589   3.345 -33.139  1.00  0.00     0.002 C 
HETATM   13  C   UNL     1      -4.890   4.448 -33.938  1.00  0.00     0.027 C 
HETATM   14  H   UNL     1      -3.670   6.846 -34.383  1.00  0.00     0.163 HD
ENDROOT
BRANCH   1  15
HETATM   15  C   UNL     1      -0.025   6.578 -31.748  1.00  0.00     0.146 C 
BRANCH  15  16
HETATM   16  C   UNL     1       0.436   5.681 -30.638  1.00  0.00     0.224 C 
HETATM   17  N   UNL     1       0.499   6.035 -29.333  1.00  0.00    -0.327 N 
HETATM   18  H   UNL     1       0.991   5.325 -28.793  1.00  0.00     0.169 HD
HETATM   19  O   UNL     1       1.010   4.634 -30.974  1.00  0.00    -0.273 OA
BRANCH  17  20
HETATM   20  C   UNL     1       0.121   7.170 -28.596  1.00  0.00     0.034 A 
HETATM   21  C   UNL     1      -1.186   7.551 -28.291  1.00  0.00     0.032 A 
HETATM   22  C   UNL     1      -1.432   8.723 -27.566  1.00  0.00     0.044 A 
HETATM   23  C   UNL     1      -0.374   9.509 -27.135  1.00  0.00     0.116 A 
HETATM   24  C   UNL     1       0.934   9.136 -27.399  1.00  0.00     0.044 A 
HETATM   25  F   UNL     1      -0.617  10.632 -26.448  1.00  0.00    -0.206 F 
HETATM   26  C   UNL     1       1.179   7.963 -28.116  1.00  0.00     0.032 A 
ENDBRANCH  17  20
ENDBRANCH  15  16
ENDBRANCH   1  15
TORSDOF 3
ENDMDL
MODEL 7
REMARK VINA RESULT:      -7.8      2.454      3.093
REMARK  3 active torsions:
REMARK  status: ('A' for Active; 'I' for Inactive)
REMARK    1  A    between atoms: C_2  and  N_3 
REMARK       I    between atoms: N_3  and  C_4 
REMARK    2  A    between atoms: C_4  and  C_5 
REMARK    3  A    between atoms: C_5  and  C_6 
ROOT
HETATM    1  C   UNL     1      -5.611   3.233 -32.447  1.00  0.00     0.286 C 
HETATM    2  N   UNL     1      -6.113   2.680 -33.789  1.00  0.00    -0.056 N 
HETATM    3  H   UNL     1      -6.941   3.218 -34.097  1.00  0.00     0.278 HD
HETATM    4  H   UNL     1      -5.403   2.858 -34.515  1.00  0.00     0.278 HD
HETATM    5  C   UNL     1      -6.406   1.213 -33.680  1.00  0.00     0.209 C 
HETATM    6  C   UNL     1      -5.076   0.497 -33.357  1.00  0.00     0.115 C 
HETATM    7  N   UNL     1      -4.445   1.048 -32.160  1.00  0.00    -0.353 N 
HETATM    8  C   UNL     1      -4.448   2.397 -31.867  1.00  0.00     0.249 C 
HETATM    9  O   UNL     1      -3.609   2.866 -31.105  1.00  0.00    -0.271 OA
HETATM   10  C   UNL     1      -7.029   0.698 -34.968  1.00  0.00     0.035 C 
HETATM   11  C   UNL     1      -7.264  -0.809 -34.858  1.00  0.00     0.002 C 
HETATM   12  C   UNL     1      -5.980  -1.562 -34.507  1.00  0.00     0.002 C 
HETATM   13  C   UNL     1      -5.300  -1.012 -33.251  1.00  0.00     0.027 C 
HETATM   14  H   UNL     1      -3.632   0.564 -31.777  1.00  0.00     0.163 HD
ENDROOT
BRANCH   1  15
HETATM   15  C   UNL     1      -5.225   4.697 -32.610  1.00  0.00     0.146 C 
BRANCH  15  16
HETATM   16  C   UNL     1      -4.536   4.835 -33.935  1.00  0.00     0.224 C 
HETATM   17  N   UNL     1      -3.281   5.315 -34.108  1.00  0.00    -0.327 N 
HETATM   18  H   UNL     1      -3.090   5.467 -35.097  1.00  0.00     0.169 HD
HETATM   19  O   UNL     1      -5.246   4.718 -34.945  1.00  0.00    -0.273 OA
BRANCH  17  20
HETATM   20  C   UNL     1      -2.247   5.717 -33.245  1.00  0.00     0.034 A 
HETATM   21  C   UNL     1      -1.343   4.872 -32.602  1.00  0.00     0.032 A 
HETATM   22  C   UNL     1      -0.369   5.398 -31.744  1.00  0.00     0.044 A 
HETATM   23  C   UNL     1      -0.291   6.768 -31.538  1.00  0.00     0.116 A 
HETATM   24  C   UNL     1      -1.159   7.629 -32.188  1.00  0.00     0.044 A 
HETATM   25  F   UNL     1       0.639   7.263 -30.712  1.00  0.00    -0.206 F 
HETATM   26  C   UNL     1      -2.125   7.105 -33.050  1.00  0.00     0.032 A 
ENDBRANCH  17  20
ENDBRANCH  15  16
ENDBRANCH   1  15
TORSDOF 3
ENDMDL
MODEL 8
REMARK VINA RESULT:      -7.5      3.006      6.504
REMARK  3 active torsions:
REMARK  status: ('A' for Active; 'I' for Inactive)
REMARK    1  A    between atoms: C_2  and  N_3 
REMARK       I    between atoms: N_3  and  C_4 
REMARK    2  A    between atoms: C_4  and  C_5 
REMARK    3  A    between atoms: C_5  and  C_6 
ROOT
HETATM    1  C   UNL     1      -5.025   2.419 -30.859  1.00  0.00     0.286 C 
HETATM    2  N   UNL     1      -4.253   2.796 -32.131  1.00  0.00    -0.056 N 
HETATM    3  H   UNL     1      -3.875   1.940 -32.574  1.00  0.00     0.278 HD
HETATM    4  H   UNL     1      -4.912   3.177 -32.827  1.00  0.00     0.278 HD
HETATM    5  C   UNL     1      -3.174   3.789 -31.821  1.00  0.00     0.209 C 
HETATM    6  C   UNL     1      -3.859   5.073 -31.303  1.00  0.00     0.115 C 
HETATM    7  N   UNL     1      -4.732   4.795 -30.164  1.00  0.00    -0.353 N 
HETATM    8  C   UNL     1      -5.514   3.662 -30.081  1.00  0.00     0.249 C 
HETATM    9  O   UNL     1      -6.494   3.640 -29.344  1.00  0.00    -0.271 OA
HETATM   10  C   UNL     1      -2.326   4.058 -33.054  1.00  0.00     0.035 C 
HETATM   11  C   UNL     1      -1.271   5.116 -32.732  1.00  0.00     0.002 C 
HETATM   12  C   UNL     1      -1.899   6.399 -32.185  1.00  0.00     0.002 C 
HETATM   13  C   UNL     1      -2.813   6.140 -30.983  1.00  0.00     0.027 C 
HETATM   14  H   UNL     1      -5.130   5.586 -29.658  1.00  0.00     0.163 HD
ENDROOT
BRANCH   1  15
HETATM   15  C   UNL     1      -6.177   1.490 -31.216  1.00  0.00     0.146 C 
BRANCH  15  16
HETATM   16  C   UNL     1      -6.619   1.836 -32.607  1.00  0.00     0.224 C 
HETATM   17  N   UNL     1      -6.457   1.039 -33.691  1.00  0.00    -0.327 N 
HETATM   18  H   UNL     1      -6.683   1.547 -34.544  1.00  0.00     0.169 HD
HETATM   19  O   UNL     1      -6.940   3.016 -32.810  1.00  0.00    -0.273 OA
BRANCH  17  20
HETATM   20  C   UNL     1      -5.978  -0.266 -33.897  1.00  0.00     0.034 A 
HETATM   21  C   UNL     1      -4.701  -0.728 -33.579  1.00  0.00     0.032 A 
HETATM   22  C   UNL     1      -4.337  -2.052 -33.858  1.00  0.00     0.044 A 
HETATM   23  C   UNL     1      -5.252  -2.916 -34.442  1.00  0.00     0.116 A 
HETATM   24  C   UNL     1      -6.535  -2.487 -34.739  1.00  0.00     0.044 A 
HETATM   25  F   UNL     1      -4.895  -4.178 -34.711  1.00  0.00    -0.206 F 
HETATM   26  C   UNL     1      -6.900  -1.170 -34.454  1.00  0.00     0.032 A 
ENDBRANCH  17  20
ENDBRANCH  15  16
ENDBRANCH   1  15
TORSDOF 3
ENDMDL
MODEL 9
REMARK VINA RESULT:      -7.5      4.971      6.480
REMARK  3 active torsions:
REMARK  status: ('A' for Active; 'I' for Inactive)
REMARK    1  A    between atoms: C_2  and  N_3 
REMARK       I    between atoms: N_3  and  C_4 
REMARK    2  A    between atoms: C_4  and  C_5 
REMARK    3  A    between atoms: C_5  and  C_6 
ROOT
HETATM    1  C   UNL     1      -7.976   0.651 -31.497  1.00  0.00     0.286 C 
HETATM    2  N   UNL     1      -7.916   0.226 -32.971  1.00  0.00    -0.056 N 
HETATM    3  H   UNL     1      -8.872   0.022 -33.312  1.00  0.00     0.278 HD
HETATM    4  H   UNL     1      -7.604   1.026 -33.542  1.00  0.00     0.278 HD
HETATM    5  C   UNL     1      -6.995  -0.944 -33.148  1.00  0.00     0.209 C 
HETATM    6  C   UNL     1      -5.577  -0.484 -32.746  1.00  0.00     0.115 C 
HETATM    7  N   UNL     1      -5.555   0.068 -31.392  1.00  0.00    -0.353 N 
HETATM    8  C   UNL     1      -6.570   0.855 -30.889  1.00  0.00     0.249 C 
HETATM    9  O   UNL     1      -6.359   1.604 -29.941  1.00  0.00    -0.271 OA
HETATM   10  C   UNL     1      -7.042  -1.446 -34.582  1.00  0.00     0.035 C 
HETATM   11  C   UNL     1      -6.053  -2.599 -34.756  1.00  0.00     0.002 C 
HETATM   12  C   UNL     1      -4.636  -2.203 -34.339  1.00  0.00     0.002 C 
HETATM   13  C   UNL     1      -4.579  -1.629 -32.920  1.00  0.00     0.027 C 
HETATM   14  H   UNL     1      -4.649   0.278 -30.973  1.00  0.00     0.163 HD
ENDROOT
BRANCH   1  15
HETATM   15  C   UNL     1      -8.835   1.901 -31.360  1.00  0.00     0.146 C 
BRANCH  15  16
HETATM   16  C   UNL     1      -8.826   2.600 -32.686  1.00  0.00     0.224 C 
HETATM   17  N   UNL     1      -9.891   2.698 -33.516  1.00  0.00    -0.327 N 
HETATM   18  H   UNL     1      -9.606   3.071 -34.420  1.00  0.00     0.169 HD
HETATM   19  O   UNL     1      -7.714   2.905 -33.145  1.00  0.00    -0.273 OA
BRANCH  17  20
HETATM   20  C   UNL     1     -11.245   2.329 -33.437  1.00  0.00     0.034 A 
HETATM   21  C   UNL     1     -12.297   3.156 -33.044  1.00  0.00     0.032 A 
HETATM   22  C   UNL     1     -13.604   2.660 -32.984  1.00  0.00     0.044 A 
HETATM   23  C   UNL     1     -13.864   1.341 -33.328  1.00  0.00     0.116 A 
HETATM   24  C   UNL     1     -12.840   0.509 -33.751  1.00  0.00     0.044 A 
HETATM   25  F   UNL     1     -15.116   0.872 -33.263  1.00  0.00    -0.206 F 
HETATM   26  C   UNL     1     -11.537   1.007 -33.818  1.00  0.00     0.032 A 
ENDBRANCH  17  20
ENDBRANCH  15  16
ENDBRANCH   1  15
TORSDOF 3
ENDMDL
MODEL 10
REMARK VINA RESULT:      -7.5      3.583      5.115
REMARK  3 active torsions:
REMARK  status: ('A' for Active; 'I' for Inactive)
REMARK    1  A    between atoms: C_2  and  N_3 
REMARK       I    between atoms: N_3  and  C_4 
REMARK    2  A    between atoms: C_4  and  C_5 
REMARK    3  A    between atoms: C_5  and  C_6 
ROOT
HETATM    1  C   UNL     1      -3.856   4.242 -33.109  1.00  0.00     0.286 C 
HETATM    2  N   UNL     1      -3.549   3.288 -31.946  1.00  0.00    -0.056 N 
HETATM    3  H   UNL     1      -2.566   3.410 -31.647  1.00  0.00     0.278 HD
HETATM    4  H   UNL     1      -4.106   3.566 -31.124  1.00  0.00     0.278 HD
HETATM    5  C   UNL     1      -3.845   1.870 -32.333  1.00  0.00     0.209 C 
HETATM    6  C   UNL     1      -5.359   1.772 -32.619  1.00  0.00     0.115 C 
HETATM    7  N   UNL     1      -5.780   2.744 -33.627  1.00  0.00    -0.353 N 
HETATM    8  C   UNL     1      -5.274   4.026 -33.686  1.00  0.00     0.249 C 
HETATM    9  O   UNL     1      -5.900   4.912 -34.257  1.00  0.00    -0.271 OA
HETATM   10  C   UNL     1      -3.414   0.916 -31.231  1.00  0.00     0.035 C 
HETATM   11  C   UNL     1      -3.777  -0.517 -31.619  1.00  0.00     0.002 C 
HETATM   12  C   UNL     1      -5.265  -0.660 -31.944  1.00  0.00     0.002 C 
HETATM   13  C   UNL     1      -5.735   0.341 -33.004  1.00  0.00     0.027 C 
HETATM   14  H   UNL     1      -6.731   2.679 -33.990  1.00  0.00     0.163 HD
ENDROOT
BRANCH   1  15
HETATM   15  C   UNL     1      -3.646   5.681 -32.658  1.00  0.00     0.146 C 
BRANCH  15  16
HETATM   16  C   UNL     1      -2.493   6.234 -33.442  1.00  0.00     0.224 C 
HETATM   17  N   UNL     1      -1.270   6.509 -32.928  1.00  0.00    -0.327 N 
HETATM   18  H   UNL     1      -0.707   7.023 -33.604  1.00  0.00     0.169 HD
HETATM   19  O   UNL     1      -2.752   6.679 -34.570  1.00  0.00    -0.273 OA
BRANCH  17  20
HETATM   20  C   UNL     1      -0.657   6.322 -31.678  1.00  0.00     0.034 A 
HETATM   21  C   UNL     1       0.032   5.181 -31.267  1.00  0.00     0.032 A 
HETATM   22  C   UNL     1       0.581   5.110 -29.981  1.00  0.00     0.044 A 
HETATM   23  C   UNL     1       0.452   6.181 -29.109  1.00  0.00     0.116 A 
HETATM   24  C   UNL     1      -0.202   7.337 -29.505  1.00  0.00     0.044 A 
HETATM   25  F   UNL     1       0.973   6.103 -27.879  1.00  0.00    -0.206 F 
HETATM   26  C   UNL     1      -0.743   7.410 -30.791  1.00  0.00     0.032 A 
ENDBRANCH  17  20
ENDBRANCH  15  16
ENDBRANCH   1  15
TORSDOF 3
ENDMDL
