MODEL 1
REMARK VINA RESULT:      -8.1      0.000      0.000
REMARK  6 active torsions:
REMARK  status: ('A' for Active; 'I' for Inactive)
REMARK    1  A    between atoms: C_2  and  O_3 
REMARK    2  A    between atoms: O_3  and  C_4 
REMARK    3  A    between atoms: C_7  and  C_8 
REMARK       I    between atoms: N_11  and  C_12 
REMARK       I    between atoms: C_12  and  N_13 
REMARK    4  A    between atoms: N_13  and  C_14 
REMARK    5  A    between atoms: C_14  and  C_15 
REMARK    6  A    between atoms: C_15  and  C_16 
ROOT
HETATM    1  C   UNL     1      -7.564   0.594 -32.663  1.00  0.00    -0.049 C 
HETATM    2  C   UNL     1      -8.904   0.891 -33.278  1.00  0.00     0.059 C 
HETATM    3  C   UNL     1      -9.872   1.474 -32.248  1.00  0.00     0.132 C 
HETATM    4  N   UNL     1      -9.273   2.578 -31.494  1.00  0.00    -0.331 N 
HETATM    5  C   UNL     1     -10.017   3.589 -30.896  1.00  0.00     0.318 C 
HETATM    6  N   UNL     1     -11.301   3.716 -31.341  1.00  0.00    -0.338 N 
HETATM    7  O   UNL     1      -9.573   4.292 -29.990  1.00  0.00    -0.247 OA
HETATM    8  C   UNL     1      -7.988   2.310 -30.856  1.00  0.00     0.155 C 
HETATM    9  C   UNL     1      -7.178   1.256 -31.556  1.00  0.00     0.001 C 
HETATM   10  H   UNL     1     -11.495   3.474 -32.306  1.00  0.00     0.164 HD
ENDROOT
BRANCH   6  11
HETATM   11  C   UNL     1     -12.251   4.670 -30.783  1.00  0.00     0.087 C 
HETATM   12  C   UNL     1     -12.022   6.075 -31.344  1.00  0.00     0.032 C 
BRANCH  11  13
HETATM   13  C   UNL     1     -13.697   4.181 -30.990  1.00  0.00     0.085 C 
BRANCH  13  14
HETATM   14  C   UNL     1     -13.921   3.343 -32.214  1.00  0.00     0.058 A 
HETATM   15  N   UNL     1     -13.360   3.662 -33.391  1.00  0.00    -0.179 NA
HETATM   16  N   UNL     1     -13.760   2.682 -34.218  1.00  0.00    -0.282 N 
HETATM   17  H   UNL     1     -13.451   2.712 -35.185  1.00  0.00     0.189 HD
HETATM   18  C   UNL     1     -14.549   1.744 -33.617  1.00  0.00     0.026 A 
HETATM   19  C   UNL     1     -15.083   0.567 -34.337  1.00  0.00     0.070 C 
HETATM   20  C   UNL     1     -14.674   2.150 -32.308  1.00  0.00     0.055 A 
ENDBRANCH  13  14
ENDBRANCH  11  13
ENDBRANCH   6  11
BRANCH   1  21
HETATM   21  C   UNL     1      -6.722  -0.466 -33.251  1.00  0.00    -0.030 A 
HETATM   22  C   UNL     1      -5.342  -0.501 -33.012  1.00  0.00     0.014 A 
HETATM   23  C   UNL     1      -4.538  -1.510 -33.558  1.00  0.00     0.037 A 
HETATM   24  C   UNL     1      -5.104  -2.503 -34.356  1.00  0.00     0.068 A 
HETATM   25  C   UNL     1      -6.476  -2.468 -34.610  1.00  0.00     0.037 A 
HETATM   26  C   UNL     1      -7.279  -1.463 -34.060  1.00  0.00     0.014 A 
BRANCH  24  27
HETATM   27  O   UNL     1      -4.434  -3.539 -34.945  1.00  0.00    -0.352 OA
BRANCH  27  28
HETATM   28  C   UNL     1      -4.563  -4.822 -34.333  1.00  0.00     0.171 C 
HETATM   29  C   UNL     1      -3.494  -4.943 -33.263  1.00  0.00     0.034 C 
ENDBRANCH  27  28
ENDBRANCH  24  27
ENDBRANCH   1  21
TORSDOF 6
ENDMDL
MODEL 2
REMARK VINA RESULT:      -8.0      5.625      8.299
REMARK  6 active torsions:
REMARK  status: ('A' for Active; 'I' for Inactive)
REMARK    1  A    between atoms: C_2  and  O_3 
REMARK    2  A    between atoms: O_3  and  C_4 
REMARK    3  A    between atoms: C_7  and  C_8 
REMARK       I    between atoms: N_11  and  C_12 
REMARK       I    between atoms: C_12  and  N_13 
REMARK    4  A    between atoms: N_13  and  C_14 
REMARK    5  A    between atoms: C_14  and  C_15 
REMARK    6  A    between atoms: C_15  and  C_16 
ROOT
HETATM    1  C   UNL     1      -5.380   2.259 -31.990  1.00  0.00    -0.049 C 
HETATM    2  C   UNL     1      -3.984   2.349 -31.437  1.00  0.00     0.059 C 
HETATM    3  C   UNL     1      -3.478   3.792 -31.434  1.00  0.00     0.132 C 
HETATM    4  N   UNL     1      -4.447   4.713 -30.836  1.00  0.00    -0.331 N 
HETATM    5  C   UNL     1      -4.092   5.922 -30.248  1.00  0.00     0.318 C 
HETATM    6  N   UNL     1      -2.772   6.054 -29.926  1.00  0.00    -0.338 N 
HETATM    7  O   UNL     1      -4.896   6.836 -30.074  1.00  0.00    -0.247 OA
HETATM    8  C   UNL     1      -5.803   4.674 -31.375  1.00  0.00     0.155 C 
HETATM    9  C   UNL     1      -6.183   3.340 -31.951  1.00  0.00     0.001 C 
HETATM   10  H   UNL     1      -2.261   5.218 -29.667  1.00  0.00     0.164 HD
ENDROOT
BRANCH   6  11
HETATM   11  C   UNL     1      -2.203   7.275 -29.370  1.00  0.00     0.087 C 
HETATM   12  C   UNL     1      -1.600   7.026 -27.985  1.00  0.00     0.032 C 
BRANCH  11  13
HETATM   13  C   UNL     1      -1.190   7.897 -30.349  1.00  0.00     0.085 C 
BRANCH  13  14
HETATM   14  C   UNL     1      -1.347   7.483 -31.783  1.00  0.00     0.058 A 
HETATM   15  N   UNL     1      -1.913   8.297 -32.687  1.00  0.00    -0.179 NA
HETATM   16  N   UNL     1      -1.849   7.602 -33.835  1.00  0.00    -0.282 N 
HETATM   17  H   UNL     1      -2.225   8.029 -34.677  1.00  0.00     0.189 HD
HETATM   18  C   UNL     1      -1.260   6.377 -33.704  1.00  0.00     0.026 A 
HETATM   19  C   UNL     1      -1.068   5.455 -34.845  1.00  0.00     0.070 C 
HETATM   20  C   UNL     1      -0.924   6.269 -32.374  1.00  0.00     0.055 A 
ENDBRANCH  13  14
ENDBRANCH  11  13
ENDBRANCH   6  11
BRANCH   1  21
HETATM   21  C   UNL     1      -5.822   1.002 -32.625  1.00  0.00    -0.030 A 
HETATM   22  C   UNL     1      -7.185   0.737 -32.818  1.00  0.00     0.014 A 
HETATM   23  C   UNL     1      -7.611  -0.449 -33.430  1.00  0.00     0.037 A 
HETATM   24  C   UNL     1      -6.679  -1.392 -33.858  1.00  0.00     0.068 A 
HETATM   25  C   UNL     1      -5.321  -1.141 -33.658  1.00  0.00     0.037 A 
HETATM   26  C   UNL     1      -4.894   0.045 -33.051  1.00  0.00     0.014 A 
BRANCH  24  27
HETATM   27  O   UNL     1      -6.963  -2.583 -34.466  1.00  0.00    -0.352 OA
BRANCH  27  28
HETATM   28  C   UNL     1      -5.852  -3.356 -34.922  1.00  0.00     0.171 C 
HETATM   29  C   UNL     1      -6.377  -4.697 -35.402  1.00  0.00     0.034 C 
ENDBRANCH  27  28
ENDBRANCH  24  27
ENDBRANCH   1  21
TORSDOF 6
ENDMDL
MODEL 3
REMARK VINA RESULT:      -7.9      7.108     10.091
REMARK  6 active torsions:
REMARK  status: ('A' for Active; 'I' for Inactive)
REMARK    1  A    between atoms: C_2  and  O_3 
REMARK    2  A    between atoms: O_3  and  C_4 
REMARK    3  A    between atoms: C_7  and  C_8 
REMARK       I    between atoms: N_11  and  C_12 
REMARK       I    between atoms: C_12  and  N_13 
REMARK    4  A    between atoms: N_13  and  C_14 
REMARK    5  A    between atoms: C_14  and  C_15 
REMARK    6  A    between atoms: C_15  and  C_16 
ROOT
HETATM    1  C   UNL     1      -4.779   2.581 -32.683  1.00  0.00    -0.049 C 
HETATM    2  C   UNL     1      -3.755   2.599 -31.582  1.00  0.00     0.059 C 
HETATM    3  C   UNL     1      -2.828   3.809 -31.703  1.00  0.00     0.132 C 
HETATM    4  N   UNL     1      -3.574   5.057 -31.882  1.00  0.00    -0.331 N 
HETATM    5  C   UNL     1      -3.077   6.305 -31.520  1.00  0.00     0.318 C 
HETATM    6  N   UNL     1      -2.017   6.289 -30.662  1.00  0.00    -0.338 N 
HETATM    7  O   UNL     1      -3.524   7.355 -31.980  1.00  0.00    -0.247 OA
HETATM    8  C   UNL     1      -4.552   5.083 -32.966  1.00  0.00     0.155 C 
HETATM    9  C   UNL     1      -5.117   3.731 -33.297  1.00  0.00     0.001 C 
HETATM   10  H   UNL     1      -1.959   5.529 -29.993  1.00  0.00     0.164 HD
ENDROOT
BRANCH   6  11
HETATM   11  C   UNL     1      -1.320   7.493 -30.229  1.00  0.00     0.087 C 
HETATM   12  C   UNL     1      -2.015   8.135 -29.026  1.00  0.00     0.032 C 
BRANCH  11  13
HETATM   13  C   UNL     1       0.167   7.193 -29.959  1.00  0.00     0.085 C 
BRANCH  13  14
HETATM   14  C   UNL     1       0.605   7.356 -28.533  1.00  0.00     0.058 A 
HETATM   15  N   UNL     1       0.268   6.460 -27.592  1.00  0.00    -0.179 NA
HETATM   16  N   UNL     1       0.856   6.924 -26.477  1.00  0.00    -0.282 N 
HETATM   17  H   UNL     1       0.739   6.398 -25.616  1.00  0.00     0.189 HD
HETATM   18  C   UNL     1       1.562   8.078 -26.667  1.00  0.00     0.026 A 
HETATM   19  C   UNL     1       2.304   8.751 -25.579  1.00  0.00     0.070 C 
HETATM   20  C   UNL     1       1.414   8.386 -28.000  1.00  0.00     0.055 A 
ENDBRANCH  13  14
ENDBRANCH  11  13
ENDBRANCH   6  11
BRANCH   1  21
HETATM   21  C   UNL     1      -5.350   1.290 -33.113  1.00  0.00    -0.030 A 
HETATM   22  C   UNL     1      -6.468   1.245 -33.956  1.00  0.00     0.014 A 
HETATM   23  C   UNL     1      -7.008   0.023 -34.378  1.00  0.00     0.037 A 
HETATM   24  C   UNL     1      -6.437  -1.177 -33.960  1.00  0.00     0.068 A 
HETATM   25  C   UNL     1      -5.331  -1.142 -33.110  1.00  0.00     0.037 A 
HETATM   26  C   UNL     1      -4.788   0.079 -32.693  1.00  0.00     0.014 A 
BRANCH  24  27
HETATM   27  O   UNL     1      -6.865  -2.431 -34.298  1.00  0.00    -0.352 OA
BRANCH  27  28
HETATM   28  C   UNL     1      -5.909  -3.296 -34.910  1.00  0.00     0.171 C 
HETATM   29  C   UNL     1      -6.623  -4.570 -35.324  1.00  0.00     0.034 C 
ENDBRANCH  27  28
ENDBRANCH  24  27
ENDBRANCH   1  21
TORSDOF 6
ENDMDL
MODEL 4
REMARK VINA RESULT:      -7.7      4.745      7.571
REMARK  6 active torsions:
REMARK  status: ('A' for Active; 'I' for Inactive)
REMARK    1  A    between atoms: C_2  and  O_3 
REMARK    2  A    between atoms: O_3  and  C_4 
REMARK    3  A    between atoms: C_7  and  C_8 
REMARK       I    between atoms: N_11  and  C_12 
REMARK       I    between atoms: C_12  and  N_13 
REMARK    4  A    between atoms: N_13  and  C_14 
REMARK    5  A    between atoms: C_14  and  C_15 
REMARK    6  A    between atoms: C_15  and  C_16 
ROOT
HETATM    1  C   UNL     1      -5.828   1.206 -31.822  1.00  0.00    -0.049 C 
HETATM    2  C   UNL     1      -4.576   1.988 -31.531  1.00  0.00     0.059 C 
HETATM    3  C   UNL     1      -4.897   3.438 -31.167  1.00  0.00     0.132 C 
HETATM    4  N   UNL     1      -5.942   3.529 -30.145  1.00  0.00    -0.331 N 
HETATM    5  C   UNL     1      -6.076   4.611 -29.281  1.00  0.00     0.318 C 
HETATM    6  N   UNL     1      -4.982   5.420 -29.179  1.00  0.00    -0.338 N 
HETATM    7  O   UNL     1      -7.124   4.859 -28.687  1.00  0.00    -0.247 OA
HETATM    8  C   UNL     1      -7.184   2.809 -30.414  1.00  0.00     0.155 C 
HETATM    9  C   UNL     1      -7.002   1.610 -31.300  1.00  0.00     0.001 C 
HETATM   10  H   UNL     1      -4.068   4.999 -29.293  1.00  0.00     0.164 HD
ENDROOT
BRANCH   6  11
HETATM   11  C   UNL     1      -4.960   6.639 -28.380  1.00  0.00     0.087 C 
HETATM   12  C   UNL     1      -4.500   6.357 -26.949  1.00  0.00     0.032 C 
BRANCH  11  13
HETATM   13  C   UNL     1      -4.111   7.725 -29.069  1.00  0.00     0.085 C 
BRANCH  13  14
HETATM   14  C   UNL     1      -2.986   7.213 -29.920  1.00  0.00     0.058 A 
HETATM   15  N   UNL     1      -3.210   6.698 -31.139  1.00  0.00    -0.179 NA
HETATM   16  N   UNL     1      -1.984   6.385 -31.590  1.00  0.00    -0.282 N 
HETATM   17  H   UNL     1      -1.903   5.972 -32.514  1.00  0.00     0.189 HD
HETATM   18  C   UNL     1      -0.982   6.685 -30.712  1.00  0.00     0.026 A 
HETATM   19  C   UNL     1       0.446   6.442 -31.013  1.00  0.00     0.070 C 
HETATM   20  C   UNL     1      -1.606   7.225 -29.610  1.00  0.00     0.055 A 
ENDBRANCH  13  14
ENDBRANCH  11  13
ENDBRANCH   6  11
BRANCH   1  21
HETATM   21  C   UNL     1      -5.755   0.043 -32.728  1.00  0.00    -0.030 A 
HETATM   22  C   UNL     1      -6.914  -0.485 -33.312  1.00  0.00     0.014 A 
HETATM   23  C   UNL     1      -6.851  -1.581 -34.182  1.00  0.00     0.037 A 
HETATM   24  C   UNL     1      -5.624  -2.170 -34.480  1.00  0.00     0.068 A 
HETATM   25  C   UNL     1      -4.466  -1.658 -33.893  1.00  0.00     0.037 A 
HETATM   26  C   UNL     1      -4.528  -0.560 -33.028  1.00  0.00     0.014 A 
BRANCH  24  27
HETATM   27  O   UNL     1      -5.427  -3.239 -35.310  1.00  0.00    -0.352 OA
BRANCH  27  28
HETATM   28  C   UNL     1      -5.831  -4.518 -34.822  1.00  0.00     0.171 C 
HETATM   29  C   UNL     1      -4.615  -5.199 -34.222  1.00  0.00     0.034 C 
ENDBRANCH  27  28
ENDBRANCH  24  27
ENDBRANCH   1  21
TORSDOF 6
ENDMDL
MODEL 5
REMARK VINA RESULT:      -7.6      5.698      8.141
REMARK  6 active torsions:
REMARK  status: ('A' for Active; 'I' for Inactive)
REMARK    1  A    between atoms: C_2  and  O_3 
REMARK    2  A    between atoms: O_3  and  C_4 
REMARK    3  A    between atoms: C_7  and  C_8 
REMARK       I    between atoms: N_11  and  C_12 
REMARK       I    between atoms: C_12  and  N_13 
REMARK    4  A    between atoms: N_13  and  C_14 
REMARK    5  A    between atoms: C_14  and  C_15 
REMARK    6  A    between atoms: C_15  and  C_16 
ROOT
HETATM    1  C   UNL     1      -5.573   2.890 -32.825  1.00  0.00    -0.049 C 
HETATM    2  C   UNL     1      -4.568   3.452 -31.857  1.00  0.00     0.059 C 
HETATM    3  C   UNL     1      -4.338   4.944 -32.095  1.00  0.00     0.132 C 
HETATM    4  N   UNL     1      -5.597   5.686 -32.190  1.00  0.00    -0.331 N 
HETATM    5  C   UNL     1      -5.711   7.041 -31.897  1.00  0.00     0.318 C 
HETATM    6  N   UNL     1      -4.684   7.574 -31.173  1.00  0.00    -0.338 N 
HETATM    7  O   UNL     1      -6.643   7.732 -32.305  1.00  0.00    -0.247 OA
HETATM    8  C   UNL     1      -6.579   5.187 -33.147  1.00  0.00     0.155 C 
HETATM    9  C   UNL     1      -6.473   3.710 -33.400  1.00  0.00     0.001 C 
HETATM   10  H   UNL     1      -4.207   6.972 -30.512  1.00  0.00     0.164 HD
ENDROOT
BRANCH   6  11
HETATM   11  C   UNL     1      -4.594   8.989 -30.834  1.00  0.00     0.087 C 
HETATM   12  C   UNL     1      -5.156   9.262 -29.437  1.00  0.00     0.032 C 
BRANCH  11  13
HETATM   13  C   UNL     1      -3.148   9.496 -30.997  1.00  0.00     0.085 C 
BRANCH  13  14
HETATM   14  C   UNL     1      -2.149   8.457 -31.414  1.00  0.00     0.058 A 
HETATM   15  N   UNL     1      -1.910   8.199 -32.710  1.00  0.00    -0.179 NA
HETATM   16  N   UNL     1      -0.956   7.253 -32.682  1.00  0.00    -0.282 N 
HETATM   17  H   UNL     1      -0.608   6.895 -33.566  1.00  0.00     0.189 HD
HETATM   18  C   UNL     1      -0.570   6.900 -31.420  1.00  0.00     0.026 A 
HETATM   19  C   UNL     1       0.481   5.892 -31.158  1.00  0.00     0.070 C 
HETATM   20  C   UNL     1      -1.333   7.667 -30.571  1.00  0.00     0.055 A 
ENDBRANCH  13  14
ENDBRANCH  11  13
ENDBRANCH   6  11
BRANCH   1  21
HETATM   21  C   UNL     1      -5.510   1.458 -33.177  1.00  0.00    -0.030 A 
HETATM   22  C   UNL     1      -4.486   0.642 -32.678  1.00  0.00     0.014 A 
HETATM   23  C   UNL     1      -4.427  -0.721 -32.998  1.00  0.00     0.037 A 
HETATM   24  C   UNL     1      -5.392  -1.289 -33.827  1.00  0.00     0.068 A 
HETATM   25  C   UNL     1      -6.408  -0.481 -34.338  1.00  0.00     0.037 A 
HETATM   26  C   UNL     1      -6.471   0.879 -34.014  1.00  0.00     0.014 A 
BRANCH  24  27
HETATM   27  O   UNL     1      -5.448  -2.600 -34.213  1.00  0.00    -0.352 OA
BRANCH  27  28
HETATM   28  C   UNL     1      -6.701  -3.075 -34.706  1.00  0.00     0.171 C 
HETATM   29  C   UNL     1      -6.476  -4.441 -35.326  1.00  0.00     0.034 C 
ENDBRANCH  27  28
ENDBRANCH  24  27
ENDBRANCH   1  21
TORSDOF 6
ENDMDL
MODEL 6
REMARK VINA RESULT:      -7.5      3.191      4.131
REMARK  6 active torsions:
REMARK  status: ('A' for Active; 'I' for Inactive)
REMARK    1  A    between atoms: C_2  and  O_3 
REMARK    2  A    between atoms: O_3  and  C_4 
REMARK    3  A    between atoms: C_7  and  C_8 
REMARK       I    between atoms: N_11  and  C_12 
REMARK       I    between atoms: C_12  and  N_13 
REMARK    4  A    between atoms: N_13  and  C_14 
REMARK    5  A    between atoms: C_14  and  C_15 
REMARK    6  A    between atoms: C_15  and  C_16 
ROOT
HETATM    1  C   UNL     1      -8.561   0.803 -33.376  1.00  0.00    -0.049 C 
HETATM    2  C   UNL     1      -8.391   2.296 -33.434  1.00  0.00     0.059 C 
HETATM    3  C   UNL     1      -9.618   2.974 -34.043  1.00  0.00     0.132 C 
HETATM    4  N   UNL     1     -10.864   2.510 -33.427  1.00  0.00    -0.331 N 
HETATM    5  C   UNL     1     -12.030   3.267 -33.397  1.00  0.00     0.318 C 
HETATM    6  N   UNL     1     -11.873   4.600 -33.642  1.00  0.00    -0.338 N 
HETATM    7  O   UNL     1     -13.140   2.768 -33.214  1.00  0.00    -0.247 OA
HETATM    8  C   UNL     1     -11.075   1.066 -33.387  1.00  0.00     0.155 C 
HETATM    9  C   UNL     1      -9.799   0.274 -33.361  1.00  0.00     0.001 C 
HETATM   10  H   UNL     1     -11.003   5.035 -33.358  1.00  0.00     0.164 HD
ENDROOT
BRANCH   6  11
HETATM   11  C   UNL     1     -12.987   5.536 -33.723  1.00  0.00     0.087 C 
HETATM   12  C   UNL     1     -12.832   6.672 -32.709  1.00  0.00     0.032 C 
BRANCH  11  13
HETATM   13  C   UNL     1     -13.160   6.052 -35.164  1.00  0.00     0.085 C 
BRANCH  13  14
HETATM   14  C   UNL     1     -12.017   6.865 -35.695  1.00  0.00     0.058 A 
HETATM   15  N   UNL     1     -10.746   6.459 -35.553  1.00  0.00    -0.179 NA
HETATM   16  N   UNL     1     -10.029   7.414 -36.169  1.00  0.00    -0.282 N 
HETATM   17  H   UNL     1      -9.018   7.319 -36.190  1.00  0.00     0.189 HD
HETATM   18  C   UNL     1     -10.790   8.413 -36.705  1.00  0.00     0.026 A 
HETATM   19  C   UNL     1     -10.208   9.555 -37.444  1.00  0.00     0.070 C 
HETATM   20  C   UNL     1     -12.094   8.084 -36.409  1.00  0.00     0.055 A 
ENDBRANCH  13  14
ENDBRANCH  11  13
ENDBRANCH   6  11
BRANCH   1  21
HETATM   21  C   UNL     1      -7.363  -0.059 -33.401  1.00  0.00    -0.030 A 
HETATM   22  C   UNL     1      -6.418  -0.004 -32.368  1.00  0.00     0.014 A 
HETATM   23  C   UNL     1      -5.284  -0.827 -32.380  1.00  0.00     0.037 A 
HETATM   24  C   UNL     1      -5.076  -1.719 -33.430  1.00  0.00     0.068 A 
HETATM   25  C   UNL     1      -6.005  -1.770 -34.470  1.00  0.00     0.037 A 
HETATM   26  C   UNL     1      -7.141  -0.952 -34.456  1.00  0.00     0.014 A 
BRANCH  24  27
HETATM   27  O   UNL     1      -4.016  -2.573 -33.560  1.00  0.00    -0.352 OA
BRANCH  27  28
HETATM   28  C   UNL     1      -4.250  -3.788 -34.271  1.00  0.00     0.171 C 
HETATM   29  C   UNL     1      -3.656  -4.928 -33.463  1.00  0.00     0.034 C 
ENDBRANCH  27  28
ENDBRANCH  24  27
ENDBRANCH   1  21
TORSDOF 6
ENDMDL
MODEL 7
REMARK VINA RESULT:      -7.5      6.793      9.326
REMARK  6 active torsions:
REMARK  status: ('A' for Active; 'I' for Inactive)
REMARK    1  A    between atoms: C_2  and  O_3 
REMARK    2  A    between atoms: O_3  and  C_4 
REMARK    3  A    between atoms: C_7  and  C_8 
REMARK       I    between atoms: N_11  and  C_12 
REMARK       I    between atoms: C_12  and  N_13 
REMARK    4  A    between atoms: N_13  and  C_14 
REMARK    5  A    between atoms: C_14  and  C_15 
REMARK    6  A    between atoms: C_15  and  C_16 
ROOT
HETATM    1  C   UNL     1      -4.047   3.858 -32.514  1.00  0.00    -0.049 C 
HETATM    2  C   UNL     1      -4.710   4.677 -31.441  1.00  0.00     0.059 C 
HETATM    3  C   UNL     1      -3.789   5.789 -30.939  1.00  0.00     0.132 C 
HETATM    4  N   UNL     1      -3.204   6.557 -32.040  1.00  0.00    -0.331 N 
HETATM    5  C   UNL     1      -2.772   7.873 -31.911  1.00  0.00     0.318 C 
HETATM    6  N   UNL     1      -3.241   8.541 -30.817  1.00  0.00    -0.338 N 
HETATM    7  O   UNL     1      -1.978   8.390 -32.696  1.00  0.00    -0.247 OA
HETATM    8  C   UNL     1      -2.522   5.793 -33.081  1.00  0.00     0.155 C 
HETATM    9  C   UNL     1      -3.049   4.395 -33.241  1.00  0.00     0.001 C 
HETATM   10  H   UNL     1      -4.160   8.294 -30.469  1.00  0.00     0.164 HD
ENDROOT
BRANCH   6  11
HETATM   11  C   UNL     1      -2.840   9.900 -30.478  1.00  0.00     0.087 C 
HETATM   12  C   UNL     1      -4.052  10.831 -30.390  1.00  0.00     0.032 C 
BRANCH  11  13
HETATM   13  C   UNL     1      -1.995   9.912 -29.190  1.00  0.00     0.085 C 
BRANCH  13  14
HETATM   14  C   UNL     1      -1.489   8.571 -28.744  1.00  0.00     0.058 A 
HETATM   15  N   UNL     1      -2.223   7.776 -27.950  1.00  0.00    -0.179 NA
HETATM   16  N   UNL     1      -1.464   6.678 -27.798  1.00  0.00    -0.282 N 
HETATM   17  H   UNL     1      -1.823   5.921 -27.224  1.00  0.00     0.189 HD
HETATM   18  C   UNL     1      -0.275   6.735 -28.468  1.00  0.00     0.026 A 
HETATM   19  C   UNL     1       0.705   5.627 -28.455  1.00  0.00     0.070 C 
HETATM   20  C   UNL     1      -0.261   7.961 -29.094  1.00  0.00     0.055 A 
ENDBRANCH  13  14
ENDBRANCH  11  13
ENDBRANCH   6  11
BRANCH   1  21
HETATM   21  C   UNL     1      -4.462   2.454 -32.707  1.00  0.00    -0.030 A 
HETATM   22  C   UNL     1      -3.620   1.400 -32.329  1.00  0.00     0.014 A 
HETATM   23  C   UNL     1      -4.012   0.065 -32.499  1.00  0.00     0.037 A 
HETATM   24  C   UNL     1      -5.254  -0.236 -33.053  1.00  0.00     0.068 A 
HETATM   25  C   UNL     1      -6.093   0.808 -33.443  1.00  0.00     0.037 A 
HETATM   26  C   UNL     1      -5.705   2.141 -33.269  1.00  0.00     0.014 A 
BRANCH  24  27
HETATM   27  O   UNL     1      -5.754  -1.490 -33.270  1.00  0.00    -0.352 OA
BRANCH  27  28
HETATM   28  C   UNL     1      -5.937  -1.885 -34.630  1.00  0.00     0.171 C 
HETATM   29  C   UNL     1      -6.809  -3.128 -34.646  1.00  0.00     0.034 C 
ENDBRANCH  27  28
ENDBRANCH  24  27
ENDBRANCH   1  21
TORSDOF 6
ENDMDL
MODEL 8
REMARK VINA RESULT:      -7.3      2.036      3.948
REMARK  6 active torsions:
REMARK  status: ('A' for Active; 'I' for Inactive)
REMARK    1  A    between atoms: C_2  and  O_3 
REMARK    2  A    between atoms: O_3  and  C_4 
REMARK    3  A    between atoms: C_7  and  C_8 
REMARK       I    between atoms: N_11  and  C_12 
REMARK       I    between atoms: C_12  and  N_13 
REMARK    4  A    between atoms: N_13  and  C_14 
REMARK    5  A    between atoms: C_14  and  C_15 
REMARK    6  A    between atoms: C_15  and  C_16 
ROOT
HETATM    1  C   UNL     1      -7.974   0.055 -33.547  1.00  0.00    -0.049 C 
HETATM    2  C   UNL     1      -8.264   0.529 -32.149  1.00  0.00     0.059 C 
HETATM    3  C   UNL     1      -8.923   1.909 -32.155  1.00  0.00     0.132 C 
HETATM    4  N   UNL     1     -10.053   1.975 -33.084  1.00  0.00    -0.331 N 
HETATM    5  C   UNL     1     -11.111   2.866 -32.941  1.00  0.00     0.318 C 
HETATM    6  N   UNL     1     -11.239   3.432 -31.706  1.00  0.00    -0.338 N 
HETATM    7  O   UNL     1     -11.852   3.170 -33.874  1.00  0.00    -0.247 OA
HETATM    8  C   UNL     1      -9.794   1.554 -34.458  1.00  0.00     0.155 C 
HETATM    9  C   UNL     1      -8.687   0.546 -34.578  1.00  0.00     0.001 C 
HETATM   10  H   UNL     1     -10.950   2.888 -30.902  1.00  0.00     0.164 HD
ENDROOT
BRANCH   6  11
HETATM   11  C   UNL     1     -12.242   4.441 -31.389  1.00  0.00     0.087 C 
HETATM   12  C   UNL     1     -13.444   3.824 -30.670  1.00  0.00     0.032 C 
BRANCH  11  13
HETATM   13  C   UNL     1     -11.613   5.602 -30.595  1.00  0.00     0.085 C 
BRANCH  13  14
HETATM   14  C   UNL     1     -10.171   5.881 -30.903  1.00  0.00     0.058 A 
HETATM   15  N   UNL     1      -9.754   6.094 -32.161  1.00  0.00    -0.179 NA
HETATM   16  N   UNL     1      -8.438   6.332 -32.031  1.00  0.00    -0.282 N 
HETATM   17  H   UNL     1      -7.899   6.526 -32.870  1.00  0.00     0.189 HD
HETATM   18  C   UNL     1      -7.996   6.286 -30.740  1.00  0.00     0.026 A 
HETATM   19  C   UNL     1      -6.587   6.537 -30.366  1.00  0.00     0.070 C 
HETATM   20  C   UNL     1      -9.105   5.990 -29.980  1.00  0.00     0.055 A 
ENDBRANCH  13  14
ENDBRANCH  11  13
ENDBRANCH   6  11
BRANCH   1  21
HETATM   21  C   UNL     1      -6.866  -0.895 -33.768  1.00  0.00    -0.030 A 
HETATM   22  C   UNL     1      -5.563  -0.585 -33.358  1.00  0.00     0.014 A 
HETATM   23  C   UNL     1      -4.508  -1.486 -33.555  1.00  0.00     0.037 A 
HETATM   24  C   UNL     1      -4.742  -2.715 -34.169  1.00  0.00     0.068 A 
HETATM   25  C   UNL     1      -6.035  -3.027 -34.592  1.00  0.00     0.037 A 
HETATM   26  C   UNL     1      -7.089  -2.129 -34.390  1.00  0.00     0.014 A 
BRANCH  24  27
HETATM   27  O   UNL     1      -3.804  -3.679 -34.418  1.00  0.00    -0.352 OA
BRANCH  27  28
HETATM   28  C   UNL     1      -3.640  -4.691 -33.425  1.00  0.00     0.171 C 
HETATM   29  C   UNL     1      -3.156  -4.025 -32.150  1.00  0.00     0.034 C 
ENDBRANCH  27  28
ENDBRANCH  24  27
ENDBRANCH   1  21
TORSDOF 6
ENDMDL
MODEL 9
REMARK VINA RESULT:      -7.3      2.343      3.482
REMARK  6 active torsions:
REMARK  status: ('A' for Active; 'I' for Inactive)
REMARK    1  A    between atoms: C_2  and  O_3 
REMARK    2  A    between atoms: O_3  and  C_4 
REMARK    3  A    between atoms: C_7  and  C_8 
REMARK       I    between atoms: N_11  and  C_12 
REMARK       I    between atoms: C_12  and  N_13 
REMARK    4  A    between atoms: N_13  and  C_14 
REMARK    5  A    between atoms: C_14  and  C_15 
REMARK    6  A    between atoms: C_15  and  C_16 
ROOT
HETATM    1  C   UNL     1      -8.209   0.232 -33.140  1.00  0.00    -0.049 C 
HETATM    2  C   UNL     1      -9.021   0.631 -31.938  1.00  0.00     0.059 C 
HETATM    3  C   UNL     1     -10.007   1.749 -32.277  1.00  0.00     0.132 C 
HETATM    4  N   UNL     1     -10.782   1.451 -33.484  1.00  0.00    -0.331 N 
HETATM    5  C   UNL     1     -12.039   1.988 -33.738  1.00  0.00     0.318 C 
HETATM    6  N   UNL     1     -12.681   2.519 -32.657  1.00  0.00    -0.338 N 
HETATM    7  O   UNL     1     -12.525   2.033 -34.867  1.00  0.00    -0.247 OA
HETATM    8  C   UNL     1     -10.020   1.095 -34.678  1.00  0.00     0.155 C 
HETATM    9  C   UNL     1      -8.692   0.463 -34.375  1.00  0.00     0.001 C 
HETATM   10  H   UNL     1     -12.503   2.105 -31.749  1.00  0.00     0.164 HD
ENDROOT
BRANCH   6  11
HETATM   11  C   UNL     1     -13.973   3.188 -32.742  1.00  0.00     0.087 C 
HETATM   12  C   UNL     1     -15.025   2.478 -31.888  1.00  0.00     0.032 C 
BRANCH  11  13
HETATM   13  C   UNL     1     -13.835   4.681 -32.386  1.00  0.00     0.085 C 
BRANCH  13  14
HETATM   14  C   UNL     1     -12.729   5.409 -33.092  1.00  0.00     0.058 A 
HETATM   15  N   UNL     1     -11.493   5.475 -32.572  1.00  0.00    -0.179 NA
HETATM   16  N   UNL     1     -10.793   6.167 -33.486  1.00  0.00    -0.282 N 
HETATM   17  H   UNL     1      -9.810   6.344 -33.305  1.00  0.00     0.189 HD
HETATM   18  C   UNL     1     -11.529   6.541 -34.574  1.00  0.00     0.026 A 
HETATM   19  C   UNL     1     -10.952   7.294 -35.710  1.00  0.00     0.070 C 
HETATM   20  C   UNL     1     -12.799   6.063 -34.345  1.00  0.00     0.055 A 
ENDBRANCH  13  14
ENDBRANCH  11  13
ENDBRANCH   6  11
BRANCH   1  21
HETATM   21  C   UNL     1      -6.866  -0.347 -32.940  1.00  0.00    -0.030 A 
HETATM   22  C   UNL     1      -6.226  -0.261 -31.697  1.00  0.00     0.014 A 
HETATM   23  C   UNL     1      -4.956  -0.819 -31.497  1.00  0.00     0.037 A 
HETATM   24  C   UNL     1      -4.304  -1.471 -32.542  1.00  0.00     0.068 A 
HETATM   25  C   UNL     1      -4.930  -1.550 -33.787  1.00  0.00     0.037 A 
HETATM   26  C   UNL     1      -6.200  -0.998 -33.985  1.00  0.00     0.014 A 
BRANCH  24  27
HETATM   27  O   UNL     1      -3.070  -2.055 -32.478  1.00  0.00    -0.352 OA
BRANCH  27  28
HETATM   28  C   UNL     1      -2.991  -3.328 -31.837  1.00  0.00     0.171 C 
HETATM   29  C   UNL     1      -3.303  -4.395 -32.871  1.00  0.00     0.034 C 
ENDBRANCH  27  28
ENDBRANCH  24  27
ENDBRANCH   1  21
TORSDOF 6
ENDMDL
MODEL 10
REMARK VINA RESULT:      -7.3      2.254      3.631
REMARK  6 active torsions:
REMARK  status: ('A' for Active; 'I' for Inactive)
REMARK    1  A    between atoms: C_2  and  O_3 
REMARK    2  A    between atoms: O_3  and  C_4 
REMARK    3  A    between atoms: C_7  and  C_8 
REMARK       I    between atoms: N_11  and  C_12 
REMARK       I    between atoms: C_12  and  N_13 
REMARK    4  A    between atoms: N_13  and  C_14 
REMARK    5  A    between atoms: C_14  and  C_15 
REMARK    6  A    between atoms: C_15  and  C_16 
ROOT
HETATM    1  C   UNL     1      -8.178   0.217 -33.105  1.00  0.00    -0.049 C 
HETATM    2  C   UNL     1      -9.052   0.545 -31.926  1.00  0.00     0.059 C 
HETATM    3  C   UNL     1     -10.049   1.654 -32.262  1.00  0.00     0.132 C 
HETATM    4  N   UNL     1     -10.762   1.391 -33.515  1.00  0.00    -0.331 N 
HETATM    5  C   UNL     1     -12.020   1.909 -33.803  1.00  0.00     0.318 C 
HETATM    6  N   UNL     1     -12.722   2.378 -32.730  1.00  0.00    -0.338 N 
HETATM    7  O   UNL     1     -12.456   1.992 -34.950  1.00  0.00    -0.247 OA
HETATM    8  C   UNL     1      -9.940   1.104 -34.686  1.00  0.00     0.155 C 
HETATM    9  C   UNL     1      -8.611   0.490 -34.351  1.00  0.00     0.001 C 
HETATM   10  H   UNL     1     -12.575   1.929 -31.834  1.00  0.00     0.164 HD
ENDROOT
BRANCH   6  11
HETATM   11  C   UNL     1     -14.026   3.020 -32.847  1.00  0.00     0.087 C 
HETATM   12  C   UNL     1     -15.043   2.389 -31.894  1.00  0.00     0.032 C 
BRANCH  11  13
HETATM   13  C   UNL     1     -13.899   4.543 -32.650  1.00  0.00     0.085 C 
BRANCH  13  14
HETATM   14  C   UNL     1     -14.025   5.018 -31.232  1.00  0.00     0.058 A 
HETATM   15  N   UNL     1     -13.151   4.636 -30.287  1.00  0.00    -0.179 NA
HETATM   16  N   UNL     1     -13.568   5.276 -29.182  1.00  0.00    -0.282 N 
HETATM   17  H   UNL     1     -13.047   5.138 -28.321  1.00  0.00     0.189 HD
HETATM   18  C   UNL     1     -14.670   6.058 -29.382  1.00  0.00     0.026 A 
HETATM   19  C   UNL     1     -15.284   6.866 -28.305  1.00  0.00     0.070 C 
HETATM   20  C   UNL     1     -14.993   5.908 -30.711  1.00  0.00     0.055 A 
ENDBRANCH  13  14
ENDBRANCH  11  13
ENDBRANCH   6  11
BRANCH   1  21
HETATM   21  C   UNL     1      -6.831  -0.339 -32.870  1.00  0.00    -0.030 A 
HETATM   22  C   UNL     1      -6.243  -0.280 -31.599  1.00  0.00     0.014 A 
HETATM   23  C   UNL     1      -4.970  -0.816 -31.365  1.00  0.00     0.037 A 
HETATM   24  C   UNL     1      -4.262  -1.419 -32.403  1.00  0.00     0.068 A 
HETATM   25  C   UNL     1      -4.835  -1.471 -33.674  1.00  0.00     0.037 A 
HETATM   26  C   UNL     1      -6.109  -0.941 -33.907  1.00  0.00     0.014 A 
BRANCH  24  27
HETATM   27  O   UNL     1      -3.018  -1.978 -32.307  1.00  0.00    -0.352 OA
BRANCH  27  28
HETATM   28  C   UNL     1      -2.946  -3.308 -31.792  1.00  0.00     0.171 C 
HETATM   29  C   UNL     1      -3.346  -4.264 -32.900  1.00  0.00     0.034 C 
ENDBRANCH  27  28
ENDBRANCH  24  27
ENDBRANCH   1  21
TORSDOF 6
ENDMDL
