MODEL 1
REMARK VINA RESULT:      -9.2      0.000      0.000
REMARK  4 active torsions:
REMARK  status: ('A' for Active; 'I' for Inactive)
REMARK    1  A    between atoms: C_4  and  S_5 
REMARK    2  A    between atoms: S_5  and  C_6 
REMARK    3  A    between atoms: C_6  and  C_7 
REMARK    4  A    between atoms: C_23  and  N_24 
ROOT
HETATM    1  C   UNL     1      -7.338   0.674 -32.961  1.00  0.00    -0.029 C 
HETATM    2  C   UNL     1      -6.092  -0.160 -33.087  1.00  0.00     0.016 A 
HETATM    3  C   UNL     1      -4.920   0.419 -32.561  1.00  0.00     0.091 A 
HETATM    4  C   UNL     1      -3.659  -0.155 -32.684  1.00  0.00     0.039 A 
HETATM    5  C   UNL     1      -3.528  -1.363 -33.343  1.00  0.00     0.015 A 
HETATM    6  C   UNL     1      -4.651  -2.026 -33.839  1.00  0.00    -0.025 A 
HETATM    7  C   UNL     1      -5.960  -1.466 -33.701  1.00  0.00    -0.012 A 
HETATM    8  C   UNL     1      -4.443  -3.270 -34.462  1.00  0.00     0.012 A 
HETATM    9  C   UNL     1      -5.504  -4.023 -34.946  1.00  0.00     0.001 A 
HETATM   10  C   UNL     1      -6.791  -3.545 -34.790  1.00  0.00     0.001 A 
HETATM   11  C   UNL     1      -7.009  -2.306 -34.173  1.00  0.00     0.013 A 
HETATM   12  O   UNL     1      -4.915   1.619 -31.822  1.00  0.00    -0.275 OA
HETATM   13  C   UNL     1      -6.086   2.262 -31.505  1.00  0.00     0.288 C 
HETATM   14  O   UNL     1      -6.129   3.227 -30.752  1.00  0.00    -0.260 OA
HETATM   15  C   UNL     1      -7.288   1.768 -32.177  1.00  0.00     0.091 C 
ENDROOT
BRANCH   1  16
HETATM   16  C   UNL     1      -8.590   0.304 -33.730  1.00  0.00     0.122 C 
BRANCH  16  17
HETATM   17  S   UNL     1     -10.078  -0.038 -32.742  1.00  0.00    -0.085 SA
BRANCH  17  18
HETATM   18  C   UNL     1     -11.267   0.891 -33.682  1.00  0.00     0.190 A 
HETATM   19  N   UNL     1     -12.541   0.476 -33.607  1.00  0.00    -0.228 NA
HETATM   20  C   UNL     1     -13.448   1.163 -34.329  1.00  0.00     0.036 A 
HETATM   21  C   UNL     1     -14.872   0.703 -34.267  1.00  0.00     0.070 C 
HETATM   22  C   UNL     1     -13.097   2.250 -35.100  1.00  0.00     0.071 A 
HETATM   23  C   UNL     1     -11.769   2.609 -35.093  1.00  0.00     0.105 A 
HETATM   24  N   UNL     1     -10.840   1.940 -34.404  1.00  0.00    -0.211 NA
BRANCH  23  25
HETATM   25  N   UNL     1     -11.323   3.681 -35.865  1.00  0.00    -0.287 NA
HETATM   26  H   UNL     1     -11.496   4.536 -35.344  1.00  0.00     0.125 HD
HETATM   27  H   UNL     1     -11.764   3.701 -36.778  1.00  0.00     0.125 HD
ENDBRANCH  23  25
ENDBRANCH  17  18
ENDBRANCH  16  17
ENDBRANCH   1  16
TORSDOF 4
ENDMDL
MODEL 2
REMARK VINA RESULT:      -9.2      2.037      4.218
REMARK  4 active torsions:
REMARK  status: ('A' for Active; 'I' for Inactive)
REMARK    1  A    between atoms: C_4  and  S_5 
REMARK    2  A    between atoms: S_5  and  C_6 
REMARK    3  A    between atoms: C_6  and  C_7 
REMARK    4  A    between atoms: C_23  and  N_24 
ROOT
HETATM    1  C   UNL     1      -6.933  -0.547 -34.163  1.00  0.00    -0.029 C 
HETATM    2  C   UNL     1      -5.627  -0.264 -33.471  1.00  0.00     0.016 A 
HETATM    3  C   UNL     1      -4.775  -1.375 -33.309  1.00  0.00     0.091 A 
HETATM    4  C   UNL     1      -3.580  -1.328 -32.598  1.00  0.00     0.039 A 
HETATM    5  C   UNL     1      -3.182  -0.136 -32.025  1.00  0.00     0.015 A 
HETATM    6  C   UNL     1      -3.943   1.022 -32.192  1.00  0.00    -0.025 A 
HETATM    7  C   UNL     1      -5.162   1.002 -32.940  1.00  0.00    -0.012 A 
HETATM    8  C   UNL     1      -3.453   2.206 -31.613  1.00  0.00     0.012 A 
HETATM    9  C   UNL     1      -4.119   3.415 -31.764  1.00  0.00     0.001 A 
HETATM   10  C   UNL     1      -5.274   3.453 -32.520  1.00  0.00     0.001 A 
HETATM   11  C   UNL     1      -5.772   2.279 -33.101  1.00  0.00     0.013 A 
HETATM   12  O   UNL     1      -5.031  -2.635 -33.884  1.00  0.00    -0.275 OA
HETATM   13  C   UNL     1      -6.108  -2.832 -34.713  1.00  0.00     0.288 C 
HETATM   14  O   UNL     1      -6.283  -3.871 -35.337  1.00  0.00    -0.260 OA
HETATM   15  C   UNL     1      -7.084  -1.744 -34.760  1.00  0.00     0.091 C 
ENDROOT
BRANCH   1  16
HETATM   16  C   UNL     1      -8.047   0.479 -34.146  1.00  0.00     0.122 C 
BRANCH  16  17
HETATM   17  S   UNL     1      -9.084   0.529 -32.652  1.00  0.00    -0.085 SA
BRANCH  17  18
HETATM   18  C   UNL     1     -10.682   0.683 -33.416  1.00  0.00     0.190 A 
HETATM   19  N   UNL     1     -10.835   1.702 -34.276  1.00  0.00    -0.228 NA
HETATM   20  C   UNL     1     -12.046   1.839 -34.848  1.00  0.00     0.036 A 
HETATM   21  C   UNL     1     -12.238   2.981 -35.798  1.00  0.00     0.070 C 
HETATM   22  C   UNL     1     -13.084   0.970 -34.582  1.00  0.00     0.071 A 
HETATM   23  C   UNL     1     -12.819  -0.055 -33.703  1.00  0.00     0.105 A 
HETATM   24  N   UNL     1     -11.635  -0.210 -33.104  1.00  0.00    -0.211 NA
BRANCH  23  25
HETATM   25  N   UNL     1     -13.817  -0.965 -33.358  1.00  0.00    -0.287 NA
HETATM   26  H   UNL     1     -13.458  -1.558 -32.616  1.00  0.00     0.125 HD
HETATM   27  H   UNL     1     -14.128  -1.508 -34.156  1.00  0.00     0.125 HD
ENDBRANCH  23  25
ENDBRANCH  17  18
ENDBRANCH  16  17
ENDBRANCH   1  16
TORSDOF 4
ENDMDL
MODEL 3
REMARK VINA RESULT:      -8.7      4.500      7.427
REMARK  4 active torsions:
REMARK  status: ('A' for Active; 'I' for Inactive)
REMARK    1  A    between atoms: C_4  and  S_5 
REMARK    2  A    between atoms: S_5  and  C_6 
REMARK    3  A    between atoms: C_6  and  C_7 
REMARK    4  A    between atoms: C_23  and  N_24 
ROOT
HETATM    1  C   UNL     1      -4.536   1.043 -31.345  1.00  0.00    -0.029 C 
HETATM    2  C   UNL     1      -5.499   0.211 -32.149  1.00  0.00     0.016 A 
HETATM    3  C   UNL     1      -4.922  -0.849 -32.875  1.00  0.00     0.091 A 
HETATM    4  C   UNL     1      -5.638  -1.653 -33.757  1.00  0.00     0.039 A 
HETATM    5  C   UNL     1      -6.989  -1.425 -33.934  1.00  0.00     0.015 A 
HETATM    6  C   UNL     1      -7.643  -0.431 -33.205  1.00  0.00    -0.025 A 
HETATM    7  C   UNL     1      -6.932   0.390 -32.274  1.00  0.00    -0.012 A 
HETATM    8  C   UNL     1      -9.027  -0.286 -33.409  1.00  0.00     0.012 A 
HETATM    9  C   UNL     1      -9.769   0.646 -32.696  1.00  0.00     0.001 A 
HETATM   10  C   UNL     1      -9.134   1.427 -31.751  1.00  0.00     0.001 A 
HETATM   11  C   UNL     1      -7.755   1.291 -31.540  1.00  0.00     0.013 A 
HETATM   12  O   UNL     1      -3.570  -1.226 -32.752  1.00  0.00    -0.275 OA
HETATM   13  C   UNL     1      -2.744  -0.614 -31.842  1.00  0.00     0.288 C 
HETATM   14  O   UNL     1      -1.606  -1.006 -31.611  1.00  0.00    -0.260 OA
HETATM   15  C   UNL     1      -3.277   0.587 -31.201  1.00  0.00     0.091 C 
ENDROOT
BRANCH   1  16
HETATM   16  C   UNL     1      -4.974   2.368 -30.756  1.00  0.00     0.122 C 
BRANCH  16  17
HETATM   17  S   UNL     1      -5.240   3.732 -31.930  1.00  0.00    -0.085 SA
BRANCH  17  18
HETATM   18  C   UNL     1      -3.553   4.243 -32.163  1.00  0.00     0.190 A 
HETATM   19  N   UNL     1      -3.197   4.567 -33.417  1.00  0.00    -0.228 NA
HETATM   20  C   UNL     1      -1.917   4.939 -33.608  1.00  0.00     0.036 A 
HETATM   21  C   UNL     1      -1.500   5.290 -35.003  1.00  0.00     0.070 C 
HETATM   22  C   UNL     1      -1.010   5.001 -32.572  1.00  0.00     0.071 A 
HETATM   23  C   UNL     1      -1.479   4.669 -31.322  1.00  0.00     0.105 A 
HETATM   24  N   UNL     1      -2.737   4.279 -31.098  1.00  0.00    -0.211 NA
BRANCH  23  25
HETATM   25  N   UNL     1      -0.623   4.680 -30.220  1.00  0.00    -0.287 NA
HETATM   26  H   UNL     1      -1.118   4.268 -29.435  1.00  0.00     0.125 HD
HETATM   27  H   UNL     1      -0.292   5.615 -30.006  1.00  0.00     0.125 HD
ENDBRANCH  23  25
ENDBRANCH  17  18
ENDBRANCH  16  17
ENDBRANCH   1  16
TORSDOF 4
ENDMDL
MODEL 4
REMARK VINA RESULT:      -8.7      1.787      2.292
REMARK  4 active torsions:
REMARK  status: ('A' for Active; 'I' for Inactive)
REMARK    1  A    between atoms: C_4  and  S_5 
REMARK    2  A    between atoms: S_5  and  C_6 
REMARK    3  A    between atoms: C_6  and  C_7 
REMARK    4  A    between atoms: C_23  and  N_24 
ROOT
HETATM    1  C   UNL     1      -5.958   0.642 -33.309  1.00  0.00    -0.029 C 
HETATM    2  C   UNL     1      -5.180  -0.636 -33.147  1.00  0.00     0.016 A 
HETATM    3  C   UNL     1      -4.052  -0.555 -32.307  1.00  0.00     0.091 A 
HETATM    4  C   UNL     1      -3.153  -1.602 -32.126  1.00  0.00     0.039 A 
HETATM    5  C   UNL     1      -3.367  -2.797 -32.784  1.00  0.00     0.015 A 
HETATM    6  C   UNL     1      -4.496  -2.973 -33.587  1.00  0.00    -0.025 A 
HETATM    7  C   UNL     1      -5.445  -1.919 -33.767  1.00  0.00    -0.012 A 
HETATM    8  C   UNL     1      -4.667  -4.231 -34.192  1.00  0.00     0.012 A 
HETATM    9  C   UNL     1      -5.781  -4.513 -34.972  1.00  0.00     0.001 A 
HETATM   10  C   UNL     1      -6.749  -3.541 -35.133  1.00  0.00     0.001 A 
HETATM   11  C   UNL     1      -6.588  -2.284 -34.535  1.00  0.00     0.013 A 
HETATM   12  O   UNL     1      -3.742   0.583 -31.536  1.00  0.00    -0.275 OA
HETATM   13  C   UNL     1      -4.582   1.669 -31.504  1.00  0.00     0.288 C 
HETATM   14  O   UNL     1      -4.416   2.614 -30.743  1.00  0.00    -0.260 OA
HETATM   15  C   UNL     1      -5.665   1.668 -32.488  1.00  0.00     0.091 C 
ENDROOT
BRANCH   1  16
HETATM   16  C   UNL     1      -7.009   0.767 -34.394  1.00  0.00     0.122 C 
BRANCH  16  17
HETATM   17  S   UNL     1      -8.743   0.627 -33.865  1.00  0.00    -0.085 SA
BRANCH  17  18
HETATM   18  C   UNL     1      -9.277   2.292 -34.183  1.00  0.00     0.190 A 
HETATM   19  N   UNL     1     -10.537   2.440 -34.620  1.00  0.00    -0.228 NA
HETATM   20  C   UNL     1     -10.947   3.696 -34.881  1.00  0.00     0.036 A 
HETATM   21  C   UNL     1     -12.346   3.878 -35.384  1.00  0.00     0.070 C 
HETATM   22  C   UNL     1     -10.124   4.787 -34.698  1.00  0.00     0.071 A 
HETATM   23  C   UNL     1      -8.857   4.532 -34.226  1.00  0.00     0.105 A 
HETATM   24  N   UNL     1      -8.412   3.297 -33.974  1.00  0.00    -0.211 NA
BRANCH  23  25
HETATM   25  N   UNL     1      -7.951   5.574 -34.035  1.00  0.00    -0.287 NA
HETATM   26  H   UNL     1      -7.878   6.090 -34.907  1.00  0.00     0.125 HD
HETATM   27  H   UNL     1      -7.046   5.238 -33.722  1.00  0.00     0.125 HD
ENDBRANCH  23  25
ENDBRANCH  17  18
ENDBRANCH  16  17
ENDBRANCH   1  16
TORSDOF 4
ENDMDL
MODEL 5
REMARK VINA RESULT:      -8.6      1.780      2.480
REMARK  4 active torsions:
REMARK  status: ('A' for Active; 'I' for Inactive)
REMARK    1  A    between atoms: C_4  and  S_5 
REMARK    2  A    between atoms: S_5  and  C_6 
REMARK    3  A    between atoms: C_6  and  C_7 
REMARK    4  A    between atoms: C_23  and  N_24 
ROOT
HETATM    1  C   UNL     1      -5.650   2.354 -33.018  1.00  0.00    -0.029 C 
HETATM    2  C   UNL     1      -4.965   1.029 -32.821  1.00  0.00     0.016 A 
HETATM    3  C   UNL     1      -3.864   1.043 -31.941  1.00  0.00     0.091 A 
HETATM    4  C   UNL     1      -3.044  -0.060 -31.722  1.00  0.00     0.039 A 
HETATM    5  C   UNL     1      -3.313  -1.244 -32.382  1.00  0.00     0.015 A 
HETATM    6  C   UNL     1      -4.422  -1.351 -33.223  1.00  0.00    -0.025 A 
HETATM    7  C   UNL     1      -5.293  -0.238 -33.442  1.00  0.00    -0.012 A 
HETATM    8  C   UNL     1      -4.654  -2.600 -33.828  1.00  0.00     0.012 A 
HETATM    9  C   UNL     1      -5.756  -2.813 -34.645  1.00  0.00     0.001 A 
HETATM   10  C   UNL     1      -6.652  -1.781 -34.846  1.00  0.00     0.001 A 
HETATM   11  C   UNL     1      -6.429  -0.533 -34.249  1.00  0.00     0.013 A 
HETATM   12  O   UNL     1      -3.507   2.164 -31.166  1.00  0.00    -0.275 OA
HETATM   13  C   UNL     1      -4.275   3.302 -31.170  1.00  0.00     0.288 C 
HETATM   14  O   UNL     1      -4.073   4.240 -30.408  1.00  0.00    -0.260 OA
HETATM   15  C   UNL     1      -5.319   3.365 -32.191  1.00  0.00     0.091 C 
ENDROOT
BRANCH   1  16
HETATM   16  C   UNL     1      -6.652   2.540 -34.139  1.00  0.00     0.122 C 
BRANCH  16  17
HETATM   17  S   UNL     1      -7.938   3.800 -33.880  1.00  0.00    -0.085 SA
BRANCH  17  18
HETATM   18  C   UNL     1      -9.376   2.757 -33.931  1.00  0.00     0.190 A 
HETATM   19  N   UNL     1     -10.416   3.211 -34.648  1.00  0.00    -0.228 NA
HETATM   20  C   UNL     1     -11.518   2.437 -34.679  1.00  0.00     0.036 A 
HETATM   21  C   UNL     1     -12.693   2.937 -35.462  1.00  0.00     0.070 C 
HETATM   22  C   UNL     1     -11.581   1.226 -34.021  1.00  0.00     0.071 A 
HETATM   23  C   UNL     1     -10.454   0.840 -33.333  1.00  0.00     0.105 A 
HETATM   24  N   UNL     1      -9.351   1.591 -33.266  1.00  0.00    -0.211 NA
BRANCH  23  25
HETATM   25  N   UNL     1     -10.438  -0.358 -32.619  1.00  0.00    -0.287 NA
HETATM   26  H   UNL     1     -10.653  -1.111 -33.266  1.00  0.00     0.125 HD
HETATM   27  H   UNL     1     -11.082  -0.342 -31.835  1.00  0.00     0.125 HD
ENDBRANCH  23  25
ENDBRANCH  17  18
ENDBRANCH  16  17
ENDBRANCH   1  16
TORSDOF 4
ENDMDL
MODEL 6
REMARK VINA RESULT:      -8.5      4.004      6.609
REMARK  4 active torsions:
REMARK  status: ('A' for Active; 'I' for Inactive)
REMARK    1  A    between atoms: C_4  and  S_5 
REMARK    2  A    between atoms: S_5  and  C_6 
REMARK    3  A    between atoms: C_6  and  C_7 
REMARK    4  A    between atoms: C_23  and  N_24 
ROOT
HETATM    1  C   UNL     1      -6.863   2.185 -32.367  1.00  0.00    -0.029 C 
HETATM    2  C   UNL     1      -6.427   0.855 -32.918  1.00  0.00     0.016 A 
HETATM    3  C   UNL     1      -7.309   0.265 -33.844  1.00  0.00     0.091 A 
HETATM    4  C   UNL     1      -7.127  -1.009 -34.373  1.00  0.00     0.039 A 
HETATM    5  C   UNL     1      -6.020  -1.745 -33.994  1.00  0.00     0.015 A 
HETATM    6  C   UNL     1      -5.070  -1.204 -33.128  1.00  0.00    -0.025 A 
HETATM    7  C   UNL     1      -5.225   0.113 -32.592  1.00  0.00    -0.012 A 
HETATM    8  C   UNL     1      -3.950  -1.998 -32.820  1.00  0.00     0.012 A 
HETATM    9  C   UNL     1      -2.933  -1.527 -32.002  1.00  0.00     0.001 A 
HETATM   10  C   UNL     1      -3.015  -0.242 -31.502  1.00  0.00     0.001 A 
HETATM   11  C   UNL     1      -4.127   0.557 -31.801  1.00  0.00     0.013 A 
HETATM   12  O   UNL     1      -8.446   0.921 -34.355  1.00  0.00    -0.275 OA
HETATM   13  C   UNL     1      -8.718   2.227 -34.030  1.00  0.00     0.288 C 
HETATM   14  O   UNL     1      -9.615   2.870 -34.560  1.00  0.00    -0.260 OA
HETATM   15  C   UNL     1      -7.910   2.798 -32.952  1.00  0.00     0.091 C 
ENDROOT
BRANCH   1  16
HETATM   16  C   UNL     1      -6.161   2.786 -31.166  1.00  0.00     0.122 C 
BRANCH  16  17
HETATM   17  S   UNL     1      -6.079   4.602 -31.096  1.00  0.00    -0.085 SA
BRANCH  17  18
HETATM   18  C   UNL     1      -4.593   4.859 -32.038  1.00  0.00     0.190 A 
HETATM   19  N   UNL     1      -3.440   4.820 -31.351  1.00  0.00    -0.228 NA
HETATM   20  C   UNL     1      -2.308   5.030 -32.051  1.00  0.00     0.036 A 
HETATM   21  C   UNL     1      -1.014   5.006 -31.298  1.00  0.00     0.070 C 
HETATM   22  C   UNL     1      -2.321   5.261 -33.411  1.00  0.00     0.071 A 
HETATM   23  C   UNL     1      -3.552   5.259 -34.025  1.00  0.00     0.105 A 
HETATM   24  N   UNL     1      -4.695   5.072 -33.359  1.00  0.00    -0.211 NA
BRANCH  23  25
HETATM   25  N   UNL     1      -3.659   5.509 -35.392  1.00  0.00    -0.287 NA
HETATM   26  H   UNL     1      -4.320   6.269 -35.521  1.00  0.00     0.125 HD
HETATM   27  H   UNL     1      -3.934   4.681 -35.909  1.00  0.00     0.125 HD
ENDBRANCH  23  25
ENDBRANCH  17  18
ENDBRANCH  16  17
ENDBRANCH   1  16
TORSDOF 4
ENDMDL
MODEL 7
REMARK VINA RESULT:      -8.4      5.614      8.334
REMARK  4 active torsions:
REMARK  status: ('A' for Active; 'I' for Inactive)
REMARK    1  A    between atoms: C_4  and  S_5 
REMARK    2  A    between atoms: S_5  and  C_6 
REMARK    3  A    between atoms: C_6  and  C_7 
REMARK    4  A    between atoms: C_23  and  N_24 
ROOT
HETATM    1  C   UNL     1      -5.217   3.487 -32.737  1.00  0.00    -0.029 C 
HETATM    2  C   UNL     1      -5.643   2.065 -32.980  1.00  0.00     0.016 A 
HETATM    3  C   UNL     1      -6.955   1.902 -33.467  1.00  0.00     0.091 A 
HETATM    4  C   UNL     1      -7.558   0.660 -33.646  1.00  0.00     0.039 A 
HETATM    5  C   UNL     1      -6.845  -0.486 -33.349  1.00  0.00     0.015 A 
HETATM    6  C   UNL     1      -5.520  -0.406 -32.920  1.00  0.00    -0.025 A 
HETATM    7  C   UNL     1      -4.872   0.858 -32.754  1.00  0.00    -0.012 A 
HETATM    8  C   UNL     1      -4.846  -1.617 -32.677  1.00  0.00     0.012 A 
HETATM    9  C   UNL     1      -3.514  -1.638 -32.289  1.00  0.00     0.001 A 
HETATM   10  C   UNL     1      -2.833  -0.442 -32.164  1.00  0.00     0.001 A 
HETATM   11  C   UNL     1      -3.495   0.770 -32.402  1.00  0.00     0.013 A 
HETATM   12  O   UNL     1      -7.775   2.979 -33.858  1.00  0.00    -0.275 OA
HETATM   13  C   UNL     1      -7.301   4.268 -33.856  1.00  0.00     0.288 C 
HETATM   14  O   UNL     1      -7.936   5.208 -34.317  1.00  0.00    -0.260 OA
HETATM   15  C   UNL     1      -6.007   4.472 -33.205  1.00  0.00     0.091 C 
ENDROOT
BRANCH   1  16
HETATM   16  C   UNL     1      -3.954   3.786 -31.955  1.00  0.00     0.122 C 
BRANCH  16  17
HETATM   17  S   UNL     1      -2.558   4.475 -32.896  1.00  0.00    -0.085 SA
BRANCH  17  18
HETATM   18  C   UNL     1      -1.628   5.180 -31.555  1.00  0.00     0.190 A 
HETATM   19  N   UNL     1      -1.984   6.415 -31.168  1.00  0.00    -0.228 NA
HETATM   20  C   UNL     1      -1.274   6.966 -30.165  1.00  0.00     0.036 A 
HETATM   21  C   UNL     1      -1.649   8.350 -29.731  1.00  0.00     0.070 C 
HETATM   22  C   UNL     1      -0.239   6.297 -29.547  1.00  0.00     0.071 A 
HETATM   23  C   UNL     1       0.033   5.027 -30.002  1.00  0.00     0.105 A 
HETATM   24  N   UNL     1      -0.638   4.457 -31.007  1.00  0.00    -0.211 NA
BRANCH  23  25
HETATM   25  N   UNL     1       1.079   4.288 -29.451  1.00  0.00    -0.287 NA
HETATM   26  H   UNL     1       0.750   3.879 -28.581  1.00  0.00     0.125 HD
HETATM   27  H   UNL     1       1.910   4.853 -29.309  1.00  0.00     0.125 HD
ENDBRANCH  23  25
ENDBRANCH  17  18
ENDBRANCH  16  17
ENDBRANCH   1  16
TORSDOF 4
ENDMDL
MODEL 8
REMARK VINA RESULT:      -8.4     14.619     15.830
REMARK  4 active torsions:
REMARK  status: ('A' for Active; 'I' for Inactive)
REMARK    1  A    between atoms: C_4  and  S_5 
REMARK    2  A    between atoms: S_5  and  C_6 
REMARK    3  A    between atoms: C_6  and  C_7 
REMARK    4  A    between atoms: C_23  and  N_24 
ROOT
HETATM    1  C   UNL     1      -5.199 -13.371 -36.716  1.00  0.00    -0.029 C 
HETATM    2  C   UNL     1      -5.730 -12.966 -38.064  1.00  0.00     0.016 A 
HETATM    3  C   UNL     1      -4.777 -12.438 -38.956  1.00  0.00     0.091 A 
HETATM    4  C   UNL     1      -5.102 -11.910 -40.202  1.00  0.00     0.039 A 
HETATM    5  C   UNL     1      -6.422 -11.906 -40.610  1.00  0.00     0.015 A 
HETATM    6  C   UNL     1      -7.415 -12.466 -39.806  1.00  0.00    -0.025 A 
HETATM    7  C   UNL     1      -7.100 -13.037 -38.533  1.00  0.00    -0.012 A 
HETATM    8  C   UNL     1      -8.730 -12.461 -40.306  1.00  0.00     0.012 A 
HETATM    9  C   UNL     1      -9.776 -13.034 -39.596  1.00  0.00     0.001 A 
HETATM   10  C   UNL     1      -9.510 -13.641 -38.384  1.00  0.00     0.001 A 
HETATM   11  C   UNL     1      -8.205 -13.651 -37.876  1.00  0.00     0.013 A 
HETATM   12  O   UNL     1      -3.393 -12.428 -38.692  1.00  0.00    -0.275 OA
HETATM   13  C   UNL     1      -2.882 -13.012 -37.559  1.00  0.00     0.288 C 
HETATM   14  O   UNL     1      -1.680 -13.142 -37.365  1.00  0.00    -0.260 OA
HETATM   15  C   UNL     1      -3.863 -13.416 -36.552  1.00  0.00     0.091 C 
ENDROOT
BRANCH   1  16
HETATM   16  C   UNL     1      -6.150 -13.680 -35.577  1.00  0.00     0.122 C 
BRANCH  16  17
HETATM   17  S   UNL     1      -5.676 -13.064 -33.933  1.00  0.00    -0.085 SA
BRANCH  17  18
HETATM   18  C   UNL     1      -5.821 -14.574 -33.007  1.00  0.00     0.190 A 
HETATM   19  N   UNL     1      -6.185 -15.665 -33.701  1.00  0.00    -0.228 NA
HETATM   20  C   UNL     1      -6.314 -16.811 -33.007  1.00  0.00     0.036 A 
HETATM   21  C   UNL     1      -6.734 -18.034 -33.763  1.00  0.00     0.070 C 
HETATM   22  C   UNL     1      -6.074 -16.878 -31.651  1.00  0.00     0.071 A 
HETATM   23  C   UNL     1      -5.685 -15.710 -31.036  1.00  0.00     0.105 A 
HETATM   24  N   UNL     1      -5.564 -14.551 -31.689  1.00  0.00    -0.211 NA
BRANCH  23  25
HETATM   25  N   UNL     1      -5.445 -15.680 -29.663  1.00  0.00    -0.287 NA
HETATM   26  H   UNL     1      -4.594 -15.149 -29.504  1.00  0.00     0.125 HD
HETATM   27  H   UNL     1      -5.385 -16.612 -29.267  1.00  0.00     0.125 HD
ENDBRANCH  23  25
ENDBRANCH  17  18
ENDBRANCH  16  17
ENDBRANCH   1  16
TORSDOF 4
ENDMDL
MODEL 9
REMARK VINA RESULT:      -8.3      3.303      5.378
REMARK  4 active torsions:
REMARK  status: ('A' for Active; 'I' for Inactive)
REMARK    1  A    between atoms: C_4  and  S_5 
REMARK    2  A    between atoms: S_5  and  C_6 
REMARK    3  A    between atoms: C_6  and  C_7 
REMARK    4  A    between atoms: C_23  and  N_24 
ROOT
HETATM    1  C   UNL     1      -7.649   1.139 -31.333  1.00  0.00    -0.029 C 
HETATM    2  C   UNL     1      -6.871   0.185 -32.197  1.00  0.00     0.016 A 
HETATM    3  C   UNL     1      -7.615  -0.466 -33.201  1.00  0.00     0.091 A 
HETATM    4  C   UNL     1      -7.091  -1.460 -34.021  1.00  0.00     0.039 A 
HETATM    5  C   UNL     1      -5.770  -1.835 -33.868  1.00  0.00     0.015 A 
HETATM    6  C   UNL     1      -4.953  -1.194 -32.935  1.00  0.00    -0.025 A 
HETATM    7  C   UNL     1      -5.465  -0.152 -32.100  1.00  0.00    -0.012 A 
HETATM    8  C   UNL     1      -3.609  -1.602 -32.866  1.00  0.00     0.012 A 
HETATM    9  C   UNL     1      -2.712  -0.992 -31.999  1.00  0.00     0.001 A 
HETATM   10  C   UNL     1      -3.149   0.053 -31.208  1.00  0.00     0.001 A 
HETATM   11  C   UNL     1      -4.487   0.466 -31.269  1.00  0.00     0.013 A 
HETATM   12  O   UNL     1      -8.954  -0.147 -33.501  1.00  0.00    -0.275 OA
HETATM   13  C   UNL     1      -9.596   0.889 -32.868  1.00  0.00     0.288 C 
HETATM   14  O   UNL     1     -10.708   1.281 -33.198  1.00  0.00    -0.260 OA
HETATM   15  C   UNL     1      -8.899   1.464 -31.718  1.00  0.00     0.091 C 
ENDROOT
BRANCH   1  16
HETATM   16  C   UNL     1      -7.047   1.680 -30.052  1.00  0.00     0.122 C 
BRANCH  16  17
HETATM   17  S   UNL     1      -7.141   3.480 -29.806  1.00  0.00    -0.085 SA
BRANCH  17  18
HETATM   18  C   UNL     1      -6.580   4.019 -31.404  1.00  0.00     0.190 A 
HETATM   19  N   UNL     1      -5.272   3.858 -31.660  1.00  0.00    -0.228 NA
HETATM   20  C   UNL     1      -4.833   4.279 -32.862  1.00  0.00     0.036 A 
HETATM   21  C   UNL     1      -3.373   4.120 -33.159  1.00  0.00     0.070 C 
HETATM   22  C   UNL     1      -5.678   4.837 -33.797  1.00  0.00     0.071 A 
HETATM   23  C   UNL     1      -7.005   4.937 -33.446  1.00  0.00     0.105 A 
HETATM   24  N   UNL     1      -7.473   4.547 -32.257  1.00  0.00    -0.211 NA
BRANCH  23  25
HETATM   25  N   UNL     1      -7.926   5.511 -34.321  1.00  0.00    -0.287 NA
HETATM   26  H   UNL     1      -8.410   6.254 -33.824  1.00  0.00     0.125 HD
HETATM   27  H   UNL     1      -8.573   4.826 -34.695  1.00  0.00     0.125 HD
ENDBRANCH  23  25
ENDBRANCH  17  18
ENDBRANCH  16  17
ENDBRANCH   1  16
TORSDOF 4
ENDMDL
MODEL 10
REMARK VINA RESULT:      -8.2      3.867      6.731
REMARK  4 active torsions:
REMARK  status: ('A' for Active; 'I' for Inactive)
REMARK    1  A    between atoms: C_4  and  S_5 
REMARK    2  A    between atoms: S_5  and  C_6 
REMARK    3  A    between atoms: C_6  and  C_7 
REMARK    4  A    between atoms: C_23  and  N_24 
ROOT
HETATM    1  C   UNL     1      -4.596   1.855 -32.137  1.00  0.00    -0.029 C 
HETATM    2  C   UNL     1      -5.807   2.528 -32.723  1.00  0.00     0.016 A 
HETATM    3  C   UNL     1      -5.610   3.851 -33.167  1.00  0.00     0.091 A 
HETATM    4  C   UNL     1      -6.637   4.665 -33.634  1.00  0.00     0.039 A 
HETATM    5  C   UNL     1      -7.924   4.165 -33.687  1.00  0.00     0.015 A 
HETATM    6  C   UNL     1      -8.188   2.844 -33.321  1.00  0.00    -0.025 A 
HETATM    7  C   UNL     1      -7.143   1.982 -32.862  1.00  0.00    -0.012 A 
HETATM    8  C   UNL     1      -9.515   2.395 -33.440  1.00  0.00     0.012 A 
HETATM    9  C   UNL     1      -9.865   1.085 -33.141  1.00  0.00     0.001 A 
HETATM   10  C   UNL     1      -8.880   0.203 -32.741  1.00  0.00     0.001 A 
HETATM   11  C   UNL     1      -7.555   0.640 -32.618  1.00  0.00     0.013 A 
HETATM   12  O   UNL     1      -4.344   4.468 -33.217  1.00  0.00    -0.275 OA
HETATM   13  C   UNL     1      -3.203   3.774 -32.901  1.00  0.00     0.288 C 
HETATM   14  O   UNL     1      -2.080   4.234 -33.065  1.00  0.00    -0.260 OA
HETATM   15  C   UNL     1      -3.403   2.461 -32.287  1.00  0.00     0.091 C 
ENDROOT
BRANCH   1  16
HETATM   16  C   UNL     1      -4.736   0.556 -31.370  1.00  0.00     0.122 C 
BRANCH  16  17
HETATM   17  S   UNL     1      -3.331  -0.595 -31.456  1.00  0.00    -0.085 SA
BRANCH  17  18
HETATM   18  C   UNL     1      -3.974  -1.745 -32.650  1.00  0.00     0.190 A 
HETATM   19  N   UNL     1      -5.001  -1.313 -33.398  1.00  0.00    -0.228 NA
HETATM   20  C   UNL     1      -5.508  -2.182 -34.294  1.00  0.00     0.036 A 
HETATM   21  C   UNL     1      -6.664  -1.722 -35.127  1.00  0.00     0.070 C 
HETATM   22  C   UNL     1      -4.995  -3.452 -34.452  1.00  0.00     0.071 A 
HETATM   23  C   UNL     1      -3.929  -3.791 -33.652  1.00  0.00     0.105 A 
HETATM   24  N   UNL     1      -3.412  -2.961 -32.741  1.00  0.00    -0.211 NA
BRANCH  23  25
HETATM   25  N   UNL     1      -3.364  -5.063 -33.729  1.00  0.00    -0.287 NA
HETATM   26  H   UNL     1      -3.693  -5.601 -32.932  1.00  0.00     0.125 HD
HETATM   27  H   UNL     1      -2.351  -5.028 -33.765  1.00  0.00     0.125 HD
ENDBRANCH  23  25
ENDBRANCH  17  18
ENDBRANCH  16  17
ENDBRANCH   1  16
TORSDOF 4
ENDMDL
