MODEL 1
REMARK VINA RESULT:      -7.5      0.000      0.000
REMARK  2 active torsions:
REMARK  status: ('A' for Active; 'I' for Inactive)
REMARK    1  A    between atoms: C_2  and  C_3 
REMARK    2  A    between atoms: C_3  and  N_4 
ROOT
HETATM    1  N   UNL     1      -7.357   0.618 -33.771  1.00  0.00    -0.203 NA
HETATM    2  S   UNL     1      -8.819   1.081 -33.030  1.00  0.00     0.219 S 
HETATM    3  O   UNL     1      -9.065   0.285 -31.858  1.00  0.00    -0.211 OA
HETATM    4  O   UNL     1      -9.794   1.264 -34.084  1.00  0.00    -0.211 OA
HETATM    5  C   UNL     1      -8.286   2.717 -32.588  1.00  0.00     0.164 C 
HETATM    6  C   UNL     1      -6.937   2.916 -33.286  1.00  0.00     0.116 C 
HETATM    7  O   UNL     1      -5.957   2.795 -32.223  1.00  0.00    -0.369 OA
HETATM    8  C   UNL     1      -6.556   3.492 -31.116  1.00  0.00     0.149 C 
HETATM    9  C   UNL     1      -6.425   5.004 -31.406  1.00  0.00     0.264 C 
HETATM   10  N   UNL     1      -7.061   5.360 -32.741  1.00  0.00    -0.070 N 
HETATM   11  H   UNL     1      -8.074   5.500 -32.614  1.00  0.00     0.277 HD
HETATM   12  H   UNL     1      -6.701   6.280 -33.038  1.00  0.00     0.277 HD
HETATM   13  C   UNL     1      -6.789   4.344 -33.843  1.00  0.00     0.273 C 
HETATM   14  C   UNL     1      -6.723   1.827 -34.347  1.00  0.00     0.148 C 
HETATM   15  C   UNL     1      -7.988   2.966 -31.117  1.00  0.00     0.058 C 
ENDROOT
BRANCH   1  16
HETATM   16  C   UNL     1      -7.441  -0.518 -34.723  1.00  0.00     0.145 C 
BRANCH  16  17
HETATM   17  C   UNL     1      -6.412  -1.597 -34.498  1.00  0.00    -0.044 A 
HETATM   18  C   UNL     1      -5.201  -1.302 -33.854  1.00  0.00     0.010 A 
HETATM   19  C   UNL     1      -4.247  -2.300 -33.645  1.00  0.00     0.024 A 
HETATM   20  C   UNL     1      -4.497  -3.598 -34.083  1.00  0.00     0.034 A 
HETATM   21  C   UNL     1      -5.692  -3.906 -34.730  1.00  0.00     0.024 A 
HETATM   22 CL   UNL     1      -3.322  -4.828 -33.824  1.00  0.00    -0.084 Cl
HETATM   23  C   UNL     1      -6.647  -2.908 -34.939  1.00  0.00     0.010 A 
ENDBRANCH  16  17
ENDBRANCH   1  16
TORSDOF 2
ENDMDL
MODEL 2
REMARK VINA RESULT:      -7.5      1.093      1.297
REMARK  2 active torsions:
REMARK  status: ('A' for Active; 'I' for Inactive)
REMARK    1  A    between atoms: C_2  and  C_3 
REMARK    2  A    between atoms: C_3  and  N_4 
ROOT
HETATM    1  N   UNL     1      -6.732   0.989 -33.289  1.00  0.00    -0.203 NA
HETATM    2  S   UNL     1      -7.456   1.406 -31.806  1.00  0.00     0.219 S 
HETATM    3  O   UNL     1      -6.824   0.704 -30.721  1.00  0.00    -0.211 OA
HETATM    4  O   UNL     1      -8.888   1.417 -32.016  1.00  0.00    -0.211 OA
HETATM    5  C   UNL     1      -6.958   3.111 -31.836  1.00  0.00     0.164 C 
HETATM    6  C   UNL     1      -6.371   3.347 -33.230  1.00  0.00     0.116 C 
HETATM    7  O   UNL     1      -4.937   3.397 -33.018  1.00  0.00    -0.369 OA
HETATM    8  C   UNL     1      -4.793   4.145 -31.797  1.00  0.00     0.149 C 
HETATM    9  C   UNL     1      -5.048   5.630 -32.141  1.00  0.00     0.264 C 
HETATM   10  N   UNL     1      -6.412   5.814 -32.787  1.00  0.00    -0.070 N 
HETATM   11  H   UNL     1      -7.133   5.888 -32.056  1.00  0.00     0.277 HD
HETATM   12  H   UNL     1      -6.425   6.727 -33.267  1.00  0.00     0.277 HD
HETATM   13  C   UNL     1      -6.768   4.724 -33.791  1.00  0.00     0.273 C 
HETATM   14  C   UNL     1      -6.739   2.185 -34.164  1.00  0.00     0.148 C 
HETATM   15  C   UNL     1      -5.841   3.515 -30.885  1.00  0.00     0.058 C 
ENDROOT
BRANCH   1  16
HETATM   16  C   UNL     1      -7.256  -0.232 -33.950  1.00  0.00     0.145 C 
BRANCH  16  17
HETATM   17  C   UNL     1      -6.284  -1.383 -33.998  1.00  0.00    -0.044 A 
HETATM   18  C   UNL     1      -5.043  -1.293 -33.347  1.00  0.00     0.010 A 
HETATM   19  C   UNL     1      -4.141  -2.358 -33.392  1.00  0.00     0.024 A 
HETATM   20  C   UNL     1      -4.471  -3.516 -34.090  1.00  0.00     0.034 A 
HETATM   21  C   UNL     1      -5.696  -3.619 -34.747  1.00  0.00     0.024 A 
HETATM   22 CL   UNL     1      -3.360  -4.829 -34.142  1.00  0.00    -0.084 Cl
HETATM   23  C   UNL     1      -6.599  -2.554 -34.703  1.00  0.00     0.010 A 
ENDBRANCH  16  17
ENDBRANCH   1  16
TORSDOF 2
ENDMDL
MODEL 3
REMARK VINA RESULT:      -7.5      1.944      3.087
REMARK  2 active torsions:
REMARK  status: ('A' for Active; 'I' for Inactive)
REMARK    1  A    between atoms: C_2  and  C_3 
REMARK    2  A    between atoms: C_3  and  N_4 
ROOT
HETATM    1  N   UNL     1      -6.069   1.225 -32.326  1.00  0.00    -0.203 NA
HETATM    2  S   UNL     1      -5.973   2.696 -33.177  1.00  0.00     0.219 S 
HETATM    3  O   UNL     1      -6.491   2.543 -34.511  1.00  0.00    -0.211 OA
HETATM    4  O   UNL     1      -4.677   3.274 -32.892  1.00  0.00    -0.211 OA
HETATM    5  C   UNL     1      -7.122   3.577 -32.147  1.00  0.00     0.164 C 
HETATM    6  C   UNL     1      -7.396   2.657 -30.953  1.00  0.00     0.116 C 
HETATM    7  O   UNL     1      -8.721   2.121 -31.203  1.00  0.00    -0.369 OA
HETATM    8  C   UNL     1      -9.460   3.245 -31.715  1.00  0.00     0.149 C 
HETATM    9  C   UNL     1      -9.782   4.162 -30.513  1.00  0.00     0.264 C 
HETATM   10  N   UNL     1      -8.512   4.573 -29.784  1.00  0.00    -0.070 N 
HETATM   11  H   UNL     1      -8.091   5.386 -30.256  1.00  0.00     0.277 HD
HETATM   12  H   UNL     1      -8.771   4.915 -28.845  1.00  0.00     0.277 HD
HETATM   13  C   UNL     1      -7.496   3.447 -29.636  1.00  0.00     0.273 C 
HETATM   14  C   UNL     1      -6.356   1.528 -30.904  1.00  0.00     0.148 C 
HETATM   15  C   UNL     1      -8.499   3.849 -32.734  1.00  0.00     0.058 C 
ENDROOT
BRANCH   1  16
HETATM   16  C   UNL     1      -4.934   0.288 -32.515  1.00  0.00     0.145 C 
BRANCH  16  17
HETATM   17  C   UNL     1      -5.274  -0.954 -33.299  1.00  0.00    -0.044 A 
HETATM   18  C   UNL     1      -6.576  -1.155 -33.783  1.00  0.00     0.010 A 
HETATM   19  C   UNL     1      -6.893  -2.305 -34.509  1.00  0.00     0.024 A 
HETATM   20  C   UNL     1      -5.911  -3.262 -34.752  1.00  0.00     0.034 A 
HETATM   21  C   UNL     1      -4.615  -3.080 -34.273  1.00  0.00     0.024 A 
HETATM   22 CL   UNL     1      -6.301  -4.678 -35.649  1.00  0.00    -0.084 Cl
HETATM   23  C   UNL     1      -4.297  -1.930 -33.547  1.00  0.00     0.010 A 
ENDBRANCH  16  17
ENDBRANCH   1  16
TORSDOF 2
ENDMDL
MODEL 4
REMARK VINA RESULT:      -7.5      2.953      3.995
REMARK  2 active torsions:
REMARK  status: ('A' for Active; 'I' for Inactive)
REMARK    1  A    between atoms: C_2  and  C_3 
REMARK    2  A    between atoms: C_3  and  N_4 
ROOT
HETATM    1  N   UNL     1      -5.215   2.321 -32.465  1.00  0.00    -0.203 NA
HETATM    2  S   UNL     1      -4.150   2.578 -31.162  1.00  0.00     0.219 S 
HETATM    3  O   UNL     1      -3.075   1.623 -31.192  1.00  0.00    -0.211 OA
HETATM    4  O   UNL     1      -4.961   2.823 -29.988  1.00  0.00    -0.211 OA
HETATM    5  C   UNL     1      -3.594   4.179 -31.697  1.00  0.00     0.164 C 
HETATM    6  C   UNL     1      -4.503   4.562 -32.868  1.00  0.00     0.116 C 
HETATM    7  O   UNL     1      -3.676   4.377 -34.046  1.00  0.00    -0.369 OA
HETATM    8  C   UNL     1      -2.388   4.881 -33.649  1.00  0.00     0.149 C 
HETATM    9  C   UNL     1      -2.483   6.424 -33.649  1.00  0.00     0.264 C 
HETATM   10  N   UNL     1      -3.608   6.901 -32.743  1.00  0.00    -0.070 N 
HETATM   11  H   UNL     1      -3.271   6.949 -31.772  1.00  0.00     0.277 HD
HETATM   12  H   UNL     1      -3.837   7.875 -32.994  1.00  0.00     0.277 HD
HETATM   13  C   UNL     1      -4.873   6.056 -32.837  1.00  0.00     0.273 C 
HETATM   14  C   UNL     1      -5.727   3.637 -32.915  1.00  0.00     0.148 C 
HETATM   15  C   UNL     1      -2.187   4.258 -32.271  1.00  0.00     0.058 C 
ENDROOT
BRANCH   1  16
HETATM   16  C   UNL     1      -6.282   1.313 -32.246  1.00  0.00     0.145 C 
BRANCH  16  17
HETATM   17  C   UNL     1      -6.113   0.042 -33.038  1.00  0.00    -0.044 A 
HETATM   18  C   UNL     1      -7.193  -0.499 -33.753  1.00  0.00     0.010 A 
HETATM   19  C   UNL     1      -7.038  -1.677 -34.487  1.00  0.00     0.024 A 
HETATM   20  C   UNL     1      -5.805  -2.322 -34.508  1.00  0.00     0.034 A 
HETATM   21  C   UNL     1      -4.724  -1.801 -33.799  1.00  0.00     0.024 A 
HETATM   22 CL   UNL     1      -5.614  -3.772 -35.415  1.00  0.00    -0.084 Cl
HETATM   23  C   UNL     1      -4.878  -0.623 -33.064  1.00  0.00     0.010 A 
ENDBRANCH  16  17
ENDBRANCH   1  16
TORSDOF 2
ENDMDL
MODEL 5
REMARK VINA RESULT:      -7.2      4.109      5.179
REMARK  2 active torsions:
REMARK  status: ('A' for Active; 'I' for Inactive)
REMARK    1  A    between atoms: C_2  and  C_3 
REMARK    2  A    between atoms: C_3  and  N_4 
ROOT
HETATM    1  N   UNL     1      -3.915   3.458 -32.127  1.00  0.00    -0.203 NA
HETATM    2  S   UNL     1      -4.600   4.909 -31.557  1.00  0.00     0.219 S 
HETATM    3  O   UNL     1      -4.973   4.782 -30.174  1.00  0.00    -0.211 OA
HETATM    4  O   UNL     1      -5.503   5.388 -32.581  1.00  0.00    -0.211 OA
HETATM    5  C   UNL     1      -3.125   5.885 -31.731  1.00  0.00     0.164 C 
HETATM    6  C   UNL     1      -2.131   5.001 -32.490  1.00  0.00     0.116 C 
HETATM    7  O   UNL     1      -1.186   4.565 -31.480  1.00  0.00    -0.369 OA
HETATM    8  C   UNL     1      -0.977   5.738 -30.671  1.00  0.00     0.149 C 
HETATM    9  C   UNL     1      -0.063   6.689 -31.477  1.00  0.00     0.264 C 
HETATM   10  N   UNL     1      -0.670   7.009 -32.834  1.00  0.00    -0.070 N 
HETATM   11  H   UNL     1      -1.343   7.782 -32.737  1.00  0.00     0.277 HD
HETATM   12  H   UNL     1       0.075   7.379 -33.445  1.00  0.00     0.277 HD
HETATM   13  C   UNL     1      -1.317   5.810 -33.516  1.00  0.00     0.273 C 
HETATM   14  C   UNL     1      -2.856   3.796 -33.107  1.00  0.00     0.148 C 
HETATM   15  C   UNL     1      -2.394   6.256 -30.449  1.00  0.00     0.058 C 
ENDROOT
BRANCH   1  16
HETATM   16  C   UNL     1      -4.872   2.435 -32.618  1.00  0.00     0.145 C 
BRANCH  16  17
HETATM   17  C   UNL     1      -4.410   1.012 -32.438  1.00  0.00    -0.044 A 
HETATM   18  C   UNL     1      -4.991  -0.025 -33.185  1.00  0.00     0.010 A 
HETATM   19  C   UNL     1      -4.565  -1.344 -33.019  1.00  0.00     0.024 A 
HETATM   20  C   UNL     1      -3.558  -1.636 -32.102  1.00  0.00     0.034 A 
HETATM   21  C   UNL     1      -2.975  -0.619 -31.348  1.00  0.00     0.024 A 
HETATM   22 CL   UNL     1      -3.031  -3.261 -31.900  1.00  0.00    -0.084 Cl
HETATM   23  C   UNL     1      -3.400   0.701 -31.514  1.00  0.00     0.010 A 
ENDBRANCH  16  17
ENDBRANCH   1  16
TORSDOF 2
ENDMDL
MODEL 6
REMARK VINA RESULT:      -6.9      3.096      4.153
REMARK  2 active torsions:
REMARK  status: ('A' for Active; 'I' for Inactive)
REMARK    1  A    between atoms: C_2  and  C_3 
REMARK    2  A    between atoms: C_3  and  N_4 
ROOT
HETATM    1  N   UNL     1      -9.169   1.668 -32.544  1.00  0.00    -0.203 NA
HETATM    2  S   UNL     1      -9.316   3.243 -31.917  1.00  0.00     0.219 S 
HETATM    3  O   UNL     1      -8.162   4.032 -32.258  1.00  0.00    -0.211 OA
HETATM    4  O   UNL     1      -9.823   3.123 -30.567  1.00  0.00    -0.211 OA
HETATM    5  C   UNL     1     -10.716   3.702 -32.910  1.00  0.00     0.164 C 
HETATM    6  C   UNL     1     -11.173   2.414 -33.601  1.00  0.00     0.116 C 
HETATM    7  O   UNL     1     -10.721   2.556 -34.972  1.00  0.00    -0.369 OA
HETATM    8  C   UNL     1     -10.984   3.936 -35.284  1.00  0.00     0.149 C 
HETATM    9  C   UNL     1     -12.508   4.070 -35.507  1.00  0.00     0.264 C 
HETATM   10  N   UNL     1     -13.282   3.581 -34.292  1.00  0.00    -0.070 N 
HETATM   11  H   UNL     1     -13.345   4.337 -33.596  1.00  0.00     0.277 HD
HETATM   12  H   UNL     1     -14.257   3.400 -34.578  1.00  0.00     0.277 HD
HETATM   13  C   UNL     1     -12.708   2.316 -33.666  1.00  0.00     0.273 C 
HETATM   14  C   UNL     1     -10.517   1.195 -32.938  1.00  0.00     0.148 C 
HETATM   15  C   UNL     1     -10.456   4.670 -34.055  1.00  0.00     0.058 C 
ENDROOT
BRANCH   1  16
HETATM   16  C   UNL     1      -8.423   0.699 -31.702  1.00  0.00     0.145 C 
BRANCH  16  17
HETATM   17  C   UNL     1      -7.423  -0.141 -32.454  1.00  0.00    -0.044 A 
HETATM   18  C   UNL     1      -6.135  -0.348 -31.935  1.00  0.00     0.010 A 
HETATM   19  C   UNL     1      -5.206  -1.125 -32.631  1.00  0.00     0.024 A 
HETATM   20  C   UNL     1      -5.559  -1.697 -33.851  1.00  0.00     0.034 A 
HETATM   21  C   UNL     1      -6.831  -1.496 -34.383  1.00  0.00     0.024 A 
HETATM   22 CL   UNL     1      -4.415  -2.656 -34.706  1.00  0.00    -0.084 Cl
HETATM   23  C   UNL     1      -7.760  -0.719 -33.687  1.00  0.00     0.010 A 
ENDBRANCH  16  17
ENDBRANCH   1  16
TORSDOF 2
ENDMDL
MODEL 7
REMARK VINA RESULT:      -6.9      3.271      4.607
REMARK  2 active torsions:
REMARK  status: ('A' for Active; 'I' for Inactive)
REMARK    1  A    between atoms: C_2  and  C_3 
REMARK    2  A    between atoms: C_3  and  N_4 
ROOT
HETATM    1  N   UNL     1      -3.895   2.801 -31.934  1.00  0.00    -0.203 NA
HETATM    2  S   UNL     1      -2.710   3.985 -32.234  1.00  0.00     0.219 S 
HETATM    3  O   UNL     1      -2.389   4.036 -33.635  1.00  0.00    -0.211 OA
HETATM    4  O   UNL     1      -1.709   3.863 -31.196  1.00  0.00    -0.211 OA
HETATM    5  C   UNL     1      -3.716   5.371 -31.761  1.00  0.00     0.164 C 
HETATM    6  C   UNL     1      -4.980   4.771 -31.138  1.00  0.00     0.116 C 
HETATM    7  O   UNL     1      -6.004   4.946 -32.151  1.00  0.00    -0.369 OA
HETATM    8  C   UNL     1      -5.747   6.259 -32.681  1.00  0.00     0.149 C 
HETATM    9  C   UNL     1      -6.253   7.278 -31.635  1.00  0.00     0.264 C 
HETATM   10  N   UNL     1      -5.592   7.048 -30.285  1.00  0.00    -0.070 N 
HETATM   11  H   UNL     1      -4.677   7.520 -30.263  1.00  0.00     0.277 HD
HETATM   12  H   UNL     1      -6.154   7.522 -29.561  1.00  0.00     0.277 HD
HETATM   13  C   UNL     1      -5.450   5.577 -29.913  1.00  0.00     0.273 C 
HETATM   14  C   UNL     1      -4.766   3.281 -30.836  1.00  0.00     0.148 C 
HETATM   15  C   UNL     1      -4.235   6.256 -32.885  1.00  0.00     0.058 C 
ENDROOT
BRANCH   1  16
HETATM   16  C   UNL     1      -3.397   1.417 -31.734  1.00  0.00     0.145 C 
BRANCH  16  17
HETATM   17  C   UNL     1      -4.146   0.366 -32.512  1.00  0.00    -0.044 A 
HETATM   18  C   UNL     1      -5.350   0.683 -33.160  1.00  0.00     0.010 A 
HETATM   19  C   UNL     1      -6.045  -0.290 -33.880  1.00  0.00     0.024 A 
HETATM   20  C   UNL     1      -5.543  -1.587 -33.955  1.00  0.00     0.034 A 
HETATM   21  C   UNL     1      -4.352  -1.920 -33.313  1.00  0.00     0.024 A 
HETATM   22 CL   UNL     1      -6.399  -2.785 -34.846  1.00  0.00    -0.084 Cl
HETATM   23  C   UNL     1      -3.655  -0.947 -32.592  1.00  0.00     0.010 A 
ENDBRANCH  16  17
ENDBRANCH   1  16
TORSDOF 2
ENDMDL
MODEL 8
REMARK VINA RESULT:      -6.9      3.686      6.390
REMARK  2 active torsions:
REMARK  status: ('A' for Active; 'I' for Inactive)
REMARK    1  A    between atoms: C_2  and  C_3 
REMARK    2  A    between atoms: C_3  and  N_4 
ROOT
HETATM    1  N   UNL     1      -5.602   1.678 -32.194  1.00  0.00    -0.203 NA
HETATM    2  S   UNL     1      -6.713   0.672 -31.387  1.00  0.00     0.219 S 
HETATM    3  O   UNL     1      -8.053   1.171 -31.543  1.00  0.00    -0.211 OA
HETATM    4  O   UNL     1      -6.136   0.339 -30.102  1.00  0.00    -0.211 OA
HETATM    5  C   UNL     1      -6.442  -0.755 -32.411  1.00  0.00     0.164 C 
HETATM    6  C   UNL     1      -5.235  -0.410 -33.288  1.00  0.00     0.116 C 
HETATM    7  O   UNL     1      -5.801  -0.135 -34.596  1.00  0.00    -0.369 OA
HETATM    8  C   UNL     1      -6.823  -1.138 -34.750  1.00  0.00     0.149 C 
HETATM    9  C   UNL     1      -6.107  -2.472 -35.062  1.00  0.00     0.264 C 
HETATM   10  N   UNL     1      -5.099  -2.817 -33.976  1.00  0.00    -0.070 N 
HETATM   11  H   UNL     1      -5.580  -3.289 -33.198  1.00  0.00     0.277 HD
HETATM   12  H   UNL     1      -4.445  -3.522 -34.351  1.00  0.00     0.277 HD
HETATM   13  C   UNL     1      -4.302  -1.620 -33.474  1.00  0.00     0.273 C 
HETATM   14  C   UNL     1      -4.516   0.830 -32.739  1.00  0.00     0.148 C 
HETATM   15  C   UNL     1      -7.541  -1.103 -33.405  1.00  0.00     0.058 C 
ENDROOT
BRANCH   1  16
HETATM   16  C   UNL     1      -5.111   2.851 -31.429  1.00  0.00     0.145 C 
BRANCH  16  17
HETATM   17  C   UNL     1      -4.111   3.703 -32.168  1.00  0.00    -0.044 A 
HETATM   18  C   UNL     1      -2.786   3.800 -31.714  1.00  0.00     0.010 A 
HETATM   19  C   UNL     1      -1.858   4.589 -32.396  1.00  0.00     0.024 A 
HETATM   20  C   UNL     1      -2.250   5.289 -33.535  1.00  0.00     0.034 A 
HETATM   21  C   UNL     1      -3.563   5.209 -33.995  1.00  0.00     0.024 A 
HETATM   22 CL   UNL     1      -1.106   6.259 -34.377  1.00  0.00    -0.084 Cl
HETATM   23  C   UNL     1      -4.492   4.419 -33.313  1.00  0.00     0.010 A 
ENDBRANCH  16  17
ENDBRANCH   1  16
TORSDOF 2
ENDMDL
MODEL 9
REMARK VINA RESULT:      -6.8      5.476      8.383
REMARK  2 active torsions:
REMARK  status: ('A' for Active; 'I' for Inactive)
REMARK    1  A    between atoms: C_2  and  C_3 
REMARK    2  A    between atoms: C_3  and  N_4 
ROOT
HETATM    1  N   UNL     1      -3.416   5.850 -32.228  1.00  0.00    -0.203 NA
HETATM    2  S   UNL     1      -2.736   4.324 -32.551  1.00  0.00     0.219 S 
HETATM    3  O   UNL     1      -2.042   3.825 -31.394  1.00  0.00    -0.211 OA
HETATM    4  O   UNL     1      -2.137   4.391 -33.867  1.00  0.00    -0.211 OA
HETATM    5  C   UNL     1      -4.284   3.481 -32.777  1.00  0.00     0.164 C 
HETATM    6  C   UNL     1      -5.353   4.577 -32.794  1.00  0.00     0.116 C 
HETATM    7  O   UNL     1      -6.000   4.476 -31.499  1.00  0.00    -0.369 OA
HETATM    8  C   UNL     1      -6.107   3.058 -31.275  1.00  0.00     0.149 C 
HETATM    9  C   UNL     1      -7.257   2.543 -32.171  1.00  0.00     0.264 C 
HETATM   10  N   UNL     1      -7.010   2.892 -33.630  1.00  0.00    -0.070 N 
HETATM   11  H   UNL     1      -6.397   2.183 -34.056  1.00  0.00     0.277 HD
HETATM   12  H   UNL     1      -7.904   2.812 -34.140  1.00  0.00     0.277 HD
HETATM   13  C   UNL     1      -6.446   4.292 -33.840  1.00  0.00     0.273 C 
HETATM   14  C   UNL     1      -4.697   5.955 -32.965  1.00  0.00     0.148 C 
HETATM   15  C   UNL     1      -4.724   2.545 -31.661  1.00  0.00     0.058 C 
ENDROOT
BRANCH   1  16
HETATM   16  C   UNL     1      -2.521   7.017 -32.427  1.00  0.00     0.145 C 
BRANCH  16  17
HETATM   17  C   UNL     1      -1.574   7.280 -31.284  1.00  0.00    -0.044 A 
HETATM   18  C   UNL     1      -2.003   7.995 -30.154  1.00  0.00     0.010 A 
HETATM   19  C   UNL     1      -1.127   8.239 -29.094  1.00  0.00     0.024 A 
HETATM   20  C   UNL     1       0.184   7.773 -29.159  1.00  0.00     0.034 A 
HETATM   21  C   UNL     1       0.627   7.067 -30.275  1.00  0.00     0.024 A 
HETATM   22 CL   UNL     1       1.262   8.072 -27.852  1.00  0.00    -0.084 Cl
HETATM   23  C   UNL     1      -0.249   6.822 -31.336  1.00  0.00     0.010 A 
ENDBRANCH  16  17
ENDBRANCH   1  16
TORSDOF 2
ENDMDL
MODEL 10
REMARK VINA RESULT:      -6.6      4.538      5.561
REMARK  2 active torsions:
REMARK  status: ('A' for Active; 'I' for Inactive)
REMARK    1  A    between atoms: C_2  and  C_3 
REMARK    2  A    between atoms: C_3  and  N_4 
ROOT
HETATM    1  N   UNL     1     -11.375   2.008 -33.833  1.00  0.00    -0.203 NA
HETATM    2  S   UNL     1     -12.888   1.321 -34.202  1.00  0.00     0.219 S 
HETATM    3  O   UNL     1     -13.090   0.111 -33.451  1.00  0.00    -0.211 OA
HETATM    4  O   UNL     1     -13.057   1.401 -35.637  1.00  0.00    -0.211 OA
HETATM    5  C   UNL     1     -13.858   2.652 -33.536  1.00  0.00     0.164 C 
HETATM    6  C   UNL     1     -12.861   3.768 -33.211  1.00  0.00     0.116 C 
HETATM    7  O   UNL     1     -12.734   3.734 -31.766  1.00  0.00    -0.369 OA
HETATM    8  C   UNL     1     -14.078   3.508 -31.304  1.00  0.00     0.149 C 
HETATM    9  C   UNL     1     -14.842   4.843 -31.457  1.00  0.00     0.264 C 
HETATM   10  N   UNL     1     -14.788   5.341 -32.893  1.00  0.00    -0.070 N 
HETATM   11  H   UNL     1     -15.528   4.886 -33.444  1.00  0.00     0.277 HD
HETATM   12  H   UNL     1     -15.030   6.344 -32.899  1.00  0.00     0.277 HD
HETATM   13  C   UNL     1     -13.428   5.157 -33.556  1.00  0.00     0.273 C 
HETATM   14  C   UNL     1     -11.509   3.483 -33.880  1.00  0.00     0.148 C 
HETATM   15  C   UNL     1     -14.568   2.388 -32.216  1.00  0.00     0.058 C 
ENDROOT
BRANCH   1  16
HETATM   16  C   UNL     1     -10.219   1.493 -34.608  1.00  0.00     0.145 C 
BRANCH  16  17
HETATM   17  C   UNL     1      -9.071   1.002 -33.764  1.00  0.00    -0.044 A 
HETATM   18  C   UNL     1      -9.193   0.934 -32.367  1.00  0.00     0.010 A 
HETATM   19  C   UNL     1      -8.130   0.480 -31.583  1.00  0.00     0.024 A 
HETATM   20  C   UNL     1      -6.938   0.095 -32.191  1.00  0.00     0.034 A 
HETATM   21  C   UNL     1      -6.798   0.163 -33.576  1.00  0.00     0.024 A 
HETATM   22 CL   UNL     1      -5.629  -0.466 -31.225  1.00  0.00    -0.084 Cl
HETATM   23  C   UNL     1      -7.861   0.617 -34.360  1.00  0.00     0.010 A 
ENDBRANCH  16  17
ENDBRANCH   1  16
TORSDOF 2
ENDMDL
