MODEL 1
REMARK VINA RESULT:      -9.1      0.000      0.000
REMARK  7 active torsions:
REMARK  status: ('A' for Active; 'I' for Inactive)
REMARK    1  A    between atoms: C_2  and  C_3 
REMARK       I    between atoms: C_3  and  N_4 
REMARK    2  A    between atoms: N_4  and  N_5 
REMARK       I    between atoms: N_5  and  C_6 
REMARK    3  A    between atoms: C_6  and  C_7 
REMARK    4  A    between atoms: C_7  and  C_8 
REMARK    5  A    between atoms: C_8  and  C_9 
REMARK       I    between atoms: C_9  and  N_10 
REMARK    6  A    between atoms: N_10  and  C_11 
REMARK    7  A    between atoms: C_11  and  C_12 
ROOT
HETATM    1  C   UNL     1      -3.152   3.314 -32.430  1.00  0.00     0.114 C 
ENDROOT
BRANCH   1   2
HETATM    2  C   UNL     1      -2.792   4.503 -31.573  1.00  0.00     0.236 C 
HETATM    3  N   UNL     1      -1.509   4.499 -31.080  1.00  0.00    -0.267 N 
HETATM    4  H   UNL     1      -0.910   3.673 -31.085  1.00  0.00     0.190 HD
HETATM    5  O   UNL     1      -3.614   5.377 -31.294  1.00  0.00    -0.272 OA
BRANCH   3   6
HETATM    6  N   UNL     1      -1.154   5.503 -30.171  1.00  0.00    -0.263 N 
HETATM    7  C   UNL     1       0.082   5.416 -29.561  1.00  0.00     0.270 C 
HETATM    8  O   UNL     1       0.881   4.519 -29.819  1.00  0.00    -0.266 OA
HETATM    9  H   UNL     1      -1.920   6.067 -29.805  1.00  0.00     0.190 HD
BRANCH   7  10
HETATM   10  C   UNL     1       0.402   6.464 -28.551  1.00  0.00     0.033 A 
HETATM   11  C   UNL     1       0.154   6.183 -27.199  1.00  0.00     0.018 A 
HETATM   12  C   UNL     1       0.462   7.126 -26.214  1.00  0.00     0.020 A 
HETATM   13  C   UNL     1       1.027   8.346 -26.579  1.00  0.00     0.011 A 
HETATM   14  C   UNL     1       1.289   8.632 -27.919  1.00  0.00     0.020 A 
HETATM   15 BR   UNL     1       1.456   9.618 -25.249  1.00  0.00    -0.051 Br
HETATM   16  C   UNL     1       0.980   7.691 -28.906  1.00  0.00     0.018 A 
ENDBRANCH   7  10
ENDBRANCH   3   6
ENDBRANCH   1   2
BRANCH   1  17
HETATM   17  C   UNL     1      -3.983   2.326 -31.626  1.00  0.00     0.112 C 
BRANCH  17  18
HETATM   18  C   UNL     1      -5.214   1.855 -32.376  1.00  0.00     0.218 C 
HETATM   19  N   UNL     1      -5.034   0.716 -33.118  1.00  0.00    -0.357 N 
HETATM   20  H   UNL     1      -4.248   0.103 -32.910  1.00  0.00     0.162 HD
HETATM   21  O   UNL     1      -6.265   2.489 -32.351  1.00  0.00    -0.274 OA
BRANCH  19  22
HETATM   22  C   UNL     1      -6.101   0.145 -33.905  1.00  0.00     0.161 C 
BRANCH  22  23
HETATM   23  C   UNL     1      -5.880  -1.336 -34.080  1.00  0.00    -0.038 A 
HETATM   24  C   UNL     1      -4.674  -1.934 -33.682  1.00  0.00     0.048 A 
HETATM   25  C   UNL     1      -4.521  -3.288 -33.894  1.00  0.00     0.105 A 
HETATM   26  C   UNL     1      -5.509  -4.049 -34.475  1.00  0.00     0.105 A 
HETATM   27  O   UNL     1      -3.422  -4.023 -33.575  1.00  0.00    -0.323 OA
HETATM   28  O   UNL     1      -5.154  -5.357 -34.598  1.00  0.00    -0.323 OA
HETATM   29  C   UNL     1      -6.706  -3.502 -34.876  1.00  0.00     0.040 A 
HETATM   30  C   UNL     1      -3.832  -5.333 -34.018  1.00  0.00     0.352 A 
HETATM   31  C   UNL     1      -6.891  -2.131 -34.673  1.00  0.00     0.012 A 
ENDBRANCH  22  23
ENDBRANCH  19  22
ENDBRANCH  17  18
ENDBRANCH   1  17
TORSDOF 7
ENDMDL
MODEL 2
REMARK VINA RESULT:      -8.9      1.259      1.850
REMARK  7 active torsions:
REMARK  status: ('A' for Active; 'I' for Inactive)
REMARK    1  A    between atoms: C_2  and  C_3 
REMARK       I    between atoms: C_3  and  N_4 
REMARK    2  A    between atoms: N_4  and  N_5 
REMARK       I    between atoms: N_5  and  C_6 
REMARK    3  A    between atoms: C_6  and  C_7 
REMARK    4  A    between atoms: C_7  and  C_8 
REMARK    5  A    between atoms: C_8  and  C_9 
REMARK       I    between atoms: C_9  and  N_10 
REMARK    6  A    between atoms: N_10  and  C_11 
REMARK    7  A    between atoms: C_11  and  C_12 
ROOT
HETATM    1  C   UNL     1      -2.244   4.189 -33.220  1.00  0.00     0.114 C 
ENDROOT
BRANCH   1   2
HETATM    2  C   UNL     1      -1.622   5.193 -32.279  1.00  0.00     0.236 C 
HETATM    3  N   UNL     1      -1.599   4.817 -30.958  1.00  0.00    -0.267 N 
HETATM    4  H   UNL     1      -2.150   4.043 -30.587  1.00  0.00     0.190 HD
HETATM    5  O   UNL     1      -1.221   6.290 -32.671  1.00  0.00    -0.272 OA
BRANCH   3   6
HETATM    6  N   UNL     1      -1.158   5.757 -30.018  1.00  0.00    -0.263 N 
HETATM    7  C   UNL     1       0.077   5.556 -29.434  1.00  0.00     0.270 C 
HETATM    8  O   UNL     1       0.804   4.613 -29.739  1.00  0.00    -0.266 OA
HETATM    9  H   UNL     1      -1.874   6.360 -29.618  1.00  0.00     0.190 HD
BRANCH   7  10
HETATM   10  C   UNL     1       0.489   6.538 -28.391  1.00  0.00     0.033 A 
HETATM   11  C   UNL     1       1.040   7.759 -28.806  1.00  0.00     0.018 A 
HETATM   12  C   UNL     1       1.416   8.720 -27.863  1.00  0.00     0.020 A 
HETATM   13  C   UNL     1       1.234   8.465 -26.506  1.00  0.00     0.011 A 
HETATM   14  C   UNL     1       0.676   7.259 -26.082  1.00  0.00     0.020 A 
HETATM   15 BR   UNL     1       1.730   9.767 -25.229  1.00  0.00    -0.051 Br
HETATM   16  C   UNL     1       0.300   6.295 -27.023  1.00  0.00     0.018 A 
ENDBRANCH   7  10
ENDBRANCH   3   6
ENDBRANCH   1   2
BRANCH   1  17
HETATM   17  C   UNL     1      -3.760   4.230 -33.097  1.00  0.00     0.112 C 
BRANCH  17  18
HETATM   18  C   UNL     1      -4.313   3.046 -32.329  1.00  0.00     0.218 C 
HETATM   19  N   UNL     1      -5.541   2.608 -32.756  1.00  0.00    -0.357 N 
HETATM   20  H   UNL     1      -5.866   2.862 -33.687  1.00  0.00     0.162 HD
HETATM   21  O   UNL     1      -3.719   2.565 -31.368  1.00  0.00    -0.274 OA
BRANCH  19  22
HETATM   22  C   UNL     1      -6.216   1.502 -32.121  1.00  0.00     0.161 C 
BRANCH  22  23
HETATM   23  C   UNL     1      -6.029   0.245 -32.933  1.00  0.00    -0.038 A 
HETATM   24  C   UNL     1      -5.002  -0.660 -32.629  1.00  0.00     0.048 A 
HETATM   25  C   UNL     1      -4.865  -1.777 -33.427  1.00  0.00     0.105 A 
HETATM   26  C   UNL     1      -5.699  -2.015 -34.494  1.00  0.00     0.105 A 
HETATM   27  O   UNL     1      -3.925  -2.749 -33.277  1.00  0.00    -0.323 OA
HETATM   28  O   UNL     1      -5.388  -3.165 -35.151  1.00  0.00    -0.323 OA
HETATM   29  C   UNL     1      -6.720  -1.153 -34.823  1.00  0.00     0.040 A 
HETATM   30  C   UNL     1      -4.267  -3.628 -34.370  1.00  0.00     0.352 A 
HETATM   31  C   UNL     1      -6.885  -0.013 -34.032  1.00  0.00     0.012 A 
ENDBRANCH  22  23
ENDBRANCH  19  22
ENDBRANCH  17  18
ENDBRANCH   1  17
TORSDOF 7
ENDMDL
MODEL 3
REMARK VINA RESULT:      -8.7      5.768      9.886
REMARK  7 active torsions:
REMARK  status: ('A' for Active; 'I' for Inactive)
REMARK    1  A    between atoms: C_2  and  C_3 
REMARK       I    between atoms: C_3  and  N_4 
REMARK    2  A    between atoms: N_4  and  N_5 
REMARK       I    between atoms: N_5  and  C_6 
REMARK    3  A    between atoms: C_6  and  C_7 
REMARK    4  A    between atoms: C_7  and  C_8 
REMARK    5  A    between atoms: C_8  and  C_9 
REMARK       I    between atoms: C_9  and  N_10 
REMARK    6  A    between atoms: N_10  and  C_11 
REMARK    7  A    between atoms: C_11  and  C_12 
ROOT
HETATM    1  C   UNL     1     -11.134   2.582 -34.507  1.00  0.00     0.114 C 
ENDROOT
BRANCH   1   2
HETATM    2  C   UNL     1     -10.218   1.445 -34.124  1.00  0.00     0.236 C 
HETATM    3  N   UNL     1      -9.141   1.258 -34.958  1.00  0.00    -0.267 N 
HETATM    4  H   UNL     1      -9.070   1.682 -35.883  1.00  0.00     0.190 HD
HETATM    5  O   UNL     1     -10.459   0.710 -33.166  1.00  0.00    -0.272 OA
BRANCH   3   6
HETATM    6  N   UNL     1      -8.328   0.140 -34.735  1.00  0.00    -0.263 N 
HETATM    7  C   UNL     1      -7.016   0.358 -34.366  1.00  0.00     0.270 C 
HETATM    8  O   UNL     1      -6.560   1.486 -34.193  1.00  0.00    -0.266 OA
HETATM    9  H   UNL     1      -8.660  -0.740 -35.126  1.00  0.00     0.190 HD
BRANCH   7  10
HETATM   10  C   UNL     1      -6.160  -0.851 -34.201  1.00  0.00     0.033 A 
HETATM   11  C   UNL     1      -6.598  -2.059 -34.763  1.00  0.00     0.018 A 
HETATM   12  C   UNL     1      -5.816  -3.212 -34.655  1.00  0.00     0.020 A 
HETATM   13  C   UNL     1      -4.592  -3.157 -33.992  1.00  0.00     0.011 A 
HETATM   14  C   UNL     1      -4.141  -1.959 -33.439  1.00  0.00     0.020 A 
HETATM   15 BR   UNL     1      -3.526  -4.712 -33.856  1.00  0.00    -0.051 Br
HETATM   16  C   UNL     1      -4.922  -0.804 -33.545  1.00  0.00     0.018 A 
ENDBRANCH   7  10
ENDBRANCH   3   6
ENDBRANCH   1   2
BRANCH   1  17
HETATM   17  C   UNL     1     -10.332   3.864 -34.673  1.00  0.00     0.112 C 
BRANCH  17  18
HETATM   18  C   UNL     1      -9.653   4.296 -33.388  1.00  0.00     0.218 C 
HETATM   19  N   UNL     1      -8.284   4.224 -33.410  1.00  0.00    -0.357 N 
HETATM   20  H   UNL     1      -7.799   4.191 -34.306  1.00  0.00     0.162 HD
HETATM   21  O   UNL     1     -10.298   4.628 -32.398  1.00  0.00    -0.274 OA
BRANCH  19  22
HETATM   22  C   UNL     1      -7.485   4.581 -32.263  1.00  0.00     0.161 C 
BRANCH  22  23
HETATM   23  C   UNL     1      -6.021   4.555 -32.622  1.00  0.00    -0.038 A 
HETATM   24  C   UNL     1      -5.563   5.144 -33.810  1.00  0.00     0.048 A 
HETATM   25  C   UNL     1      -4.216   5.063 -34.097  1.00  0.00     0.105 A 
HETATM   26  C   UNL     1      -3.331   4.427 -33.258  1.00  0.00     0.105 A 
HETATM   27  O   UNL     1      -3.607   5.573 -35.202  1.00  0.00    -0.323 OA
HETATM   28  O   UNL     1      -2.055   4.454 -33.729  1.00  0.00    -0.323 OA
HETATM   29  C   UNL     1      -3.740   3.839 -32.083  1.00  0.00     0.040 A 
HETATM   30  C   UNL     1      -2.237   5.189 -34.958  1.00  0.00     0.352 A 
HETATM   31  C   UNL     1      -5.099   3.908 -31.764  1.00  0.00     0.012 A 
ENDBRANCH  22  23
ENDBRANCH  19  22
ENDBRANCH  17  18
ENDBRANCH   1  17
TORSDOF 7
ENDMDL
MODEL 4
REMARK VINA RESULT:      -8.7      1.953      3.053
REMARK  7 active torsions:
REMARK  status: ('A' for Active; 'I' for Inactive)
REMARK    1  A    between atoms: C_2  and  C_3 
REMARK       I    between atoms: C_3  and  N_4 
REMARK    2  A    between atoms: N_4  and  N_5 
REMARK       I    between atoms: N_5  and  C_6 
REMARK    3  A    between atoms: C_6  and  C_7 
REMARK    4  A    between atoms: C_7  and  C_8 
REMARK    5  A    between atoms: C_8  and  C_9 
REMARK       I    between atoms: C_9  and  N_10 
REMARK    6  A    between atoms: N_10  and  C_11 
REMARK    7  A    between atoms: C_11  and  C_12 
ROOT
HETATM    1  C   UNL     1      -2.076   6.443 -34.190  1.00  0.00     0.114 C 
ENDROOT
BRANCH   1   2
HETATM    2  C   UNL     1      -1.455   7.204 -33.043  1.00  0.00     0.236 C 
HETATM    3  N   UNL     1      -0.649   6.457 -32.217  1.00  0.00    -0.267 N 
HETATM    4  H   UNL     1      -0.639   5.437 -32.218  1.00  0.00     0.190 HD
HETATM    5  O   UNL     1      -1.706   8.392 -32.840  1.00  0.00    -0.272 OA
BRANCH   3   6
HETATM    6  N   UNL     1      -0.151   7.071 -31.061  1.00  0.00    -0.263 N 
HETATM    7  C   UNL     1      -0.000   6.294 -29.930  1.00  0.00     0.270 C 
HETATM    8  O   UNL     1      -0.251   5.091 -29.920  1.00  0.00    -0.266 OA
HETATM    9  H   UNL     1      -0.199   8.088 -31.038  1.00  0.00     0.190 HD
BRANCH   7  10
HETATM   10  C   UNL     1       0.469   6.991 -28.700  1.00  0.00     0.033 A 
HETATM   11  C   UNL     1       0.187   6.409 -27.455  1.00  0.00     0.018 A 
HETATM   12  C   UNL     1       0.630   7.014 -26.276  1.00  0.00     0.020 A 
HETATM   13  C   UNL     1       1.363   8.198 -26.340  1.00  0.00     0.011 A 
HETATM   14  C   UNL     1       1.660   8.780 -27.572  1.00  0.00     0.020 A 
HETATM   15 BR   UNL     1       1.974   9.012 -24.748  1.00  0.00    -0.051 Br
HETATM   16  C   UNL     1       1.217   8.176 -28.753  1.00  0.00     0.018 A 
ENDBRANCH   7  10
ENDBRANCH   3   6
ENDBRANCH   1   2
BRANCH   1  17
HETATM   17  C   UNL     1      -1.911   4.947 -33.972  1.00  0.00     0.112 C 
BRANCH  17  18
HETATM   18  C   UNL     1      -3.114   4.322 -33.293  1.00  0.00     0.218 C 
HETATM   19  N   UNL     1      -2.812   3.394 -32.329  1.00  0.00    -0.357 N 
HETATM   20  H   UNL     1      -1.881   3.387 -31.916  1.00  0.00     0.162 HD
HETATM   21  O   UNL     1      -4.261   4.598 -33.632  1.00  0.00    -0.274 OA
BRANCH  19  22
HETATM   22  C   UNL     1      -3.842   2.692 -31.600  1.00  0.00     0.161 C 
BRANCH  22  23
HETATM   23  C   UNL     1      -3.965   1.278 -32.109  1.00  0.00    -0.038 A 
HETATM   24  C   UNL     1      -4.969   0.930 -33.024  1.00  0.00     0.048 A 
HETATM   25  C   UNL     1      -5.047  -0.386 -33.431  1.00  0.00     0.105 A 
HETATM   26  C   UNL     1      -4.178  -1.344 -32.965  1.00  0.00     0.105 A 
HETATM   27  O   UNL     1      -5.958  -0.894 -34.305  1.00  0.00    -0.323 OA
HETATM   28  O   UNL     1      -4.433  -2.575 -33.484  1.00  0.00    -0.323 OA
HETATM   29  C   UNL     1      -3.178  -1.042 -32.069  1.00  0.00     0.040 A 
HETATM   30  C   UNL     1      -5.557  -2.280 -34.339  1.00  0.00     0.352 A 
HETATM   31  C   UNL     1      -3.072   0.284 -31.640  1.00  0.00     0.012 A 
ENDBRANCH  22  23
ENDBRANCH  19  22
ENDBRANCH  17  18
ENDBRANCH   1  17
TORSDOF 7
ENDMDL
MODEL 5
REMARK VINA RESULT:      -8.6      6.063      9.282
REMARK  7 active torsions:
REMARK  status: ('A' for Active; 'I' for Inactive)
REMARK    1  A    between atoms: C_2  and  C_3 
REMARK       I    between atoms: C_3  and  N_4 
REMARK    2  A    between atoms: N_4  and  N_5 
REMARK       I    between atoms: N_5  and  C_6 
REMARK    3  A    between atoms: C_6  and  C_7 
REMARK    4  A    between atoms: C_7  and  C_8 
REMARK    5  A    between atoms: C_8  and  C_9 
REMARK       I    between atoms: C_9  and  N_10 
REMARK    6  A    between atoms: N_10  and  C_11 
REMARK    7  A    between atoms: C_11  and  C_12 
ROOT
HETATM    1  C   UNL     1     -10.902   2.813 -34.356  1.00  0.00     0.114 C 
ENDROOT
BRANCH   1   2
HETATM    2  C   UNL     1      -9.984   1.678 -33.970  1.00  0.00     0.236 C 
HETATM    3  N   UNL     1      -9.134   1.254 -34.963  1.00  0.00    -0.267 N 
HETATM    4  H   UNL     1      -9.249   1.506 -35.945  1.00  0.00     0.190 HD
HETATM    5  O   UNL     1     -10.043   1.142 -32.863  1.00  0.00    -0.272 OA
BRANCH   3   6
HETATM    6  N   UNL     1      -8.352   0.119 -34.713  1.00  0.00    -0.263 N 
HETATM    7  C   UNL     1      -6.990   0.293 -34.568  1.00  0.00     0.270 C 
HETATM    8  O   UNL     1      -6.458   1.400 -34.612  1.00  0.00    -0.266 OA
HETATM    9  H   UNL     1      -8.781  -0.778 -34.933  1.00  0.00     0.190 HD
BRANCH   7  10
HETATM   10  C   UNL     1      -6.178  -0.942 -34.368  1.00  0.00     0.033 A 
HETATM   11  C   UNL     1      -6.721  -2.169 -34.777  1.00  0.00     0.018 A 
HETATM   12  C   UNL     1      -5.986  -3.349 -34.633  1.00  0.00     0.020 A 
HETATM   13  C   UNL     1      -4.704  -3.302 -34.088  1.00  0.00     0.011 A 
HETATM   14  C   UNL     1      -4.150  -2.086 -33.689  1.00  0.00     0.020 A 
HETATM   15 BR   UNL     1      -3.703  -4.894 -33.904  1.00  0.00    -0.051 Br
HETATM   16  C   UNL     1      -4.884  -0.905 -33.831  1.00  0.00     0.018 A 
ENDBRANCH   7  10
ENDBRANCH   3   6
ENDBRANCH   1   2
BRANCH   1  17
HETATM   17  C   UNL     1     -10.089   4.066 -34.644  1.00  0.00     0.112 C 
BRANCH  17  18
HETATM   18  C   UNL     1      -9.278   4.521 -33.446  1.00  0.00     0.218 C 
HETATM   19  N   UNL     1      -7.924   4.350 -33.570  1.00  0.00    -0.357 N 
HETATM   20  H   UNL     1      -7.517   4.231 -34.497  1.00  0.00     0.162 HD
HETATM   21  O   UNL     1      -9.817   4.956 -32.432  1.00  0.00    -0.274 OA
BRANCH  19  22
HETATM   22  C   UNL     1      -7.011   4.716 -32.513  1.00  0.00     0.161 C 
BRANCH  22  23
HETATM   23  C   UNL     1      -6.333   3.485 -31.966  1.00  0.00    -0.038 A 
HETATM   24  C   UNL     1      -4.945   3.318 -32.083  1.00  0.00     0.048 A 
HETATM   25  C   UNL     1      -4.387   2.158 -31.587  1.00  0.00     0.105 A 
HETATM   26  C   UNL     1      -5.151   1.180 -30.993  1.00  0.00     0.105 A 
HETATM   27  O   UNL     1      -3.067   1.833 -31.622  1.00  0.00    -0.323 OA
HETATM   28  O   UNL     1      -4.408   0.118 -30.581  1.00  0.00    -0.323 OA
HETATM   29  C   UNL     1      -6.514   1.308 -30.857  1.00  0.00     0.040 A 
HETATM   30  C   UNL     1      -3.087   0.543 -30.976  1.00  0.00     0.352 A 
HETATM   31  C   UNL     1      -7.108   2.474 -31.347  1.00  0.00     0.012 A 
ENDBRANCH  22  23
ENDBRANCH  19  22
ENDBRANCH  17  18
ENDBRANCH   1  17
TORSDOF 7
ENDMDL
MODEL 6
REMARK VINA RESULT:      -8.5      4.351     11.069
REMARK  7 active torsions:
REMARK  status: ('A' for Active; 'I' for Inactive)
REMARK    1  A    between atoms: C_2  and  C_3 
REMARK       I    between atoms: C_3  and  N_4 
REMARK    2  A    between atoms: N_4  and  N_5 
REMARK       I    between atoms: N_5  and  C_6 
REMARK    3  A    between atoms: C_6  and  C_7 
REMARK    4  A    between atoms: C_7  and  C_8 
REMARK    5  A    between atoms: C_8  and  C_9 
REMARK       I    between atoms: C_9  and  N_10 
REMARK    6  A    between atoms: N_10  and  C_11 
REMARK    7  A    between atoms: C_11  and  C_12 
ROOT
HETATM    1  C   UNL     1      -3.777   5.346 -32.617  1.00  0.00     0.114 C 
ENDROOT
BRANCH   1   2
HETATM    2  C   UNL     1      -4.539   4.165 -33.169  1.00  0.00     0.236 C 
HETATM    3  N   UNL     1      -4.367   2.988 -32.480  1.00  0.00    -0.267 N 
HETATM    4  H   UNL     1      -3.623   2.842 -31.798  1.00  0.00     0.190 HD
HETATM    5  O   UNL     1      -5.214   4.249 -34.195  1.00  0.00    -0.272 OA
BRANCH   3   6
HETATM    6  N   UNL     1      -4.939   1.828 -33.017  1.00  0.00    -0.263 N 
HETATM    7  C   UNL     1      -4.298   0.626 -32.788  1.00  0.00     0.270 C 
HETATM    8  O   UNL     1      -3.280   0.543 -32.105  1.00  0.00    -0.266 OA
HETATM    9  H   UNL     1      -5.615   1.967 -33.766  1.00  0.00     0.190 HD
BRANCH   7  10
HETATM   10  C   UNL     1      -4.895  -0.580 -33.427  1.00  0.00     0.033 A 
HETATM   11  C   UNL     1      -4.088  -1.715 -33.594  1.00  0.00     0.018 A 
HETATM   12  C   UNL     1      -4.612  -2.877 -34.166  1.00  0.00     0.020 A 
HETATM   13  C   UNL     1      -5.948  -2.909 -34.563  1.00  0.00     0.011 A 
HETATM   14  C   UNL     1      -6.764  -1.791 -34.392  1.00  0.00     0.020 A 
HETATM   15 BR   UNL     1      -6.663  -4.484 -35.325  1.00  0.00    -0.051 Br
HETATM   16  C   UNL     1      -6.240  -0.627 -33.822  1.00  0.00     0.018 A 
ENDBRANCH   7  10
ENDBRANCH   3   6
ENDBRANCH   1   2
BRANCH   1  17
HETATM   17  C   UNL     1      -2.985   6.019 -33.727  1.00  0.00     0.112 C 
BRANCH  17  18
HETATM   18  C   UNL     1      -1.817   6.830 -33.199  1.00  0.00     0.218 C 
HETATM   19  N   UNL     1      -1.103   6.224 -32.198  1.00  0.00    -0.357 N 
HETATM   20  H   UNL     1      -1.175   5.216 -32.072  1.00  0.00     0.162 HD
HETATM   21  O   UNL     1      -1.580   7.962 -33.612  1.00  0.00    -0.274 OA
BRANCH  19  22
HETATM   22  C   UNL     1       0.028   6.868 -31.573  1.00  0.00     0.161 C 
BRANCH  22  23
HETATM   23  C   UNL     1      -0.264   7.129 -30.117  1.00  0.00    -0.038 A 
HETATM   24  C   UNL     1      -1.559   6.965 -29.604  1.00  0.00     0.048 A 
HETATM   25  C   UNL     1      -1.769   7.246 -28.270  1.00  0.00     0.105 A 
HETATM   26  C   UNL     1      -0.752   7.677 -27.450  1.00  0.00     0.105 A 
HETATM   27  O   UNL     1      -2.956   7.145 -27.614  1.00  0.00    -0.323 OA
HETATM   28  O   UNL     1      -1.172   7.904 -26.176  1.00  0.00    -0.323 OA
HETATM   29  C   UNL     1       0.532   7.848 -27.914  1.00  0.00     0.040 A 
HETATM   30  C   UNL     1      -2.569   7.557 -26.286  1.00  0.00     0.352 A 
HETATM   31  C   UNL     1       0.776   7.568 -29.261  1.00  0.00     0.012 A 
ENDBRANCH  22  23
ENDBRANCH  19  22
ENDBRANCH  17  18
ENDBRANCH   1  17
TORSDOF 7
ENDMDL
MODEL 7
REMARK VINA RESULT:      -8.4      1.575      1.878
REMARK  7 active torsions:
REMARK  status: ('A' for Active; 'I' for Inactive)
REMARK    1  A    between atoms: C_2  and  C_3 
REMARK       I    between atoms: C_3  and  N_4 
REMARK    2  A    between atoms: N_4  and  N_5 
REMARK       I    between atoms: N_5  and  C_6 
REMARK    3  A    between atoms: C_6  and  C_7 
REMARK    4  A    between atoms: C_7  and  C_8 
REMARK    5  A    between atoms: C_8  and  C_9 
REMARK       I    between atoms: C_9  and  N_10 
REMARK    6  A    between atoms: N_10  and  C_11 
REMARK    7  A    between atoms: C_11  and  C_12 
ROOT
HETATM    1  C   UNL     1      -4.516   4.851 -31.914  1.00  0.00     0.114 C 
ENDROOT
BRANCH   1   2
HETATM    2  C   UNL     1      -3.859   5.603 -30.783  1.00  0.00     0.236 C 
HETATM    3  N   UNL     1      -2.489   5.500 -30.731  1.00  0.00    -0.267 N 
HETATM    4  H   UNL     1      -1.961   4.801 -31.254  1.00  0.00     0.190 HD
HETATM    5  O   UNL     1      -4.517   6.214 -29.939  1.00  0.00    -0.272 OA
BRANCH   3   6
HETATM    6  N   UNL     1      -1.832   6.063 -29.630  1.00  0.00    -0.263 N 
HETATM    7  C   UNL     1      -1.031   7.166 -29.851  1.00  0.00     0.270 C 
HETATM    8  O   UNL     1      -0.910   7.680 -30.960  1.00  0.00    -0.266 OA
HETATM    9  H   UNL     1      -1.756   5.473 -28.804  1.00  0.00     0.190 HD
BRANCH   7  10
HETATM   10  C   UNL     1      -0.294   7.701 -28.671  1.00  0.00     0.033 A 
HETATM   11  C   UNL     1       0.710   6.908 -28.097  1.00  0.00     0.018 A 
HETATM   12  C   UNL     1       1.445   7.379 -27.005  1.00  0.00     0.020 A 
HETATM   13  C   UNL     1       1.182   8.648 -26.493  1.00  0.00     0.011 A 
HETATM   14  C   UNL     1       0.194   9.451 -27.062  1.00  0.00     0.020 A 
HETATM   15 BR   UNL     1       2.182   9.294 -25.025  1.00  0.00    -0.051 Br
HETATM   16  C   UNL     1      -0.543   8.980 -28.154  1.00  0.00     0.018 A 
ENDBRANCH   7  10
ENDBRANCH   3   6
ENDBRANCH   1   2
BRANCH   1  17
HETATM   17  C   UNL     1      -5.003   3.496 -31.424  1.00  0.00     0.112 C 
BRANCH  17  18
HETATM   18  C   UNL     1      -4.027   2.378 -31.736  1.00  0.00     0.218 C 
HETATM   19  N   UNL     1      -4.564   1.322 -32.425  1.00  0.00    -0.357 N 
HETATM   20  H   UNL     1      -5.437   1.449 -32.936  1.00  0.00     0.162 HD
HETATM   21  O   UNL     1      -2.863   2.412 -31.345  1.00  0.00    -0.274 OA
BRANCH  19  22
HETATM   22  C   UNL     1      -3.775   0.168 -32.786  1.00  0.00     0.161 C 
BRANCH  22  23
HETATM   23  C   UNL     1      -4.655  -0.891 -33.400  1.00  0.00    -0.038 A 
HETATM   24  C   UNL     1      -4.172  -2.190 -33.614  1.00  0.00     0.048 A 
HETATM   25  C   UNL     1      -5.016  -3.107 -34.205  1.00  0.00     0.105 A 
HETATM   26  C   UNL     1      -6.298  -2.777 -34.582  1.00  0.00     0.105 A 
HETATM   27  O   UNL     1      -4.710  -4.402 -34.488  1.00  0.00    -0.323 OA
HETATM   28  O   UNL     1      -6.957  -3.821 -35.151  1.00  0.00    -0.323 OA
HETATM   29  C   UNL     1      -6.809  -1.515 -34.386  1.00  0.00     0.040 A 
HETATM   30  C   UNL     1      -5.947  -4.849 -35.081  1.00  0.00     0.352 A 
HETATM   31  C   UNL     1      -5.978  -0.565 -33.787  1.00  0.00     0.012 A 
ENDBRANCH  22  23
ENDBRANCH  19  22
ENDBRANCH  17  18
ENDBRANCH   1  17
TORSDOF 7
ENDMDL
MODEL 8
REMARK VINA RESULT:      -8.3      4.363     10.583
REMARK  7 active torsions:
REMARK  status: ('A' for Active; 'I' for Inactive)
REMARK    1  A    between atoms: C_2  and  C_3 
REMARK       I    between atoms: C_3  and  N_4 
REMARK    2  A    between atoms: N_4  and  N_5 
REMARK       I    between atoms: N_5  and  C_6 
REMARK    3  A    between atoms: C_6  and  C_7 
REMARK    4  A    between atoms: C_7  and  C_8 
REMARK    5  A    between atoms: C_8  and  C_9 
REMARK       I    between atoms: C_9  and  N_10 
REMARK    6  A    between atoms: N_10  and  C_11 
REMARK    7  A    between atoms: C_11  and  C_12 
ROOT
HETATM    1  C   UNL     1      -5.728   5.186 -31.334  1.00  0.00     0.114 C 
ENDROOT
BRANCH   1   2
HETATM    2  C   UNL     1      -6.079   3.762 -31.690  1.00  0.00     0.236 C 
HETATM    3  N   UNL     1      -5.255   3.174 -32.620  1.00  0.00    -0.267 N 
HETATM    4  H   UNL     1      -4.603   3.700 -33.202  1.00  0.00     0.190 HD
HETATM    5  O   UNL     1      -7.068   3.198 -31.219  1.00  0.00    -0.272 OA
BRANCH   3   6
HETATM    6  N   UNL     1      -5.605   1.903 -33.092  1.00  0.00    -0.263 N 
HETATM    7  C   UNL     1      -4.729   0.862 -32.855  1.00  0.00     0.270 C 
HETATM    8  O   UNL     1      -3.688   1.010 -32.219  1.00  0.00    -0.266 OA
HETATM    9  H   UNL     1      -6.325   1.874 -33.812  1.00  0.00     0.190 HD
BRANCH   7  10
HETATM   10  C   UNL     1      -5.098  -0.464 -33.427  1.00  0.00     0.033 A 
HETATM   11  C   UNL     1      -6.382  -0.621 -33.969  1.00  0.00     0.018 A 
HETATM   12  C   UNL     1      -6.763  -1.838 -34.540  1.00  0.00     0.020 A 
HETATM   13  C   UNL     1      -5.859  -2.897 -34.576  1.00  0.00     0.011 A 
HETATM   14  C   UNL     1      -4.575  -2.750 -34.050  1.00  0.00     0.020 A 
HETATM   15 BR   UNL     1      -6.367  -4.541 -35.358  1.00  0.00    -0.051 Br
HETATM   16  C   UNL     1      -4.192  -1.533 -33.478  1.00  0.00     0.018 A 
ENDBRANCH   7  10
ENDBRANCH   3   6
ENDBRANCH   1   2
BRANCH   1  17
HETATM   17  C   UNL     1      -5.474   5.992 -32.599  1.00  0.00     0.112 C 
BRANCH  17  18
HETATM   18  C   UNL     1      -3.999   6.239 -32.845  1.00  0.00     0.218 C 
HETATM   19  N   UNL     1      -3.517   7.411 -32.322  1.00  0.00    -0.357 N 
HETATM   20  H   UNL     1      -4.039   7.880 -31.583  1.00  0.00     0.162 HD
HETATM   21  O   UNL     1      -3.318   5.463 -33.510  1.00  0.00    -0.274 OA
BRANCH  19  22
HETATM   22  C   UNL     1      -2.138   7.806 -32.482  1.00  0.00     0.161 C 
BRANCH  22  23
HETATM   23  C   UNL     1      -1.312   7.280 -31.336  1.00  0.00    -0.038 A 
HETATM   24  C   UNL     1      -1.764   7.395 -30.013  1.00  0.00     0.048 A 
HETATM   25  C   UNL     1      -0.951   6.919 -29.006  1.00  0.00     0.105 A 
HETATM   26  C   UNL     1       0.272   6.346 -29.269  1.00  0.00     0.105 A 
HETATM   27  O   UNL     1      -1.231   6.955 -27.675  1.00  0.00    -0.323 OA
HETATM   28  O   UNL     1       0.916   5.952 -28.137  1.00  0.00    -0.323 OA
HETATM   29  C   UNL     1       0.750   6.212 -30.552  1.00  0.00     0.040 A 
HETATM   30  C   UNL     1      -0.047   6.334 -27.132  1.00  0.00     0.352 A 
HETATM   31  C   UNL     1      -0.054   6.683 -31.594  1.00  0.00     0.012 A 
ENDBRANCH  22  23
ENDBRANCH  19  22
ENDBRANCH  17  18
ENDBRANCH   1  17
TORSDOF 7
ENDMDL
MODEL 9
REMARK VINA RESULT:      -8.3      6.545      9.392
REMARK  7 active torsions:
REMARK  status: ('A' for Active; 'I' for Inactive)
REMARK    1  A    between atoms: C_2  and  C_3 
REMARK       I    between atoms: C_3  and  N_4 
REMARK    2  A    between atoms: N_4  and  N_5 
REMARK       I    between atoms: N_5  and  C_6 
REMARK    3  A    between atoms: C_6  and  C_7 
REMARK    4  A    between atoms: C_7  and  C_8 
REMARK    5  A    between atoms: C_8  and  C_9 
REMARK       I    between atoms: C_9  and  N_10 
REMARK    6  A    between atoms: N_10  and  C_11 
REMARK    7  A    between atoms: C_11  and  C_12 
ROOT
HETATM    1  C   UNL     1      -7.064   4.916 -30.610  1.00  0.00     0.114 C 
ENDROOT
BRANCH   1   2
HETATM    2  C   UNL     1      -6.903   3.440 -30.882  1.00  0.00     0.236 C 
HETATM    3  N   UNL     1      -5.939   3.120 -31.809  1.00  0.00    -0.267 N 
HETATM    4  H   UNL     1      -5.519   3.805 -32.438  1.00  0.00     0.190 HD
HETATM    5  O   UNL     1      -7.627   2.598 -30.351  1.00  0.00    -0.272 OA
BRANCH   3   6
HETATM    6  N   UNL     1      -5.831   1.781 -32.205  1.00  0.00    -0.263 N 
HETATM    7  C   UNL     1      -6.122   1.470 -33.518  1.00  0.00     0.270 C 
HETATM    8  O   UNL     1      -6.429   2.325 -34.345  1.00  0.00    -0.266 OA
HETATM    9  H   UNL     1      -5.826   1.092 -31.455  1.00  0.00     0.190 HD
BRANCH   7  10
HETATM   10  C   UNL     1      -6.061   0.028 -33.890  1.00  0.00     0.033 A 
HETATM   11  C   UNL     1      -4.889  -0.686 -33.602  1.00  0.00     0.018 A 
HETATM   12  C   UNL     1      -4.797  -2.046 -33.910  1.00  0.00     0.020 A 
HETATM   13  C   UNL     1      -5.881  -2.696 -34.498  1.00  0.00     0.011 A 
HETATM   14  C   UNL     1      -7.056  -1.999 -34.779  1.00  0.00     0.020 A 
HETATM   15 BR   UNL     1      -5.764  -4.538 -34.903  1.00  0.00    -0.051 Br
HETATM   16  C   UNL     1      -7.149  -0.638 -34.472  1.00  0.00     0.018 A 
ENDBRANCH   7  10
ENDBRANCH   3   6
ENDBRANCH   1   2
BRANCH   1  17
HETATM   17  C   UNL     1      -6.928   5.702 -31.905  1.00  0.00     0.112 C 
BRANCH  17  18
HETATM   18  C   UNL     1      -8.224   5.758 -32.690  1.00  0.00     0.218 C 
HETATM   19  N   UNL     1      -8.310   4.858 -33.721  1.00  0.00    -0.357 N 
HETATM   20  H   UNL     1      -7.696   4.045 -33.728  1.00  0.00     0.162 HD
HETATM   21  O   UNL     1      -9.093   6.588 -32.441  1.00  0.00    -0.274 OA
BRANCH  19  22
HETATM   22  C   UNL     1      -9.469   4.792 -34.579  1.00  0.00     0.161 C 
BRANCH  22  23
HETATM   23  C   UNL     1     -10.241   3.525 -34.310  1.00  0.00    -0.038 A 
HETATM   24  C   UNL     1     -11.502   3.316 -34.887  1.00  0.00     0.048 A 
HETATM   25  C   UNL     1     -12.170   2.149 -34.580  1.00  0.00     0.105 A 
HETATM   26  C   UNL     1     -11.634   1.205 -33.736  1.00  0.00     0.105 A 
HETATM   27  O   UNL     1     -13.397   1.790 -35.046  1.00  0.00    -0.323 OA
HETATM   28  O   UNL     1     -12.457   0.136 -33.561  1.00  0.00    -0.323 OA
HETATM   29  C   UNL     1     -10.400   1.371 -33.152  1.00  0.00     0.040 A 
HETATM   30  C   UNL     1     -13.569   0.511 -34.401  1.00  0.00     0.352 A 
HETATM   31  C   UNL     1      -9.697   2.543 -33.446  1.00  0.00     0.012 A 
ENDBRANCH  22  23
ENDBRANCH  19  22
ENDBRANCH  17  18
ENDBRANCH   1  17
TORSDOF 7
ENDMDL
MODEL 10
REMARK VINA RESULT:      -8.1      4.397     11.919
REMARK  7 active torsions:
REMARK  status: ('A' for Active; 'I' for Inactive)
REMARK    1  A    between atoms: C_2  and  C_3 
REMARK       I    between atoms: C_3  and  N_4 
REMARK    2  A    between atoms: N_4  and  N_5 
REMARK       I    between atoms: N_5  and  C_6 
REMARK    3  A    between atoms: C_6  and  C_7 
REMARK    4  A    between atoms: C_7  and  C_8 
REMARK    5  A    between atoms: C_8  and  C_9 
REMARK       I    between atoms: C_9  and  N_10 
REMARK    6  A    between atoms: N_10  and  C_11 
REMARK    7  A    between atoms: C_11  and  C_12 
ROOT
HETATM    1  C   UNL     1      -2.489   4.952 -31.596  1.00  0.00     0.114 C 
ENDROOT
BRANCH   1   2
HETATM    2  C   UNL     1      -2.865   3.722 -32.386  1.00  0.00     0.236 C 
HETATM    3  N   UNL     1      -3.434   2.709 -31.651  1.00  0.00    -0.267 N 
HETATM    4  H   UNL     1      -3.405   2.673 -30.632  1.00  0.00     0.190 HD
HETATM    5  O   UNL     1      -2.620   3.621 -33.589  1.00  0.00    -0.272 OA
BRANCH   3   6
HETATM    6  N   UNL     1      -3.682   1.492 -32.298  1.00  0.00    -0.263 N 
HETATM    7  C   UNL     1      -4.994   1.161 -32.572  1.00  0.00     0.270 C 
HETATM    8  O   UNL     1      -5.931   1.910 -32.304  1.00  0.00    -0.266 OA
HETATM    9  H   UNL     1      -2.927   0.808 -32.271  1.00  0.00     0.190 HD
BRANCH   7  10
HETATM   10  C   UNL     1      -5.229  -0.169 -33.201  1.00  0.00     0.033 A 
HETATM   11  C   UNL     1      -6.530  -0.490 -33.617  1.00  0.00     0.018 A 
HETATM   12  C   UNL     1      -6.792  -1.715 -34.234  1.00  0.00     0.020 A 
HETATM   13  C   UNL     1      -5.752  -2.619 -34.445  1.00  0.00     0.011 A 
HETATM   14  C   UNL     1      -4.452  -2.307 -34.046  1.00  0.00     0.020 A 
HETATM   15 BR   UNL     1      -6.101  -4.272 -35.292  1.00  0.00    -0.051 Br
HETATM   16  C   UNL     1      -4.188  -1.081 -33.427  1.00  0.00     0.018 A 
ENDBRANCH   7  10
ENDBRANCH   3   6
ENDBRANCH   1   2
BRANCH   1  17
HETATM   17  C   UNL     1      -1.688   5.906 -32.469  1.00  0.00     0.112 C 
BRANCH  17  18
HETATM   18  C   UNL     1      -1.685   7.324 -31.931  1.00  0.00     0.218 C 
HETATM   19  N   UNL     1      -1.624   7.419 -30.564  1.00  0.00    -0.357 N 
HETATM   20  H   UNL     1      -1.293   6.623 -30.021  1.00  0.00     0.162 HD
HETATM   21  O   UNL     1      -1.784   8.296 -32.674  1.00  0.00    -0.274 OA
BRANCH  19  22
HETATM   22  C   UNL     1      -1.631   8.695 -29.890  1.00  0.00     0.161 C 
BRANCH  22  23
HETATM   23  C   UNL     1      -0.710   8.655 -28.697  1.00  0.00    -0.038 A 
HETATM   24  C   UNL     1      -0.932   9.489 -27.590  1.00  0.00     0.048 A 
HETATM   25  C   UNL     1      -0.038   9.426 -26.541  1.00  0.00     0.105 A 
HETATM   26  C   UNL     1       1.046   8.579 -26.560  1.00  0.00     0.105 A 
HETATM   27  O   UNL     1      -0.100  10.163 -25.399  1.00  0.00    -0.323 OA
HETATM   28  O   UNL     1       1.803   8.678 -25.434  1.00  0.00    -0.323 OA
HETATM   29  C   UNL     1       1.297   7.744 -27.625  1.00  0.00     0.040 A 
HETATM   30  C   UNL     1       1.066   9.679 -24.700  1.00  0.00     0.352 A 
HETATM   31  C   UNL     1       0.407   7.784 -28.702  1.00  0.00     0.012 A 
ENDBRANCH  22  23
ENDBRANCH  19  22
ENDBRANCH  17  18
ENDBRANCH   1  17
TORSDOF 7
ENDMDL
