MODEL 1
REMARK VINA RESULT:      -8.9      0.000      0.000
REMARK  10 active torsions:
REMARK  status: ('A' for Active; 'I' for Inactive)
REMARK    1  A    between atoms: C_3  and  C_4 
REMARK    2  A    between atoms: C_4  and  C_5 
REMARK       I    between atoms: C_5  and  N_6 
REMARK    3  A    between atoms: N_6  and  C_7 
REMARK    4  A    between atoms: C_7  and  C_8 
REMARK    5  A    between atoms: C_18  and  N_19 
REMARK    6  A    between atoms: N_19  and  C_20 
REMARK    7  A    between atoms: C_20  and  C_21 
REMARK    8  A    between atoms: C_26  and  C_27 
REMARK    9  A    between atoms: C_27  and  O_28 
REMARK   10  A    between atoms: C_30  and  O_31 
ROOT
HETATM    1  C   UNL     1      -5.941   2.969 -34.602  1.00  0.00     0.016 C 
HETATM    2  C   UNL     1      -6.235   2.655 -33.093  1.00  0.00    -0.030 C 
HETATM    3  C   UNL     1      -4.801   2.270 -32.470  1.00  0.00     0.056 C 
HETATM    4  C   UNL     1      -4.102   3.500 -31.945  1.00  0.00     0.056 A 
HETATM    5  C   UNL     1      -4.644   4.762 -31.911  1.00  0.00     0.012 A 
HETATM    6  S   UNL     1      -3.532   5.873 -31.257  1.00  0.00    -0.055 SA
HETATM    7  C   UNL     1      -2.362   4.613 -31.129  1.00  0.00     0.167 A 
HETATM    8  N   UNL     1      -2.791   3.433 -31.514  1.00  0.00    -0.228 NA
HETATM    9  C   UNL     1      -5.980   5.166 -32.405  1.00  0.00     0.055 C 
HETATM   10  C   UNL     1      -6.942   3.953 -32.484  1.00  0.00     0.012 C 
HETATM   11  C   UNL     1      -7.838   3.759 -31.191  1.00  0.00     0.008 C 
HETATM   12  C   UNL     1      -8.787   4.987 -31.034  1.00  0.00     0.020 C 
HETATM   13  C   UNL     1      -8.762   2.521 -31.394  1.00  0.00     0.128 C 
HETATM   14  C   UNL     1      -8.016   1.265 -31.824  1.00  0.00     0.033 C 
HETATM   15  C   UNL     1      -7.251   1.484 -33.120  1.00  0.00     0.013 C 
ENDROOT
BRANCH   3  16
HETATM   16  C   UNL     1      -4.772   1.094 -31.474  1.00  0.00     0.114 C 
BRANCH  16  17
HETATM   17  C   UNL     1      -3.632   0.117 -31.699  1.00  0.00     0.218 C 
HETATM   18  N   UNL     1      -3.674  -0.739 -32.762  1.00  0.00    -0.357 N 
HETATM   19  H   UNL     1      -2.812  -1.250 -32.884  1.00  0.00     0.162 HD
HETATM   20  O   UNL     1      -2.632   0.131 -30.979  1.00  0.00    -0.274 OA
BRANCH  18  21
HETATM   21  C   UNL     1      -4.749  -0.910 -33.719  1.00  0.00     0.162 C 
BRANCH  21  22
HETATM   22  C   UNL     1      -5.067  -2.324 -34.118  1.00  0.00    -0.023 A 
HETATM   23  C   UNL     1      -4.197  -3.400 -33.983  1.00  0.00     0.125 A 
HETATM   24  N   UNL     1      -4.495  -4.678 -34.324  1.00  0.00    -0.273 NA
HETATM   25  C   UNL     1      -5.731  -4.903 -34.813  1.00  0.00     0.116 A 
HETATM   26  C   UNL     1      -6.679  -3.912 -34.987  1.00  0.00     0.020 A 
HETATM   27  C   UNL     1      -6.338  -2.608 -34.637  1.00  0.00     0.012 A 
ENDBRANCH  21  22
ENDBRANCH  18  21
ENDBRANCH  16  17
ENDBRANCH   3  16
BRANCH  11  28
HETATM   28  C   UNL     1      -7.014   3.671 -29.880  1.00  0.00     0.176 C 
BRANCH  28  29
HETATM   29  O   UNL     1      -6.956   2.353 -29.341  1.00  0.00    -0.400 OA
HETATM   30  H   UNL     1      -7.632   2.316 -28.629  1.00  0.00     0.209 HD
ENDBRANCH  28  29
ENDBRANCH  11  28
BRANCH   7  31
HETATM   31  N   UNL     1      -1.130   4.894 -30.660  1.00  0.00    -0.366 N 
HETATM   32  H   UNL     1      -1.015   5.056 -29.669  1.00  0.00     0.162 HD
BRANCH  31  33
HETATM   33  C   UNL     1      -0.143   5.521 -31.506  1.00  0.00     0.148 C 
BRANCH  33  34
HETATM   34  C   UNL     1       0.409   6.775 -30.878  1.00  0.00    -0.018 C 
HETATM   35  C   UNL     1       0.362   7.163 -29.595  1.00  0.00     0.008 C 
ENDBRANCH  33  34
ENDBRANCH  31  33
ENDBRANCH   7  31
BRANCH  13  36
HETATM   36  O   UNL     1      -9.479   2.221 -30.194  1.00  0.00    -0.395 OA
HETATM   37  H   UNL     1      -9.396   2.995 -29.606  1.00  0.00     0.210 HD
ENDBRANCH  13  36
TORSDOF 10
ENDMDL
MODEL 2
REMARK VINA RESULT:      -8.5      3.296      6.181
REMARK  10 active torsions:
REMARK  status: ('A' for Active; 'I' for Inactive)
REMARK    1  A    between atoms: C_3  and  C_4 
REMARK    2  A    between atoms: C_4  and  C_5 
REMARK       I    between atoms: C_5  and  N_6 
REMARK    3  A    between atoms: N_6  and  C_7 
REMARK    4  A    between atoms: C_7  and  C_8 
REMARK    5  A    between atoms: C_18  and  N_19 
REMARK    6  A    between atoms: N_19  and  C_20 
REMARK    7  A    between atoms: C_20  and  C_21 
REMARK    8  A    between atoms: C_26  and  C_27 
REMARK    9  A    between atoms: C_27  and  O_28 
REMARK   10  A    between atoms: C_30  and  O_31 
ROOT
HETATM    1  C   UNL     1      -5.965   0.464 -30.041  1.00  0.00     0.016 C 
HETATM    2  C   UNL     1      -5.742   1.590 -31.112  1.00  0.00    -0.030 C 
HETATM    3  C   UNL     1      -6.874   1.323 -32.226  1.00  0.00     0.056 C 
HETATM    4  C   UNL     1      -8.140   2.072 -31.889  1.00  0.00     0.056 A 
HETATM    5  C   UNL     1      -8.287   2.939 -30.833  1.00  0.00     0.012 A 
HETATM    6  S   UNL     1      -9.868   3.568 -30.791  1.00  0.00    -0.055 SA
HETATM    7  C   UNL     1     -10.286   2.583 -32.143  1.00  0.00     0.167 A 
HETATM    8  N   UNL     1      -9.295   1.863 -32.617  1.00  0.00    -0.228 NA
HETATM    9  C   UNL     1      -7.265   3.277 -29.816  1.00  0.00     0.055 C 
HETATM   10  C   UNL     1      -5.834   2.985 -30.335  1.00  0.00     0.012 C 
HETATM   11  C   UNL     1      -5.122   4.237 -30.996  1.00  0.00     0.008 C 
HETATM   12  C   UNL     1      -4.915   5.341 -29.913  1.00  0.00     0.020 C 
HETATM   13  C   UNL     1      -3.697   3.821 -31.468  1.00  0.00     0.128 C 
HETATM   14  C   UNL     1      -3.681   2.572 -32.338  1.00  0.00     0.033 C 
HETATM   15  C   UNL     1      -4.291   1.380 -31.616  1.00  0.00     0.013 C 
ENDROOT
BRANCH   3  16
HETATM   16  C   UNL     1      -6.450   1.496 -33.698  1.00  0.00     0.114 C 
BRANCH  16  17
HETATM   17  C   UNL     1      -7.015   0.443 -34.635  1.00  0.00     0.218 C 
HETATM   18  N   UNL     1      -6.417  -0.781 -34.716  1.00  0.00    -0.357 N 
HETATM   19  H   UNL     1      -6.948  -1.437 -35.270  1.00  0.00     0.162 HD
HETATM   20  O   UNL     1      -8.049   0.650 -35.273  1.00  0.00    -0.274 OA
BRANCH  18  21
HETATM   21  C   UNL     1      -5.205  -1.221 -34.053  1.00  0.00     0.162 C 
BRANCH  21  22
HETATM   22  C   UNL     1      -4.936  -2.700 -34.068  1.00  0.00    -0.023 A 
HETATM   23  C   UNL     1      -5.706  -3.638 -34.747  1.00  0.00     0.125 A 
HETATM   24  N   UNL     1      -5.448  -4.968 -34.777  1.00  0.00    -0.273 NA
HETATM   25  C   UNL     1      -4.356  -5.390 -34.106  1.00  0.00     0.116 A 
HETATM   26  C   UNL     1      -3.517  -4.548 -33.401  1.00  0.00     0.020 A 
HETATM   27  C   UNL     1      -3.816  -3.188 -33.381  1.00  0.00     0.012 A 
ENDBRANCH  21  22
ENDBRANCH  18  21
ENDBRANCH  16  17
ENDBRANCH   3  16
BRANCH  11  28
HETATM   28  C   UNL     1      -5.953   4.888 -32.132  1.00  0.00     0.176 C 
BRANCH  28  29
HETATM   29  O   UNL     1      -5.484   6.182 -32.500  1.00  0.00    -0.400 OA
HETATM   30  H   UNL     1      -6.115   6.826 -32.110  1.00  0.00     0.209 HD
ENDBRANCH  28  29
ENDBRANCH  11  28
BRANCH   7  31
HETATM   31  N   UNL     1     -11.546   2.607 -32.621  1.00  0.00    -0.366 N 
HETATM   32  H   UNL     1     -12.294   2.271 -32.029  1.00  0.00     0.162 HD
BRANCH  31  33
HETATM   33  C   UNL     1     -11.800   2.530 -34.039  1.00  0.00     0.148 C 
BRANCH  33  34
HETATM   34  C   UNL     1     -12.326   1.175 -34.435  1.00  0.00    -0.018 C 
HETATM   35  C   UNL     1     -13.227   0.406 -33.805  1.00  0.00     0.008 C 
ENDBRANCH  33  34
ENDBRANCH  31  33
ENDBRANCH   7  31
BRANCH  13  36
HETATM   36  O   UNL     1      -3.077   4.880 -32.202  1.00  0.00    -0.395 OA
HETATM   37  H   UNL     1      -3.588   5.692 -32.027  1.00  0.00     0.210 HD
ENDBRANCH  13  36
TORSDOF 10
ENDMDL
MODEL 3
REMARK VINA RESULT:      -8.4      3.534      6.361
REMARK  10 active torsions:
REMARK  status: ('A' for Active; 'I' for Inactive)
REMARK    1  A    between atoms: C_3  and  C_4 
REMARK    2  A    between atoms: C_4  and  C_5 
REMARK       I    between atoms: C_5  and  N_6 
REMARK    3  A    between atoms: N_6  and  C_7 
REMARK    4  A    between atoms: C_7  and  C_8 
REMARK    5  A    between atoms: C_18  and  N_19 
REMARK    6  A    between atoms: N_19  and  C_20 
REMARK    7  A    between atoms: C_20  and  C_21 
REMARK    8  A    between atoms: C_26  and  C_27 
REMARK    9  A    between atoms: C_27  and  O_28 
REMARK   10  A    between atoms: C_30  and  O_31 
ROOT
HETATM    1  C   UNL     1      -7.863   3.554 -30.132  1.00  0.00     0.016 C 
HETATM    2  C   UNL     1      -6.968   3.240 -31.383  1.00  0.00    -0.030 C 
HETATM    3  C   UNL     1      -7.931   2.419 -32.379  1.00  0.00     0.056 C 
HETATM    4  C   UNL     1      -8.667   3.359 -33.301  1.00  0.00     0.056 A 
HETATM    5  C   UNL     1      -8.478   4.719 -33.358  1.00  0.00     0.012 A 
HETATM    6  S   UNL     1      -9.508   5.419 -34.519  1.00  0.00    -0.055 SA
HETATM    7  C   UNL     1     -10.202   3.870 -34.823  1.00  0.00     0.167 A 
HETATM    8  N   UNL     1      -9.669   2.891 -34.129  1.00  0.00    -0.228 NA
HETATM    9  C   UNL     1      -7.560   5.522 -32.517  1.00  0.00     0.055 C 
HETATM   10  C   UNL     1      -6.428   4.645 -31.924  1.00  0.00     0.012 C 
HETATM   11  C   UNL     1      -5.102   4.633 -32.792  1.00  0.00     0.008 C 
HETATM   12  C   UNL     1      -4.495   6.070 -32.821  1.00  0.00     0.020 C 
HETATM   13  C   UNL     1      -4.044   3.729 -32.091  1.00  0.00     0.128 C 
HETATM   14  C   UNL     1      -4.563   2.342 -31.737  1.00  0.00     0.033 C 
HETATM   15  C   UNL     1      -5.778   2.416 -30.826  1.00  0.00     0.013 C 
ENDROOT
BRANCH   3  16
HETATM   16  C   UNL     1      -7.303   1.223 -33.120  1.00  0.00     0.114 C 
BRANCH  16  17
HETATM   17  C   UNL     1      -8.181  -0.015 -33.159  1.00  0.00     0.218 C 
HETATM   18  N   UNL     1      -7.747  -1.133 -33.811  1.00  0.00    -0.357 N 
HETATM   19  H   UNL     1      -8.352  -1.928 -33.664  1.00  0.00     0.162 HD
HETATM   20  O   UNL     1      -9.252  -0.052 -32.550  1.00  0.00    -0.274 OA
BRANCH  18  21
HETATM   21  C   UNL     1      -6.529  -1.293 -34.580  1.00  0.00     0.162 C 
BRANCH  21  22
HETATM   22  C   UNL     1      -5.863  -2.638 -34.501  1.00  0.00    -0.023 A 
HETATM   23  C   UNL     1      -6.425  -3.828 -34.951  1.00  0.00     0.125 A 
HETATM   24  N   UNL     1      -5.813  -5.036 -34.898  1.00  0.00    -0.273 NA
HETATM   25  C   UNL     1      -4.567  -5.063 -34.382  1.00  0.00     0.116 A 
HETATM   26  C   UNL     1      -3.908  -3.943 -33.910  1.00  0.00     0.020 A 
HETATM   27  C   UNL     1      -4.569  -2.719 -33.969  1.00  0.00     0.012 A 
ENDBRANCH  21  22
ENDBRANCH  18  21
ENDBRANCH  16  17
ENDBRANCH   3  16
BRANCH  11  28
HETATM   28  C   UNL     1      -5.338   4.227 -34.269  1.00  0.00     0.176 C 
BRANCH  28  29
HETATM   29  O   UNL     1      -4.506   4.933 -35.185  1.00  0.00    -0.400 OA
HETATM   30  H   UNL     1      -3.670   5.127 -34.707  1.00  0.00     0.209 HD
ENDBRANCH  28  29
ENDBRANCH  11  28
BRANCH   7  31
HETATM   31  N   UNL     1     -11.204   3.753 -35.717  1.00  0.00    -0.366 N 
HETATM   32  H   UNL     1     -11.112   4.218 -36.610  1.00  0.00     0.162 HD
BRANCH  31  33
HETATM   33  C   UNL     1     -12.560   3.519 -35.280  1.00  0.00     0.148 C 
BRANCH  33  34
HETATM   34  C   UNL     1     -12.920   2.059 -35.348  1.00  0.00    -0.018 C 
HETATM   35  C   UNL     1     -12.794   1.117 -34.402  1.00  0.00     0.008 C 
ENDBRANCH  33  34
ENDBRANCH  31  33
ENDBRANCH   7  31
BRANCH  13  36
HETATM   36  O   UNL     1      -2.886   3.572 -32.916  1.00  0.00    -0.395 OA
HETATM   37  H   UNL     1      -2.114   3.512 -32.323  1.00  0.00     0.210 HD
ENDBRANCH  13  36
TORSDOF 10
ENDMDL
MODEL 4
REMARK VINA RESULT:      -8.0      3.818      5.954
REMARK  10 active torsions:
REMARK  status: ('A' for Active; 'I' for Inactive)
REMARK    1  A    between atoms: C_3  and  C_4 
REMARK    2  A    between atoms: C_4  and  C_5 
REMARK       I    between atoms: C_5  and  N_6 
REMARK    3  A    between atoms: N_6  and  C_7 
REMARK    4  A    between atoms: C_7  and  C_8 
REMARK    5  A    between atoms: C_18  and  N_19 
REMARK    6  A    between atoms: N_19  and  C_20 
REMARK    7  A    between atoms: C_20  and  C_21 
REMARK    8  A    between atoms: C_26  and  C_27 
REMARK    9  A    between atoms: C_27  and  O_28 
REMARK   10  A    between atoms: C_30  and  O_31 
ROOT
HETATM    1  C   UNL     1      -7.228   4.171 -30.086  1.00  0.00     0.016 C 
HETATM    2  C   UNL     1      -7.403   3.392 -31.438  1.00  0.00    -0.030 C 
HETATM    3  C   UNL     1      -7.084   4.481 -32.580  1.00  0.00     0.056 C 
HETATM    4  C   UNL     1      -5.614   4.482 -32.919  1.00  0.00     0.056 A 
HETATM    5  C   UNL     1      -4.683   3.614 -32.400  1.00  0.00     0.012 A 
HETATM    6  S   UNL     1      -3.136   3.952 -33.024  1.00  0.00    -0.055 SA
HETATM    7  C   UNL     1      -3.789   5.290 -33.893  1.00  0.00     0.167 A 
HETATM    8  N   UNL     1      -5.085   5.447 -33.755  1.00  0.00    -0.228 NA
HETATM    9  C   UNL     1      -4.926   2.549 -31.399  1.00  0.00     0.055 C 
HETATM   10  C   UNL     1      -6.419   2.133 -31.371  1.00  0.00     0.012 C 
HETATM   11  C   UNL     1      -6.757   0.891 -32.295  1.00  0.00     0.008 C 
HETATM   12  C   UNL     1      -6.001  -0.366 -31.764  1.00  0.00     0.020 C 
HETATM   13  C   UNL     1      -8.276   0.566 -32.175  1.00  0.00     0.128 C 
HETATM   14  C   UNL     1      -9.179   1.771 -32.403  1.00  0.00     0.033 C 
HETATM   15  C   UNL     1      -8.871   2.894 -31.425  1.00  0.00     0.013 C 
ENDROOT
BRANCH   3  16
HETATM   16  C   UNL     1      -7.985   4.456 -33.830  1.00  0.00     0.114 C 
BRANCH  16  17
HETATM   17  C   UNL     1      -9.093   5.495 -33.817  1.00  0.00     0.218 C 
HETATM   18  N   UNL     1     -10.276   5.231 -34.446  1.00  0.00    -0.357 N 
HETATM   19  H   UNL     1     -10.977   5.935 -34.265  1.00  0.00     0.162 HD
HETATM   20  O   UNL     1      -8.970   6.546 -33.186  1.00  0.00    -0.274 OA
BRANCH  18  21
HETATM   21  C   UNL     1     -10.618   4.064 -35.235  1.00  0.00     0.162 C 
BRANCH  21  22
HETATM   22  C   UNL     1     -11.799   3.263 -34.761  1.00  0.00    -0.023 A 
HETATM   23  C   UNL     1     -12.438   2.278 -35.505  1.00  0.00     0.125 A 
HETATM   24  N   UNL     1     -13.489   1.542 -35.067  1.00  0.00    -0.273 NA
HETATM   25  C   UNL     1     -13.922   1.790 -33.813  1.00  0.00     0.116 A 
HETATM   26  C   UNL     1     -13.361   2.741 -32.983  1.00  0.00     0.020 A 
HETATM   27  C   UNL     1     -12.290   3.487 -33.467  1.00  0.00     0.012 A 
ENDBRANCH  21  22
ENDBRANCH  18  21
ENDBRANCH  16  17
ENDBRANCH   3  16
BRANCH  11  28
HETATM   28  C   UNL     1      -6.310   1.081 -33.768  1.00  0.00     0.176 C 
BRANCH  28  29
HETATM   29  O   UNL     1      -6.004  -0.145 -34.425  1.00  0.00    -0.400 OA
HETATM   30  H   UNL     1      -6.193  -0.860 -33.778  1.00  0.00     0.209 HD
ENDBRANCH  28  29
ENDBRANCH  11  28
BRANCH   7  31
HETATM   31  N   UNL     1      -2.973   6.065 -34.635  1.00  0.00    -0.366 N 
HETATM   32  H   UNL     1      -3.165   6.162 -35.623  1.00  0.00     0.162 HD
BRANCH  31  33
HETATM   33  C   UNL     1      -1.596   6.266 -34.253  1.00  0.00     0.148 C 
BRANCH  33  34
HETATM   34  C   UNL     1      -1.455   7.383 -33.253  1.00  0.00    -0.018 C 
HETATM   35  C   UNL     1      -0.999   7.331 -31.992  1.00  0.00     0.008 C 
ENDBRANCH  33  34
ENDBRANCH  31  33
ENDBRANCH   7  31
BRANCH  13  36
HETATM   36  O   UNL     1      -8.652  -0.452 -33.105  1.00  0.00    -0.395 OA
HETATM   37  H   UNL     1      -8.204  -1.275 -32.832  1.00  0.00     0.210 HD
ENDBRANCH  13  36
TORSDOF 10
ENDMDL
MODEL 5
REMARK VINA RESULT:      -7.8      6.013      8.204
REMARK  10 active torsions:
REMARK  status: ('A' for Active; 'I' for Inactive)
REMARK    1  A    between atoms: C_3  and  C_4 
REMARK    2  A    between atoms: C_4  and  C_5 
REMARK       I    between atoms: C_5  and  N_6 
REMARK    3  A    between atoms: N_6  and  C_7 
REMARK    4  A    between atoms: C_7  and  C_8 
REMARK    5  A    between atoms: C_18  and  N_19 
REMARK    6  A    between atoms: N_19  and  C_20 
REMARK    7  A    between atoms: C_20  and  C_21 
REMARK    8  A    between atoms: C_26  and  C_27 
REMARK    9  A    between atoms: C_27  and  O_28 
REMARK   10  A    between atoms: C_30  and  O_31 
ROOT
HETATM    1  C   UNL     1      -3.126  10.146 -29.788  1.00  0.00     0.016 C 
HETATM    2  C   UNL     1      -3.138   8.692 -29.197  1.00  0.00    -0.030 C 
HETATM    3  C   UNL     1      -1.748   8.566 -28.393  1.00  0.00     0.056 C 
HETATM    4  C   UNL     1      -1.920   9.012 -26.962  1.00  0.00     0.056 A 
HETATM    5  C   UNL     1      -3.112   9.384 -26.388  1.00  0.00     0.012 A 
HETATM    6  S   UNL     1      -2.880   9.829 -24.761  1.00  0.00    -0.055 SA
HETATM    7  C   UNL     1      -1.185   9.572 -24.942  1.00  0.00     0.167 A 
HETATM    8  N   UNL     1      -0.825   9.144 -26.130  1.00  0.00    -0.228 NA
HETATM    9  C   UNL     1      -4.432   9.455 -27.055  1.00  0.00     0.055 C 
HETATM   10  C   UNL     1      -4.471   8.564 -28.323  1.00  0.00     0.012 C 
HETATM   11  C   UNL     1      -5.041   7.107 -28.068  1.00  0.00     0.008 C 
HETATM   12  C   UNL     1      -6.535   7.209 -27.629  1.00  0.00     0.020 C 
HETATM   13  C   UNL     1      -5.037   6.317 -29.411  1.00  0.00     0.128 C 
HETATM   14  C   UNL     1      -3.694   6.339 -30.129  1.00  0.00     0.033 C 
HETATM   15  C   UNL     1      -3.244   7.760 -30.431  1.00  0.00     0.013 C 
ENDROOT
BRANCH   3  16
HETATM   16  C   UNL     1      -0.996   7.227 -28.516  1.00  0.00     0.114 C 
BRANCH  16  17
HETATM   17  C   UNL     1       0.402   7.351 -29.096  1.00  0.00     0.218 C 
HETATM   18  N   UNL     1       0.776   6.554 -30.139  1.00  0.00    -0.357 N 
HETATM   19  H   UNL     1       1.675   6.810 -30.522  1.00  0.00     0.162 HD
HETATM   20  O   UNL     1       1.184   8.212 -28.688  1.00  0.00    -0.274 OA
BRANCH  18  21
HETATM   21  C   UNL     1       0.010   5.491 -30.760  1.00  0.00     0.162 C 
BRANCH  21  22
HETATM   22  C   UNL     1      -0.715   5.845 -32.028  1.00  0.00    -0.023 A 
HETATM   23  C   UNL     1      -0.652   7.084 -32.657  1.00  0.00     0.125 A 
HETATM   24  N   UNL     1      -1.290   7.393 -33.812  1.00  0.00    -0.273 NA
HETATM   25  C   UNL     1      -2.020   6.414 -34.384  1.00  0.00     0.116 A 
HETATM   26  C   UNL     1      -2.150   5.145 -33.851  1.00  0.00     0.020 A 
HETATM   27  C   UNL     1      -1.491   4.862 -32.658  1.00  0.00     0.012 A 
ENDBRANCH  21  22
ENDBRANCH  18  21
ENDBRANCH  16  17
ENDBRANCH   3  16
BRANCH  11  28
HETATM   28  C   UNL     1      -4.302   6.348 -26.936  1.00  0.00     0.176 C 
BRANCH  28  29
HETATM   29  O   UNL     1      -4.962   5.149 -26.540  1.00  0.00    -0.400 OA
HETATM   30  H   UNL     1      -4.271   4.452 -26.503  1.00  0.00     0.209 HD
ENDBRANCH  28  29
ENDBRANCH  11  28
BRANCH   7  31
HETATM   31  N   UNL     1      -0.361   9.811 -23.903  1.00  0.00    -0.366 N 
HETATM   32  H   UNL     1      -0.716  10.333 -23.114  1.00  0.00     0.162 HD
BRANCH  31  33
HETATM   33  C   UNL     1       1.069   9.880 -24.094  1.00  0.00     0.148 C 
BRANCH  33  34
HETATM   34  C   UNL     1       1.809   9.763 -22.788  1.00  0.00    -0.018 C 
HETATM   35  C   UNL     1       2.780   8.902 -22.447  1.00  0.00     0.008 C 
ENDBRANCH  33  34
ENDBRANCH  31  33
ENDBRANCH   7  31
BRANCH  13  36
HETATM   36  O   UNL     1      -5.403   4.952 -29.197  1.00  0.00    -0.395 OA
HETATM   37  H   UNL     1      -5.037   4.685 -28.333  1.00  0.00     0.210 HD
ENDBRANCH  13  36
TORSDOF 10
ENDMDL
MODEL 6
REMARK VINA RESULT:      -7.8      2.433      3.092
REMARK  10 active torsions:
REMARK  status: ('A' for Active; 'I' for Inactive)
REMARK    1  A    between atoms: C_3  and  C_4 
REMARK    2  A    between atoms: C_4  and  C_5 
REMARK       I    between atoms: C_5  and  N_6 
REMARK    3  A    between atoms: N_6  and  C_7 
REMARK    4  A    between atoms: C_7  and  C_8 
REMARK    5  A    between atoms: C_18  and  N_19 
REMARK    6  A    between atoms: N_19  and  C_20 
REMARK    7  A    between atoms: C_20  and  C_21 
REMARK    8  A    between atoms: C_26  and  C_27 
REMARK    9  A    between atoms: C_27  and  O_28 
REMARK   10  A    between atoms: C_30  and  O_31 
ROOT
HETATM    1  C   UNL     1      -5.782   5.437 -33.612  1.00  0.00     0.016 C 
HETATM    2  C   UNL     1      -6.366   4.138 -32.951  1.00  0.00    -0.030 C 
HETATM    3  C   UNL     1      -5.390   3.840 -31.705  1.00  0.00     0.056 C 
HETATM    4  C   UNL     1      -5.884   4.540 -30.463  1.00  0.00     0.056 A 
HETATM    5  C   UNL     1      -7.053   5.256 -30.373  1.00  0.00     0.012 A 
HETATM    6  S   UNL     1      -7.242   5.898 -28.807  1.00  0.00    -0.055 SA
HETATM    7  C   UNL     1      -5.709   5.246 -28.365  1.00  0.00     0.167 A 
HETATM    8  N   UNL     1      -5.117   4.560 -29.315  1.00  0.00    -0.228 NA
HETATM    9  C   UNL     1      -8.024   5.509 -31.462  1.00  0.00     0.055 C 
HETATM   10  C   UNL     1      -7.891   4.454 -32.591  1.00  0.00     0.012 C 
HETATM   11  C   UNL     1      -8.876   3.222 -32.438  1.00  0.00     0.008 C 
HETATM   12  C   UNL     1     -10.349   3.723 -32.557  1.00  0.00     0.020 C 
HETATM   13  C   UNL     1      -8.654   2.242 -33.629  1.00  0.00     0.128 C 
HETATM   14  C   UNL     1      -7.197   1.848 -33.833  1.00  0.00     0.033 C 
HETATM   15  C   UNL     1      -6.316   3.065 -34.068  1.00  0.00     0.013 C 
ENDROOT
BRANCH   3  16
HETATM   16  C   UNL     1      -5.019   2.366 -31.453  1.00  0.00     0.114 C 
BRANCH  16  17
HETATM   17  C   UNL     1      -3.551   2.047 -31.676  1.00  0.00     0.218 C 
HETATM   18  N   UNL     1      -3.118   0.756 -31.590  1.00  0.00    -0.357 N 
HETATM   19  H   UNL     1      -2.157   0.648 -31.880  1.00  0.00     0.162 HD
HETATM   20  O   UNL     1      -2.754   2.928 -32.005  1.00  0.00    -0.274 OA
BRANCH  18  21
HETATM   21  C   UNL     1      -3.890  -0.414 -31.222  1.00  0.00     0.162 C 
BRANCH  21  22
HETATM   22  C   UNL     1      -4.111  -1.434 -32.304  1.00  0.00    -0.023 A 
HETATM   23  C   UNL     1      -3.441  -2.649 -32.396  1.00  0.00     0.125 A 
HETATM   24  N   UNL     1      -3.658  -3.576 -33.361  1.00  0.00    -0.273 NA
HETATM   25  C   UNL     1      -4.604  -3.288 -34.278  1.00  0.00     0.116 A 
HETATM   26  C   UNL     1      -5.335  -2.114 -34.282  1.00  0.00     0.020 A 
HETATM   27  C   UNL     1      -5.080  -1.178 -33.283  1.00  0.00     0.012 A 
ENDBRANCH  21  22
ENDBRANCH  18  21
ENDBRANCH  16  17
ENDBRANCH   3  16
BRANCH  11  28
HETATM   28  C   UNL     1      -8.765   2.513 -31.064  1.00  0.00     0.176 C 
BRANCH  28  29
HETATM   29  O   UNL     1      -9.967   2.574 -30.301  1.00  0.00    -0.400 OA
HETATM   30  H   UNL     1     -10.338   3.473 -30.441  1.00  0.00     0.209 HD
ENDBRANCH  28  29
ENDBRANCH  11  28
BRANCH   7  31
HETATM   31  N   UNL     1      -5.226   5.461 -27.125  1.00  0.00    -0.366 N 
HETATM   32  H   UNL     1      -5.542   4.864 -26.372  1.00  0.00     0.162 HD
BRANCH  31  33
HETATM   33  C   UNL     1      -4.780   6.774 -26.724  1.00  0.00     0.148 C 
BRANCH  33  34
HETATM   34  C   UNL     1      -3.282   6.903 -26.820  1.00  0.00    -0.018 C 
HETATM   35  C   UNL     1      -2.375   6.930 -25.832  1.00  0.00     0.008 C 
ENDBRANCH  33  34
ENDBRANCH  31  33
ENDBRANCH   7  31
BRANCH  13  36
HETATM   36  O   UNL     1      -9.416   1.046 -33.451  1.00  0.00    -0.395 OA
HETATM   37  H   UNL     1      -8.856   0.415 -32.962  1.00  0.00     0.210 HD
ENDBRANCH  13  36
TORSDOF 10
ENDMDL
MODEL 7
REMARK VINA RESULT:      -7.6      5.444      8.877
REMARK  10 active torsions:
REMARK  status: ('A' for Active; 'I' for Inactive)
REMARK    1  A    between atoms: C_3  and  C_4 
REMARK    2  A    between atoms: C_4  and  C_5 
REMARK       I    between atoms: C_5  and  N_6 
REMARK    3  A    between atoms: N_6  and  C_7 
REMARK    4  A    between atoms: C_7  and  C_8 
REMARK    5  A    between atoms: C_18  and  N_19 
REMARK    6  A    between atoms: N_19  and  C_20 
REMARK    7  A    between atoms: C_20  and  C_21 
REMARK    8  A    between atoms: C_26  and  C_27 
REMARK    9  A    between atoms: C_27  and  O_28 
REMARK   10  A    between atoms: C_30  and  O_31 
ROOT
HETATM    1  C   UNL     1      -9.883   5.019 -35.294  1.00  0.00     0.016 C 
HETATM    2  C   UNL     1     -10.298   4.285 -33.970  1.00  0.00    -0.030 C 
HETATM    3  C   UNL     1     -10.473   2.742 -34.396  1.00  0.00     0.056 C 
HETATM    4  C   UNL     1      -9.169   1.999 -34.249  1.00  0.00     0.056 A 
HETATM    5  C   UNL     1      -8.011   2.530 -33.733  1.00  0.00     0.012 A 
HETATM    6  S   UNL     1      -6.763   1.372 -33.748  1.00  0.00    -0.055 SA
HETATM    7  C   UNL     1      -7.824   0.252 -34.516  1.00  0.00     0.167 A 
HETATM    8  N   UNL     1      -9.042   0.703 -34.710  1.00  0.00    -0.228 NA
HETATM    9  C   UNL     1      -7.806   3.919 -33.262  1.00  0.00     0.055 C 
HETATM   10  C   UNL     1      -9.154   4.594 -32.897  1.00  0.00     0.012 C 
HETATM   11  C   UNL     1      -9.537   4.476 -31.364  1.00  0.00     0.008 C 
HETATM   12  C   UNL     1      -8.483   5.245 -30.510  1.00  0.00     0.020 C 
HETATM   13  C   UNL     1     -10.898   5.196 -31.124  1.00  0.00     0.128 C 
HETATM   14  C   UNL     1     -12.002   4.750 -32.074  1.00  0.00     0.033 C 
HETATM   15  C   UNL     1     -11.614   4.975 -33.527  1.00  0.00     0.013 C 
ENDROOT
BRANCH   3  16
HETATM   16  C   UNL     1     -11.666   1.985 -33.781  1.00  0.00     0.114 C 
BRANCH  16  17
HETATM   17  C   UNL     1     -12.900   1.946 -34.666  1.00  0.00     0.218 C 
HETATM   18  N   UNL     1     -14.140   2.048 -34.104  1.00  0.00    -0.357 N 
HETATM   19  H   UNL     1     -14.872   2.136 -34.793  1.00  0.00     0.162 HD
HETATM   20  O   UNL     1     -12.799   1.895 -35.893  1.00  0.00    -0.274 OA
BRANCH  18  21
HETATM   21  C   UNL     1     -14.470   2.117 -32.694  1.00  0.00     0.162 C 
BRANCH  21  22
HETATM   22  C   UNL     1     -15.753   2.818 -32.345  1.00  0.00    -0.023 A 
HETATM   23  C   UNL     1     -17.009   2.221 -32.351  1.00  0.00     0.125 A 
HETATM   24  N   UNL     1     -18.161   2.850 -32.014  1.00  0.00    -0.273 NA
HETATM   25  C   UNL     1     -18.060   4.141 -31.635  1.00  0.00     0.116 A 
HETATM   26  C   UNL     1     -16.865   4.834 -31.587  1.00  0.00     0.020 A 
HETATM   27  C   UNL     1     -15.701   4.162 -31.950  1.00  0.00     0.012 A 
ENDBRANCH  21  22
ENDBRANCH  18  21
ENDBRANCH  16  17
ENDBRANCH   3  16
BRANCH  11  28
HETATM   28  C   UNL     1      -9.543   3.016 -30.843  1.00  0.00     0.176 C 
BRANCH  28  29
HETATM   29  O   UNL     1      -8.385   2.687 -30.081  1.00  0.00    -0.400 OA
HETATM   30  H   UNL     1      -7.611   2.922 -30.639  1.00  0.00     0.209 HD
ENDBRANCH  28  29
ENDBRANCH  11  28
BRANCH   7  31
HETATM   31  N   UNL     1      -7.369  -0.971 -34.856  1.00  0.00    -0.366 N 
HETATM   32  H   UNL     1      -8.008  -1.620 -35.293  1.00  0.00     0.162 HD
BRANCH  31  33
HETATM   33  C   UNL     1      -6.269  -1.575 -34.142  1.00  0.00     0.148 C 
BRANCH  33  34
HETATM   34  C   UNL     1      -5.887  -2.905 -34.736  1.00  0.00    -0.018 C 
HETATM   35  C   UNL     1      -6.643  -4.000 -34.903  1.00  0.00     0.008 C 
ENDBRANCH  33  34
ENDBRANCH  31  33
ENDBRANCH   7  31
BRANCH  13  36
HETATM   36  O   UNL     1     -11.353   4.985 -29.785  1.00  0.00    -0.395 OA
HETATM   37  H   UNL     1     -11.210   5.816 -29.296  1.00  0.00     0.210 HD
ENDBRANCH  13  36
TORSDOF 10
ENDMDL
MODEL 8
REMARK VINA RESULT:      -7.6      3.055      6.862
REMARK  10 active torsions:
REMARK  status: ('A' for Active; 'I' for Inactive)
REMARK    1  A    between atoms: C_3  and  C_4 
REMARK    2  A    between atoms: C_4  and  C_5 
REMARK       I    between atoms: C_5  and  N_6 
REMARK    3  A    between atoms: N_6  and  C_7 
REMARK    4  A    between atoms: C_7  and  C_8 
REMARK    5  A    between atoms: C_18  and  N_19 
REMARK    6  A    between atoms: N_19  and  C_20 
REMARK    7  A    between atoms: C_20  and  C_21 
REMARK    8  A    between atoms: C_26  and  C_27 
REMARK    9  A    between atoms: C_27  and  O_28 
REMARK   10  A    between atoms: C_30  and  O_31 
ROOT
HETATM    1  C   UNL     1      -3.387   9.539 -30.945  1.00  0.00     0.016 C 
HETATM    2  C   UNL     1      -2.946   8.146 -30.372  1.00  0.00    -0.030 C 
HETATM    3  C   UNL     1      -4.194   7.171 -30.663  1.00  0.00     0.056 C 
HETATM    4  C   UNL     1      -4.054   6.516 -32.014  1.00  0.00     0.056 A 
HETATM    5  C   UNL     1      -2.971   6.651 -32.849  1.00  0.00     0.012 A 
HETATM    6  S   UNL     1      -3.206   5.764 -34.283  1.00  0.00    -0.055 SA
HETATM    7  C   UNL     1      -4.777   5.314 -33.736  1.00  0.00     0.167 A 
HETATM    8  N   UNL     1      -5.087   5.766 -32.543  1.00  0.00    -0.228 NA
HETATM    9  C   UNL     1      -1.765   7.477 -32.609  1.00  0.00     0.055 C 
HETATM   10  C   UNL     1      -1.572   7.767 -31.098  1.00  0.00     0.012 C 
HETATM   11  C   UNL     1      -0.616   6.738 -30.364  1.00  0.00     0.008 C 
HETATM   12  C   UNL     1       0.821   6.856 -30.960  1.00  0.00     0.020 C 
HETATM   13  C   UNL     1      -0.497   7.138 -28.863  1.00  0.00     0.128 C 
HETATM   14  C   UNL     1      -1.840   7.335 -28.173  1.00  0.00     0.033 C 
HETATM   15  C   UNL     1      -2.674   8.400 -28.867  1.00  0.00     0.013 C 
ENDROOT
BRANCH   3  16
HETATM   16  C   UNL     1      -4.565   6.172 -29.549  1.00  0.00     0.114 C 
BRANCH  16  17
HETATM   17  C   UNL     1      -5.910   5.494 -29.746  1.00  0.00     0.218 C 
HETATM   18  N   UNL     1      -5.962   4.154 -30.004  1.00  0.00    -0.357 N 
HETATM   19  H   UNL     1      -6.904   3.792 -29.990  1.00  0.00     0.162 HD
HETATM   20  O   UNL     1      -6.962   6.119 -29.606  1.00  0.00    -0.274 OA
BRANCH  18  21
HETATM   21  C   UNL     1      -4.849   3.247 -30.202  1.00  0.00     0.162 C 
BRANCH  21  22
HETATM   22  C   UNL     1      -5.193   1.865 -30.683  1.00  0.00    -0.023 A 
HETATM   23  C   UNL     1      -6.351   1.174 -30.343  1.00  0.00     0.125 A 
HETATM   24  N   UNL     1      -6.669  -0.064 -30.796  1.00  0.00    -0.273 NA
HETATM   25  C   UNL     1      -5.795  -0.642 -31.645  1.00  0.00     0.116 A 
HETATM   26  C   UNL     1      -4.616  -0.047 -32.055  1.00  0.00     0.020 A 
HETATM   27  C   UNL     1      -4.314   1.219 -31.563  1.00  0.00     0.012 A 
ENDBRANCH  21  22
ENDBRANCH  18  21
ENDBRANCH  16  17
ENDBRANCH   3  16
BRANCH  11  28
HETATM   28  C   UNL     1      -1.047   5.260 -30.547  1.00  0.00     0.176 C 
BRANCH  28  29
HETATM   29  O   UNL     1      -0.067   4.330 -30.097  1.00  0.00    -0.400 OA
HETATM   30  H   UNL     1       0.354   3.959 -30.904  1.00  0.00     0.209 HD
ENDBRANCH  28  29
ENDBRANCH  11  28
BRANCH   7  31
HETATM   31  N   UNL     1      -5.565   4.555 -34.524  1.00  0.00    -0.366 N 
HETATM   32  H   UNL     1      -5.592   4.753 -35.515  1.00  0.00     0.162 HD
BRANCH  31  33
HETATM   33  C   UNL     1      -6.743   3.912 -33.992  1.00  0.00     0.148 C 
BRANCH  33  34
HETATM   34  C   UNL     1      -6.668   2.414 -34.131  1.00  0.00    -0.018 C 
HETATM   35  C   UNL     1      -7.633   1.503 -33.938  1.00  0.00     0.008 C 
ENDBRANCH  33  34
ENDBRANCH  31  33
ENDBRANCH   7  31
BRANCH  13  36
HETATM   36  O   UNL     1       0.236   6.152 -28.132  1.00  0.00    -0.395 OA
HETATM   37  H   UNL     1       0.813   6.626 -27.503  1.00  0.00     0.210 HD
ENDBRANCH  13  36
TORSDOF 10
ENDMDL
MODEL 9
REMARK VINA RESULT:      -7.5     16.439     18.433
REMARK  10 active torsions:
REMARK  status: ('A' for Active; 'I' for Inactive)
REMARK    1  A    between atoms: C_3  and  C_4 
REMARK    2  A    between atoms: C_4  and  C_5 
REMARK       I    between atoms: C_5  and  N_6 
REMARK    3  A    between atoms: N_6  and  C_7 
REMARK    4  A    between atoms: C_7  and  C_8 
REMARK    5  A    between atoms: C_18  and  N_19 
REMARK    6  A    between atoms: N_19  and  C_20 
REMARK    7  A    between atoms: C_20  and  C_21 
REMARK    8  A    between atoms: C_26  and  C_27 
REMARK    9  A    between atoms: C_27  and  O_28 
REMARK   10  A    between atoms: C_30  and  O_31 
ROOT
HETATM    1  C   UNL     1      -4.074 -16.697 -37.645  1.00  0.00     0.016 C 
HETATM    2  C   UNL     1      -4.731 -15.445 -36.964  1.00  0.00    -0.030 C 
HETATM    3  C   UNL     1      -5.265 -14.547 -38.189  1.00  0.00     0.056 C 
HETATM    4  C   UNL     1      -6.678 -14.931 -38.554  1.00  0.00     0.056 A 
HETATM    5  C   UNL     1      -7.445 -15.850 -37.879  1.00  0.00     0.012 A 
HETATM    6  S   UNL     1      -8.974 -16.006 -38.612  1.00  0.00    -0.055 SA
HETATM    7  C   UNL     1      -8.491 -14.891 -39.835  1.00  0.00     0.167 A 
HETATM    8  N   UNL     1      -7.281 -14.406 -39.680  1.00  0.00    -0.228 NA
HETATM    9  C   UNL     1      -7.036 -16.657 -36.707  1.00  0.00     0.055 C 
HETATM   10  C   UNL     1      -5.845 -16.002 -35.961  1.00  0.00     0.012 C 
HETATM   11  C   UNL     1      -6.278 -15.066 -34.757  1.00  0.00     0.008 C 
HETATM   12  C   UNL     1      -6.984 -15.928 -33.664  1.00  0.00     0.020 C 
HETATM   13  C   UNL     1      -5.001 -14.477 -34.086  1.00  0.00     0.128 C 
HETATM   14  C   UNL     1      -4.043 -13.817 -35.069  1.00  0.00     0.033 C 
HETATM   15  C   UNL     1      -3.589 -14.789 -36.146  1.00  0.00     0.013 C 
ENDROOT
BRANCH   3  16
HETATM   16  C   UNL     1      -5.072 -13.023 -38.066  1.00  0.00     0.114 C 
BRANCH  16  17
HETATM   17  C   UNL     1      -4.414 -12.380 -39.274  1.00  0.00     0.218 C 
HETATM   18  N   UNL     1      -3.053 -12.287 -39.334  1.00  0.00    -0.357 N 
HETATM   19  H   UNL     1      -2.725 -11.960 -40.232  1.00  0.00     0.162 HD
HETATM   20  O   UNL     1      -5.084 -12.005 -40.237  1.00  0.00    -0.274 OA
BRANCH  18  21
HETATM   21  C   UNL     1      -2.094 -12.668 -38.317  1.00  0.00     0.162 C 
BRANCH  21  22
HETATM   22  C   UNL     1      -1.012 -13.620 -38.744  1.00  0.00    -0.023 A 
HETATM   23  C   UNL     1      -0.597 -13.809 -40.058  1.00  0.00     0.125 A 
HETATM   24  N   UNL     1       0.394 -14.653 -40.437  1.00  0.00    -0.273 NA
HETATM   25  C   UNL     1       1.018 -15.338 -39.456  1.00  0.00     0.116 A 
HETATM   26  C   UNL     1       0.692 -15.226 -38.118  1.00  0.00     0.020 A 
HETATM   27  C   UNL     1      -0.337 -14.359 -37.762  1.00  0.00     0.012 A 
ENDBRANCH  21  22
ENDBRANCH  18  21
ENDBRANCH  16  17
ENDBRANCH   3  16
BRANCH  11  28
HETATM   28  C   UNL     1      -7.289 -13.965 -35.168  1.00  0.00     0.176 C 
BRANCH  28  29
HETATM   29  O   UNL     1      -7.779 -13.212 -34.062  1.00  0.00    -0.400 OA
HETATM   30  H   UNL     1      -7.744 -13.809 -33.283  1.00  0.00     0.209 HD
ENDBRANCH  28  29
ENDBRANCH  11  28
BRANCH   7  31
HETATM   31  N   UNL     1      -9.343 -14.588 -40.835  1.00  0.00    -0.366 N 
HETATM   32  H   UNL     1      -8.963 -14.263 -41.713  1.00  0.00     0.162 HD
BRANCH  31  33
HETATM   33  C   UNL     1     -10.692 -14.160 -40.551  1.00  0.00     0.148 C 
BRANCH  33  34
HETATM   34  C   UNL     1     -10.717 -12.804 -39.896  1.00  0.00    -0.018 C 
HETATM   35  C   UNL     1     -10.374 -11.614 -40.411  1.00  0.00     0.008 C 
ENDBRANCH  33  34
ENDBRANCH  31  33
ENDBRANCH   7  31
BRANCH  13  36
HETATM   36  O   UNL     1      -5.351 -13.512 -33.091  1.00  0.00    -0.395 OA
HETATM   37  H   UNL     1      -6.175 -13.817 -32.667  1.00  0.00     0.210 HD
ENDBRANCH  13  36
TORSDOF 10
ENDMDL
MODEL 10
REMARK VINA RESULT:      -7.4      3.168      4.472
REMARK  10 active torsions:
REMARK  status: ('A' for Active; 'I' for Inactive)
REMARK    1  A    between atoms: C_3  and  C_4 
REMARK    2  A    between atoms: C_4  and  C_5 
REMARK       I    between atoms: C_5  and  N_6 
REMARK    3  A    between atoms: N_6  and  C_7 
REMARK    4  A    between atoms: C_7  and  C_8 
REMARK    5  A    between atoms: C_18  and  N_19 
REMARK    6  A    between atoms: N_19  and  C_20 
REMARK    7  A    between atoms: C_20  and  C_21 
REMARK    8  A    between atoms: C_26  and  C_27 
REMARK    9  A    between atoms: C_27  and  O_28 
REMARK   10  A    between atoms: C_30  and  O_31 
ROOT
HETATM    1  C   UNL     1     -10.533   4.188 -35.308  1.00  0.00     0.016 C 
HETATM    2  C   UNL     1     -10.543   4.011 -33.748  1.00  0.00    -0.030 C 
HETATM    3  C   UNL     1      -9.300   3.033 -33.442  1.00  0.00     0.056 C 
HETATM    4  C   UNL     1      -8.040   3.830 -33.215  1.00  0.00     0.056 A 
HETATM    5  C   UNL     1      -7.968   5.202 -33.179  1.00  0.00     0.012 A 
HETATM    6  S   UNL     1      -6.366   5.711 -32.912  1.00  0.00    -0.055 SA
HETATM    7  C   UNL     1      -5.849   4.066 -32.938  1.00  0.00     0.167 A 
HETATM    8  N   UNL     1      -6.818   3.195 -33.096  1.00  0.00    -0.228 NA
HETATM    9  C   UNL     1      -9.084   6.153 -33.386  1.00  0.00     0.055 C 
HETATM   10  C   UNL     1     -10.455   5.479 -33.120  1.00  0.00     0.012 C 
HETATM   11  C   UNL     1     -10.992   5.675 -31.642  1.00  0.00     0.008 C 
HETATM   12  C   UNL     1     -11.258   7.191 -31.388  1.00  0.00     0.020 C 
HETATM   13  C   UNL     1     -12.371   4.963 -31.503  1.00  0.00     0.128 C 
HETATM   14  C   UNL     1     -12.362   3.514 -31.971  1.00  0.00     0.033 C 
HETATM   15  C   UNL     1     -11.929   3.398 -33.425  1.00  0.00     0.013 C 
ENDROOT
BRANCH   3  16
HETATM   16  C   UNL     1      -9.523   1.948 -32.371  1.00  0.00     0.114 C 
BRANCH  16  17
HETATM   17  C   UNL     1      -9.797   0.565 -32.935  1.00  0.00     0.218 C 
HETATM   18  N   UNL     1      -8.766  -0.312 -33.110  1.00  0.00    -0.357 N 
HETATM   19  H   UNL     1      -9.081  -1.236 -33.370  1.00  0.00     0.162 HD
HETATM   20  O   UNL     1     -10.948   0.193 -33.172  1.00  0.00    -0.274 OA
BRANCH  18  21
HETATM   21  C   UNL     1      -7.353  -0.072 -32.892  1.00  0.00     0.162 C 
BRANCH  21  22
HETATM   22  C   UNL     1      -6.407  -1.084 -33.477  1.00  0.00    -0.023 A 
HETATM   23  C   UNL     1      -5.051  -1.163 -33.183  1.00  0.00     0.125 A 
HETATM   24  N   UNL     1      -4.205  -2.090 -33.696  1.00  0.00    -0.273 NA
HETATM   25  C   UNL     1      -4.739  -2.999 -34.538  1.00  0.00     0.116 A 
HETATM   26  C   UNL     1      -6.074  -3.019 -34.898  1.00  0.00     0.020 A 
HETATM   27  C   UNL     1      -6.913  -2.046 -34.362  1.00  0.00     0.012 A 
ENDBRANCH  21  22
ENDBRANCH  18  21
ENDBRANCH  16  17
ENDBRANCH   3  16
BRANCH  11  28
HETATM   28  C   UNL     1      -9.982   5.219 -30.557  1.00  0.00     0.176 C 
BRANCH  28  29
HETATM   29  O   UNL     1     -10.009   6.033 -29.388  1.00  0.00    -0.400 OA
HETATM   30  H   UNL     1      -9.234   5.766 -28.847  1.00  0.00     0.209 HD
ENDBRANCH  28  29
ENDBRANCH  11  28
BRANCH   7  31
HETATM   31  N   UNL     1      -4.540   3.777 -32.798  1.00  0.00    -0.366 N 
HETATM   32  H   UNL     1      -3.860   4.391 -33.226  1.00  0.00     0.162 HD
BRANCH  31  33
HETATM   33  C   UNL     1      -4.101   2.417 -32.599  1.00  0.00     0.148 C 
BRANCH  33  34
HETATM   34  C   UNL     1      -4.106   2.040 -31.140  1.00  0.00    -0.018 C 
HETATM   35  C   UNL     1      -5.095   1.495 -30.416  1.00  0.00     0.008 C 
ENDBRANCH  33  34
ENDBRANCH  31  33
ENDBRANCH   7  31
BRANCH  13  36
HETATM   36  O   UNL     1     -12.820   4.988 -30.146  1.00  0.00    -0.395 OA
HETATM   37  H   UNL     1     -13.064   4.075 -29.905  1.00  0.00     0.210 HD
ENDBRANCH  13  36
TORSDOF 10
ENDMDL
