MODEL 1
REMARK VINA RESULT:      -8.7      0.000      0.000
REMARK  4 active torsions:
REMARK  status: ('A' for Active; 'I' for Inactive)
REMARK    1  A    between atoms: C_6  and  C_7 
REMARK    2  A    between atoms: C_7  and  C_8 
REMARK    3  A    between atoms: N_10  and  C_11 
REMARK    4  A    between atoms: C_19  and  C_20 
ROOT
HETATM    1  C   UNL     1      -4.031   1.712 -32.391  1.00  0.00     0.149 C 
HETATM    2  N   UNL     1      -3.618   0.450 -32.324  1.00  0.00    -0.150 NA
HETATM    3  N   UNL     1      -4.628  -0.242 -32.918  1.00  0.00    -0.218 N 
HETATM    4  C   UNL     1      -5.685   0.642 -33.160  1.00  0.00     0.136 C 
HETATM    5  N   UNL     1      -5.287   1.872 -32.890  1.00  0.00    -0.216 NA
ENDROOT
BRANCH   1   6
HETATM    6  C   UNL     1      -3.209   2.844 -31.882  1.00  0.00     0.087 C 
BRANCH   6   7
HETATM    7  C   UNL     1      -3.249   4.108 -32.774  1.00  0.00    -0.004 C 
HETATM    8  C   UNL     1      -1.864   4.620 -33.212  1.00  0.00     0.032 C 
HETATM    9  C   UNL     1      -1.058   5.208 -32.062  1.00  0.00     0.234 C 
HETATM   10  N   UNL     1      -1.850   6.325 -31.424  1.00  0.00    -0.075 N 
HETATM   11  C   UNL     1      -1.058   7.015 -30.341  1.00  0.00     0.269 C 
HETATM   12  H   UNL     1      -2.011   7.037 -32.149  1.00  0.00     0.279 HD
HETATM   13  C   UNL     1      -3.201   5.881 -30.924  1.00  0.00     0.234 C 
HETATM   14  C   UNL     1      -3.996   5.255 -32.067  1.00  0.00     0.032 C 
ENDBRANCH   6   7
ENDBRANCH   1   6
BRANCH   3  15
HETATM   15  C   UNL     1      -4.468  -1.635 -33.167  1.00  0.00     0.062 A 
HETATM   16  C   UNL     1      -5.203  -2.310 -34.149  1.00  0.00     0.058 A 
HETATM   17  C   UNL     1      -5.008  -3.682 -34.352  1.00  0.00     0.074 A 
HETATM   18 CL   UNL     1      -5.943  -4.481 -35.556  1.00  0.00    -0.081 Cl
HETATM   19  C   UNL     1      -4.074  -4.381 -33.594  1.00  0.00     0.138 A 
HETATM   20  F   UNL     1      -3.882  -5.692 -33.779  1.00  0.00    -0.204 F 
HETATM   21  C   UNL     1      -3.317  -3.719 -32.636  1.00  0.00     0.046 A 
HETATM   22  C   UNL     1      -3.506  -2.349 -32.426  1.00  0.00     0.035 A 
ENDBRANCH   3  15
BRANCH   4  23
HETATM   23  C   UNL     1      -7.093   0.299 -33.528  1.00  0.00     0.084 C 
HETATM   24  C   UNL     1      -7.415   0.657 -34.985  1.00  0.00     0.244 C 
HETATM   25  N   UNL     1      -8.912   0.827 -35.016  1.00  0.00    -0.074 N 
HETATM   26  H   UNL     1      -9.163   1.666 -35.560  1.00  0.00     0.277 HD
HETATM   27  H   UNL     1      -9.368   0.036 -35.494  1.00  0.00     0.277 HD
HETATM   28  C   UNL     1      -9.400   0.942 -33.604  1.00  0.00     0.233 C 
HETATM   29  C   UNL     1      -8.136   1.125 -32.780  1.00  0.00     0.041 C 
ENDBRANCH   4  23
TORSDOF 4
ENDMDL
MODEL 2
REMARK VINA RESULT:      -8.7      1.265      1.706
REMARK  4 active torsions:
REMARK  status: ('A' for Active; 'I' for Inactive)
REMARK    1  A    between atoms: C_6  and  C_7 
REMARK    2  A    between atoms: C_7  and  C_8 
REMARK    3  A    between atoms: N_10  and  C_11 
REMARK    4  A    between atoms: C_19  and  C_20 
ROOT
HETATM    1  C   UNL     1      -4.859   1.649 -32.720  1.00  0.00     0.149 C 
HETATM    2  N   UNL     1      -4.542   0.363 -32.843  1.00  0.00    -0.150 NA
HETATM    3  N   UNL     1      -5.626  -0.168 -33.473  1.00  0.00    -0.218 N 
HETATM    4  C   UNL     1      -6.621   0.813 -33.539  1.00  0.00     0.136 C 
HETATM    5  N   UNL     1      -6.119   1.964 -33.128  1.00  0.00    -0.216 NA
ENDROOT
BRANCH   1   6
HETATM    6  C   UNL     1      -3.933   2.640 -32.107  1.00  0.00     0.087 C 
BRANCH   6   7
HETATM    7  C   UNL     1      -3.746   3.931 -32.938  1.00  0.00    -0.004 C 
HETATM    8  C   UNL     1      -2.277   4.330 -33.170  1.00  0.00     0.032 C 
HETATM    9  C   UNL     1      -1.581   4.802 -31.901  1.00  0.00     0.234 C 
HETATM   10  N   UNL     1      -2.351   5.964 -31.319  1.00  0.00    -0.075 N 
HETATM   11  C   UNL     1      -1.652   6.541 -30.113  1.00  0.00     0.269 C 
HETATM   12  H   UNL     1      -2.354   6.713 -32.026  1.00  0.00     0.279 HD
HETATM   13  C   UNL     1      -3.789   5.628 -31.017  1.00  0.00     0.234 C 
HETATM   14  C   UNL     1      -4.478   5.117 -32.280  1.00  0.00     0.032 C 
ENDBRANCH   6   7
ENDBRANCH   1   6
BRANCH   3  15
HETATM   15  C   UNL     1      -5.583  -1.521 -33.913  1.00  0.00     0.062 A 
HETATM   16  C   UNL     1      -4.499  -2.363 -33.641  1.00  0.00     0.058 A 
HETATM   17  C   UNL     1      -4.505  -3.687 -34.100  1.00  0.00     0.074 A 
HETATM   18 CL   UNL     1      -3.146  -4.687 -33.761  1.00  0.00    -0.081 Cl
HETATM   19  C   UNL     1      -5.593  -4.179 -34.814  1.00  0.00     0.138 A 
HETATM   20  F   UNL     1      -5.608  -5.442 -35.259  1.00  0.00    -0.204 F 
HETATM   21  C   UNL     1      -6.688  -3.364 -35.068  1.00  0.00     0.046 A 
HETATM   22  C   UNL     1      -6.689  -2.041 -34.614  1.00  0.00     0.035 A 
ENDBRANCH   3  15
BRANCH   4  23
HETATM   23  C   UNL     1      -8.064   0.624 -33.877  1.00  0.00     0.084 C 
HETATM   24  C   UNL     1      -8.759   1.950 -34.219  1.00  0.00     0.244 C 
HETATM   25  N   UNL     1     -10.218   1.701 -33.940  1.00  0.00    -0.074 N 
HETATM   26  H   UNL     1     -10.625   2.503 -33.436  1.00  0.00     0.277 HD
HETATM   27  H   UNL     1     -10.757   1.616 -34.814  1.00  0.00     0.277 HD
HETATM   28  C   UNL     1     -10.333   0.448 -33.126  1.00  0.00     0.233 C 
HETATM   29  C   UNL     1      -8.908   0.141 -32.699  1.00  0.00     0.041 C 
ENDBRANCH   4  23
TORSDOF 4
ENDMDL
MODEL 3
REMARK VINA RESULT:      -8.7      2.716      6.962
REMARK  4 active torsions:
REMARK  status: ('A' for Active; 'I' for Inactive)
REMARK    1  A    between atoms: C_6  and  C_7 
REMARK    2  A    between atoms: C_7  and  C_8 
REMARK    3  A    between atoms: N_10  and  C_11 
REMARK    4  A    between atoms: C_19  and  C_20 
ROOT
HETATM    1  C   UNL     1      -9.265   0.889 -33.244  1.00  0.00     0.149 C 
HETATM    2  N   UNL     1      -8.705  -0.254 -33.631  1.00  0.00    -0.150 NA
HETATM    3  N   UNL     1      -7.373   0.022 -33.591  1.00  0.00    -0.218 N 
HETATM    4  C   UNL     1      -7.213   1.389 -33.342  1.00  0.00     0.136 C 
HETATM    5  N   UNL     1      -8.392   1.916 -33.062  1.00  0.00    -0.216 NA
ENDROOT
BRANCH   1   6
HETATM    6  C   UNL     1     -10.740   1.042 -33.105  1.00  0.00     0.087 C 
BRANCH   6   7
HETATM    7  C   UNL     1     -11.362   2.081 -34.069  1.00  0.00    -0.004 C 
HETATM    8  C   UNL     1     -12.088   3.243 -33.367  1.00  0.00     0.032 C 
HETATM    9  C   UNL     1     -13.374   2.811 -32.677  1.00  0.00     0.234 C 
HETATM   10  N   UNL     1     -14.285   2.163 -33.691  1.00  0.00    -0.075 N 
HETATM   11  C   UNL     1     -15.620   1.805 -33.086  1.00  0.00     0.269 C 
HETATM   12  H   UNL     1     -14.487   2.868 -34.414  1.00  0.00     0.279 HD
HETATM   13  C   UNL     1     -13.655   0.981 -34.383  1.00  0.00     0.234 C 
HETATM   14  C   UNL     1     -12.345   1.404 -35.043  1.00  0.00     0.032 C 
ENDBRANCH   6   7
ENDBRANCH   1   6
BRANCH   3  15
HETATM   15  C   UNL     1      -6.436  -1.029 -33.803  1.00  0.00     0.062 A 
HETATM   16  C   UNL     1      -6.751  -2.176 -34.540  1.00  0.00     0.058 A 
HETATM   17  C   UNL     1      -5.794  -3.183 -34.717  1.00  0.00     0.074 A 
HETATM   18 CL   UNL     1      -6.224  -4.586 -35.615  1.00  0.00    -0.081 Cl
HETATM   19  C   UNL     1      -4.519  -3.045 -34.176  1.00  0.00     0.138 A 
HETATM   20  F   UNL     1      -3.597  -4.002 -34.337  1.00  0.00    -0.204 F 
HETATM   21  C   UNL     1      -4.183  -1.900 -33.465  1.00  0.00     0.046 A 
HETATM   22  C   UNL     1      -5.134  -0.891 -33.284  1.00  0.00     0.035 A 
ENDBRANCH   3  15
BRANCH   4  23
HETATM   23  C   UNL     1      -5.968   2.202 -33.489  1.00  0.00     0.084 C 
HETATM   24  C   UNL     1      -5.397   2.640 -32.133  1.00  0.00     0.244 C 
HETATM   25  N   UNL     1      -4.582   3.870 -32.440  1.00  0.00    -0.074 N 
HETATM   26  H   UNL     1      -4.762   4.599 -31.734  1.00  0.00     0.277 HD
HETATM   27  H   UNL     1      -3.572   3.672 -32.387  1.00  0.00     0.277 HD
HETATM   28  C   UNL     1      -4.954   4.351 -33.808  1.00  0.00     0.233 C 
HETATM   29  C   UNL     1      -6.197   3.552 -34.165  1.00  0.00     0.041 C 
ENDBRANCH   4  23
TORSDOF 4
ENDMDL
MODEL 4
REMARK VINA RESULT:      -8.3      2.880      6.553
REMARK  4 active torsions:
REMARK  status: ('A' for Active; 'I' for Inactive)
REMARK    1  A    between atoms: C_6  and  C_7 
REMARK    2  A    between atoms: C_7  and  C_8 
REMARK    3  A    between atoms: N_10  and  C_11 
REMARK    4  A    between atoms: C_19  and  C_20 
ROOT
HETATM    1  C   UNL     1      -9.391   0.756 -32.891  1.00  0.00     0.149 C 
HETATM    2  N   UNL     1      -8.645  -0.092 -33.594  1.00  0.00    -0.150 NA
HETATM    3  N   UNL     1      -7.463  -0.101 -32.919  1.00  0.00    -0.218 N 
HETATM    4  C   UNL     1      -7.511   0.888 -31.931  1.00  0.00     0.136 C 
HETATM    5  N   UNL     1      -8.736   1.378 -31.873  1.00  0.00    -0.216 NA
ENDROOT
BRANCH   1   6
HETATM    6  C   UNL     1     -10.804   1.056 -33.251  1.00  0.00     0.087 C 
BRANCH   6   7
HETATM    7  C   UNL     1     -10.975   1.737 -34.630  1.00  0.00    -0.004 C 
HETATM    8  C   UNL     1     -10.443   3.181 -34.696  1.00  0.00     0.032 C 
HETATM    9  C   UNL     1     -11.277   4.159 -33.880  1.00  0.00     0.234 C 
HETATM   10  N   UNL     1     -12.708   4.108 -34.360  1.00  0.00    -0.075 N 
HETATM   11  C   UNL     1     -13.563   5.132 -33.656  1.00  0.00     0.269 C 
HETATM   12  H   UNL     1     -12.706   4.380 -35.353  1.00  0.00     0.279 HD
HETATM   13  C   UNL     1     -13.311   2.730 -34.275  1.00  0.00     0.234 C 
HETATM   14  C   UNL     1     -12.455   1.739 -35.060  1.00  0.00     0.032 C 
ENDBRANCH   6   7
ENDBRANCH   1   6
BRANCH   3  15
HETATM   15  C   UNL     1      -6.450  -1.027 -33.300  1.00  0.00     0.062 A 
HETATM   16  C   UNL     1      -5.292  -1.225 -32.538  1.00  0.00     0.058 A 
HETATM   17  C   UNL     1      -4.325  -2.147 -32.959  1.00  0.00     0.074 A 
HETATM   18 CL   UNL     1      -2.907  -2.352 -32.005  1.00  0.00    -0.081 Cl
HETATM   19  C   UNL     1      -4.513  -2.883 -34.124  1.00  0.00     0.138 A 
HETATM   20  F   UNL     1      -3.594  -3.765 -34.536  1.00  0.00    -0.204 F 
HETATM   21  C   UNL     1      -5.670  -2.717 -34.876  1.00  0.00     0.046 A 
HETATM   22  C   UNL     1      -6.639  -1.798 -34.463  1.00  0.00     0.035 A 
ENDBRANCH   3  15
BRANCH   4  23
HETATM   23  C   UNL     1      -6.370   1.440 -31.139  1.00  0.00     0.084 C 
HETATM   24  C   UNL     1      -6.845   2.260 -29.931  1.00  0.00     0.244 C 
HETATM   25  N   UNL     1      -5.702   3.193 -29.629  1.00  0.00    -0.074 N 
HETATM   26  H   UNL     1      -6.059   4.142 -29.440  1.00  0.00     0.277 HD
HETATM   27  H   UNL     1      -5.202   2.907 -28.774  1.00  0.00     0.277 HD
HETATM   28  C   UNL     1      -4.775   3.197 -30.805  1.00  0.00     0.233 C 
HETATM   29  C   UNL     1      -5.548   2.479 -31.899  1.00  0.00     0.041 C 
ENDBRANCH   4  23
TORSDOF 4
ENDMDL
MODEL 5
REMARK VINA RESULT:      -8.3      3.129      4.977
REMARK  4 active torsions:
REMARK  status: ('A' for Active; 'I' for Inactive)
REMARK    1  A    between atoms: C_6  and  C_7 
REMARK    2  A    between atoms: C_7  and  C_8 
REMARK    3  A    between atoms: N_10  and  C_11 
REMARK    4  A    between atoms: C_19  and  C_20 
ROOT
HETATM    1  C   UNL     1      -5.474   2.885 -33.176  1.00  0.00     0.149 C 
HETATM    2  N   UNL     1      -6.779   2.913 -33.433  1.00  0.00    -0.150 NA
HETATM    3  N   UNL     1      -7.145   1.606 -33.335  1.00  0.00    -0.218 N 
HETATM    4  C   UNL     1      -5.988   0.834 -33.191  1.00  0.00     0.136 C 
HETATM    5  N   UNL     1      -4.952   1.637 -33.028  1.00  0.00    -0.216 NA
ENDROOT
BRANCH   1   6
HETATM    6  C   UNL     1      -4.645   4.122 -33.140  1.00  0.00     0.087 C 
BRANCH   6   7
HETATM    7  C   UNL     1      -3.131   3.864 -32.950  1.00  0.00    -0.004 C 
HETATM    8  C   UNL     1      -2.582   4.285 -31.575  1.00  0.00     0.032 C 
HETATM    9  C   UNL     1      -2.558   5.795 -31.381  1.00  0.00     0.234 C 
HETATM   10  N   UNL     1      -1.738   6.421 -32.484  1.00  0.00    -0.075 N 
HETATM   11  C   UNL     1      -1.592   7.909 -32.287  1.00  0.00     0.269 C 
HETATM   12  H   UNL     1      -0.785   6.035 -32.412  1.00  0.00     0.279 HD
HETATM   13  C   UNL     1      -2.251   6.091 -33.862  1.00  0.00     0.234 C 
HETATM   14  C   UNL     1      -2.313   4.577 -34.044  1.00  0.00     0.032 C 
ENDBRANCH   6   7
ENDBRANCH   1   6
BRANCH   3  15
HETATM   15  C   UNL     1      -8.525   1.261 -33.401  1.00  0.00     0.062 A 
HETATM   16  C   UNL     1      -9.435   1.966 -34.198  1.00  0.00     0.058 A 
HETATM   17  C   UNL     1     -10.783   1.587 -34.225  1.00  0.00     0.074 A 
HETATM   18 CL   UNL     1     -11.876   2.488 -35.203  1.00  0.00    -0.081 Cl
HETATM   19  C   UNL     1     -11.226   0.501 -33.476  1.00  0.00     0.138 A 
HETATM   20  F   UNL     1     -12.512   0.132 -33.494  1.00  0.00    -0.204 F 
HETATM   21  C   UNL     1     -10.329  -0.225 -32.703  1.00  0.00     0.046 A 
HETATM   22  C   UNL     1      -8.981   0.148 -32.669  1.00  0.00     0.035 A 
ENDBRANCH   3  15
BRANCH   4  23
HETATM   23  C   UNL     1      -5.859  -0.649 -33.330  1.00  0.00     0.084 C 
HETATM   24  C   UNL     1      -4.402  -1.118 -33.222  1.00  0.00     0.244 C 
HETATM   25  N   UNL     1      -4.368  -2.436 -33.951  1.00  0.00    -0.074 N 
HETATM   26  H   UNL     1      -3.534  -2.486 -34.555  1.00  0.00     0.277 HD
HETATM   27  H   UNL     1      -4.286  -3.225 -33.294  1.00  0.00     0.277 HD
HETATM   28  C   UNL     1      -5.621  -2.555 -34.764  1.00  0.00     0.233 C 
HETATM   29  C   UNL     1      -6.236  -1.166 -34.717  1.00  0.00     0.041 C 
ENDBRANCH   4  23
TORSDOF 4
ENDMDL
MODEL 6
REMARK VINA RESULT:      -8.2      2.720      6.419
REMARK  4 active torsions:
REMARK  status: ('A' for Active; 'I' for Inactive)
REMARK    1  A    between atoms: C_6  and  C_7 
REMARK    2  A    between atoms: C_7  and  C_8 
REMARK    3  A    between atoms: N_10  and  C_11 
REMARK    4  A    between atoms: C_19  and  C_20 
ROOT
HETATM    1  C   UNL     1      -8.642   1.694 -34.036  1.00  0.00     0.149 C 
HETATM    2  N   UNL     1      -8.026   0.664 -34.611  1.00  0.00    -0.150 NA
HETATM    3  N   UNL     1      -7.059   0.336 -33.711  1.00  0.00    -0.218 N 
HETATM    4  C   UNL     1      -7.040   1.312 -32.709  1.00  0.00     0.136 C 
HETATM    5  N   UNL     1      -8.069   2.122 -32.878  1.00  0.00    -0.216 NA
ENDROOT
BRANCH   1   6
HETATM    6  C   UNL     1      -9.812   2.368 -34.661  1.00  0.00     0.087 C 
BRANCH   6   7
HETATM    7  C   UNL     1     -11.170   2.012 -34.011  1.00  0.00    -0.004 C 
HETATM    8  C   UNL     1     -12.356   1.976 -34.993  1.00  0.00     0.032 C 
HETATM    9  C   UNL     1     -12.736   3.354 -35.516  1.00  0.00     0.234 C 
HETATM   10  N   UNL     1     -13.055   4.255 -34.347  1.00  0.00    -0.075 N 
HETATM   11  C   UNL     1     -13.538   5.608 -34.808  1.00  0.00     0.269 C 
HETATM   12  H   UNL     1     -13.847   3.832 -33.843  1.00  0.00     0.279 HD
HETATM   13  C   UNL     1     -11.916   4.378 -33.367  1.00  0.00     0.234 C 
HETATM   14  C   UNL     1     -11.506   2.993 -32.872  1.00  0.00     0.032 C 
ENDBRANCH   6   7
ENDBRANCH   1   6
BRANCH   3  15
HETATM   15  C   UNL     1      -6.281  -0.838 -33.921  1.00  0.00     0.062 A 
HETATM   16  C   UNL     1      -6.815  -1.998 -34.494  1.00  0.00     0.058 A 
HETATM   17  C   UNL     1      -6.007  -3.127 -34.676  1.00  0.00     0.074 A 
HETATM   18 CL   UNL     1      -6.704  -4.541 -35.368  1.00  0.00    -0.081 Cl
HETATM   19  C   UNL     1      -4.666  -3.101 -34.306  1.00  0.00     0.138 A 
HETATM   20  F   UNL     1      -3.886  -4.175 -34.474  1.00  0.00    -0.204 F 
HETATM   21  C   UNL     1      -4.114  -1.948 -33.762  1.00  0.00     0.046 A 
HETATM   22  C   UNL     1      -4.915  -0.817 -33.576  1.00  0.00     0.035 A 
ENDBRANCH   3  15
BRANCH   4  23
HETATM   23  C   UNL     1      -5.982   1.536 -31.677  1.00  0.00     0.084 C 
HETATM   24  C   UNL     1      -6.554   2.122 -30.378  1.00  0.00     0.244 C 
HETATM   25  N   UNL     1      -5.389   2.823 -29.729  1.00  0.00    -0.074 N 
HETATM   26  H   UNL     1      -5.683   3.743 -29.370  1.00  0.00     0.277 HD
HETATM   27  H   UNL     1      -5.047   2.298 -28.910  1.00  0.00     0.277 HD
HETATM   28  C   UNL     1      -4.303   2.972 -30.750  1.00  0.00     0.233 C 
HETATM   29  C   UNL     1      -4.968   2.609 -32.067  1.00  0.00     0.041 C 
ENDBRANCH   4  23
TORSDOF 4
ENDMDL
MODEL 7
REMARK VINA RESULT:      -8.0      4.175      8.380
REMARK  4 active torsions:
REMARK  status: ('A' for Active; 'I' for Inactive)
REMARK    1  A    between atoms: C_6  and  C_7 
REMARK    2  A    between atoms: C_7  and  C_8 
REMARK    3  A    between atoms: N_10  and  C_11 
REMARK    4  A    between atoms: C_19  and  C_20 
ROOT
HETATM    1  C   UNL     1      -9.498   1.156 -33.529  1.00  0.00     0.149 C 
HETATM    2  N   UNL     1      -8.860   2.225 -33.061  1.00  0.00    -0.150 NA
HETATM    3  N   UNL     1      -7.563   1.989 -33.403  1.00  0.00    -0.218 N 
HETATM    4  C   UNL     1      -7.472   0.691 -33.914  1.00  0.00     0.136 C 
HETATM    5  N   UNL     1      -8.689   0.196 -34.052  1.00  0.00    -0.216 NA
ENDROOT
BRANCH   1   6
HETATM    6  C   UNL     1     -10.974   0.997 -33.409  1.00  0.00     0.087 C 
BRANCH   6   7
HETATM    7  C   UNL     1     -11.788   1.909 -34.358  1.00  0.00    -0.004 C 
HETATM    8  C   UNL     1     -12.257   3.231 -33.722  1.00  0.00     0.032 C 
HETATM    9  C   UNL     1     -13.330   3.032 -32.660  1.00  0.00     0.234 C 
HETATM   10  N   UNL     1     -14.502   2.303 -33.274  1.00  0.00    -0.075 N 
HETATM   11  C   UNL     1     -15.641   2.167 -32.294  1.00  0.00     0.269 C 
HETATM   12  H   UNL     1     -14.860   2.891 -34.039  1.00  0.00     0.279 HD
HETATM   13  C   UNL     1     -14.123   0.972 -33.872  1.00  0.00     0.234 C 
HETATM   14  C   UNL     1     -13.020   1.165 -34.909  1.00  0.00     0.032 C 
ENDBRANCH   6   7
ENDBRANCH   1   6
BRANCH   3  15
HETATM   15  C   UNL     1      -6.591   3.008 -33.193  1.00  0.00     0.062 A 
HETATM   16  C   UNL     1      -5.845   3.558 -34.241  1.00  0.00     0.058 A 
HETATM   17  C   UNL     1      -4.898   4.557 -33.980  1.00  0.00     0.074 A 
HETATM   18 CL   UNL     1      -3.987   5.197 -35.293  1.00  0.00    -0.081 Cl
HETATM   19  C   UNL     1      -4.702   5.021 -32.683  1.00  0.00     0.138 A 
HETATM   20  F   UNL     1      -3.799   5.973 -32.423  1.00  0.00    -0.204 F 
HETATM   21  C   UNL     1      -5.455   4.504 -31.636  1.00  0.00     0.046 A 
HETATM   22  C   UNL     1      -6.401   3.506 -31.889  1.00  0.00     0.035 A 
ENDBRANCH   3  15
BRANCH   4  23
HETATM   23  C   UNL     1      -6.231  -0.108 -34.152  1.00  0.00     0.084 C 
HETATM   24  C   UNL     1      -6.537  -1.495 -34.735  1.00  0.00     0.244 C 
HETATM   25  N   UNL     1      -5.348  -2.340 -34.357  1.00  0.00    -0.074 N 
HETATM   26  H   UNL     1      -5.662  -3.261 -34.016  1.00  0.00     0.277 HD
HETATM   27  H   UNL     1      -4.752  -2.533 -35.175  1.00  0.00     0.277 HD
HETATM   28  C   UNL     1      -4.575  -1.616 -33.299  1.00  0.00     0.233 C 
HETATM   29  C   UNL     1      -5.490  -0.481 -32.870  1.00  0.00     0.041 C 
ENDBRANCH   4  23
TORSDOF 4
ENDMDL
MODEL 8
REMARK VINA RESULT:      -8.0      4.526      7.379
REMARK  4 active torsions:
REMARK  status: ('A' for Active; 'I' for Inactive)
REMARK    1  A    between atoms: C_6  and  C_7 
REMARK    2  A    between atoms: C_7  and  C_8 
REMARK    3  A    between atoms: N_10  and  C_11 
REMARK    4  A    between atoms: C_19  and  C_20 
ROOT
HETATM    1  C   UNL     1      -6.795   0.320 -31.895  1.00  0.00     0.149 C 
HETATM    2  N   UNL     1      -7.931   0.111 -32.555  1.00  0.00    -0.150 NA
HETATM    3  N   UNL     1      -8.564   1.313 -32.474  1.00  0.00    -0.218 N 
HETATM    4  C   UNL     1      -7.837   2.138 -31.610  1.00  0.00     0.136 C 
HETATM    5  N   UNL     1      -6.700   1.539 -31.300  1.00  0.00    -0.216 NA
ENDROOT
BRANCH   1   6
HETATM    6  C   UNL     1      -5.754  -0.736 -31.755  1.00  0.00     0.087 C 
BRANCH   6   7
HETATM    7  C   UNL     1      -4.607  -0.635 -32.789  1.00  0.00    -0.004 C 
HETATM    8  C   UNL     1      -4.916  -1.291 -34.147  1.00  0.00     0.032 C 
HETATM    9  C   UNL     1      -4.988  -2.810 -34.071  1.00  0.00     0.234 C 
HETATM   10  N   UNL     1      -3.685  -3.339 -33.520  1.00  0.00    -0.075 N 
HETATM   11  C   UNL     1      -3.659  -4.847 -33.517  1.00  0.00     0.269 C 
HETATM   12  H   UNL     1      -2.939  -3.048 -34.168  1.00  0.00     0.279 HD
HETATM   13  C   UNL     1      -3.344  -2.775 -32.164  1.00  0.00     0.234 C 
HETATM   14  C   UNL     1      -3.310  -1.250 -32.230  1.00  0.00     0.032 C 
ENDBRANCH   6   7
ENDBRANCH   1   6
BRANCH   3  15
HETATM   15  C   UNL     1      -9.767   1.519 -33.208  1.00  0.00     0.062 A 
HETATM   16  C   UNL     1     -10.864   0.655 -33.105  1.00  0.00     0.058 A 
HETATM   17  C   UNL     1     -12.024   0.901 -33.851  1.00  0.00     0.074 A 
HETATM   18 CL   UNL     1     -13.345  -0.193 -33.711  1.00  0.00    -0.081 Cl
HETATM   19  C   UNL     1     -12.102   2.012 -34.686  1.00  0.00     0.138 A 
HETATM   20  F   UNL     1     -13.205   2.254 -35.404  1.00  0.00    -0.204 F 
HETATM   21  C   UNL     1     -11.032   2.893 -34.777  1.00  0.00     0.046 A 
HETATM   22  C   UNL     1      -9.871   2.653 -34.036  1.00  0.00     0.035 A 
ENDBRANCH   3  15
BRANCH   4  23
HETATM   23  C   UNL     1      -8.278   3.426 -30.993  1.00  0.00     0.084 C 
HETATM   24  C   UNL     1      -7.769   4.646 -31.772  1.00  0.00     0.244 C 
HETATM   25  N   UNL     1      -7.759   5.767 -30.765  1.00  0.00    -0.074 N 
HETATM   26  H   UNL     1      -6.888   6.312 -30.849  1.00  0.00     0.277 HD
HETATM   27  H   UNL     1      -8.525   6.434 -30.940  1.00  0.00     0.277 HD
HETATM   28  C   UNL     1      -7.883   5.169 -29.397  1.00  0.00     0.233 C 
HETATM   29  C   UNL     1      -7.674   3.680 -29.614  1.00  0.00     0.041 C 
ENDBRANCH   4  23
TORSDOF 4
ENDMDL
MODEL 9
REMARK VINA RESULT:      -7.8      2.298      3.351
REMARK  4 active torsions:
REMARK  status: ('A' for Active; 'I' for Inactive)
REMARK    1  A    between atoms: C_6  and  C_7 
REMARK    2  A    between atoms: C_7  and  C_8 
REMARK    3  A    between atoms: N_10  and  C_11 
REMARK    4  A    between atoms: C_19  and  C_20 
ROOT
HETATM    1  C   UNL     1      -5.446   4.467 -33.395  1.00  0.00     0.149 C 
HETATM    2  N   UNL     1      -5.112   3.237 -33.778  1.00  0.00    -0.150 NA
HETATM    3  N   UNL     1      -6.206   2.498 -33.446  1.00  0.00    -0.218 N 
HETATM    4  C   UNL     1      -7.080   3.310 -32.715  1.00  0.00     0.136 C 
HETATM    5  N   UNL     1      -6.635   4.553 -32.740  1.00  0.00    -0.216 NA
ENDROOT
BRANCH   1   6
HETATM    6  C   UNL     1      -4.543   5.633 -33.598  1.00  0.00     0.087 C 
BRANCH   6   7
HETATM    7  C   UNL     1      -3.079   5.251 -33.925  1.00  0.00    -0.004 C 
HETATM    8  C   UNL     1      -2.362   4.470 -32.809  1.00  0.00     0.032 C 
HETATM    9  C   UNL     1      -2.081   5.319 -31.576  1.00  0.00     0.234 C 
HETATM   10  N   UNL     1      -1.262   6.521 -31.981  1.00  0.00    -0.075 N 
HETATM   11  C   UNL     1      -0.865   7.348 -30.783  1.00  0.00     0.269 C 
HETATM   12  H   UNL     1      -0.381   6.169 -32.382  1.00  0.00     0.279 HD
HETATM   13  C   UNL     1      -1.930   7.363 -33.038  1.00  0.00     0.234 C 
HETATM   14  C   UNL     1      -2.248   6.505 -34.260  1.00  0.00     0.032 C 
ENDBRANCH   6   7
ENDBRANCH   1   6
BRANCH   3  15
HETATM   15  C   UNL     1      -6.276   1.135 -33.850  1.00  0.00     0.062 A 
HETATM   16  C   UNL     1      -5.379   0.168 -33.379  1.00  0.00     0.058 A 
HETATM   17  C   UNL     1      -5.490  -1.160 -33.809  1.00  0.00     0.074 A 
HETATM   18 CL   UNL     1      -4.359  -2.317 -33.223  1.00  0.00    -0.081 Cl
HETATM   19  C   UNL     1      -6.498  -1.533 -34.693  1.00  0.00     0.138 A 
HETATM   20  F   UNL     1      -6.611  -2.799 -35.112  1.00  0.00    -0.204 F 
HETATM   21  C   UNL     1      -7.412  -0.591 -35.146  1.00  0.00     0.046 A 
HETATM   22  C   UNL     1      -7.308   0.738 -34.722  1.00  0.00     0.035 A 
ENDBRANCH   3  15
BRANCH   4  23
HETATM   23  C   UNL     1      -8.260   2.879 -31.905  1.00  0.00     0.084 C 
HETATM   24  C   UNL     1      -9.555   2.861 -32.728  1.00  0.00     0.244 C 
HETATM   25  N   UNL     1     -10.657   3.010 -31.712  1.00  0.00    -0.074 N 
HETATM   26  H   UNL     1     -11.360   3.685 -32.047  1.00  0.00     0.277 HD
HETATM   27  H   UNL     1     -11.163   2.122 -31.577  1.00  0.00     0.277 HD
HETATM   28  C   UNL     1     -10.048   3.470 -30.423  1.00  0.00     0.233 C 
HETATM   29  C   UNL     1      -8.627   3.859 -30.794  1.00  0.00     0.041 C 
ENDBRANCH   4  23
TORSDOF 4
ENDMDL
MODEL 10
REMARK VINA RESULT:      -7.7     15.276     16.673
REMARK  4 active torsions:
REMARK  status: ('A' for Active; 'I' for Inactive)
REMARK    1  A    between atoms: C_6  and  C_7 
REMARK    2  A    between atoms: C_7  and  C_8 
REMARK    3  A    between atoms: N_10  and  C_11 
REMARK    4  A    between atoms: C_19  and  C_20 
ROOT
HETATM    1  C   UNL     1      -4.641 -13.066 -38.090  1.00  0.00     0.149 C 
HETATM    2  N   UNL     1      -5.597 -13.212 -39.003  1.00  0.00    -0.150 NA
HETATM    3  N   UNL     1      -6.709 -13.452 -38.255  1.00  0.00    -0.218 N 
HETATM    4  C   UNL     1      -6.318 -13.608 -36.922  1.00  0.00     0.136 C 
HETATM    5  N   UNL     1      -5.037 -13.303 -36.810  1.00  0.00    -0.216 NA
ENDROOT
BRANCH   1   6
HETATM    6  C   UNL     1      -3.234 -12.749 -38.459  1.00  0.00     0.087 C 
BRANCH   6   7
HETATM    7  C   UNL     1      -2.590 -13.767 -39.431  1.00  0.00    -0.004 C 
HETATM    8  C   UNL     1      -2.777 -15.241 -39.023  1.00  0.00     0.032 C 
HETATM    9  C   UNL     1      -1.985 -15.618 -37.778  1.00  0.00     0.234 C 
HETATM   10  N   UNL     1      -0.523 -15.323 -38.015  1.00  0.00    -0.075 N 
HETATM   11  C   UNL     1       0.326 -15.772 -36.852  1.00  0.00     0.269 C 
HETATM   12  H   UNL     1      -0.223 -15.895 -38.818  1.00  0.00     0.279 HD
HETATM   13  C   UNL     1      -0.260 -13.882 -38.370  1.00  0.00     0.234 C 
HETATM   14  C   UNL     1      -1.083 -13.491 -39.594  1.00  0.00     0.032 C 
ENDBRANCH   6   7
ENDBRANCH   1   6
BRANCH   3  15
HETATM   15  C   UNL     1      -7.980 -13.513 -38.895  1.00  0.00     0.062 A 
HETATM   16  C   UNL     1      -8.625 -12.373 -39.388  1.00  0.00     0.058 A 
HETATM   17  C   UNL     1      -9.876 -12.487 -40.008  1.00  0.00     0.074 A 
HETATM   18 CL   UNL     1     -10.646 -11.061 -40.586  1.00  0.00    -0.081 Cl
HETATM   19  C   UNL     1     -10.480 -13.732 -40.152  1.00  0.00     0.138 A 
HETATM   20  F   UNL     1     -11.676 -13.852 -40.740  1.00  0.00    -0.204 F 
HETATM   21  C   UNL     1      -9.839 -14.876 -39.693  1.00  0.00     0.046 A 
HETATM   22  C   UNL     1      -8.590 -14.770 -39.072  1.00  0.00     0.035 A 
ENDBRANCH   3  15
BRANCH   4  23
HETATM   23  C   UNL     1      -7.130 -14.158 -35.793  1.00  0.00     0.084 C 
HETATM   24  C   UNL     1      -6.733 -13.547 -34.442  1.00  0.00     0.244 C 
HETATM   25  N   UNL     1      -7.158 -14.570 -33.420  1.00  0.00    -0.074 N 
HETATM   26  H   UNL     1      -6.418 -14.693 -32.713  1.00  0.00     0.277 HD
HETATM   27  H   UNL     1      -7.992 -14.257 -32.902  1.00  0.00     0.277 HD
HETATM   28  C   UNL     1      -7.432 -15.859 -34.132  1.00  0.00     0.233 C 
HETATM   29  C   UNL     1      -6.883 -15.642 -35.533  1.00  0.00     0.041 C 
ENDBRANCH   4  23
TORSDOF 4
ENDMDL
