MODEL 1
REMARK VINA RESULT:      -9.3      0.000      0.000
REMARK  4 active torsions:
REMARK  status: ('A' for Active; 'I' for Inactive)
REMARK    1  A    between atoms: O_2  and  C_3 
REMARK    2  A    between atoms: C_6  and  C_7 
REMARK    3  A    between atoms: C_11  and  C_12 
REMARK       I    between atoms: C_12  and  N_13 
REMARK    4  A    between atoms: N_13  and  N_14 
ROOT
HETATM    1  C   UNL     1      -7.266   0.398 -32.246  1.00  0.00     0.289 C 
HETATM    2  N   UNL     1      -6.248   0.265 -33.177  1.00  0.00    -0.241 N 
HETATM    3  O   UNL     1      -7.133   0.285 -31.032  1.00  0.00    -0.264 OA
HETATM    4  H   UNL     1      -6.495   0.175 -34.151  1.00  0.00     0.192 HD
ENDROOT
BRANCH   1   5
HETATM    5  C   UNL     1      -8.544   0.721 -32.838  1.00  0.00     0.121 A 
HETATM    6  N   UNL     1      -8.681   0.987 -34.171  1.00  0.00    -0.272 N 
HETATM    7  N   UNL     1      -9.943   1.247 -34.553  1.00  0.00    -0.174 NA
HETATM    8  H   UNL     1      -7.941   1.001 -34.869  1.00  0.00     0.189 HD
HETATM    9  C   UNL     1     -10.670   1.119 -33.432  1.00  0.00     0.089 A 
HETATM   10  C   UNL     1      -9.824   0.813 -32.331  1.00  0.00     0.071 A 
BRANCH   9  11
HETATM   11  C   UNL     1     -12.125   1.291 -33.411  1.00  0.00    -0.005 A 
HETATM   12  C   UNL     1     -12.976   0.254 -33.815  1.00  0.00     0.016 A 
HETATM   13  C   UNL     1     -14.364   0.411 -33.768  1.00  0.00     0.037 A 
HETATM   14  C   UNL     1     -14.929   1.602 -33.313  1.00  0.00     0.068 A 
HETATM   15  C   UNL     1     -14.093   2.649 -32.928  1.00  0.00     0.037 A 
HETATM   16  C   UNL     1     -12.700   2.493 -32.979  1.00  0.00     0.016 A 
BRANCH  14  17
HETATM   17  O   UNL     1     -16.296   1.614 -33.302  1.00  0.00    -0.356 OA
HETATM   18  C   UNL     1     -16.918   2.541 -32.422  1.00  0.00     0.210 C 
ENDBRANCH  14  17
ENDBRANCH   9  11
ENDBRANCH   1   5
BRANCH   2  19
HETATM   19  N   UNL     1      -4.989  -0.101 -32.813  1.00  0.00    -0.165 NA
HETATM   20  C   UNL     1      -4.611  -1.318 -33.063  1.00  0.00     0.157 A 
HETATM   21  C   UNL     1      -3.295  -1.887 -32.494  1.00  0.00     0.277 A 
HETATM   22  C   UNL     1      -5.221  -2.420 -33.825  1.00  0.00     0.027 A 
HETATM   23  O   UNL     1      -2.463  -1.288 -31.851  1.00  0.00    -0.266 OA
HETATM   24  N   UNL     1      -3.288  -3.217 -32.853  1.00  0.00    -0.321 N 
HETATM   25  C   UNL     1      -4.396  -3.531 -33.630  1.00  0.00     0.048 A 
HETATM   26  H   UNL     1      -2.533  -3.841 -32.609  1.00  0.00     0.169 HD
HETATM   27  C   UNL     1      -4.675  -4.758 -34.198  1.00  0.00     0.030 A 
HETATM   28  C   UNL     1      -5.814  -4.855 -35.002  1.00  0.00     0.002 A 
HETATM   29  C   UNL     1      -6.626  -3.731 -35.237  1.00  0.00     0.001 A 
HETATM   30  C   UNL     1      -6.326  -2.494 -34.656  1.00  0.00     0.016 A 
ENDBRANCH   2  19
TORSDOF 4
ENDMDL
MODEL 2
REMARK VINA RESULT:      -9.0      1.208      1.553
REMARK  4 active torsions:
REMARK  status: ('A' for Active; 'I' for Inactive)
REMARK    1  A    between atoms: O_2  and  C_3 
REMARK    2  A    between atoms: C_6  and  C_7 
REMARK    3  A    between atoms: C_11  and  C_12 
REMARK       I    between atoms: C_12  and  N_13 
REMARK    4  A    between atoms: N_13  and  N_14 
ROOT
HETATM    1  C   UNL     1      -7.605   2.026 -32.931  1.00  0.00     0.289 C 
HETATM    2  N   UNL     1      -6.981   0.811 -32.700  1.00  0.00    -0.241 N 
HETATM    3  O   UNL     1      -7.073   3.126 -32.822  1.00  0.00    -0.264 OA
HETATM    4  H   UNL     1      -7.552  -0.016 -32.620  1.00  0.00     0.192 HD
ENDROOT
BRANCH   1   5
HETATM    5  C   UNL     1      -8.980   1.892 -33.353  1.00  0.00     0.121 A 
HETATM    6  N   UNL     1      -9.318   1.478 -34.611  1.00  0.00    -0.272 N 
HETATM    7  N   UNL     1     -10.642   1.390 -34.823  1.00  0.00    -0.174 NA
HETATM    8  H   UNL     1      -8.680   1.237 -35.365  1.00  0.00     0.189 HD
HETATM    9  C   UNL     1     -11.198   1.733 -33.651  1.00  0.00     0.089 A 
HETATM   10  C   UNL     1     -10.188   2.078 -32.712  1.00  0.00     0.071 A 
BRANCH   9  11
HETATM   11  C   UNL     1     -12.647   1.739 -33.437  1.00  0.00    -0.005 A 
HETATM   12  C   UNL     1     -13.236   2.639 -32.538  1.00  0.00     0.016 A 
HETATM   13  C   UNL     1     -14.622   2.661 -32.356  1.00  0.00     0.037 A 
HETATM   14  C   UNL     1     -15.446   1.791 -33.069  1.00  0.00     0.068 A 
HETATM   15  C   UNL     1     -14.870   0.877 -33.951  1.00  0.00     0.037 A 
HETATM   16  C   UNL     1     -13.480   0.851 -34.130  1.00  0.00     0.016 A 
BRANCH  14  17
HETATM   17  O   UNL     1     -16.780   1.931 -32.808  1.00  0.00    -0.356 OA
HETATM   18  C   UNL     1     -17.152   2.994 -31.941  1.00  0.00     0.210 C 
ENDBRANCH  14  17
ENDBRANCH   9  11
ENDBRANCH   1   5
BRANCH   2  19
HETATM   19  N   UNL     1      -5.704   0.739 -32.233  1.00  0.00    -0.165 NA
HETATM   20  C   UNL     1      -5.014  -0.326 -32.506  1.00  0.00     0.157 A 
HETATM   21  C   UNL     1      -3.648  -0.594 -31.839  1.00  0.00     0.277 A 
HETATM   22  C   UNL     1      -5.262  -1.485 -33.378  1.00  0.00     0.027 A 
HETATM   23  O   UNL     1      -3.050   0.142 -31.088  1.00  0.00    -0.266 OA
HETATM   24  N   UNL     1      -3.277  -1.852 -32.263  1.00  0.00    -0.321 N 
HETATM   25  C   UNL     1      -4.203  -2.370 -33.159  1.00  0.00     0.048 A 
HETATM   26  H   UNL     1      -2.413  -2.287 -31.977  1.00  0.00     0.169 HD
HETATM   27  C   UNL     1      -4.117  -3.583 -33.813  1.00  0.00     0.030 A 
HETATM   28  C   UNL     1      -5.124  -3.897 -34.729  1.00  0.00     0.002 A 
HETATM   29  C   UNL     1      -6.170  -2.994 -34.987  1.00  0.00     0.001 A 
HETATM   30  C   UNL     1      -6.240  -1.767 -34.317  1.00  0.00     0.016 A 
ENDBRANCH   2  19
TORSDOF 4
ENDMDL
MODEL 3
REMARK VINA RESULT:      -8.9      5.293      8.741
REMARK  4 active torsions:
REMARK  status: ('A' for Active; 'I' for Inactive)
REMARK    1  A    between atoms: O_2  and  C_3 
REMARK    2  A    between atoms: C_6  and  C_7 
REMARK    3  A    between atoms: C_11  and  C_12 
REMARK       I    between atoms: C_12  and  N_13 
REMARK    4  A    between atoms: N_13  and  N_14 
ROOT
HETATM    1  C   UNL     1      -6.702   4.267 -33.393  1.00  0.00     0.289 C 
HETATM    2  N   UNL     1      -5.883   4.553 -32.311  1.00  0.00    -0.241 N 
HETATM    3  O   UNL     1      -7.263   5.103 -34.093  1.00  0.00    -0.264 OA
HETATM    4  H   UNL     1      -5.637   3.802 -31.684  1.00  0.00     0.192 HD
ENDROOT
BRANCH   1   5
HETATM    5  C   UNL     1      -6.827   2.853 -33.658  1.00  0.00     0.121 A 
HETATM    6  N   UNL     1      -7.977   2.305 -34.153  1.00  0.00    -0.272 N 
HETATM    7  N   UNL     1      -7.908   0.978 -34.358  1.00  0.00    -0.174 NA
HETATM    8  H   UNL     1      -8.839   2.795 -34.373  1.00  0.00     0.189 HD
HETATM    9  C   UNL     1      -6.656   0.645 -34.011  1.00  0.00     0.089 A 
HETATM   10  C   UNL     1      -5.955   1.790 -33.544  1.00  0.00     0.071 A 
BRANCH   9  11
HETATM   11  C   UNL     1      -6.147  -0.726 -34.115  1.00  0.00    -0.005 A 
HETATM   12  C   UNL     1      -6.959  -1.758 -34.603  1.00  0.00     0.016 A 
HETATM   13  C   UNL     1      -6.462  -3.059 -34.727  1.00  0.00     0.037 A 
HETATM   14  C   UNL     1      -5.146  -3.353 -34.371  1.00  0.00     0.068 A 
HETATM   15  C   UNL     1      -4.335  -2.339 -33.863  1.00  0.00     0.037 A 
HETATM   16  C   UNL     1      -4.834  -1.035 -33.735  1.00  0.00     0.016 A 
BRANCH  14  17
HETATM   17  O   UNL     1      -4.786  -4.658 -34.558  1.00  0.00    -0.356 OA
HETATM   18  C   UNL     1      -3.897  -5.218 -33.600  1.00  0.00     0.210 C 
ENDBRANCH  14  17
ENDBRANCH   9  11
ENDBRANCH   1   5
BRANCH   2  19
HETATM   19  N   UNL     1      -5.698   5.826 -31.870  1.00  0.00    -0.165 NA
HETATM   20  C   UNL     1      -4.583   6.420 -32.168  1.00  0.00     0.157 A 
HETATM   21  C   UNL     1      -4.192   7.770 -31.531  1.00  0.00     0.277 A 
HETATM   22  C   UNL     1      -3.461   6.059 -33.050  1.00  0.00     0.027 A 
HETATM   23  O   UNL     1      -4.865   8.442 -30.783  1.00  0.00    -0.266 OA
HETATM   24  N   UNL     1      -2.914   8.026 -31.977  1.00  0.00    -0.321 N 
HETATM   25  C   UNL     1      -2.487   7.044 -32.861  1.00  0.00     0.048 A 
HETATM   26  H   UNL     1      -2.403   8.855 -31.713  1.00  0.00     0.169 HD
HETATM   27  C   UNL     1      -1.280   7.015 -33.531  1.00  0.00     0.030 A 
HETATM   28  C   UNL     1      -1.064   5.969 -34.431  1.00  0.00     0.002 A 
HETATM   29  C   UNL     1      -2.055   4.998 -34.658  1.00  0.00     0.001 A 
HETATM   30  C   UNL     1      -3.275   5.044 -33.973  1.00  0.00     0.016 A 
ENDBRANCH   2  19
TORSDOF 4
ENDMDL
MODEL 4
REMARK VINA RESULT:      -8.8      5.601      8.767
REMARK  4 active torsions:
REMARK  status: ('A' for Active; 'I' for Inactive)
REMARK    1  A    between atoms: O_2  and  C_3 
REMARK    2  A    between atoms: C_6  and  C_7 
REMARK    3  A    between atoms: C_11  and  C_12 
REMARK       I    between atoms: C_12  and  N_13 
REMARK    4  A    between atoms: N_13  and  N_14 
ROOT
HETATM    1  C   UNL     1      -5.793   3.793 -29.977  1.00  0.00     0.289 C 
HETATM    2  N   UNL     1      -4.621   4.427 -30.357  1.00  0.00    -0.241 N 
HETATM    3  O   UNL     1      -6.704   4.315 -29.343  1.00  0.00    -0.264 OA
HETATM    4  H   UNL     1      -3.856   3.862 -30.693  1.00  0.00     0.192 HD
ENDROOT
BRANCH   1   5
HETATM    5  C   UNL     1      -5.874   2.423 -30.426  1.00  0.00     0.121 A 
HETATM    6  N   UNL     1      -6.394   1.431 -29.643  1.00  0.00    -0.272 N 
HETATM    7  N   UNL     1      -6.409   0.221 -30.229  1.00  0.00    -0.174 NA
HETATM    8  H   UNL     1      -6.757   1.527 -28.699  1.00  0.00     0.189 HD
HETATM    9  C   UNL     1      -5.906   0.430 -31.455  1.00  0.00     0.089 A 
HETATM   10  C   UNL     1      -5.537   1.794 -31.607  1.00  0.00     0.071 A 
BRANCH   9  11
HETATM   11  C   UNL     1      -5.775  -0.640 -32.447  1.00  0.00    -0.005 A 
HETATM   12  C   UNL     1      -6.874  -1.045 -33.216  1.00  0.00     0.016 A 
HETATM   13  C   UNL     1      -6.739  -2.047 -34.182  1.00  0.00     0.037 A 
HETATM   14  C   UNL     1      -5.507  -2.660 -34.401  1.00  0.00     0.068 A 
HETATM   15  C   UNL     1      -4.410  -2.281 -33.627  1.00  0.00     0.037 A 
HETATM   16  C   UNL     1      -4.546  -1.280 -32.656  1.00  0.00     0.016 A 
BRANCH  14  17
HETATM   17  O   UNL     1      -5.512  -3.610 -35.384  1.00  0.00    -0.356 OA
HETATM   18  C   UNL     1      -6.618  -4.502 -35.403  1.00  0.00     0.210 C 
ENDBRANCH  14  17
ENDBRANCH   9  11
ENDBRANCH   1   5
BRANCH   2  19
HETATM   19  N   UNL     1      -4.337   5.700 -29.969  1.00  0.00    -0.165 NA
HETATM   20  C   UNL     1      -3.471   6.371 -30.665  1.00  0.00     0.157 A 
HETATM   21  C   UNL     1      -2.923   7.730 -30.178  1.00  0.00     0.277 A 
HETATM   22  C   UNL     1      -2.786   6.104 -31.941  1.00  0.00     0.027 A 
HETATM   23  O   UNL     1      -3.267   8.340 -29.192  1.00  0.00    -0.266 OA
HETATM   24  N   UNL     1      -1.951   8.078 -31.090  1.00  0.00    -0.321 N 
HETATM   25  C   UNL     1      -1.871   7.145 -32.116  1.00  0.00     0.048 A 
HETATM   26  H   UNL     1      -1.420   8.932 -31.017  1.00  0.00     0.169 HD
HETATM   27  C   UNL     1      -1.041   7.210 -33.218  1.00  0.00     0.030 A 
HETATM   28  C   UNL     1      -1.156   6.200 -34.176  1.00  0.00     0.002 A 
HETATM   29  C   UNL     1      -2.104   5.172 -34.027  1.00  0.00     0.001 A 
HETATM   30  C   UNL     1      -2.940   5.124 -32.906  1.00  0.00     0.016 A 
ENDBRANCH   2  19
TORSDOF 4
ENDMDL
MODEL 5
REMARK VINA RESULT:      -8.4      2.991      9.092
REMARK  4 active torsions:
REMARK  status: ('A' for Active; 'I' for Inactive)
REMARK    1  A    between atoms: O_2  and  C_3 
REMARK    2  A    between atoms: C_6  and  C_7 
REMARK    3  A    between atoms: C_11  and  C_12 
REMARK       I    between atoms: C_12  and  N_13 
REMARK    4  A    between atoms: N_13  and  N_14 
ROOT
HETATM    1  C   UNL     1      -8.341   3.150 -30.179  1.00  0.00     0.289 C 
HETATM    2  N   UNL     1      -9.646   2.837 -30.527  1.00  0.00    -0.241 N 
HETATM    3  O   UNL     1      -7.985   4.191 -29.638  1.00  0.00    -0.264 OA
HETATM    4  H   UNL     1      -9.804   2.055 -31.144  1.00  0.00     0.192 HD
ENDROOT
BRANCH   1   5
HETATM    5  C   UNL     1      -7.399   2.101 -30.491  1.00  0.00     0.121 A 
HETATM    6  N   UNL     1      -6.506   1.627 -29.571  1.00  0.00    -0.272 N 
HETATM    7  N   UNL     1      -5.720   0.637 -30.028  1.00  0.00    -0.174 NA
HETATM    8  H   UNL     1      -6.396   1.943 -28.612  1.00  0.00     0.189 HD
HETATM    9  C   UNL     1      -6.128   0.433 -31.290  1.00  0.00     0.089 A 
HETATM   10  C   UNL     1      -7.163   1.349 -31.624  1.00  0.00     0.071 A 
BRANCH   9  11
HETATM   11  C   UNL     1      -5.544  -0.598 -32.152  1.00  0.00    -0.005 A 
HETATM   12  C   UNL     1      -4.302  -1.170 -31.845  1.00  0.00     0.016 A 
HETATM   13  C   UNL     1      -3.760  -2.173 -32.653  1.00  0.00     0.037 A 
HETATM   14  C   UNL     1      -4.447  -2.627 -33.779  1.00  0.00     0.068 A 
HETATM   15  C   UNL     1      -5.674  -2.050 -34.107  1.00  0.00     0.037 A 
HETATM   16  C   UNL     1      -6.216  -1.041 -33.298  1.00  0.00     0.016 A 
BRANCH  14  17
HETATM   17  O   UNL     1      -3.812  -3.621 -34.469  1.00  0.00    -0.356 OA
HETATM   18  C   UNL     1      -3.557  -4.827 -33.761  1.00  0.00     0.210 C 
ENDBRANCH  14  17
ENDBRANCH   9  11
ENDBRANCH   1   5
BRANCH   2  19
HETATM   19  N   UNL     1     -10.662   3.728 -30.370  1.00  0.00    -0.165 NA
HETATM   20  C   UNL     1     -11.446   3.944 -31.381  1.00  0.00     0.157 A 
HETATM   21  C   UNL     1     -12.480   5.090 -31.370  1.00  0.00     0.277 A 
HETATM   22  C   UNL     1     -11.583   3.302 -32.699  1.00  0.00     0.027 A 
HETATM   23  O   UNL     1     -12.730   5.833 -30.449  1.00  0.00    -0.266 OA
HETATM   24  N   UNL     1     -13.030   5.096 -32.634  1.00  0.00    -0.321 N 
HETATM   25  C   UNL     1     -12.521   4.059 -33.405  1.00  0.00     0.048 A 
HETATM   26  H   UNL     1     -13.745   5.752 -32.910  1.00  0.00     0.169 HD
HETATM   27  C   UNL     1     -12.889   3.745 -34.698  1.00  0.00     0.030 A 
HETATM   28  C   UNL     1     -12.304   2.620 -35.283  1.00  0.00     0.002 A 
HETATM   29  C   UNL     1     -11.391   1.828 -34.564  1.00  0.00     0.001 A 
HETATM   30  C   UNL     1     -11.031   2.159 -33.252  1.00  0.00     0.016 A 
ENDBRANCH   2  19
TORSDOF 4
ENDMDL
MODEL 6
REMARK VINA RESULT:      -8.4      6.368     10.148
REMARK  4 active torsions:
REMARK  status: ('A' for Active; 'I' for Inactive)
REMARK    1  A    between atoms: O_2  and  C_3 
REMARK    2  A    between atoms: C_6  and  C_7 
REMARK    3  A    between atoms: C_11  and  C_12 
REMARK       I    between atoms: C_12  and  N_13 
REMARK    4  A    between atoms: N_13  and  N_14 
ROOT
HETATM    1  C   UNL     1      -5.229   4.481 -33.254  1.00  0.00     0.289 C 
HETATM    2  N   UNL     1      -6.023   3.563 -32.585  1.00  0.00    -0.241 N 
HETATM    3  O   UNL     1      -5.557   5.095 -34.264  1.00  0.00    -0.264 OA
HETATM    4  H   UNL     1      -5.592   2.969 -31.893  1.00  0.00     0.192 HD
ENDROOT
BRANCH   1   5
HETATM    5  C   UNL     1      -3.943   4.687 -32.630  1.00  0.00     0.121 A 
HETATM    6  N   UNL     1      -2.826   4.005 -33.023  1.00  0.00    -0.272 N 
HETATM    7  N   UNL     1      -1.713   4.338 -32.347  1.00  0.00    -0.174 NA
HETATM    8  H   UNL     1      -2.768   3.302 -33.755  1.00  0.00     0.189 HD
HETATM    9  C   UNL     1      -2.107   5.296 -31.494  1.00  0.00     0.089 A 
HETATM   10  C   UNL     1      -3.504   5.525 -31.625  1.00  0.00     0.071 A 
BRANCH   9  11
HETATM   11  C   UNL     1      -1.180   5.966 -30.577  1.00  0.00    -0.005 A 
HETATM   12  C   UNL     1      -1.263   7.347 -30.357  1.00  0.00     0.016 A 
HETATM   13  C   UNL     1      -0.396   7.979 -29.460  1.00  0.00     0.037 A 
HETATM   14  C   UNL     1       0.565   7.246 -28.765  1.00  0.00     0.068 A 
HETATM   15  C   UNL     1       0.672   5.874 -28.993  1.00  0.00     0.037 A 
HETATM   16  C   UNL     1      -0.195   5.241 -29.895  1.00  0.00     0.016 A 
BRANCH  14  17
HETATM   17  O   UNL     1       1.334   7.985 -27.910  1.00  0.00    -0.356 OA
HETATM   18  C   UNL     1       1.518   7.458 -26.602  1.00  0.00     0.210 C 
ENDBRANCH  14  17
ENDBRANCH   9  11
ENDBRANCH   1   5
BRANCH   2  19
HETATM   19  N   UNL     1      -7.242   3.190 -33.061  1.00  0.00    -0.165 NA
HETATM   20  C   UNL     1      -7.354   2.013 -33.596  1.00  0.00     0.157 A 
HETATM   21  C   UNL     1      -8.629   1.590 -34.356  1.00  0.00     0.277 A 
HETATM   22  C   UNL     1      -6.441   0.861 -33.685  1.00  0.00     0.027 A 
HETATM   23  O   UNL     1      -9.649   2.229 -34.474  1.00  0.00    -0.266 OA
HETATM   24  N   UNL     1      -8.343   0.350 -34.884  1.00  0.00    -0.321 N 
HETATM   25  C   UNL     1      -7.082  -0.081 -34.494  1.00  0.00     0.048 A 
HETATM   26  H   UNL     1      -9.008  -0.170 -35.437  1.00  0.00     0.169 HD
HETATM   27  C   UNL     1      -6.500  -1.295 -34.803  1.00  0.00     0.030 A 
HETATM   28  C   UNL     1      -5.243  -1.568 -34.260  1.00  0.00     0.002 A 
HETATM   29  C   UNL     1      -4.610  -0.643 -33.410  1.00  0.00     0.001 A 
HETATM   30  C   UNL     1      -5.216   0.582 -33.104  1.00  0.00     0.016 A 
ENDBRANCH   2  19
TORSDOF 4
ENDMDL
MODEL 7
REMARK VINA RESULT:      -8.3      2.162      2.644
REMARK  4 active torsions:
REMARK  status: ('A' for Active; 'I' for Inactive)
REMARK    1  A    between atoms: O_2  and  C_3 
REMARK    2  A    between atoms: C_6  and  C_7 
REMARK    3  A    between atoms: C_11  and  C_12 
REMARK       I    between atoms: C_12  and  N_13 
REMARK    4  A    between atoms: N_13  and  N_14 
ROOT
HETATM    1  C   UNL     1      -7.088   0.338 -32.093  1.00  0.00     0.289 C 
HETATM    2  N   UNL     1      -6.044   0.277 -33.004  1.00  0.00    -0.241 N 
HETATM    3  O   UNL     1      -7.004   0.058 -30.903  1.00  0.00    -0.264 OA
HETATM    4  H   UNL     1      -6.260   0.329 -33.987  1.00  0.00     0.192 HD
ENDROOT
BRANCH   1   5
HETATM    5  C   UNL     1      -8.327   0.800 -32.674  1.00  0.00     0.121 A 
HETATM    6  N   UNL     1      -9.468   0.048 -32.647  1.00  0.00    -0.272 N 
HETATM    7  N   UNL     1     -10.531   0.643 -33.216  1.00  0.00    -0.174 NA
HETATM    8  H   UNL     1      -9.576  -0.879 -32.247  1.00  0.00     0.189 HD
HETATM    9  C   UNL     1     -10.079   1.844 -33.608  1.00  0.00     0.089 A 
HETATM   10  C   UNL     1      -8.695   1.970 -33.307  1.00  0.00     0.071 A 
BRANCH   9  11
HETATM   11  C   UNL     1     -10.939   2.837 -34.257  1.00  0.00    -0.005 A 
HETATM   12  C   UNL     1     -10.780   4.205 -33.995  1.00  0.00     0.016 A 
HETATM   13  C   UNL     1     -11.583   5.152 -34.637  1.00  0.00     0.037 A 
HETATM   14  C   UNL     1     -12.556   4.754 -35.553  1.00  0.00     0.068 A 
HETATM   15  C   UNL     1     -12.738   3.395 -35.807  1.00  0.00     0.037 A 
HETATM   16  C   UNL     1     -11.935   2.445 -35.160  1.00  0.00     0.016 A 
BRANCH  14  17
HETATM   17  O   UNL     1     -13.257   5.782 -36.119  1.00  0.00    -0.356 OA
HETATM   18  C   UNL     1     -12.757   7.094 -35.896  1.00  0.00     0.210 C 
ENDBRANCH  14  17
ENDBRANCH   9  11
ENDBRANCH   1   5
BRANCH   2  19
HETATM   19  N   UNL     1      -4.817  -0.198 -32.655  1.00  0.00    -0.165 NA
HETATM   20  C   UNL     1      -4.525  -1.423 -32.971  1.00  0.00     0.157 A 
HETATM   21  C   UNL     1      -3.257  -2.116 -32.429  1.00  0.00     0.277 A 
HETATM   22  C   UNL     1      -5.205  -2.435 -33.797  1.00  0.00     0.027 A 
HETATM   23  O   UNL     1      -2.390  -1.614 -31.750  1.00  0.00    -0.266 OA
HETATM   24  N   UNL     1      -3.341  -3.421 -32.863  1.00  0.00    -0.321 N 
HETATM   25  C   UNL     1      -4.462  -3.610 -33.661  1.00  0.00     0.048 A 
HETATM   26  H   UNL     1      -2.635  -4.109 -32.651  1.00  0.00     0.169 HD
HETATM   27  C   UNL     1      -4.824  -4.781 -34.298  1.00  0.00     0.030 A 
HETATM   28  C   UNL     1      -5.959  -4.751 -35.111  1.00  0.00     0.002 A 
HETATM   29  C   UNL     1      -6.688  -3.562 -35.287  1.00  0.00     0.001 A 
HETATM   30  C   UNL     1      -6.305  -2.383 -34.636  1.00  0.00     0.016 A 
ENDBRANCH   2  19
TORSDOF 4
ENDMDL
MODEL 8
REMARK VINA RESULT:      -8.1      5.791      8.962
REMARK  4 active torsions:
REMARK  status: ('A' for Active; 'I' for Inactive)
REMARK    1  A    between atoms: O_2  and  C_3 
REMARK    2  A    between atoms: C_6  and  C_7 
REMARK    3  A    between atoms: C_11  and  C_12 
REMARK       I    between atoms: C_12  and  N_13 
REMARK    4  A    between atoms: N_13  and  N_14 
ROOT
HETATM    1  C   UNL     1      -6.217   4.540 -31.289  1.00  0.00     0.289 C 
HETATM    2  N   UNL     1      -5.022   5.243 -31.261  1.00  0.00    -0.241 N 
HETATM    3  O   UNL     1      -7.217   4.822 -30.639  1.00  0.00    -0.264 OA
HETATM    4  H   UNL     1      -4.204   4.818 -31.670  1.00  0.00     0.192 HD
ENDROOT
BRANCH   1   5
HETATM    5  C   UNL     1      -6.199   3.420 -32.201  1.00  0.00     0.121 A 
HETATM    6  N   UNL     1      -6.465   3.562 -33.534  1.00  0.00    -0.272 N 
HETATM    7  N   UNL     1      -6.383   2.418 -34.235  1.00  0.00    -0.174 NA
HETATM    8  H   UNL     1      -6.704   4.423 -34.018  1.00  0.00     0.189 HD
HETATM    9  C   UNL     1      -6.024   1.492 -33.334  1.00  0.00     0.089 A 
HETATM   10  C   UNL     1      -5.922   2.077 -32.042  1.00  0.00     0.071 A 
BRANCH   9  11
HETATM   11  C   UNL     1      -5.792   0.090 -33.692  1.00  0.00    -0.005 A 
HETATM   12  C   UNL     1      -6.623  -0.562 -34.613  1.00  0.00     0.016 A 
HETATM   13  C   UNL     1      -6.383  -1.891 -34.975  1.00  0.00     0.037 A 
HETATM   14  C   UNL     1      -5.308  -2.592 -34.429  1.00  0.00     0.068 A 
HETATM   15  C   UNL     1      -4.486  -1.961 -33.496  1.00  0.00     0.037 A 
HETATM   16  C   UNL     1      -4.730  -0.630 -33.130  1.00  0.00     0.016 A 
BRANCH  14  17
HETATM   17  O   UNL     1      -5.179  -3.875 -34.881  1.00  0.00    -0.356 OA
HETATM   18  C   UNL     1      -6.382  -4.568 -35.186  1.00  0.00     0.210 C 
ENDBRANCH  14  17
ENDBRANCH   9  11
ENDBRANCH   1   5
BRANCH   2  19
HETATM   19  N   UNL     1      -4.828   6.291 -30.414  1.00  0.00    -0.165 NA
HETATM   20  C   UNL     1      -3.607   6.630 -30.134  1.00  0.00     0.157 A 
HETATM   21  C   UNL     1      -3.289   7.652 -29.022  1.00  0.00     0.277 A 
HETATM   22  C   UNL     1      -2.302   6.207 -30.667  1.00  0.00     0.027 A 
HETATM   23  O   UNL     1      -4.086   8.283 -28.366  1.00  0.00    -0.266 OA
HETATM   24  N   UNL     1      -1.914   7.667 -28.924  1.00  0.00    -0.321 N 
HETATM   25  C   UNL     1      -1.337   6.838 -29.878  1.00  0.00     0.048 A 
HETATM   26  H   UNL     1      -1.424   8.254 -28.266  1.00  0.00     0.169 HD
HETATM   27  C   UNL     1       0.016   6.656 -30.092  1.00  0.00     0.030 A 
HETATM   28  C   UNL     1       0.398   5.826 -31.147  1.00  0.00     0.002 A 
HETATM   29  C   UNL     1      -0.567   5.220 -31.973  1.00  0.00     0.001 A 
HETATM   30  C   UNL     1      -1.933   5.419 -31.744  1.00  0.00     0.016 A 
ENDBRANCH   2  19
TORSDOF 4
ENDMDL
MODEL 9
REMARK VINA RESULT:      -8.1     13.849     17.602
REMARK  4 active torsions:
REMARK  status: ('A' for Active; 'I' for Inactive)
REMARK    1  A    between atoms: O_2  and  C_3 
REMARK    2  A    between atoms: C_6  and  C_7 
REMARK    3  A    between atoms: C_11  and  C_12 
REMARK       I    between atoms: C_12  and  N_13 
REMARK    4  A    between atoms: N_13  and  N_14 
ROOT
HETATM    1  C   UNL     1      -5.885 -12.155 -39.265  1.00  0.00     0.289 C 
HETATM    2  N   UNL     1      -7.019 -12.244 -38.472  1.00  0.00    -0.241 N 
HETATM    3  O   UNL     1      -5.858 -11.724 -40.412  1.00  0.00    -0.264 OA
HETATM    4  H   UNL     1      -6.974 -12.796 -37.629  1.00  0.00     0.192 HD
ENDROOT
BRANCH   1   5
HETATM    5  C   UNL     1      -4.685 -12.606 -38.598  1.00  0.00     0.121 A 
HETATM    6  N   UNL     1      -4.518 -12.493 -37.247  1.00  0.00    -0.272 N 
HETATM    7  N   UNL     1      -3.350 -12.982 -36.795  1.00  0.00    -0.174 NA
HETATM    8  H   UNL     1      -5.176 -12.093 -36.583  1.00  0.00     0.189 HD
HETATM    9  C   UNL     1      -2.736 -13.459 -37.889  1.00  0.00     0.089 A 
HETATM   10  C   UNL     1      -3.532 -13.220 -39.042  1.00  0.00     0.071 A 
BRANCH   9  11
HETATM   11  C   UNL     1      -1.428 -14.117 -37.835  1.00  0.00    -0.005 A 
HETATM   12  C   UNL     1      -1.166 -15.117 -36.890  1.00  0.00     0.016 A 
HETATM   13  C   UNL     1       0.074 -15.762 -36.859  1.00  0.00     0.037 A 
HETATM   14  C   UNL     1       1.073 -15.425 -37.772  1.00  0.00     0.068 A 
HETATM   15  C   UNL     1       0.832 -14.416 -38.704  1.00  0.00     0.037 A 
HETATM   16  C   UNL     1      -0.410 -13.766 -38.732  1.00  0.00     0.016 A 
BRANCH  14  17
HETATM   17  O   UNL     1       2.228 -16.144 -37.642  1.00  0.00    -0.356 OA
HETATM   18  C   UNL     1       2.240 -17.442 -38.221  1.00  0.00     0.210 C 
ENDBRANCH  14  17
ENDBRANCH   9  11
ENDBRANCH   1   5
BRANCH   2  19
HETATM   19  N   UNL     1      -8.253 -11.928 -38.950  1.00  0.00    -0.165 NA
HETATM   20  C   UNL     1      -9.032 -12.898 -39.320  1.00  0.00     0.157 A 
HETATM   21  C   UNL     1     -10.351 -12.632 -40.075  1.00  0.00     0.277 A 
HETATM   22  C   UNL     1      -8.934 -14.362 -39.201  1.00  0.00     0.027 A 
HETATM   23  O   UNL     1     -10.835 -11.553 -40.332  1.00  0.00    -0.266 OA
HETATM   24  N   UNL     1     -10.837 -13.877 -40.409  1.00  0.00    -0.321 N 
HETATM   25  C   UNL     1     -10.025 -14.883 -39.901  1.00  0.00     0.048 A 
HETATM   26  H   UNL     1     -11.700 -14.004 -40.916  1.00  0.00     0.169 HD
HETATM   27  C   UNL     1     -10.244 -16.242 -40.007  1.00  0.00     0.030 A 
HETATM   28  C   UNL     1      -9.341 -17.095 -39.369  1.00  0.00     0.002 A 
HETATM   29  C   UNL     1      -8.264 -16.578 -38.627  1.00  0.00     0.001 A 
HETATM   30  C   UNL     1      -8.059 -15.197 -38.527  1.00  0.00     0.016 A 
ENDBRANCH   2  19
TORSDOF 4
ENDMDL
MODEL 10
REMARK VINA RESULT:      -7.9     13.855     15.318
REMARK  4 active torsions:
REMARK  status: ('A' for Active; 'I' for Inactive)
REMARK    1  A    between atoms: O_2  and  C_3 
REMARK    2  A    between atoms: C_6  and  C_7 
REMARK    3  A    between atoms: C_11  and  C_12 
REMARK       I    between atoms: C_12  and  N_13 
REMARK    4  A    between atoms: N_13  and  N_14 
ROOT
HETATM    1  C   UNL     1      -4.541 -13.553 -35.927  1.00  0.00     0.289 C 
HETATM    2  N   UNL     1      -3.658 -14.569 -36.258  1.00  0.00    -0.241 N 
HETATM    3  O   UNL     1      -4.517 -12.909 -34.884  1.00  0.00    -0.264 OA
HETATM    4  H   UNL     1      -3.883 -15.167 -37.038  1.00  0.00     0.192 HD
ENDROOT
BRANCH   1   5
HETATM    5  C   UNL     1      -5.514 -13.283 -36.960  1.00  0.00     0.121 A 
HETATM    6  N   UNL     1      -5.291 -12.366 -37.947  1.00  0.00    -0.272 N 
HETATM    7  N   UNL     1      -6.296 -12.259 -38.834  1.00  0.00    -0.174 NA
HETATM    8  H   UNL     1      -4.465 -11.787 -38.065  1.00  0.00     0.189 HD
HETATM    9  C   UNL     1      -7.203 -13.161 -38.430  1.00  0.00     0.089 A 
HETATM   10  C   UNL     1      -6.759 -13.806 -37.244  1.00  0.00     0.071 A 
BRANCH   9  11
HETATM   11  C   UNL     1      -8.459 -13.395 -39.150  1.00  0.00    -0.005 A 
HETATM   12  C   UNL     1      -8.931 -14.696 -39.365  1.00  0.00     0.016 A 
HETATM   13  C   UNL     1     -10.143 -14.915 -40.027  1.00  0.00     0.037 A 
HETATM   14  C   UNL     1     -10.907 -13.841 -40.483  1.00  0.00     0.068 A 
HETATM   15  C   UNL     1     -10.437 -12.542 -40.294  1.00  0.00     0.037 A 
HETATM   16  C   UNL     1      -9.220 -12.322 -39.634  1.00  0.00     0.016 A 
BRANCH  14  17
HETATM   17  O   UNL     1     -12.075 -14.196 -41.097  1.00  0.00    -0.356 OA
HETATM   18  C   UNL     1     -12.031 -15.341 -41.938  1.00  0.00     0.210 C 
ENDBRANCH  14  17
ENDBRANCH   9  11
ENDBRANCH   1   5
BRANCH   2  19
HETATM   19  N   UNL     1      -2.712 -15.008 -35.384  1.00  0.00    -0.165 NA
HETATM   20  C   UNL     1      -1.505 -15.186 -35.828  1.00  0.00     0.157 A 
HETATM   21  C   UNL     1      -0.426 -15.887 -34.976  1.00  0.00     0.277 A 
HETATM   22  C   UNL     1      -0.852 -14.866 -37.108  1.00  0.00     0.027 A 
HETATM   23  O   UNL     1      -0.537 -16.263 -33.831  1.00  0.00    -0.266 OA
HETATM   24  N   UNL     1       0.668 -16.009 -35.804  1.00  0.00    -0.321 N 
HETATM   25  C   UNL     1       0.432 -15.414 -37.036  1.00  0.00     0.048 A 
HETATM   26  H   UNL     1       1.531 -16.437 -35.502  1.00  0.00     0.169 HD
HETATM   27  C   UNL     1       1.330 -15.312 -38.081  1.00  0.00     0.030 A 
HETATM   28  C   UNL     1       0.919 -14.618 -39.221  1.00  0.00     0.002 A 
HETATM   29  C   UNL     1      -0.355 -14.027 -39.285  1.00  0.00     0.001 A 
HETATM   30  C   UNL     1      -1.251 -14.137 -38.215  1.00  0.00     0.016 A 
ENDBRANCH   2  19
TORSDOF 4
ENDMDL
