MODEL 1
REMARK VINA RESULT:      -9.1      0.000      0.000
REMARK  7 active torsions:
REMARK  status: ('A' for Active; 'I' for Inactive)
REMARK    1  A    between atoms: C_8  and  C_9 
REMARK    2  A    between atoms: C_9  and  C_10 
REMARK       I    between atoms: C_10  and  N_11 
REMARK    3  A    between atoms: N_11  and  C_12 
REMARK    4  A    between atoms: N_11  and  C_27 
REMARK    5  A    between atoms: C_12  and  C_13 
REMARK    6  A    between atoms: C_12  and  C_22 
REMARK       I    between atoms: C_13  and  N_14 
REMARK    7  A    between atoms: N_14  and  C_15 
ROOT
HETATM    1  C   UNL     1      -5.824   2.116 -30.679  1.00  0.00     0.229 C 
HETATM    2  N   UNL     1      -6.321   2.972 -31.669  1.00  0.00    -0.299 N 
HETATM    3  O   UNL     1      -5.193   2.575 -29.721  1.00  0.00    -0.273 OA
ENDROOT
BRANCH   2   4
HETATM    4  C   UNL     1      -5.851   4.386 -31.783  1.00  0.00     0.225 C 
BRANCH   4   5
HETATM    5  C   UNL     1      -4.719   4.754 -32.789  1.00  0.00     0.246 C 
HETATM    6  N   UNL     1      -3.692   5.551 -32.326  1.00  0.00    -0.354 N 
HETATM    7  H   UNL     1      -3.440   5.396 -31.350  1.00  0.00     0.162 HD
HETATM    8  O   UNL     1      -4.761   4.381 -33.966  1.00  0.00    -0.271 OA
BRANCH   6   9
HETATM    9  C   UNL     1      -2.655   6.060 -33.217  1.00  0.00     0.084 C 
HETATM   10  C   UNL     1      -2.309   7.512 -32.863  1.00  0.00     0.025 C 
HETATM   11  C   UNL     1      -1.443   7.635 -31.611  1.00  0.00     0.002 C 
HETATM   12  C   UNL     1      -0.192   6.769 -31.711  1.00  0.00     0.000 C 
HETATM   13  C   UNL     1      -0.548   5.311 -31.983  1.00  0.00     0.002 C 
HETATM   14  C   UNL     1      -1.407   5.166 -33.238  1.00  0.00     0.025 C 
ENDBRANCH   6   9
ENDBRANCH   4   5
BRANCH   4  15
HETATM   15  C   UNL     1      -6.999   5.373 -31.849  1.00  0.00     0.015 A 
HETATM   16  S   UNL     1      -7.727   5.898 -30.373  1.00  0.00    -0.104 SA
HETATM   17  C   UNL     1      -8.833   6.907 -31.187  1.00  0.00     0.050 A 
HETATM   18  C   UNL     1      -8.668   6.856 -32.551  1.00  0.00     0.008 A 
HETATM   19  C   UNL     1      -7.605   5.983 -32.931  1.00  0.00     0.017 A 
ENDBRANCH   4  15
ENDBRANCH   2   4
BRANCH   2  20
HETATM   20  C   UNL     1      -7.443   2.637 -32.486  1.00  0.00     0.041 A 
HETATM   21  C   UNL     1      -8.742   2.738 -31.967  1.00  0.00     0.069 A 
HETATM   22  C   UNL     1      -9.795   2.389 -32.784  1.00  0.00     0.107 A 
HETATM   23  C   UNL     1      -9.600   1.941 -34.069  1.00  0.00     0.105 A 
HETATM   24  O   UNL     1     -11.112   2.440 -32.447  1.00  0.00    -0.323 OA
HETATM   25  O   UNL     1     -10.768   1.653 -34.700  1.00  0.00    -0.323 OA
HETATM   26  C   UNL     1      -8.339   1.814 -34.608  1.00  0.00     0.042 A 
HETATM   27  C   UNL     1     -11.723   1.964 -33.664  1.00  0.00     0.352 A 
HETATM   28  C   UNL     1      -7.249   2.161 -33.804  1.00  0.00     0.032 A 
ENDBRANCH   2  20
BRANCH   1  29
HETATM   29  C   UNL     1      -6.183   0.632 -30.752  1.00  0.00     0.144 C 
BRANCH  29  30
HETATM   30  C   UNL     1      -5.372  -0.308 -31.607  1.00  0.00    -0.021 A 
HETATM   31  C   UNL     1      -5.679  -1.108 -32.766  1.00  0.00    -0.001 A 
HETATM   32  C   UNL     1      -6.827  -1.369 -33.544  1.00  0.00     0.014 A 
HETATM   33  C   UNL     1      -4.492  -1.737 -33.165  1.00  0.00     0.042 A 
HETATM   34  C   UNL     1      -6.759  -2.230 -34.649  1.00  0.00     0.001 A 
HETATM   35  C   UNL     1      -5.559  -2.833 -35.007  1.00  0.00     0.002 A 
HETATM   36  C   UNL     1      -4.401  -2.594 -34.272  1.00  0.00     0.030 A 
HETATM   37  N   UNL     1      -3.504  -1.344 -32.298  1.00  0.00    -0.365 N 
HETATM   38  H   UNL     1      -2.539  -1.637 -32.359  1.00  0.00     0.165 HD
HETATM   39  C   UNL     1      -4.015  -0.491 -31.368  1.00  0.00     0.097 A 
ENDBRANCH  29  30
ENDBRANCH   1  29
TORSDOF 7
ENDMDL
MODEL 2
REMARK VINA RESULT:      -9.0      2.489      4.495
REMARK  7 active torsions:
REMARK  status: ('A' for Active; 'I' for Inactive)
REMARK    1  A    between atoms: C_8  and  C_9 
REMARK    2  A    between atoms: C_9  and  C_10 
REMARK       I    between atoms: C_10  and  N_11 
REMARK    3  A    between atoms: N_11  and  C_12 
REMARK    4  A    between atoms: N_11  and  C_27 
REMARK    5  A    between atoms: C_12  and  C_13 
REMARK    6  A    between atoms: C_12  and  C_22 
REMARK       I    between atoms: C_13  and  N_14 
REMARK    7  A    between atoms: N_14  and  C_15 
ROOT
HETATM    1  C   UNL     1      -5.388   2.670 -30.418  1.00  0.00     0.229 C 
HETATM    2  N   UNL     1      -4.970   3.976 -30.698  1.00  0.00    -0.299 N 
HETATM    3  O   UNL     1      -6.289   2.469 -29.597  1.00  0.00    -0.273 OA
ENDROOT
BRANCH   2   4
HETATM    4  C   UNL     1      -5.349   5.120 -29.815  1.00  0.00     0.225 C 
BRANCH   4   5
HETATM    5  C   UNL     1      -4.489   6.420 -29.809  1.00  0.00     0.246 C 
HETATM    6  N   UNL     1      -3.264   6.368 -29.176  1.00  0.00    -0.354 N 
HETATM    7  H   UNL     1      -2.785   5.471 -29.249  1.00  0.00     0.162 HD
HETATM    8  O   UNL     1      -4.905   7.466 -30.315  1.00  0.00    -0.271 OA
BRANCH   6   9
HETATM    9  C   UNL     1      -2.441   7.559 -28.999  1.00  0.00     0.084 C 
HETATM   10  C   UNL     1      -1.588   7.439 -27.729  1.00  0.00     0.025 C 
HETATM   11  C   UNL     1      -0.390   6.506 -27.897  1.00  0.00     0.002 C 
HETATM   12  C   UNL     1       0.454   6.895 -29.105  1.00  0.00     0.000 C 
HETATM   13  C   UNL     1      -0.385   6.933 -30.378  1.00  0.00     0.002 C 
HETATM   14  C   UNL     1      -1.583   7.869 -30.234  1.00  0.00     0.025 C 
ENDBRANCH   6   9
ENDBRANCH   4   5
BRANCH   4  15
HETATM   15  C   UNL     1      -6.831   5.432 -29.878  1.00  0.00     0.015 A 
HETATM   16  S   UNL     1      -7.629   5.961 -28.440  1.00  0.00    -0.104 SA
HETATM   17  C   UNL     1      -9.130   6.105 -29.233  1.00  0.00     0.050 A 
HETATM   18  C   UNL     1      -9.046   5.760 -30.562  1.00  0.00     0.008 A 
HETATM   19  C   UNL     1      -7.721   5.385 -30.935  1.00  0.00     0.017 A 
ENDBRANCH   4  15
ENDBRANCH   2   4
BRANCH   2  20
HETATM   20  C   UNL     1      -4.351   4.340 -31.932  1.00  0.00     0.041 A 
HETATM   21  C   UNL     1      -2.959   4.496 -31.998  1.00  0.00     0.069 A 
HETATM   22  C   UNL     1      -2.405   4.864 -33.205  1.00  0.00     0.107 A 
HETATM   23  C   UNL     1      -3.176   5.088 -34.321  1.00  0.00     0.105 A 
HETATM   24  O   UNL     1      -1.079   5.045 -33.446  1.00  0.00    -0.323 OA
HETATM   25  O   UNL     1      -2.433   5.440 -35.402  1.00  0.00    -0.323 OA
HETATM   26  C   UNL     1      -4.548   4.960 -34.291  1.00  0.00     0.042 A 
HETATM   27  C   UNL     1      -1.105   5.418 -34.840  1.00  0.00     0.352 A 
HETATM   28  C   UNL     1      -5.140   4.587 -33.080  1.00  0.00     0.032 A 
ENDBRANCH   2  20
BRANCH   1  29
HETATM   29  C   UNL     1      -4.790   1.523 -31.233  1.00  0.00     0.144 C 
BRANCH  29  30
HETATM   30  C   UNL     1      -5.618   0.817 -32.277  1.00  0.00    -0.021 A 
HETATM   31  C   UNL     1      -5.428  -0.388 -33.044  1.00  0.00    -0.001 A 
HETATM   32  C   UNL     1      -4.416  -1.364 -33.167  1.00  0.00     0.014 A 
HETATM   33  C   UNL     1      -6.579  -0.575 -33.821  1.00  0.00     0.042 A 
HETATM   34  C   UNL     1      -4.575  -2.450 -34.041  1.00  0.00     0.001 A 
HETATM   35  C   UNL     1      -5.734  -2.593 -34.793  1.00  0.00     0.002 A 
HETATM   36  C   UNL     1      -6.761  -1.657 -34.693  1.00  0.00     0.030 A 
HETATM   37  N   UNL     1      -7.435   0.462 -33.546  1.00  0.00    -0.365 N 
HETATM   38  H   UNL     1      -8.351   0.573 -33.959  1.00  0.00     0.165 HD
HETATM   39  C   UNL     1      -6.876   1.296 -32.627  1.00  0.00     0.097 A 
ENDBRANCH  29  30
ENDBRANCH   1  29
TORSDOF 7
ENDMDL
MODEL 3
REMARK VINA RESULT:      -8.9      1.857      6.083
REMARK  7 active torsions:
REMARK  status: ('A' for Active; 'I' for Inactive)
REMARK    1  A    between atoms: C_8  and  C_9 
REMARK    2  A    between atoms: C_9  and  C_10 
REMARK       I    between atoms: C_10  and  N_11 
REMARK    3  A    between atoms: N_11  and  C_12 
REMARK    4  A    between atoms: N_11  and  C_27 
REMARK    5  A    between atoms: C_12  and  C_13 
REMARK    6  A    between atoms: C_12  and  C_22 
REMARK       I    between atoms: C_13  and  N_14 
REMARK    7  A    between atoms: N_14  and  C_15 
ROOT
HETATM    1  C   UNL     1      -6.514   2.516 -31.047  1.00  0.00     0.229 C 
HETATM    2  N   UNL     1      -6.053   3.752 -31.511  1.00  0.00    -0.299 N 
HETATM    3  O   UNL     1      -7.678   2.165 -31.267  1.00  0.00    -0.273 OA
ENDROOT
BRANCH   2   4
HETATM    4  C   UNL     1      -6.998   4.806 -31.990  1.00  0.00     0.225 C 
BRANCH   4   5
HETATM    5  C   UNL     1      -7.893   4.544 -33.239  1.00  0.00     0.246 C 
HETATM    6  N   UNL     1      -8.846   3.550 -33.139  1.00  0.00    -0.354 N 
HETATM    7  H   UNL     1      -9.265   3.453 -32.215  1.00  0.00     0.162 HD
HETATM    8  O   UNL     1      -7.728   5.171 -34.289  1.00  0.00    -0.271 OA
BRANCH   6   9
HETATM    9  C   UNL     1      -9.645   3.137 -34.287  1.00  0.00     0.084 C 
HETATM   10  C   UNL     1      -9.526   1.623 -34.507  1.00  0.00     0.025 C 
HETATM   11  C   UNL     1     -10.344   0.806 -33.509  1.00  0.00     0.002 C 
HETATM   12  C   UNL     1     -11.800   1.255 -33.480  1.00  0.00     0.000 C 
HETATM   13  C   UNL     1     -11.913   2.747 -33.182  1.00  0.00     0.002 C 
HETATM   14  C   UNL     1     -11.109   3.582 -34.176  1.00  0.00     0.025 C 
ENDBRANCH   6   9
ENDBRANCH   4   5
BRANCH   4  15
HETATM   15  C   UNL     1      -7.789   5.429 -30.858  1.00  0.00     0.015 A 
HETATM   16  S   UNL     1      -9.160   6.406 -31.244  1.00  0.00    -0.104 SA
HETATM   17  C   UNL     1      -9.499   6.716 -29.603  1.00  0.00     0.050 A 
HETATM   18  C   UNL     1      -8.599   6.100 -28.766  1.00  0.00     0.008 A 
HETATM   19  C   UNL     1      -7.622   5.350 -29.487  1.00  0.00     0.017 A 
ENDBRANCH   4  15
ENDBRANCH   2   4
BRANCH   2  20
HETATM   20  C   UNL     1      -4.672   4.015 -31.763  1.00  0.00     0.041 A 
HETATM   21  C   UNL     1      -3.966   4.901 -30.936  1.00  0.00     0.069 A 
HETATM   22  C   UNL     1      -2.639   5.138 -31.224  1.00  0.00     0.107 A 
HETATM   23  C   UNL     1      -2.010   4.545 -32.293  1.00  0.00     0.105 A 
HETATM   24  O   UNL     1      -1.809   5.954 -30.521  1.00  0.00    -0.323 OA
HETATM   25  O   UNL     1      -0.707   4.914 -32.397  1.00  0.00    -0.323 OA
HETATM   26  C   UNL     1      -2.675   3.682 -33.137  1.00  0.00     0.042 A 
HETATM   27  C   UNL     1      -0.587   5.813 -31.275  1.00  0.00     0.352 A 
HETATM   28  C   UNL     1      -4.023   3.420 -32.869  1.00  0.00     0.032 A 
ENDBRANCH   2  20
BRANCH   1  29
HETATM   29  C   UNL     1      -5.518   1.571 -30.375  1.00  0.00     0.144 C 
BRANCH  29  30
HETATM   30  C   UNL     1      -4.900   0.436 -31.151  1.00  0.00    -0.021 A 
HETATM   31  C   UNL     1      -5.369  -0.399 -32.228  1.00  0.00    -0.001 A 
HETATM   32  C   UNL     1      -6.567  -0.529 -32.964  1.00  0.00     0.014 A 
HETATM   33  C   UNL     1      -4.316  -1.253 -32.584  1.00  0.00     0.042 A 
HETATM   34  C   UNL     1      -6.675  -1.483 -33.987  1.00  0.00     0.001 A 
HETATM   35  C   UNL     1      -5.604  -2.309 -34.304  1.00  0.00     0.002 A 
HETATM   36  C   UNL     1      -4.402  -2.206 -33.609  1.00  0.00     0.030 A 
HETATM   37  N   UNL     1      -3.253  -0.958 -31.769  1.00  0.00    -0.365 N 
HETATM   38  H   UNL     1      -2.352  -1.415 -31.815  1.00  0.00     0.165 HD
HETATM   39  C   UNL     1      -3.587   0.047 -30.913  1.00  0.00     0.097 A 
ENDBRANCH  29  30
ENDBRANCH   1  29
TORSDOF 7
ENDMDL
MODEL 4
REMARK VINA RESULT:      -8.9      2.171      5.907
REMARK  7 active torsions:
REMARK  status: ('A' for Active; 'I' for Inactive)
REMARK    1  A    between atoms: C_8  and  C_9 
REMARK    2  A    between atoms: C_9  and  C_10 
REMARK       I    between atoms: C_10  and  N_11 
REMARK    3  A    between atoms: N_11  and  C_12 
REMARK    4  A    between atoms: N_11  and  C_27 
REMARK    5  A    between atoms: C_12  and  C_13 
REMARK    6  A    between atoms: C_12  and  C_22 
REMARK       I    between atoms: C_13  and  N_14 
REMARK    7  A    between atoms: N_14  and  C_15 
ROOT
HETATM    1  C   UNL     1      -5.325   2.173 -30.914  1.00  0.00     0.229 C 
HETATM    2  N   UNL     1      -5.469   3.480 -31.393  1.00  0.00    -0.299 N 
HETATM    3  O   UNL     1      -6.275   1.605 -30.363  1.00  0.00    -0.273 OA
ENDROOT
BRANCH   2   4
HETATM    4  C   UNL     1      -6.623   4.336 -30.985  1.00  0.00     0.225 C 
BRANCH   4   5
HETATM    5  C   UNL     1      -8.051   3.720 -30.874  1.00  0.00     0.246 C 
HETATM    6  N   UNL     1      -8.504   2.970 -31.941  1.00  0.00    -0.354 N 
HETATM    7  H   UNL     1      -7.782   2.436 -32.422  1.00  0.00     0.162 HD
HETATM    8  O   UNL     1      -8.764   3.928 -29.888  1.00  0.00    -0.271 OA
BRANCH   6   9
HETATM    9  C   UNL     1      -9.869   2.461 -31.995  1.00  0.00     0.084 C 
HETATM   10  C   UNL     1     -10.762   3.400 -32.817  1.00  0.00     0.025 C 
HETATM   11  C   UNL     1     -10.541   3.272 -34.323  1.00  0.00     0.002 C 
HETATM   12  C   UNL     1     -10.674   1.825 -34.785  1.00  0.00     0.000 C 
HETATM   13  C   UNL     1      -9.726   0.909 -34.018  1.00  0.00     0.002 C 
HETATM   14  C   UNL     1      -9.938   1.016 -32.510  1.00  0.00     0.025 C 
ENDBRANCH   6   9
ENDBRANCH   4   5
BRANCH   4  15
HETATM   15  C   UNL     1      -6.300   5.212 -29.792  1.00  0.00     0.015 A 
HETATM   16  S   UNL     1      -6.686   6.894 -29.870  1.00  0.00    -0.104 SA
HETATM   17  C   UNL     1      -6.087   7.184 -28.302  1.00  0.00     0.050 A 
HETATM   18  C   UNL     1      -5.597   6.039 -27.718  1.00  0.00     0.008 A 
HETATM   19  C   UNL     1      -5.731   4.903 -28.570  1.00  0.00     0.017 A 
ENDBRANCH   4  15
ENDBRANCH   2   4
BRANCH   2  20
HETATM   20  C   UNL     1      -4.664   4.007 -32.448  1.00  0.00     0.041 A 
HETATM   21  C   UNL     1      -3.312   4.298 -32.220  1.00  0.00     0.069 A 
HETATM   22  C   UNL     1      -2.576   4.821 -33.262  1.00  0.00     0.107 A 
HETATM   23  C   UNL     1      -3.136   5.070 -34.493  1.00  0.00     0.105 A 
HETATM   24  O   UNL     1      -1.257   5.145 -33.216  1.00  0.00    -0.323 OA
HETATM   25  O   UNL     1      -2.239   5.583 -35.375  1.00  0.00    -0.323 OA
HETATM   26  C   UNL     1      -4.464   4.811 -34.750  1.00  0.00     0.042 A 
HETATM   27  C   UNL     1      -1.051   5.636 -34.558  1.00  0.00     0.352 A 
HETATM   28  C   UNL     1      -5.237   4.279 -33.713  1.00  0.00     0.032 A 
ENDBRANCH   2  20
BRANCH   1  29
HETATM   29  C   UNL     1      -4.018   1.432 -31.197  1.00  0.00     0.144 C 
BRANCH  29  30
HETATM   30  C   UNL     1      -4.035   0.085 -31.875  1.00  0.00    -0.021 A 
HETATM   31  C   UNL     1      -4.851  -0.491 -32.914  1.00  0.00    -0.001 A 
HETATM   32  C   UNL     1      -5.956  -0.073 -33.686  1.00  0.00     0.014 A 
HETATM   33  C   UNL     1      -4.352  -1.774 -33.173  1.00  0.00     0.042 A 
HETATM   34  C   UNL     1      -6.516  -0.925 -34.649  1.00  0.00     0.001 A 
HETATM   35  C   UNL     1      -5.988  -2.190 -34.871  1.00  0.00     0.002 A 
HETATM   36  C   UNL     1      -4.891  -2.637 -34.138  1.00  0.00     0.030 A 
HETATM   37  N   UNL     1      -3.283  -1.978 -32.338  1.00  0.00    -0.365 N 
HETATM   38  H   UNL     1      -2.722  -2.819 -32.320  1.00  0.00     0.165 HD
HETATM   39  C   UNL     1      -3.082  -0.877 -31.562  1.00  0.00     0.097 A 
ENDBRANCH  29  30
ENDBRANCH   1  29
TORSDOF 7
ENDMDL
MODEL 5
REMARK VINA RESULT:      -8.8      1.768      2.834
REMARK  7 active torsions:
REMARK  status: ('A' for Active; 'I' for Inactive)
REMARK    1  A    between atoms: C_8  and  C_9 
REMARK    2  A    between atoms: C_9  and  C_10 
REMARK       I    between atoms: C_10  and  N_11 
REMARK    3  A    between atoms: N_11  and  C_12 
REMARK    4  A    between atoms: N_11  and  C_27 
REMARK    5  A    between atoms: C_12  and  C_13 
REMARK    6  A    between atoms: C_12  and  C_22 
REMARK       I    between atoms: C_13  and  N_14 
REMARK    7  A    between atoms: N_14  and  C_15 
ROOT
HETATM    1  C   UNL     1      -5.554   2.416 -30.983  1.00  0.00     0.229 C 
HETATM    2  N   UNL     1      -6.128   3.198 -31.991  1.00  0.00    -0.299 N 
HETATM    3  O   UNL     1      -4.825   2.937 -30.132  1.00  0.00    -0.273 OA
ENDROOT
BRANCH   2   4
HETATM    4  C   UNL     1      -5.645   4.584 -32.271  1.00  0.00     0.225 C 
BRANCH   4   5
HETATM    5  C   UNL     1      -5.703   5.672 -31.157  1.00  0.00     0.246 C 
HETATM    6  N   UNL     1      -4.703   6.623 -31.145  1.00  0.00    -0.354 N 
HETATM    7  H   UNL     1      -4.360   6.891 -32.066  1.00  0.00     0.162 HD
HETATM    8  O   UNL     1      -6.587   5.660 -30.295  1.00  0.00    -0.271 OA
BRANCH   6   9
HETATM    9  C   UNL     1      -4.591   7.603 -30.071  1.00  0.00     0.084 C 
HETATM   10  C   UNL     1      -3.650   7.092 -28.972  1.00  0.00     0.025 C 
HETATM   11  C   UNL     1      -2.174   7.184 -29.355  1.00  0.00     0.002 C 
HETATM   12  C   UNL     1      -1.801   8.593 -29.802  1.00  0.00     0.000 C 
HETATM   13  C   UNL     1      -2.689   9.064 -30.949  1.00  0.00     0.002 C 
HETATM   14  C   UNL     1      -4.169   8.988 -30.582  1.00  0.00     0.025 C 
ENDBRANCH   6   9
ENDBRANCH   4   5
BRANCH   4  15
HETATM   15  C   UNL     1      -4.312   4.596 -32.992  1.00  0.00     0.015 A 
HETATM   16  S   UNL     1      -4.258   5.153 -34.626  1.00  0.00    -0.104 SA
HETATM   17  C   UNL     1      -2.577   4.899 -34.740  1.00  0.00     0.050 A 
HETATM   18  C   UNL     1      -2.052   4.399 -33.571  1.00  0.00     0.008 A 
HETATM   19  C   UNL     1      -3.048   4.236 -32.562  1.00  0.00     0.017 A 
ENDBRANCH   4  15
ENDBRANCH   2   4
BRANCH   2  20
HETATM   20  C   UNL     1      -7.331   2.826 -32.665  1.00  0.00     0.041 A 
HETATM   21  C   UNL     1      -8.575   3.112 -32.087  1.00  0.00     0.069 A 
HETATM   22  C   UNL     1      -9.710   2.721 -32.764  1.00  0.00     0.107 A 
HETATM   23  C   UNL     1      -9.646   2.058 -33.967  1.00  0.00     0.105 A 
HETATM   24  O   UNL     1     -10.990   2.930 -32.354  1.00  0.00    -0.323 OA
HETATM   25  O   UNL     1     -10.876   1.765 -34.463  1.00  0.00    -0.323 OA
HETATM   26  C   UNL     1      -8.442   1.746 -34.559  1.00  0.00     0.042 A 
HETATM   27  C   UNL     1     -11.725   2.314 -33.433  1.00  0.00     0.352 A 
HETATM   28  C   UNL     1      -7.272   2.131 -33.896  1.00  0.00     0.032 A 
ENDBRANCH   2  20
BRANCH   1  29
HETATM   29  C   UNL     1      -5.947   0.941 -30.892  1.00  0.00     0.144 C 
BRANCH  29  30
HETATM   30  C   UNL     1      -5.186  -0.101 -31.672  1.00  0.00    -0.021 A 
HETATM   31  C   UNL     1      -5.543  -0.987 -32.751  1.00  0.00    -0.001 A 
HETATM   32  C   UNL     1      -6.714  -1.272 -33.485  1.00  0.00     0.014 A 
HETATM   33  C   UNL     1      -4.387  -1.693 -33.111  1.00  0.00     0.042 A 
HETATM   34  C   UNL     1      -6.697  -2.229 -34.511  1.00  0.00     0.001 A 
HETATM   35  C   UNL     1      -5.527  -2.905 -34.832  1.00  0.00     0.002 A 
HETATM   36  C   UNL     1      -4.348  -2.646 -34.139  1.00  0.00     0.030 A 
HETATM   37  N   UNL     1      -3.370  -1.263 -32.297  1.00  0.00    -0.365 N 
HETATM   38  H   UNL     1      -2.418  -1.596 -32.346  1.00  0.00     0.165 HD
HETATM   39  C   UNL     1      -3.833  -0.313 -31.438  1.00  0.00     0.097 A 
ENDBRANCH  29  30
ENDBRANCH   1  29
TORSDOF 7
ENDMDL
MODEL 6
REMARK VINA RESULT:      -8.5      2.314      4.335
REMARK  7 active torsions:
REMARK  status: ('A' for Active; 'I' for Inactive)
REMARK    1  A    between atoms: C_8  and  C_9 
REMARK    2  A    between atoms: C_9  and  C_10 
REMARK       I    between atoms: C_10  and  N_11 
REMARK    3  A    between atoms: N_11  and  C_12 
REMARK    4  A    between atoms: N_11  and  C_27 
REMARK    5  A    between atoms: C_12  and  C_13 
REMARK    6  A    between atoms: C_12  and  C_22 
REMARK       I    between atoms: C_13  and  N_14 
REMARK    7  A    between atoms: N_14  and  C_15 
ROOT
HETATM    1  C   UNL     1      -4.848   1.783 -30.496  1.00  0.00     0.229 C 
HETATM    2  N   UNL     1      -4.935   3.150 -30.783  1.00  0.00    -0.299 N 
HETATM    3  O   UNL     1      -5.685   1.248 -29.762  1.00  0.00    -0.273 OA
ENDROOT
BRANCH   2   4
HETATM    4  C   UNL     1      -5.816   4.057 -29.988  1.00  0.00     0.225 C 
BRANCH   4   5
HETATM    5  C   UNL     1      -5.207   5.287 -29.249  1.00  0.00     0.246 C 
HETATM    6  N   UNL     1      -4.209   5.987 -29.898  1.00  0.00    -0.354 N 
HETATM    7  H   UNL     1      -4.310   6.032 -30.911  1.00  0.00     0.162 HD
HETATM    8  O   UNL     1      -5.573   5.599 -28.112  1.00  0.00    -0.271 OA
BRANCH   6   9
HETATM    9  C   UNL     1      -3.483   7.069 -29.244  1.00  0.00     0.084 C 
HETATM   10  C   UNL     1      -1.995   7.021 -29.617  1.00  0.00     0.025 C 
HETATM   11  C   UNL     1      -1.712   7.538 -31.025  1.00  0.00     0.002 C 
HETATM   12  C   UNL     1      -2.297   8.930 -31.237  1.00  0.00     0.000 C 
HETATM   13  C   UNL     1      -3.794   8.952 -30.941  1.00  0.00     0.002 C 
HETATM   14  C   UNL     1      -4.097   8.447 -29.533  1.00  0.00     0.025 C 
ENDBRANCH   6   9
ENDBRANCH   4   5
BRANCH   4  15
HETATM   15  C   UNL     1      -7.086   4.424 -30.728  1.00  0.00     0.015 A 
HETATM   16  S   UNL     1      -7.385   6.086 -31.089  1.00  0.00    -0.104 SA
HETATM   17  C   UNL     1      -8.861   5.734 -31.864  1.00  0.00     0.050 A 
HETATM   18  C   UNL     1      -9.137   4.387 -31.856  1.00  0.00     0.008 A 
HETATM   19  C   UNL     1      -8.111   3.633 -31.213  1.00  0.00     0.017 A 
ENDBRANCH   4  15
ENDBRANCH   2   4
BRANCH   2  20
HETATM   20  C   UNL     1      -4.375   3.727 -31.962  1.00  0.00     0.041 A 
HETATM   21  C   UNL     1      -3.012   4.056 -32.002  1.00  0.00     0.069 A 
HETATM   22  C   UNL     1      -2.516   4.627 -33.154  1.00  0.00     0.107 A 
HETATM   23  C   UNL     1      -3.318   4.887 -34.240  1.00  0.00     0.105 A 
HETATM   24  O   UNL     1      -1.223   4.992 -33.365  1.00  0.00    -0.323 OA
HETATM   25  O   UNL     1      -2.631   5.449 -35.268  1.00  0.00    -0.323 OA
HETATM   26  C   UNL     1      -4.664   4.592 -34.233  1.00  0.00     0.042 A 
HETATM   27  C   UNL     1      -1.305   5.520 -34.705  1.00  0.00     0.352 A 
HETATM   28  C   UNL     1      -5.197   4.011 -33.078  1.00  0.00     0.032 A 
ENDBRANCH   2  20
BRANCH   1  29
HETATM   29  C   UNL     1      -3.773   0.957 -31.203  1.00  0.00     0.144 C 
BRANCH  29  30
HETATM   30  C   UNL     1      -4.159  -0.212 -32.073  1.00  0.00    -0.021 A 
HETATM   31  C   UNL     1      -5.159  -0.400 -33.094  1.00  0.00    -0.001 A 
HETATM   32  C   UNL     1      -6.184   0.383 -33.668  1.00  0.00     0.014 A 
HETATM   33  C   UNL     1      -5.000  -1.697 -33.600  1.00  0.00     0.042 A 
HETATM   34  C   UNL     1      -6.997  -0.140 -34.684  1.00  0.00     0.001 A 
HETATM   35  C   UNL     1      -6.803  -1.433 -35.154  1.00  0.00     0.002 A 
HETATM   36  C   UNL     1      -5.796  -2.235 -34.621  1.00  0.00     0.030 A 
HETATM   37  N   UNL     1      -3.956  -2.278 -32.927  1.00  0.00    -0.365 N 
HETATM   38  H   UNL     1      -3.612  -3.213 -33.099  1.00  0.00     0.165 HD
HETATM   39  C   UNL     1      -3.444  -1.403 -32.018  1.00  0.00     0.097 A 
ENDBRANCH  29  30
ENDBRANCH   1  29
TORSDOF 7
ENDMDL
MODEL 7
REMARK VINA RESULT:      -8.4      2.420      6.228
REMARK  7 active torsions:
REMARK  status: ('A' for Active; 'I' for Inactive)
REMARK    1  A    between atoms: C_8  and  C_9 
REMARK    2  A    between atoms: C_9  and  C_10 
REMARK       I    between atoms: C_10  and  N_11 
REMARK    3  A    between atoms: N_11  and  C_12 
REMARK    4  A    between atoms: N_11  and  C_27 
REMARK    5  A    between atoms: C_12  and  C_13 
REMARK    6  A    between atoms: C_12  and  C_22 
REMARK       I    between atoms: C_13  and  N_14 
REMARK    7  A    between atoms: N_14  and  C_15 
ROOT
HETATM    1  C   UNL     1      -7.672   1.705 -31.613  1.00  0.00     0.229 C 
HETATM    2  N   UNL     1      -7.338   3.062 -31.683  1.00  0.00    -0.299 N 
HETATM    3  O   UNL     1      -8.857   1.356 -31.600  1.00  0.00    -0.273 OA
ENDROOT
BRANCH   2   4
HETATM    4  C   UNL     1      -8.353   4.127 -31.426  1.00  0.00     0.225 C 
BRANCH   4   5
HETATM    5  C   UNL     1      -9.873   3.782 -31.456  1.00  0.00     0.246 C 
HETATM    6  N   UNL     1     -10.428   3.468 -32.680  1.00  0.00    -0.354 N 
HETATM    7  H   UNL     1      -9.806   2.970 -33.314  1.00  0.00     0.162 HD
HETATM    8  O   UNL     1     -10.561   3.826 -30.432  1.00  0.00    -0.271 OA
BRANCH   6   9
HETATM    9  C   UNL     1     -11.863   3.259 -32.839  1.00  0.00     0.084 C 
HETATM   10  C   UNL     1     -12.495   4.426 -33.609  1.00  0.00     0.025 C 
HETATM   11  C   UNL     1     -12.213   4.378 -35.109  1.00  0.00     0.002 C 
HETATM   12  C   UNL     1     -12.608   3.033 -35.708  1.00  0.00     0.000 C 
HETATM   13  C   UNL     1     -11.913   1.881 -34.989  1.00  0.00     0.002 C 
HETATM   14  C   UNL     1     -12.191   1.906 -33.487  1.00  0.00     0.025 C 
ENDBRANCH   6   9
ENDBRANCH   4   5
BRANCH   4  15
HETATM   15  C   UNL     1      -8.000   4.984 -30.227  1.00  0.00     0.015 A 
HETATM   16  S   UNL     1      -8.285   6.685 -30.310  1.00  0.00    -0.104 SA
HETATM   17  C   UNL     1      -7.697   6.940 -28.731  1.00  0.00     0.050 A 
HETATM   18  C   UNL     1      -7.287   5.769 -28.140  1.00  0.00     0.008 A 
HETATM   19  C   UNL     1      -7.472   4.642 -28.995  1.00  0.00     0.017 A 
ENDBRANCH   4  15
ENDBRANCH   2   4
BRANCH   2  20
HETATM   20  C   UNL     1      -6.092   3.523 -32.206  1.00  0.00     0.041 A 
HETATM   21  C   UNL     1      -6.043   4.120 -33.474  1.00  0.00     0.069 A 
HETATM   22  C   UNL     1      -4.817   4.537 -33.947  1.00  0.00     0.107 A 
HETATM   23  C   UNL     1      -3.663   4.370 -33.220  1.00  0.00     0.105 A 
HETATM   24  O   UNL     1      -4.594   5.144 -35.144  1.00  0.00    -0.323 OA
HETATM   25  O   UNL     1      -2.569   4.849 -33.867  1.00  0.00    -0.323 OA
HETATM   26  C   UNL     1      -3.669   3.774 -31.978  1.00  0.00     0.042 A 
HETATM   27  C   UNL     1      -3.164   5.332 -35.090  1.00  0.00     0.352 A 
HETATM   28  C   UNL     1      -4.898   3.342 -31.470  1.00  0.00     0.032 A 
ENDBRANCH   2  20
BRANCH   1  29
HETATM   29  C   UNL     1      -6.545   0.673 -31.674  1.00  0.00     0.144 C 
BRANCH  29  30
HETATM   30  C   UNL     1      -6.434  -0.266 -32.848  1.00  0.00    -0.021 A 
HETATM   31  C   UNL     1      -5.526  -1.336 -33.179  1.00  0.00    -0.001 A 
HETATM   32  C   UNL     1      -4.383  -1.915 -32.589  1.00  0.00     0.014 A 
HETATM   33  C   UNL     1      -5.962  -1.894 -34.388  1.00  0.00     0.042 A 
HETATM   34  C   UNL     1      -3.726  -2.989 -33.210  1.00  0.00     0.001 A 
HETATM   35  C   UNL     1      -4.195  -3.509 -34.410  1.00  0.00     0.002 A 
HETATM   36  C   UNL     1      -5.325  -2.972 -35.020  1.00  0.00     0.030 A 
HETATM   37  N   UNL     1      -7.081  -1.206 -34.782  1.00  0.00    -0.365 N 
HETATM   38  H   UNL     1      -7.613  -1.406 -35.617  1.00  0.00     0.165 HD
HETATM   39  C   UNL     1      -7.374  -0.235 -33.872  1.00  0.00     0.097 A 
ENDBRANCH  29  30
ENDBRANCH   1  29
TORSDOF 7
ENDMDL
MODEL 8
REMARK VINA RESULT:      -8.4      2.265      6.928
REMARK  7 active torsions:
REMARK  status: ('A' for Active; 'I' for Inactive)
REMARK    1  A    between atoms: C_8  and  C_9 
REMARK    2  A    between atoms: C_9  and  C_10 
REMARK       I    between atoms: C_10  and  N_11 
REMARK    3  A    between atoms: N_11  and  C_12 
REMARK    4  A    between atoms: N_11  and  C_27 
REMARK    5  A    between atoms: C_12  and  C_13 
REMARK    6  A    between atoms: C_12  and  C_22 
REMARK       I    between atoms: C_13  and  N_14 
REMARK    7  A    between atoms: N_14  and  C_15 
ROOT
HETATM    1  C   UNL     1      -5.344   3.271 -32.361  1.00  0.00     0.229 C 
HETATM    2  N   UNL     1      -5.953   2.046 -32.067  1.00  0.00    -0.299 N 
HETATM    3  O   UNL     1      -5.736   4.306 -31.812  1.00  0.00    -0.273 OA
ENDROOT
BRANCH   2   4
HETATM    4  C   UNL     1      -7.266   1.979 -31.357  1.00  0.00     0.225 C 
BRANCH   4   5
HETATM    5  C   UNL     1      -7.724   3.163 -30.452  1.00  0.00     0.246 C 
HETATM    6  N   UNL     1      -8.564   4.103 -31.014  1.00  0.00    -0.354 N 
HETATM    7  H   UNL     1      -9.224   3.731 -31.695  1.00  0.00     0.162 HD
HETATM    8  O   UNL     1      -7.320   3.276 -29.291  1.00  0.00    -0.271 OA
BRANCH   6   9
HETATM    9  C   UNL     1      -8.945   5.315 -30.297  1.00  0.00     0.084 C 
HETATM   10  C   UNL     1      -7.994   6.467 -30.645  1.00  0.00     0.025 C 
HETATM   11  C   UNL     1      -8.260   7.070 -32.023  1.00  0.00     0.002 C 
HETATM   12  C   UNL     1      -9.719   7.482 -32.180  1.00  0.00     0.000 C 
HETATM   13  C   UNL     1     -10.657   6.310 -31.910  1.00  0.00     0.002 C 
HETATM   14  C   UNL     1     -10.413   5.699 -30.532  1.00  0.00     0.025 C 
ENDBRANCH   6   9
ENDBRANCH   4   5
BRANCH   4  15
HETATM   15  C   UNL     1      -8.386   1.499 -32.256  1.00  0.00     0.015 A 
HETATM   16  S   UNL     1      -8.540   2.190 -33.831  1.00  0.00    -0.104 SA
HETATM   17  C   UNL     1      -9.895   1.228 -34.207  1.00  0.00     0.050 A 
HETATM   18  C   UNL     1     -10.238   0.394 -33.168  1.00  0.00     0.008 A 
HETATM   19  C   UNL     1      -9.363   0.542 -32.051  1.00  0.00     0.017 A 
ENDBRANCH   4  15
ENDBRANCH   2   4
BRANCH   2  20
HETATM   20  C   UNL     1      -5.284   0.794 -32.225  1.00  0.00     0.041 A 
HETATM   21  C   UNL     1      -5.602  -0.039 -33.306  1.00  0.00     0.069 A 
HETATM   22  C   UNL     1      -4.944  -1.246 -33.411  1.00  0.00     0.107 A 
HETATM   23  C   UNL     1      -4.008  -1.645 -32.487  1.00  0.00     0.105 A 
HETATM   24  O   UNL     1      -5.121  -2.163 -34.399  1.00  0.00    -0.323 OA
HETATM   25  O   UNL     1      -3.480  -2.863 -32.776  1.00  0.00    -0.323 OA
HETATM   26  C   UNL     1      -3.679  -0.860 -31.403  1.00  0.00     0.042 A 
HETATM   27  C   UNL     1      -4.196  -3.190 -33.986  1.00  0.00     0.352 A 
HETATM   28  C   UNL     1      -4.330   0.371 -31.270  1.00  0.00     0.032 A 
ENDBRANCH   2  20
BRANCH   1  29
HETATM   29  C   UNL     1      -4.118   3.275 -33.274  1.00  0.00     0.144 C 
BRANCH  29  30
HETATM   30  C   UNL     1      -3.310   4.534 -33.460  1.00  0.00    -0.021 A 
HETATM   31  C   UNL     1      -2.251   5.153 -32.703  1.00  0.00    -0.001 A 
HETATM   32  C   UNL     1      -1.569   4.877 -31.499  1.00  0.00     0.014 A 
HETATM   33  C   UNL     1      -1.844   6.293 -33.410  1.00  0.00     0.042 A 
HETATM   34  C   UNL     1      -0.547   5.726 -31.048  1.00  0.00     0.001 A 
HETATM   35  C   UNL     1      -0.178   6.847 -31.781  1.00  0.00     0.002 A 
HETATM   36  C   UNL     1      -0.820   7.148 -32.980  1.00  0.00     0.030 A 
HETATM   37  N   UNL     1      -2.612   6.372 -34.544  1.00  0.00    -0.365 N 
HETATM   38  H   UNL     1      -2.524   7.093 -35.246  1.00  0.00     0.165 HD
HETATM   39  C   UNL     1      -3.486   5.329 -34.587  1.00  0.00     0.097 A 
ENDBRANCH  29  30
ENDBRANCH   1  29
TORSDOF 7
ENDMDL
MODEL 9
REMARK VINA RESULT:      -8.3      2.783      7.826
REMARK  7 active torsions:
REMARK  status: ('A' for Active; 'I' for Inactive)
REMARK    1  A    between atoms: C_8  and  C_9 
REMARK    2  A    between atoms: C_9  and  C_10 
REMARK       I    between atoms: C_10  and  N_11 
REMARK    3  A    between atoms: N_11  and  C_12 
REMARK    4  A    between atoms: N_11  and  C_27 
REMARK    5  A    between atoms: C_12  and  C_13 
REMARK    6  A    between atoms: C_12  and  C_22 
REMARK       I    between atoms: C_13  and  N_14 
REMARK    7  A    between atoms: N_14  and  C_15 
ROOT
HETATM    1  C   UNL     1      -6.832   5.211 -30.772  1.00  0.00     0.229 C 
HETATM    2  N   UNL     1      -6.096   4.657 -31.825  1.00  0.00    -0.299 N 
HETATM    3  O   UNL     1      -7.829   4.626 -30.336  1.00  0.00    -0.273 OA
ENDROOT
BRANCH   2   4
HETATM    4  C   UNL     1      -6.644   3.545 -32.657  1.00  0.00     0.225 C 
BRANCH   4   5
HETATM    5  C   UNL     1      -6.755   2.107 -32.065  1.00  0.00     0.246 C 
HETATM    6  N   UNL     1      -6.226   1.072 -32.809  1.00  0.00    -0.354 N 
HETATM    7  H   UNL     1      -5.391   1.313 -33.341  1.00  0.00     0.162 HD
HETATM    8  O   UNL     1      -7.328   1.898 -30.992  1.00  0.00    -0.271 OA
BRANCH   6   9
HETATM    9  C   UNL     1      -6.392  -0.321 -32.410  1.00  0.00     0.084 C 
HETATM   10  C   UNL     1      -7.230  -1.081 -33.446  1.00  0.00     0.025 C 
HETATM   11  C   UNL     1      -6.449  -1.426 -34.713  1.00  0.00     0.002 C 
HETATM   12  C   UNL     1      -5.156  -2.164 -34.387  1.00  0.00     0.000 C 
HETATM   13  C   UNL     1      -4.291  -1.365 -33.418  1.00  0.00     0.002 C 
HETATM   14  C   UNL     1      -5.051  -1.019 -32.140  1.00  0.00     0.025 C 
ENDBRANCH   6   9
ENDBRANCH   4   5
BRANCH   4  15
HETATM   15  C   UNL     1      -7.907   3.943 -33.394  1.00  0.00     0.015 A 
HETATM   16  S   UNL     1      -9.137   2.754 -33.635  1.00  0.00    -0.104 SA
HETATM   17  C   UNL     1     -10.149   3.854 -34.453  1.00  0.00     0.050 A 
HETATM   18  C   UNL     1      -9.580   5.102 -34.552  1.00  0.00     0.008 A 
HETATM   19  C   UNL     1      -8.296   5.156 -33.932  1.00  0.00     0.017 A 
ENDBRANCH   4  15
ENDBRANCH   2   4
BRANCH   2  20
HETATM   20  C   UNL     1      -4.716   4.955 -32.042  1.00  0.00     0.041 A 
HETATM   21  C   UNL     1      -4.349   5.943 -32.966  1.00  0.00     0.069 A 
HETATM   22  C   UNL     1      -3.006   6.187 -33.157  1.00  0.00     0.107 A 
HETATM   23  C   UNL     1      -2.037   5.485 -32.479  1.00  0.00     0.105 A 
HETATM   24  O   UNL     1      -2.480   7.114 -34.001  1.00  0.00    -0.323 OA
HETATM   25  O   UNL     1      -0.782   5.881 -32.813  1.00  0.00    -0.323 OA
HETATM   26  C   UNL     1      -2.358   4.496 -31.575  1.00  0.00     0.042 A 
HETATM   27  C   UNL     1      -1.068   6.909 -33.784  1.00  0.00     0.352 A 
HETATM   28  C   UNL     1      -3.714   4.226 -31.359  1.00  0.00     0.032 A 
ENDBRANCH   2  20
BRANCH   1  29
HETATM   29  C   UNL     1      -6.305   6.481 -30.103  1.00  0.00     0.144 C 
BRANCH  29  30
HETATM   30  C   UNL     1      -5.395   6.391 -28.904  1.00  0.00    -0.021 A 
HETATM   31  C   UNL     1      -4.057   6.855 -28.640  1.00  0.00    -0.001 A 
HETATM   32  C   UNL     1      -3.055   7.534 -29.367  1.00  0.00     0.014 A 
HETATM   33  C   UNL     1      -3.756   6.528 -27.311  1.00  0.00     0.042 A 
HETATM   34  C   UNL     1      -1.824   7.841 -28.768  1.00  0.00     0.001 A 
HETATM   35  C   UNL     1      -1.570   7.494 -27.447  1.00  0.00     0.002 A 
HETATM   36  C   UNL     1      -2.536   6.834 -26.692  1.00  0.00     0.030 A 
HETATM   37  N   UNL     1      -4.853   5.895 -26.783  1.00  0.00    -0.365 N 
HETATM   38  H   UNL     1      -4.919   5.559 -25.832  1.00  0.00     0.165 HD
HETATM   39  C   UNL     1      -5.837   5.810 -27.721  1.00  0.00     0.097 A 
ENDBRANCH  29  30
ENDBRANCH   1  29
TORSDOF 7
ENDMDL
MODEL 10
REMARK VINA RESULT:      -8.2      2.926      7.232
REMARK  7 active torsions:
REMARK  status: ('A' for Active; 'I' for Inactive)
REMARK    1  A    between atoms: C_8  and  C_9 
REMARK    2  A    between atoms: C_9  and  C_10 
REMARK       I    between atoms: C_10  and  N_11 
REMARK    3  A    between atoms: N_11  and  C_12 
REMARK    4  A    between atoms: N_11  and  C_27 
REMARK    5  A    between atoms: C_12  and  C_13 
REMARK    6  A    between atoms: C_12  and  C_22 
REMARK       I    between atoms: C_13  and  N_14 
REMARK    7  A    between atoms: N_14  and  C_15 
ROOT
HETATM    1  C   UNL     1      -7.642   3.749 -33.318  1.00  0.00     0.229 C 
HETATM    2  N   UNL     1      -8.202   2.467 -33.351  1.00  0.00    -0.299 N 
HETATM    3  O   UNL     1      -8.175   4.643 -32.652  1.00  0.00    -0.273 OA
ENDROOT
BRANCH   2   4
HETATM    4  C   UNL     1      -9.594   2.214 -32.870  1.00  0.00     0.225 C 
BRANCH   4   5
HETATM    5  C   UNL     1     -10.093   2.867 -31.546  1.00  0.00     0.246 C 
HETATM    6  N   UNL     1     -11.197   3.693 -31.623  1.00  0.00    -0.354 N 
HETATM    7  H   UNL     1     -11.889   3.414 -32.317  1.00  0.00     0.162 HD
HETATM    8  O   UNL     1      -9.502   2.685 -30.478  1.00  0.00    -0.271 OA
BRANCH   6   9
HETATM    9  C   UNL     1     -11.665   4.455 -30.471  1.00  0.00     0.084 C 
HETATM   10  C   UNL     1     -11.471   5.959 -30.706  1.00  0.00     0.025 C 
HETATM   11  C   UNL     1     -12.506   6.556 -31.657  1.00  0.00     0.002 C 
HETATM   12  C   UNL     1     -13.927   6.239 -31.205  1.00  0.00     0.000 C 
HETATM   13  C   UNL     1     -14.136   4.736 -31.051  1.00  0.00     0.002 C 
HETATM   14  C   UNL     1     -13.116   4.121 -30.096  1.00  0.00     0.025 C 
ENDBRANCH   6   9
ENDBRANCH   4   5
BRANCH   4  15
HETATM   15  C   UNL     1     -10.620   2.342 -33.977  1.00  0.00     0.015 A 
HETATM   16  S   UNL     1     -11.845   1.132 -34.117  1.00  0.00    -0.104 SA
HETATM   17  C   UNL     1     -12.557   1.898 -35.462  1.00  0.00     0.050 A 
HETATM   18  C   UNL     1     -11.890   3.048 -35.812  1.00  0.00     0.008 A 
HETATM   19  C   UNL     1     -10.783   3.310 -34.951  1.00  0.00     0.017 A 
ENDBRANCH   4  15
ENDBRANCH   2   4
BRANCH   2  20
HETATM   20  C   UNL     1      -7.435   1.297 -33.635  1.00  0.00     0.041 A 
HETATM   21  C   UNL     1      -6.558   0.784 -32.669  1.00  0.00     0.069 A 
HETATM   22  C   UNL     1      -5.824  -0.338 -32.991  1.00  0.00     0.107 A 
HETATM   23  C   UNL     1      -5.924  -0.944 -34.221  1.00  0.00     0.105 A 
HETATM   24  O   UNL     1      -4.942  -0.971 -32.171  1.00  0.00    -0.323 OA
HETATM   25  O   UNL     1      -5.117  -2.031 -34.330  1.00  0.00    -0.323 OA
HETATM   26  C   UNL     1      -6.763  -0.459 -35.200  1.00  0.00     0.042 A 
HETATM   27  C   UNL     1      -4.492  -2.039 -33.030  1.00  0.00     0.352 A 
HETATM   28  C   UNL     1      -7.522   0.678 -34.904  1.00  0.00     0.032 A 
ENDBRANCH   2  20
BRANCH   1  29
HETATM   29  C   UNL     1      -6.303   3.978 -34.019  1.00  0.00     0.144 C 
BRANCH  29  30
HETATM   30  C   UNL     1      -5.039   4.148 -33.215  1.00  0.00    -0.021 A 
HETATM   31  C   UNL     1      -3.733   4.675 -33.521  1.00  0.00    -0.001 A 
HETATM   32  C   UNL     1      -3.094   5.205 -34.663  1.00  0.00     0.014 A 
HETATM   33  C   UNL     1      -2.978   4.631 -32.342  1.00  0.00     0.042 A 
HETATM   34  C   UNL     1      -1.764   5.645 -34.596  1.00  0.00     0.001 A 
HETATM   35  C   UNL     1      -1.054   5.580 -33.404  1.00  0.00     0.002 A 
HETATM   36  C   UNL     1      -1.651   5.074 -32.252  1.00  0.00     0.030 A 
HETATM   37  N   UNL     1      -3.777   4.104 -31.359  1.00  0.00    -0.365 N 
HETATM   38  H   UNL     1      -3.491   3.969 -30.399  1.00  0.00     0.165 HD
HETATM   39  C   UNL     1      -5.008   3.815 -31.866  1.00  0.00     0.097 A 
ENDBRANCH  29  30
ENDBRANCH   1  29
TORSDOF 7
ENDMDL
