MODEL 1
REMARK VINA RESULT:      -8.6      0.000      0.000
REMARK  8 active torsions:
REMARK  status: ('A' for Active; 'I' for Inactive)
REMARK    1  A    between atoms: O_2  and  C_3 
REMARK    2  A    between atoms: C_4  and  O_5 
REMARK    3  A    between atoms: C_8  and  N_9 
REMARK       I    between atoms: N_9  and  C_10 
REMARK    4  A    between atoms: C_10  and  C_11 
REMARK       I    between atoms: C_11  and  N_12 
REMARK    5  A    between atoms: N_12  and  C_13 
REMARK    6  A    between atoms: C_13  and  C_14 
REMARK    7  A    between atoms: C_14  and  S_15 
REMARK    8  A    between atoms: S_15  and  C_16 
ROOT
HETATM    1  C   UNL     1      -3.877   3.323 -31.673  1.00  0.00     0.309 C 
HETATM    2  N   UNL     1      -2.711   3.972 -31.348  1.00  0.00    -0.351 N 
HETATM    3  O   UNL     1      -4.982   3.838 -31.784  1.00  0.00    -0.262 OA
HETATM    4  H   UNL     1      -1.886   3.389 -31.212  1.00  0.00     0.162 HD
ENDROOT
BRANCH   1   5
HETATM    5  C   UNL     1      -3.719   1.799 -31.867  1.00  0.00     0.313 C 
HETATM    6  N   UNL     1      -4.576   1.320 -32.835  1.00  0.00    -0.319 N 
HETATM    7  H   UNL     1      -5.154   2.037 -33.271  1.00  0.00     0.169 HD
HETATM    8  O   UNL     1      -2.913   1.196 -31.174  1.00  0.00    -0.262 OA
BRANCH   6   9
HETATM    9  C   UNL     1      -4.760  -0.010 -33.250  1.00  0.00     0.037 A 
HETATM   10  C   UNL     1      -3.912  -1.060 -32.886  1.00  0.00     0.069 A 
HETATM   11  C   UNL     1      -4.167  -2.369 -33.320  1.00  0.00     0.103 A 
HETATM   12  C   UNL     1      -5.294  -2.625 -34.121  1.00  0.00     0.101 A 
HETATM   13  C   UNL     1      -6.128  -1.573 -34.505  1.00  0.00     0.042 A 
HETATM   14  C   UNL     1      -5.863  -0.274 -34.067  1.00  0.00     0.032 A 
BRANCH  11  15
HETATM   15  O   UNL     1      -3.393  -3.459 -33.007  1.00  0.00    -0.353 OA
HETATM   16  C   UNL     1      -2.841  -3.520 -31.700  1.00  0.00     0.210 C 
ENDBRANCH  11  15
BRANCH  12  17
HETATM   17  O   UNL     1      -5.490  -3.920 -34.534  1.00  0.00    -0.353 OA
HETATM   18  C   UNL     1      -6.730  -4.166 -35.188  1.00  0.00     0.210 C 
ENDBRANCH  12  17
ENDBRANCH   6   9
ENDBRANCH   1   5
BRANCH   2  19
HETATM   19  C   UNL     1      -2.640   5.382 -31.008  1.00  0.00     0.144 C 
BRANCH  19  20
HETATM   20  C   UNL     1      -1.255   6.049 -31.297  1.00  0.00     0.033 C 
HETATM   21  C   UNL     1      -0.766   5.612 -32.695  1.00  0.00     0.049 C 
HETATM   22  C   UNL     1      -1.578   6.271 -33.807  1.00  0.00     0.169 C 
HETATM   23  O   UNL     1      -1.564   7.689 -33.670  1.00  0.00    -0.391 OA
HETATM   24  C   UNL     1      -2.140   8.130 -32.441  1.00  0.00     0.169 C 
HETATM   25  C   UNL     1      -1.346   7.588 -31.255  1.00  0.00     0.049 C 
BRANCH  20  26
HETATM   26  S   UNL     1      -0.109   5.385 -29.961  1.00  0.00    -0.118 SA
BRANCH  26  27
HETATM   27  C   UNL     1      -0.067   6.688 -28.748  1.00  0.00     0.001 A 
HETATM   28  C   UNL     1      -1.043   6.754 -27.750  1.00  0.00     0.018 A 
HETATM   29  C   UNL     1      -0.989   7.753 -26.774  1.00  0.00     0.001 A 
HETATM   30  C   UNL     1       0.053   8.677 -26.780  1.00  0.00     0.000 A 
HETATM   31  C   UNL     1       1.048   8.599 -27.754  1.00  0.00     0.001 A 
HETATM   32  C   UNL     1       0.992   7.601 -28.729  1.00  0.00     0.018 A 
ENDBRANCH  26  27
ENDBRANCH  20  26
ENDBRANCH  19  20
ENDBRANCH   2  19
TORSDOF 8
ENDMDL
MODEL 2
REMARK VINA RESULT:      -8.1      3.293     10.006
REMARK  8 active torsions:
REMARK  status: ('A' for Active; 'I' for Inactive)
REMARK    1  A    between atoms: O_2  and  C_3 
REMARK    2  A    between atoms: C_4  and  O_5 
REMARK    3  A    between atoms: C_8  and  N_9 
REMARK       I    between atoms: N_9  and  C_10 
REMARK    4  A    between atoms: C_10  and  C_11 
REMARK       I    between atoms: C_11  and  N_12 
REMARK    5  A    between atoms: N_12  and  C_13 
REMARK    6  A    between atoms: C_13  and  C_14 
REMARK    7  A    between atoms: C_14  and  S_15 
REMARK    8  A    between atoms: S_15  and  C_16 
ROOT
HETATM    1  C   UNL     1      -1.359   4.819 -31.660  1.00  0.00     0.309 C 
HETATM    2  N   UNL     1      -2.422   3.992 -31.393  1.00  0.00    -0.351 N 
HETATM    3  O   UNL     1      -1.003   5.201 -32.767  1.00  0.00    -0.262 OA
HETATM    4  H   UNL     1      -2.539   3.697 -30.425  1.00  0.00     0.162 HD
ENDROOT
BRANCH   1   5
HETATM    5  C   UNL     1      -0.556   5.241 -30.410  1.00  0.00     0.313 C 
HETATM    6  N   UNL     1      -1.055   6.399 -29.854  1.00  0.00    -0.319 N 
HETATM    7  H   UNL     1      -1.868   6.776 -30.338  1.00  0.00     0.169 HD
HETATM    8  O   UNL     1       0.399   4.560 -30.064  1.00  0.00    -0.262 OA
BRANCH   6   9
HETATM    9  C   UNL     1      -0.561   7.115 -28.750  1.00  0.00     0.037 A 
HETATM   10  C   UNL     1      -1.284   7.318 -27.570  1.00  0.00     0.069 A 
HETATM   11  C   UNL     1      -0.721   8.025 -26.499  1.00  0.00     0.103 A 
HETATM   12  C   UNL     1       0.588   8.526 -26.612  1.00  0.00     0.101 A 
HETATM   13  C   UNL     1       1.301   8.345 -27.799  1.00  0.00     0.042 A 
HETATM   14  C   UNL     1       0.730   7.640 -28.860  1.00  0.00     0.032 A 
BRANCH  11  15
HETATM   15  O   UNL     1      -1.354   8.265 -25.305  1.00  0.00    -0.353 OA
HETATM   16  C   UNL     1      -2.667   7.747 -25.140  1.00  0.00     0.210 C 
ENDBRANCH  11  15
BRANCH  12  17
HETATM   17  O   UNL     1       1.087   9.227 -25.542  1.00  0.00    -0.353 OA
HETATM   18  C   UNL     1       2.247   8.665 -24.938  1.00  0.00     0.210 C 
ENDBRANCH  12  17
ENDBRANCH   6   9
ENDBRANCH   1   5
BRANCH   2  19
HETATM   19  C   UNL     1      -3.247   3.381 -32.421  1.00  0.00     0.144 C 
BRANCH  19  20
HETATM   20  C   UNL     1      -4.776   3.353 -32.092  1.00  0.00     0.033 C 
HETATM   21  C   UNL     1      -5.164   4.669 -31.383  1.00  0.00     0.049 C 
HETATM   22  C   UNL     1      -5.155   5.851 -32.348  1.00  0.00     0.169 C 
HETATM   23  O   UNL     1      -5.997   5.595 -33.470  1.00  0.00    -0.391 OA
HETATM   24  C   UNL     1      -5.577   4.460 -34.226  1.00  0.00     0.169 C 
HETATM   25  C   UNL     1      -5.628   3.199 -33.367  1.00  0.00     0.049 C 
BRANCH  20  26
HETATM   26  S   UNL     1      -4.996   1.890 -30.930  1.00  0.00    -0.118 SA
BRANCH  26  27
HETATM   27  C   UNL     1      -5.148   0.494 -32.024  1.00  0.00     0.001 A 
HETATM   28  C   UNL     1      -6.409  -0.014 -32.349  1.00  0.00     0.018 A 
HETATM   29  C   UNL     1      -6.531  -1.085 -33.239  1.00  0.00     0.001 A 
HETATM   30  C   UNL     1      -5.394  -1.639 -33.823  1.00  0.00     0.000 A 
HETATM   31  C   UNL     1      -4.135  -1.118 -33.527  1.00  0.00     0.001 A 
HETATM   32  C   UNL     1      -4.014  -0.048 -32.638  1.00  0.00     0.018 A 
ENDBRANCH  26  27
ENDBRANCH  20  26
ENDBRANCH  19  20
ENDBRANCH   2  19
TORSDOF 8
ENDMDL
MODEL 3
REMARK VINA RESULT:      -8.1      1.299      2.286
REMARK  8 active torsions:
REMARK  status: ('A' for Active; 'I' for Inactive)
REMARK    1  A    between atoms: O_2  and  C_3 
REMARK    2  A    between atoms: C_4  and  O_5 
REMARK    3  A    between atoms: C_8  and  N_9 
REMARK       I    between atoms: N_9  and  C_10 
REMARK    4  A    between atoms: C_10  and  C_11 
REMARK       I    between atoms: C_11  and  N_12 
REMARK    5  A    between atoms: N_12  and  C_13 
REMARK    6  A    between atoms: C_13  and  C_14 
REMARK    7  A    between atoms: C_14  and  S_15 
REMARK    8  A    between atoms: S_15  and  C_16 
ROOT
HETATM    1  C   UNL     1      -4.662   4.250 -30.846  1.00  0.00     0.309 C 
HETATM    2  N   UNL     1      -3.347   4.526 -31.133  1.00  0.00    -0.351 N 
HETATM    3  O   UNL     1      -5.494   5.049 -30.439  1.00  0.00    -0.262 OA
HETATM    4  H   UNL     1      -2.758   3.734 -31.384  1.00  0.00     0.162 HD
ENDROOT
BRANCH   1   5
HETATM    5  C   UNL     1      -5.054   2.769 -31.042  1.00  0.00     0.313 C 
HETATM    6  N   UNL     1      -4.139   2.103 -31.829  1.00  0.00    -0.319 N 
HETATM    7  H   UNL     1      -3.357   2.678 -32.138  1.00  0.00     0.169 HD
HETATM    8  O   UNL     1      -6.083   2.358 -30.527  1.00  0.00    -0.262 OA
BRANCH   6   9
HETATM    9  C   UNL     1      -4.182   0.768 -32.270  1.00  0.00     0.037 A 
HETATM   10  C   UNL     1      -5.108   0.290 -33.202  1.00  0.00     0.069 A 
HETATM   11  C   UNL     1      -5.081  -1.051 -33.613  1.00  0.00     0.103 A 
HETATM   12  C   UNL     1      -4.106  -1.917 -33.086  1.00  0.00     0.101 A 
HETATM   13  C   UNL     1      -3.198  -1.445 -32.135  1.00  0.00     0.042 A 
HETATM   14  C   UNL     1      -3.235  -0.108 -31.734  1.00  0.00     0.032 A 
BRANCH  11  15
HETATM   15  O   UNL     1      -5.943  -1.604 -34.526  1.00  0.00    -0.353 OA
HETATM   16  C   UNL     1      -7.055  -0.822 -34.939  1.00  0.00     0.210 C 
ENDBRANCH  11  15
BRANCH  12  17
HETATM   17  O   UNL     1      -4.134  -3.224 -33.506  1.00  0.00    -0.353 OA
HETATM   18  C   UNL     1      -3.365  -4.128 -32.721  1.00  0.00     0.210 C 
ENDBRANCH  12  17
ENDBRANCH   6   9
ENDBRANCH   1   5
BRANCH   2  19
HETATM   19  C   UNL     1      -2.730   5.823 -30.913  1.00  0.00     0.144 C 
BRANCH  19  20
HETATM   20  C   UNL     1      -1.277   5.952 -31.481  1.00  0.00     0.033 C 
HETATM   21  C   UNL     1      -1.138   5.042 -32.720  1.00  0.00     0.049 C 
HETATM   22  C   UNL     1      -1.904   5.599 -33.917  1.00  0.00     0.169 C 
HETATM   23  O   UNL     1      -1.497   6.935 -34.201  1.00  0.00    -0.391 OA
HETATM   24  C   UNL     1      -1.745   7.829 -33.117  1.00  0.00     0.169 C 
HETATM   25  C   UNL     1      -0.953   7.404 -31.883  1.00  0.00     0.049 C 
BRANCH  20  26
HETATM   26  S   UNL     1      -0.159   5.350 -30.093  1.00  0.00    -0.118 SA
BRANCH  26  27
HETATM   27  C   UNL     1      -0.142   6.707 -28.939  1.00  0.00     0.001 A 
HETATM   28  C   UNL     1       1.006   7.489 -28.787  1.00  0.00     0.018 A 
HETATM   29  C   UNL     1       1.007   8.578 -27.911  1.00  0.00     0.001 A 
HETATM   30  C   UNL     1      -0.145   8.901 -27.198  1.00  0.00     0.000 A 
HETATM   31  C   UNL     1      -1.303   8.144 -27.368  1.00  0.00     0.001 A 
HETATM   32  C   UNL     1      -1.304   7.056 -28.243  1.00  0.00     0.018 A 
ENDBRANCH  26  27
ENDBRANCH  20  26
ENDBRANCH  19  20
ENDBRANCH   2  19
TORSDOF 8
ENDMDL
MODEL 4
REMARK VINA RESULT:      -8.0      1.606      2.164
REMARK  8 active torsions:
REMARK  status: ('A' for Active; 'I' for Inactive)
REMARK    1  A    between atoms: O_2  and  C_3 
REMARK    2  A    between atoms: C_4  and  O_5 
REMARK    3  A    between atoms: C_8  and  N_9 
REMARK       I    between atoms: N_9  and  C_10 
REMARK    4  A    between atoms: C_10  and  C_11 
REMARK       I    between atoms: C_11  and  N_12 
REMARK    5  A    between atoms: N_12  and  C_13 
REMARK    6  A    between atoms: C_13  and  C_14 
REMARK    7  A    between atoms: C_14  and  S_15 
REMARK    8  A    between atoms: S_15  and  C_16 
ROOT
HETATM    1  C   UNL     1      -4.432   2.906 -31.222  1.00  0.00     0.309 C 
HETATM    2  N   UNL     1      -3.420   3.832 -31.297  1.00  0.00    -0.351 N 
HETATM    3  O   UNL     1      -5.567   3.111 -30.814  1.00  0.00    -0.262 OA
HETATM    4  H   UNL     1      -2.505   3.487 -31.582  1.00  0.00     0.162 HD
ENDROOT
BRANCH   1   5
HETATM    5  C   UNL     1      -4.025   1.487 -31.676  1.00  0.00     0.313 C 
HETATM    6  N   UNL     1      -4.977   0.927 -32.501  1.00  0.00    -0.319 N 
HETATM    7  H   UNL     1      -5.774   1.532 -32.689  1.00  0.00     0.169 HD
HETATM    8  O   UNL     1      -2.972   1.017 -31.271  1.00  0.00    -0.262 OA
BRANCH   6   9
HETATM    9  C   UNL     1      -4.987  -0.361 -33.065  1.00  0.00     0.037 A 
HETATM   10  C   UNL     1      -4.115  -1.383 -32.678  1.00  0.00     0.069 A 
HETATM   11  C   UNL     1      -4.193  -2.652 -33.270  1.00  0.00     0.103 A 
HETATM   12  C   UNL     1      -5.167  -2.897 -34.255  1.00  0.00     0.101 A 
HETATM   13  C   UNL     1      -6.021  -1.869 -34.659  1.00  0.00     0.042 A 
HETATM   14  C   UNL     1      -5.932  -0.610 -34.063  1.00  0.00     0.032 A 
BRANCH  11  15
HETATM   15  O   UNL     1      -3.385  -3.713 -32.948  1.00  0.00    -0.353 OA
HETATM   16  C   UNL     1      -2.806  -3.731 -31.651  1.00  0.00     0.210 C 
ENDBRANCH  11  15
BRANCH  12  17
HETATM   17  O   UNL     1      -5.190  -4.151 -34.816  1.00  0.00    -0.353 OA
HETATM   18  C   UNL     1      -6.397  -4.488 -35.491  1.00  0.00     0.210 C 
ENDBRANCH  12  17
ENDBRANCH   6   9
ENDBRANCH   1   5
BRANCH   2  19
HETATM   19  C   UNL     1      -3.540   5.198 -30.817  1.00  0.00     0.144 C 
BRANCH  19  20
HETATM   20  C   UNL     1      -3.425   6.288 -31.934  1.00  0.00     0.033 C 
HETATM   21  C   UNL     1      -4.301   5.874 -33.135  1.00  0.00     0.049 C 
HETATM   22  C   UNL     1      -5.788   6.017 -32.823  1.00  0.00     0.169 C 
HETATM   23  O   UNL     1      -6.089   7.341 -32.390  1.00  0.00    -0.391 OA
HETATM   24  C   UNL     1      -5.394   7.702 -31.197  1.00  0.00     0.169 C 
HETATM   25  C   UNL     1      -3.886   7.669 -31.427  1.00  0.00     0.049 C 
BRANCH  20  26
HETATM   26  S   UNL     1      -1.607   6.298 -32.417  1.00  0.00    -0.118 SA
BRANCH  26  27
HETATM   27  C   UNL     1      -0.750   6.320 -30.856  1.00  0.00     0.001 A 
HETATM   28  C   UNL     1      -0.023   5.203 -30.434  1.00  0.00     0.018 A 
HETATM   29  C   UNL     1       0.682   5.234 -29.229  1.00  0.00     0.001 A 
HETATM   30  C   UNL     1       0.680   6.388 -28.449  1.00  0.00     0.000 A 
HETATM   31  C   UNL     1      -0.017   7.516 -28.878  1.00  0.00     0.001 A 
HETATM   32  C   UNL     1      -0.721   7.485 -30.083  1.00  0.00     0.018 A 
ENDBRANCH  26  27
ENDBRANCH  20  26
ENDBRANCH  19  20
ENDBRANCH   2  19
TORSDOF 8
ENDMDL
MODEL 5
REMARK VINA RESULT:      -7.9      3.596      9.742
REMARK  8 active torsions:
REMARK  status: ('A' for Active; 'I' for Inactive)
REMARK    1  A    between atoms: O_2  and  C_3 
REMARK    2  A    between atoms: C_4  and  O_5 
REMARK    3  A    between atoms: C_8  and  N_9 
REMARK       I    between atoms: N_9  and  C_10 
REMARK    4  A    between atoms: C_10  and  C_11 
REMARK       I    between atoms: C_11  and  N_12 
REMARK    5  A    between atoms: N_12  and  C_13 
REMARK    6  A    between atoms: C_13  and  C_14 
REMARK    7  A    between atoms: C_14  and  S_15 
REMARK    8  A    between atoms: S_15  and  C_16 
ROOT
HETATM    1  C   UNL     1      -6.353   4.223 -33.885  1.00  0.00     0.309 C 
HETATM    2  N   UNL     1      -6.344   2.867 -33.667  1.00  0.00    -0.351 N 
HETATM    3  O   UNL     1      -7.296   4.879 -34.307  1.00  0.00    -0.262 OA
HETATM    4  H   UNL     1      -5.454   2.454 -33.392  1.00  0.00     0.162 HD
ENDROOT
BRANCH   1   5
HETATM    5  C   UNL     1      -5.007   4.920 -33.585  1.00  0.00     0.313 C 
HETATM    6  N   UNL     1      -4.597   4.692 -32.289  1.00  0.00    -0.319 N 
HETATM    7  H   UNL     1      -5.225   4.098 -31.751  1.00  0.00     0.169 HD
HETATM    8  O   UNL     1      -4.477   5.582 -34.465  1.00  0.00    -0.262 OA
BRANCH   6   9
HETATM    9  C   UNL     1      -3.460   5.201 -31.637  1.00  0.00     0.037 A 
HETATM   10  C   UNL     1      -3.487   6.305 -30.780  1.00  0.00     0.069 A 
HETATM   11  C   UNL     1      -2.317   6.748 -30.147  1.00  0.00     0.103 A 
HETATM   12  C   UNL     1      -1.108   6.064 -30.370  1.00  0.00     0.101 A 
HETATM   13  C   UNL     1      -1.076   4.977 -31.245  1.00  0.00     0.042 A 
HETATM   14  C   UNL     1      -2.247   4.546 -31.871  1.00  0.00     0.032 A 
BRANCH  11  15
HETATM   15  O   UNL     1      -2.252   7.816 -29.287  1.00  0.00    -0.353 OA
HETATM   16  C   UNL     1      -2.737   7.627 -27.965  1.00  0.00     0.210 C 
ENDBRANCH  11  15
BRANCH  12  17
HETATM   17  O   UNL     1       0.013   6.548 -29.740  1.00  0.00    -0.353 OA
HETATM   18  C   UNL     1       0.564   5.692 -28.745  1.00  0.00     0.210 C 
ENDBRANCH  12  17
ENDBRANCH   6   9
ENDBRANCH   1   5
BRANCH   2  19
HETATM   19  C   UNL     1      -7.458   1.991 -33.988  1.00  0.00     0.144 C 
BRANCH  19  20
HETATM   20  C   UNL     1      -8.219   1.428 -32.742  1.00  0.00     0.033 C 
HETATM   21  C   UNL     1      -8.739   2.608 -31.894  1.00  0.00     0.049 C 
HETATM   22  C   UNL     1      -9.904   3.321 -32.575  1.00  0.00     0.169 C 
HETATM   23  O   UNL     1     -10.947   2.402 -32.885  1.00  0.00    -0.391 OA
HETATM   24  C   UNL     1     -10.529   1.375 -33.783  1.00  0.00     0.169 C 
HETATM   25  C   UNL     1      -9.411   0.544 -33.158  1.00  0.00     0.049 C 
BRANCH  20  26
HETATM   26  S   UNL     1      -6.928   0.448 -31.787  1.00  0.00    -0.118 SA
BRANCH  26  27
HETATM   27  C   UNL     1      -6.319  -0.729 -32.977  1.00  0.00     0.001 A 
HETATM   28  C   UNL     1      -4.944  -0.938 -33.122  1.00  0.00     0.018 A 
HETATM   29  C   UNL     1      -4.467  -1.890 -34.027  1.00  0.00     0.001 A 
HETATM   30  C   UNL     1      -5.362  -2.650 -34.776  1.00  0.00     0.000 A 
HETATM   31  C   UNL     1      -6.735  -2.470 -34.613  1.00  0.00     0.001 A 
HETATM   32  C   UNL     1      -7.211  -1.518 -33.709  1.00  0.00     0.018 A 
ENDBRANCH  26  27
ENDBRANCH  20  26
ENDBRANCH  19  20
ENDBRANCH   2  19
TORSDOF 8
ENDMDL
MODEL 6
REMARK VINA RESULT:      -7.9      4.053      6.175
REMARK  8 active torsions:
REMARK  status: ('A' for Active; 'I' for Inactive)
REMARK    1  A    between atoms: O_2  and  C_3 
REMARK    2  A    between atoms: C_4  and  O_5 
REMARK    3  A    between atoms: C_8  and  N_9 
REMARK       I    between atoms: N_9  and  C_10 
REMARK    4  A    between atoms: C_10  and  C_11 
REMARK       I    between atoms: C_11  and  N_12 
REMARK    5  A    between atoms: N_12  and  C_13 
REMARK    6  A    between atoms: C_13  and  C_14 
REMARK    7  A    between atoms: C_14  and  S_15 
REMARK    8  A    between atoms: S_15  and  C_16 
ROOT
HETATM    1  C   UNL     1      -3.658   2.402 -31.224  1.00  0.00     0.309 C 
HETATM    2  N   UNL     1      -4.903   2.749 -30.759  1.00  0.00    -0.351 N 
HETATM    3  O   UNL     1      -2.669   3.123 -31.242  1.00  0.00    -0.262 OA
HETATM    4  H   UNL     1      -5.646   2.065 -30.889  1.00  0.00     0.162 HD
ENDROOT
BRANCH   1   5
HETATM    5  C   UNL     1      -3.574   0.970 -31.797  1.00  0.00     0.313 C 
HETATM    6  N   UNL     1      -4.551   0.745 -32.741  1.00  0.00    -0.319 N 
HETATM    7  H   UNL     1      -5.152   1.547 -32.919  1.00  0.00     0.169 HD
HETATM    8  O   UNL     1      -2.713   0.214 -31.371  1.00  0.00    -0.262 OA
BRANCH   6   9
HETATM    9  C   UNL     1      -4.825  -0.445 -33.439  1.00  0.00     0.037 A 
HETATM   10  C   UNL     1      -4.013  -1.582 -33.382  1.00  0.00     0.069 A 
HETATM   11  C   UNL     1      -4.358  -2.743 -34.089  1.00  0.00     0.103 A 
HETATM   12  C   UNL     1      -5.538  -2.763 -34.853  1.00  0.00     0.101 A 
HETATM   13  C   UNL     1      -6.336  -1.620 -34.931  1.00  0.00     0.042 A 
HETATM   14  C   UNL     1      -5.982  -0.469 -34.223  1.00  0.00     0.032 A 
BRANCH  11  15
HETATM   15  O   UNL     1      -3.626  -3.904 -34.086  1.00  0.00    -0.353 OA
HETATM   16  C   UNL     1      -3.309  -4.478 -32.825  1.00  0.00     0.210 C 
ENDBRANCH  11  15
BRANCH  12  17
HETATM   17  O   UNL     1      -5.822  -3.918 -35.541  1.00  0.00    -0.353 OA
HETATM   18  C   UNL     1      -6.969  -4.626 -35.086  1.00  0.00     0.210 C 
ENDBRANCH  12  17
ENDBRANCH   6   9
ENDBRANCH   1   5
BRANCH   2  19
HETATM   19  C   UNL     1      -5.244   4.079 -30.283  1.00  0.00     0.144 C 
BRANCH  19  20
HETATM   20  C   UNL     1      -6.588   4.644 -30.850  1.00  0.00     0.033 C 
HETATM   21  C   UNL     1      -6.662   6.158 -30.557  1.00  0.00     0.049 C 
HETATM   22  C   UNL     1      -5.691   6.948 -31.430  1.00  0.00     0.169 C 
HETATM   23  O   UNL     1      -5.913   6.673 -32.810  1.00  0.00    -0.391 OA
HETATM   24  C   UNL     1      -5.714   5.298 -33.137  1.00  0.00     0.169 C 
HETATM   25  C   UNL     1      -6.700   4.420 -32.371  1.00  0.00     0.049 C 
BRANCH  20  26
HETATM   26  S   UNL     1      -7.936   3.725 -29.913  1.00  0.00    -0.118 SA
BRANCH  26  27
HETATM   27  C   UNL     1      -8.668   2.667 -31.144  1.00  0.00     0.001 A 
HETATM   28  C   UNL     1      -8.180   1.372 -31.341  1.00  0.00     0.018 A 
HETATM   29  C   UNL     1      -8.779   0.527 -32.280  1.00  0.00     0.001 A 
HETATM   30  C   UNL     1      -9.880   0.967 -33.010  1.00  0.00     0.000 A 
HETATM   31  C   UNL     1     -10.392   2.246 -32.797  1.00  0.00     0.001 A 
HETATM   32  C   UNL     1      -9.792   3.090 -31.859  1.00  0.00     0.018 A 
ENDBRANCH  26  27
ENDBRANCH  20  26
ENDBRANCH  19  20
ENDBRANCH   2  19
TORSDOF 8
ENDMDL
MODEL 7
REMARK VINA RESULT:      -7.8      6.589      9.571
REMARK  8 active torsions:
REMARK  status: ('A' for Active; 'I' for Inactive)
REMARK    1  A    between atoms: O_2  and  C_3 
REMARK    2  A    between atoms: C_4  and  O_5 
REMARK    3  A    between atoms: C_8  and  N_9 
REMARK       I    between atoms: N_9  and  C_10 
REMARK    4  A    between atoms: C_10  and  C_11 
REMARK       I    between atoms: C_11  and  N_12 
REMARK    5  A    between atoms: N_12  and  C_13 
REMARK    6  A    between atoms: C_13  and  C_14 
REMARK    7  A    between atoms: C_14  and  S_15 
REMARK    8  A    between atoms: S_15  and  C_16 
ROOT
HETATM    1  C   UNL     1      -8.212   3.051 -33.743  1.00  0.00     0.309 C 
HETATM    2  N   UNL     1      -9.522   2.904 -34.127  1.00  0.00    -0.351 N 
HETATM    3  O   UNL     1      -7.537   4.066 -33.856  1.00  0.00    -0.262 OA
HETATM    4  H   UNL     1      -9.921   1.970 -34.044  1.00  0.00     0.162 HD
ENDROOT
BRANCH   1   5
HETATM    5  C   UNL     1      -7.578   1.771 -33.156  1.00  0.00     0.313 C 
HETATM    6  N   UNL     1      -6.714   1.177 -34.051  1.00  0.00    -0.319 N 
HETATM    7  H   UNL     1      -6.621   1.676 -34.934  1.00  0.00     0.169 HD
HETATM    8  O   UNL     1      -7.896   1.417 -32.031  1.00  0.00    -0.262 OA
BRANCH   6   9
HETATM    9  C   UNL     1      -5.997  -0.022 -33.900  1.00  0.00     0.037 A 
HETATM   10  C   UNL     1      -6.214  -1.160 -34.682  1.00  0.00     0.069 A 
HETATM   11  C   UNL     1      -5.448  -2.318 -34.490  1.00  0.00     0.103 A 
HETATM   12  C   UNL     1      -4.443  -2.327 -33.505  1.00  0.00     0.101 A 
HETATM   13  C   UNL     1      -4.242  -1.200 -32.707  1.00  0.00     0.042 A 
HETATM   14  C   UNL     1      -5.013  -0.053 -32.907  1.00  0.00     0.032 A 
BRANCH  11  15
HETATM   15  O   UNL     1      -5.588  -3.475 -35.214  1.00  0.00    -0.353 OA
HETATM   16  C   UNL     1      -6.714  -4.294 -34.935  1.00  0.00     0.210 C 
ENDBRANCH  11  15
BRANCH  12  17
HETATM   17  O   UNL     1      -3.732  -3.491 -33.344  1.00  0.00    -0.353 OA
HETATM   18  C   UNL     1      -3.034  -3.607 -32.110  1.00  0.00     0.210 C 
ENDBRANCH  12  17
ENDBRANCH   6   9
ENDBRANCH   1   5
BRANCH   2  19
HETATM   19  C   UNL     1     -10.284   3.937 -34.807  1.00  0.00     0.144 C 
BRANCH  19  20
HETATM   20  C   UNL     1     -11.377   4.623 -33.923  1.00  0.00     0.033 C 
HETATM   21  C   UNL     1     -10.842   5.982 -33.423  1.00  0.00     0.049 C 
HETATM   22  C   UNL     1     -10.777   7.010 -34.549  1.00  0.00     0.169 C 
HETATM   23  O   UNL     1     -12.047   7.149 -35.181  1.00  0.00    -0.391 OA
HETATM   24  C   UNL     1     -12.504   5.935 -35.775  1.00  0.00     0.169 C 
HETATM   25  C   UNL     1     -12.682   4.855 -34.712  1.00  0.00     0.049 C 
BRANCH  20  26
HETATM   26  S   UNL     1     -11.640   3.447 -32.478  1.00  0.00    -0.118 SA
BRANCH  26  27
HETATM   27  C   UNL     1     -12.951   2.376 -33.032  1.00  0.00     0.001 A 
HETATM   28  C   UNL     1     -14.257   2.564 -32.572  1.00  0.00     0.018 A 
HETATM   29  C   UNL     1     -15.293   1.748 -33.036  1.00  0.00     0.001 A 
HETATM   30  C   UNL     1     -15.030   0.755 -33.976  1.00  0.00     0.000 A 
HETATM   31  C   UNL     1     -13.735   0.582 -34.463  1.00  0.00     0.001 A 
HETATM   32  C   UNL     1     -12.701   1.397 -33.999  1.00  0.00     0.018 A 
ENDBRANCH  26  27
ENDBRANCH  20  26
ENDBRANCH  19  20
ENDBRANCH   2  19
TORSDOF 8
ENDMDL
MODEL 8
REMARK VINA RESULT:      -7.7      6.218      8.923
REMARK  8 active torsions:
REMARK  status: ('A' for Active; 'I' for Inactive)
REMARK    1  A    between atoms: O_2  and  C_3 
REMARK    2  A    between atoms: C_4  and  O_5 
REMARK    3  A    between atoms: C_8  and  N_9 
REMARK       I    between atoms: N_9  and  C_10 
REMARK    4  A    between atoms: C_10  and  C_11 
REMARK       I    between atoms: C_11  and  N_12 
REMARK    5  A    between atoms: N_12  and  C_13 
REMARK    6  A    between atoms: C_13  and  C_14 
REMARK    7  A    between atoms: C_14  and  S_15 
REMARK    8  A    between atoms: S_15  and  C_16 
ROOT
HETATM    1  C   UNL     1      -7.438   3.970 -33.550  1.00  0.00     0.309 C 
HETATM    2  N   UNL     1      -8.705   4.305 -33.138  1.00  0.00    -0.351 N 
HETATM    3  O   UNL     1      -6.694   4.664 -34.230  1.00  0.00    -0.262 OA
HETATM    4  H   UNL     1      -9.231   3.585 -32.647  1.00  0.00     0.162 HD
ENDROOT
BRANCH   1   5
HETATM    5  C   UNL     1      -6.984   2.560 -33.112  1.00  0.00     0.313 C 
HETATM    6  N   UNL     1      -6.674   1.768 -34.197  1.00  0.00    -0.319 N 
HETATM    7  H   UNL     1      -6.777   2.235 -35.097  1.00  0.00     0.169 HD
HETATM    8  O   UNL     1      -6.962   2.290 -31.920  1.00  0.00    -0.262 OA
BRANCH   6   9
HETATM    9  C   UNL     1      -6.279   0.419 -34.202  1.00  0.00     0.037 A 
HETATM   10  C   UNL     1      -5.159  -0.063 -33.518  1.00  0.00     0.069 A 
HETATM   11  C   UNL     1      -4.834  -1.427 -33.550  1.00  0.00     0.103 A 
HETATM   12  C   UNL     1      -5.651  -2.316 -34.270  1.00  0.00     0.101 A 
HETATM   13  C   UNL     1      -6.755  -1.831 -34.974  1.00  0.00     0.042 A 
HETATM   14  C   UNL     1      -7.068  -0.471 -34.936  1.00  0.00     0.032 A 
BRANCH  11  15
HETATM   15  O   UNL     1      -3.761  -1.988 -32.905  1.00  0.00    -0.353 OA
HETATM   16  C   UNL     1      -3.048  -1.174 -31.983  1.00  0.00     0.210 C 
ENDBRANCH  11  15
BRANCH  12  17
HETATM   17  O   UNL     1      -5.280  -3.639 -34.285  1.00  0.00    -0.353 OA
HETATM   18  C   UNL     1      -6.112  -4.492 -35.064  1.00  0.00     0.210 C 
ENDBRANCH  12  17
ENDBRANCH   6   9
ENDBRANCH   1   5
BRANCH   2  19
HETATM   19  C   UNL     1      -9.381   5.531 -33.528  1.00  0.00     0.144 C 
BRANCH  19  20
HETATM   20  C   UNL     1     -10.888   5.345 -33.908  1.00  0.00     0.033 C 
HETATM   21  C   UNL     1     -11.642   4.746 -32.701  1.00  0.00     0.049 C 
HETATM   22  C   UNL     1     -11.809   5.766 -31.578  1.00  0.00     0.169 C 
HETATM   23  O   UNL     1     -12.447   6.946 -32.058  1.00  0.00    -0.391 OA
HETATM   24  C   UNL     1     -11.700   7.600 -33.082  1.00  0.00     0.169 C 
HETATM   25  C   UNL     1     -11.544   6.686 -34.295  1.00  0.00     0.049 C 
BRANCH  20  26
HETATM   26  S   UNL     1     -10.880   4.135 -35.348  1.00  0.00    -0.118 SA
BRANCH  26  27
HETATM   27  C   UNL     1     -11.689   2.689 -34.695  1.00  0.00     0.001 A 
HETATM   28  C   UNL     1     -13.052   2.481 -34.921  1.00  0.00     0.018 A 
HETATM   29  C   UNL     1     -13.679   1.327 -34.444  1.00  0.00     0.001 A 
HETATM   30  C   UNL     1     -12.941   0.367 -33.755  1.00  0.00     0.000 A 
HETATM   31  C   UNL     1     -11.574   0.553 -33.553  1.00  0.00     0.001 A 
HETATM   32  C   UNL     1     -10.949   1.706 -34.030  1.00  0.00     0.018 A 
ENDBRANCH  26  27
ENDBRANCH  20  26
ENDBRANCH  19  20
ENDBRANCH   2  19
TORSDOF 8
ENDMDL
MODEL 9
REMARK VINA RESULT:      -7.6      6.496      9.077
REMARK  8 active torsions:
REMARK  status: ('A' for Active; 'I' for Inactive)
REMARK    1  A    between atoms: O_2  and  C_3 
REMARK    2  A    between atoms: C_4  and  O_5 
REMARK    3  A    between atoms: C_8  and  N_9 
REMARK       I    between atoms: N_9  and  C_10 
REMARK    4  A    between atoms: C_10  and  C_11 
REMARK       I    between atoms: C_11  and  N_12 
REMARK    5  A    between atoms: N_12  and  C_13 
REMARK    6  A    between atoms: C_13  and  C_14 
REMARK    7  A    between atoms: C_14  and  S_15 
REMARK    8  A    between atoms: S_15  and  C_16 
ROOT
HETATM    1  C   UNL     1      -7.722   2.275 -31.455  1.00  0.00     0.309 C 
HETATM    2  N   UNL     1      -8.205   2.704 -32.667  1.00  0.00    -0.351 N 
HETATM    3  O   UNL     1      -7.746   2.904 -30.406  1.00  0.00    -0.262 OA
HETATM    4  H   UNL     1      -8.035   2.097 -33.468  1.00  0.00     0.162 HD
ENDROOT
BRANCH   1   5
HETATM    5  C   UNL     1      -7.067   0.876 -31.495  1.00  0.00     0.313 C 
HETATM    6  N   UNL     1      -6.414   0.657 -32.690  1.00  0.00    -0.319 N 
HETATM    7  H   UNL     1      -6.454   1.442 -33.337  1.00  0.00     0.169 HD
HETATM    8  O   UNL     1      -7.196   0.136 -30.532  1.00  0.00    -0.262 OA
BRANCH   6   9
HETATM    9  C   UNL     1      -5.751  -0.508 -33.115  1.00  0.00     0.037 A 
HETATM   10  C   UNL     1      -6.225  -1.342 -34.133  1.00  0.00     0.069 A 
HETATM   11  C   UNL     1      -5.501  -2.479 -34.520  1.00  0.00     0.103 A 
HETATM   12  C   UNL     1      -4.283  -2.774 -33.883  1.00  0.00     0.101 A 
HETATM   13  C   UNL     1      -3.823  -1.956 -32.849  1.00  0.00     0.042 A 
HETATM   14  C   UNL     1      -4.553  -0.827 -32.471  1.00  0.00     0.032 A 
BRANCH  11  15
HETATM   15  O   UNL     1      -5.886  -3.347 -35.511  1.00  0.00    -0.353 OA
HETATM   16  C   UNL     1      -6.784  -4.390 -35.160  1.00  0.00     0.210 C 
ENDBRANCH  11  15
BRANCH  12  17
HETATM   17  O   UNL     1      -3.622  -3.908 -34.287  1.00  0.00    -0.353 OA
HETATM   18  C   UNL     1      -3.566  -4.952 -33.321  1.00  0.00     0.210 C 
ENDBRANCH  12  17
ENDBRANCH   6   9
ENDBRANCH   1   5
BRANCH   2  19
HETATM   19  C   UNL     1      -8.757   4.029 -32.892  1.00  0.00     0.144 C 
BRANCH  19  20
HETATM   20  C   UNL     1     -10.292   4.047 -33.198  1.00  0.00     0.033 C 
HETATM   21  C   UNL     1     -11.047   3.383 -32.027  1.00  0.00     0.049 C 
HETATM   22  C   UNL     1     -11.049   4.269 -30.784  1.00  0.00     0.169 C 
HETATM   23  O   UNL     1     -11.577   5.559 -31.083  1.00  0.00    -0.391 OA
HETATM   24  C   UNL     1     -10.813   6.254 -32.067  1.00  0.00     0.169 C 
HETATM   25  C   UNL     1     -10.816   5.484 -33.385  1.00  0.00     0.049 C 
BRANCH  20  26
HETATM   26  S   UNL     1     -10.485   3.028 -34.768  1.00  0.00    -0.118 SA
BRANCH  26  27
HETATM   27  C   UNL     1     -11.806   1.897 -34.384  1.00  0.00     0.001 A 
HETATM   28  C   UNL     1     -11.527   0.660 -33.797  1.00  0.00     0.018 A 
HETATM   29  C   UNL     1     -12.566  -0.211 -33.459  1.00  0.00     0.001 A 
HETATM   30  C   UNL     1     -13.889   0.159 -33.690  1.00  0.00     0.000 A 
HETATM   31  C   UNL     1     -14.176   1.405 -34.246  1.00  0.00     0.001 A 
HETATM   32  C   UNL     1     -13.137   2.275 -34.583  1.00  0.00     0.018 A 
ENDBRANCH  26  27
ENDBRANCH  20  26
ENDBRANCH  19  20
ENDBRANCH   2  19
TORSDOF 8
ENDMDL
MODEL 10
REMARK VINA RESULT:      -7.6      2.785      3.785
REMARK  8 active torsions:
REMARK  status: ('A' for Active; 'I' for Inactive)
REMARK    1  A    between atoms: O_2  and  C_3 
REMARK    2  A    between atoms: C_4  and  O_5 
REMARK    3  A    between atoms: C_8  and  N_9 
REMARK       I    between atoms: N_9  and  C_10 
REMARK    4  A    between atoms: C_10  and  C_11 
REMARK       I    between atoms: C_11  and  N_12 
REMARK    5  A    between atoms: N_12  and  C_13 
REMARK    6  A    between atoms: C_13  and  C_14 
REMARK    7  A    between atoms: C_14  and  S_15 
REMARK    8  A    between atoms: S_15  and  C_16 
ROOT
HETATM    1  C   UNL     1      -5.593   2.937 -30.686  1.00  0.00     0.309 C 
HETATM    2  N   UNL     1      -5.040   4.187 -30.815  1.00  0.00    -0.351 N 
HETATM    3  O   UNL     1      -6.464   2.613 -29.889  1.00  0.00    -0.262 OA
HETATM    4  H   UNL     1      -4.265   4.278 -31.470  1.00  0.00     0.162 HD
ENDROOT
BRANCH   1   5
HETATM    5  C   UNL     1      -4.994   1.878 -31.638  1.00  0.00     0.313 C 
HETATM    6  N   UNL     1      -5.938   0.952 -32.025  1.00  0.00    -0.319 N 
HETATM    7  H   UNL     1      -6.867   1.119 -31.642  1.00  0.00     0.169 HD
HETATM    8  O   UNL     1      -3.808   1.947 -31.925  1.00  0.00    -0.262 OA
BRANCH   6   9
HETATM    9  C   UNL     1      -5.759  -0.182 -32.836  1.00  0.00     0.037 A 
HETATM   10  C   UNL     1      -4.774  -1.148 -32.611  1.00  0.00     0.069 A 
HETATM   11  C   UNL     1      -4.665  -2.267 -33.450  1.00  0.00     0.103 A 
HETATM   12  C   UNL     1      -5.564  -2.420 -34.520  1.00  0.00     0.101 A 
HETATM   13  C   UNL     1      -6.532  -1.442 -34.760  1.00  0.00     0.042 A 
HETATM   14  C   UNL     1      -6.630  -0.332 -33.919  1.00  0.00     0.032 A 
BRANCH  11  15
HETATM   15  O   UNL     1      -3.735  -3.265 -33.300  1.00  0.00    -0.353 OA
HETATM   16  C   UNL     1      -3.101  -3.390 -32.035  1.00  0.00     0.210 C 
ENDBRANCH  11  15
BRANCH  12  17
HETATM   17  O   UNL     1      -5.404  -3.523 -35.322  1.00  0.00    -0.353 OA
HETATM   18  C   UNL     1      -6.470  -4.465 -35.275  1.00  0.00     0.210 C 
ENDBRANCH  12  17
ENDBRANCH   6   9
ENDBRANCH   1   5
BRANCH   2  19
HETATM   19  C   UNL     1      -5.366   5.307 -29.949  1.00  0.00     0.144 C 
BRANCH  19  20
HETATM   20  C   UNL     1      -4.863   6.695 -30.469  1.00  0.00     0.033 C 
HETATM   21  C   UNL     1      -5.177   6.813 -31.975  1.00  0.00     0.049 C 
HETATM   22  C   UNL     1      -6.671   6.999 -32.226  1.00  0.00     0.169 C 
HETATM   23  O   UNL     1      -7.170   8.119 -31.500  1.00  0.00    -0.391 OA
HETATM   24  C   UNL     1      -7.018   7.973 -30.089  1.00  0.00     0.169 C 
HETATM   25  C   UNL     1      -5.541   7.860 -29.721  1.00  0.00     0.049 C 
BRANCH  20  26
HETATM   26  S   UNL     1      -3.004   6.674 -30.182  1.00  0.00    -0.118 SA
BRANCH  26  27
HETATM   27  C   UNL     1      -2.325   6.388 -31.803  1.00  0.00     0.001 A 
HETATM   28  C   UNL     1      -2.148   5.084 -32.274  1.00  0.00     0.018 A 
HETATM   29  C   UNL     1      -1.652   4.860 -33.561  1.00  0.00     0.001 A 
HETATM   30  C   UNL     1      -1.349   5.937 -34.390  1.00  0.00     0.000 A 
HETATM   31  C   UNL     1      -1.552   7.241 -33.939  1.00  0.00     0.001 A 
HETATM   32  C   UNL     1      -2.048   7.465 -32.652  1.00  0.00     0.018 A 
ENDBRANCH  26  27
ENDBRANCH  20  26
ENDBRANCH  19  20
ENDBRANCH   2  19
TORSDOF 8
ENDMDL
