MODEL 1
REMARK VINA RESULT:      -9.9      0.000      0.000
REMARK  9 active torsions:
REMARK  status: ('A' for Active; 'I' for Inactive)
REMARK    1  A    between atoms: N_2  and  C_4 
REMARK    2  A    between atoms: C_4  and  C_5 
REMARK    3  A    between atoms: N_6  and  C_7 
REMARK    4  A    between atoms: C_11  and  N_12 
REMARK    5  A    between atoms: C_15  and  C_16 
REMARK       I    between atoms: C_16  and  N_17 
REMARK    6  A    between atoms: N_17  and  N_18 
REMARK    7  A    between atoms: C_19  and  C_20 
REMARK    8  A    between atoms: C_21  and  C_22 
REMARK    9  A    between atoms: N_29  and  C_30 
ROOT
HETATM    1  C   UNL     1      -3.812   4.524 -32.868  1.00  0.00     0.293 C 
HETATM    2  N   UNL     1      -4.269   3.263 -32.532  1.00  0.00    -0.242 N 
HETATM    3  O   UNL     1      -4.337   5.294 -33.668  1.00  0.00    -0.264 OA
HETATM    4  H   UNL     1      -3.747   2.689 -31.873  1.00  0.00     0.192 HD
ENDROOT
BRANCH   2   5
HETATM    5  N   UNL     1      -5.399   2.779 -33.125  1.00  0.00    -0.183 NA
HETATM    6  C   UNL     1      -6.098   1.946 -32.423  1.00  0.00     0.154 C 
BRANCH   6   7
HETATM    7  C   UNL     1      -7.297   1.390 -32.998  1.00  0.00     0.032 A 
HETATM    8  C   UNL     1      -7.501   0.111 -33.586  1.00  0.00     0.101 A 
HETATM    9  N   UNL     1      -8.779  -0.048 -33.954  1.00  0.00    -0.166 NA
HETATM   10  N   UNL     1      -9.398   1.122 -33.665  1.00  0.00    -0.244 N 
HETATM   11  C   UNL     1      -8.526   2.013 -33.087  1.00  0.00     0.134 A 
BRANCH   8  12
HETATM   12  C   UNL     1      -6.525  -0.953 -33.824  1.00  0.00    -0.005 A 
HETATM   13  C   UNL     1      -5.270  -0.907 -33.201  1.00  0.00     0.014 A 
HETATM   14  C   UNL     1      -4.336  -1.921 -33.417  1.00  0.00     0.001 A 
HETATM   15  C   UNL     1      -4.648  -2.993 -34.252  1.00  0.00     0.000 A 
HETATM   16  C   UNL     1      -5.898  -3.057 -34.864  1.00  0.00     0.001 A 
HETATM   17  C   UNL     1      -6.836  -2.045 -34.647  1.00  0.00     0.014 A 
ENDBRANCH   8  12
BRANCH  10  18
HETATM   18  C   UNL     1     -10.779   1.310 -33.955  1.00  0.00     0.058 A 
HETATM   19  C   UNL     1     -11.183   2.444 -34.677  1.00  0.00     0.031 A 
HETATM   20  C   UNL     1     -12.533   2.650 -34.969  1.00  0.00     0.002 A 
HETATM   21  C   UNL     1     -13.487   1.727 -34.547  1.00  0.00     0.000 A 
HETATM   22  C   UNL     1     -13.094   0.597 -33.832  1.00  0.00     0.002 A 
HETATM   23  C   UNL     1     -11.744   0.385 -33.533  1.00  0.00     0.031 A 
ENDBRANCH  10  18
ENDBRANCH   6   7
ENDBRANCH   2   5
BRANCH   1  24
HETATM   24  C   UNL     1      -2.585   4.907 -32.185  1.00  0.00     0.170 A 
HETATM   25  C   UNL     1      -2.474   5.717 -31.063  1.00  0.00     0.096 A 
HETATM   26  N   UNL     1      -1.114   5.704 -30.763  1.00  0.00    -0.215 N 
HETATM   27  N   UNL     1      -0.460   5.022 -31.739  1.00  0.00     0.012 NA
HETATM   28  N   UNL     1      -1.342   4.516 -32.585  1.00  0.00    -0.152 NA
BRANCH  25  29
HETATM   29  C   UNL     1      -3.502   6.529 -30.369  1.00  0.00     0.295 C 
BRANCH  29  30
HETATM   30  N   UNL     1      -4.208   5.837 -29.230  1.00  0.00    -0.073 N 
HETATM   31  C   UNL     1      -5.525   5.226 -29.622  1.00  0.00     0.269 C 
HETATM   32  H   UNL     1      -3.584   5.087 -28.901  1.00  0.00     0.279 HD
HETATM   33  C   UNL     1      -4.381   6.767 -28.058  1.00  0.00     0.269 C 
ENDBRANCH  29  30
ENDBRANCH  25  29
BRANCH  26  34
HETATM   34  C   UNL     1      -0.454   6.236 -29.630  1.00  0.00     0.225 A 
HETATM   35  N   UNL     1      -0.809   7.434 -29.154  1.00  0.00    -0.081 NA
HETATM   36  O   UNL     1       0.029   7.608 -28.047  1.00  0.00    -0.103 OA
HETATM   37  N   UNL     1       0.846   6.504 -27.857  1.00  0.00    -0.083 NA
HETATM   38  C   UNL     1       0.546   5.651 -28.836  1.00  0.00     0.201 A 
BRANCH  38  39
HETATM   39  N   UNL     1       1.124   4.452 -29.005  1.00  0.00    -0.379 N 
HETATM   40  H   UNL     1       0.961   3.707 -28.333  1.00  0.00     0.158 HD
HETATM   41  H   UNL     1       1.565   4.152 -29.872  1.00  0.00     0.158 HD
ENDBRANCH  38  39
ENDBRANCH  26  34
ENDBRANCH   1  24
TORSDOF 9
ENDMDL
MODEL 2
REMARK VINA RESULT:      -9.7      2.310      4.736
REMARK  9 active torsions:
REMARK  status: ('A' for Active; 'I' for Inactive)
REMARK    1  A    between atoms: N_2  and  C_4 
REMARK    2  A    between atoms: C_4  and  C_5 
REMARK    3  A    between atoms: N_6  and  C_7 
REMARK    4  A    between atoms: C_11  and  N_12 
REMARK    5  A    between atoms: C_15  and  C_16 
REMARK       I    between atoms: C_16  and  N_17 
REMARK    6  A    between atoms: N_17  and  N_18 
REMARK    7  A    between atoms: C_19  and  C_20 
REMARK    8  A    between atoms: C_21  and  C_22 
REMARK    9  A    between atoms: N_29  and  C_30 
ROOT
HETATM    1  C   UNL     1      -1.805   4.667 -31.839  1.00  0.00     0.293 C 
HETATM    2  N   UNL     1      -2.561   3.642 -31.300  1.00  0.00    -0.242 N 
HETATM    3  O   UNL     1      -1.677   4.921 -33.033  1.00  0.00    -0.264 OA
HETATM    4  H   UNL     1      -2.582   3.497 -30.293  1.00  0.00     0.192 HD
ENDROOT
BRANCH   2   5
HETATM    5  N   UNL     1      -3.238   2.799 -32.133  1.00  0.00    -0.183 NA
HETATM    6  C   UNL     1      -4.034   1.953 -31.561  1.00  0.00     0.154 C 
BRANCH   6   7
HETATM    7  C   UNL     1      -4.771   1.028 -32.385  1.00  0.00     0.032 A 
HETATM    8  C   UNL     1      -5.937   1.255 -33.167  1.00  0.00     0.101 A 
HETATM    9  N   UNL     1      -6.285   0.149 -33.838  1.00  0.00    -0.166 NA
HETATM   10  N   UNL     1      -5.401  -0.807 -33.466  1.00  0.00    -0.244 N 
HETATM   11  C   UNL     1      -4.473  -0.305 -32.585  1.00  0.00     0.134 A 
BRANCH   8  12
HETATM   12  C   UNL     1      -6.735   2.475 -33.287  1.00  0.00    -0.005 A 
HETATM   13  C   UNL     1      -6.191   3.615 -33.895  1.00  0.00     0.014 A 
HETATM   14  C   UNL     1      -6.948   4.781 -34.019  1.00  0.00     0.001 A 
HETATM   15  C   UNL     1      -8.258   4.817 -33.542  1.00  0.00     0.000 A 
HETATM   16  C   UNL     1      -8.815   3.685 -32.951  1.00  0.00     0.001 A 
HETATM   17  C   UNL     1      -8.060   2.517 -32.828  1.00  0.00     0.014 A 
ENDBRANCH   8  12
BRANCH  10  18
HETATM   18  C   UNL     1      -5.496  -2.132 -33.977  1.00  0.00     0.058 A 
HETATM   19  C   UNL     1      -6.723  -2.586 -34.488  1.00  0.00     0.031 A 
HETATM   20  C   UNL     1      -6.839  -3.883 -34.992  1.00  0.00     0.002 A 
HETATM   21  C   UNL     1      -5.736  -4.734 -34.993  1.00  0.00     0.000 A 
HETATM   22  C   UNL     1      -4.515  -4.290 -34.490  1.00  0.00     0.002 A 
HETATM   23  C   UNL     1      -4.390  -2.993 -33.981  1.00  0.00     0.031 A 
ENDBRANCH  10  18
ENDBRANCH   6   7
ENDBRANCH   2   5
BRANCH   1  24
HETATM   24  C   UNL     1      -1.112   5.473 -30.844  1.00  0.00     0.170 A 
HETATM   25  C   UNL     1      -1.682   6.382 -29.964  1.00  0.00     0.096 A 
HETATM   26  N   UNL     1      -0.616   6.817 -29.180  1.00  0.00    -0.215 N 
HETATM   27  N   UNL     1       0.531   6.277 -29.670  1.00  0.00     0.012 NA
HETATM   28  N   UNL     1       0.238   5.446 -30.655  1.00  0.00    -0.152 NA
BRANCH  25  29
HETATM   29  C   UNL     1      -3.069   6.902 -29.897  1.00  0.00     0.295 C 
BRANCH  29  30
HETATM   30  N   UNL     1      -4.026   6.078 -29.073  1.00  0.00    -0.073 N 
HETATM   31  C   UNL     1      -5.227   5.603 -29.844  1.00  0.00     0.269 C 
HETATM   32  H   UNL     1      -3.504   5.256 -28.740  1.00  0.00     0.279 HD
HETATM   33  C   UNL     1      -4.450   6.823 -27.835  1.00  0.00     0.269 C 
ENDBRANCH  29  30
ENDBRANCH  25  29
BRANCH  26  34
HETATM   34  C   UNL     1      -0.644   7.633 -28.025  1.00  0.00     0.225 A 
HETATM   35  N   UNL     1      -0.431   8.948 -28.133  1.00  0.00    -0.081 NA
HETATM   36  O   UNL     1      -0.555   9.410 -26.818  1.00  0.00    -0.103 OA
HETATM   37  N   UNL     1      -0.871   8.375 -25.951  1.00  0.00    -0.083 NA
HETATM   38  C   UNL     1      -0.929   7.273 -26.697  1.00  0.00     0.201 A 
BRANCH  38  39
HETATM   39  N   UNL     1      -1.210   6.048 -26.227  1.00  0.00    -0.379 N 
HETATM   40  H   UNL     1      -2.163   5.697 -26.253  1.00  0.00     0.158 HD
HETATM   41  H   UNL     1      -0.504   5.344 -26.021  1.00  0.00     0.158 HD
ENDBRANCH  38  39
ENDBRANCH  26  34
ENDBRANCH   1  24
TORSDOF 9
ENDMDL
MODEL 3
REMARK VINA RESULT:      -9.7      3.194     10.021
REMARK  9 active torsions:
REMARK  status: ('A' for Active; 'I' for Inactive)
REMARK    1  A    between atoms: N_2  and  C_4 
REMARK    2  A    between atoms: C_4  and  C_5 
REMARK    3  A    between atoms: N_6  and  C_7 
REMARK    4  A    between atoms: C_11  and  N_12 
REMARK    5  A    between atoms: C_15  and  C_16 
REMARK       I    between atoms: C_16  and  N_17 
REMARK    6  A    between atoms: N_17  and  N_18 
REMARK    7  A    between atoms: C_19  and  C_20 
REMARK    8  A    between atoms: C_21  and  C_22 
REMARK    9  A    between atoms: N_29  and  C_30 
ROOT
HETATM    1  C   UNL     1      -8.928   4.594 -33.403  1.00  0.00     0.293 C 
HETATM    2  N   UNL     1      -8.357   4.138 -32.229  1.00  0.00    -0.242 N 
HETATM    3  O   UNL     1      -8.351   5.204 -34.298  1.00  0.00    -0.264 OA
HETATM    4  H   UNL     1      -8.928   3.661 -31.533  1.00  0.00     0.192 HD
ENDROOT
BRANCH   2   5
HETATM    5  N   UNL     1      -7.034   4.372 -31.991  1.00  0.00    -0.183 NA
HETATM    6  C   UNL     1      -6.247   3.350 -32.097  1.00  0.00     0.154 C 
BRANCH   6   7
HETATM    7  C   UNL     1      -4.839   3.530 -31.847  1.00  0.00     0.032 A 
HETATM    8  C   UNL     1      -3.790   2.571 -31.890  1.00  0.00     0.101 A 
HETATM    9  N   UNL     1      -2.604   3.148 -31.651  1.00  0.00    -0.166 NA
HETATM   10  N   UNL     1      -2.868   4.452 -31.400  1.00  0.00    -0.244 N 
HETATM   11  C   UNL     1      -4.214   4.714 -31.509  1.00  0.00     0.134 A 
BRANCH   8  12
HETATM   12  C   UNL     1      -3.876   1.131 -32.134  1.00  0.00    -0.005 A 
HETATM   13  C   UNL     1      -3.095   0.243 -31.382  1.00  0.00     0.014 A 
HETATM   14  C   UNL     1      -3.175  -1.133 -31.604  1.00  0.00     0.001 A 
HETATM   15  C   UNL     1      -4.041  -1.635 -32.575  1.00  0.00     0.000 A 
HETATM   16  C   UNL     1      -4.834  -0.763 -33.317  1.00  0.00     0.001 A 
HETATM   17  C   UNL     1      -4.757   0.614 -33.096  1.00  0.00     0.014 A 
ENDBRANCH   8  12
BRANCH  10  18
HETATM   18  C   UNL     1      -1.822   5.362 -31.078  1.00  0.00     0.058 A 
HETATM   19  C   UNL     1      -0.489   4.982 -31.297  1.00  0.00     0.031 A 
HETATM   20  C   UNL     1       0.554   5.858 -30.986  1.00  0.00     0.002 A 
HETATM   21  C   UNL     1       0.274   7.116 -30.457  1.00  0.00     0.000 A 
HETATM   22  C   UNL     1      -1.047   7.501 -30.238  1.00  0.00     0.002 A 
HETATM   23  C   UNL     1      -2.097   6.630 -30.546  1.00  0.00     0.031 A 
ENDBRANCH  10  18
ENDBRANCH   6   7
ENDBRANCH   2   5
BRANCH   1  24
HETATM   24  C   UNL     1     -10.350   4.302 -33.518  1.00  0.00     0.170 A 
HETATM   25  C   UNL     1     -10.924   3.118 -33.958  1.00  0.00     0.096 A 
HETATM   26  N   UNL     1     -12.293   3.321 -33.803  1.00  0.00    -0.215 N 
HETATM   27  N   UNL     1     -12.500   4.606 -33.411  1.00  0.00     0.012 NA
HETATM   28  N   UNL     1     -11.333   5.195 -33.212  1.00  0.00    -0.152 NA
BRANCH  25  29
HETATM   29  C   UNL     1     -10.295   1.924 -34.572  1.00  0.00     0.295 C 
BRANCH  29  30
HETATM   30  N   UNL     1      -9.387   1.135 -33.662  1.00  0.00    -0.073 N 
HETATM   31  C   UNL     1      -8.281   0.420 -34.390  1.00  0.00     0.269 C 
HETATM   32  H   UNL     1      -8.965   1.806 -33.004  1.00  0.00     0.279 HD
HETATM   33  C   UNL     1     -10.176   0.172 -32.815  1.00  0.00     0.269 C 
ENDBRANCH  29  30
ENDBRANCH  25  29
BRANCH  26  34
HETATM   34  C   UNL     1     -13.347   2.389 -33.952  1.00  0.00     0.225 A 
HETATM   35  N   UNL     1     -13.509   1.747 -35.112  1.00  0.00    -0.081 NA
HETATM   36  O   UNL     1     -14.610   0.916 -34.877  1.00  0.00    -0.103 OA
HETATM   37  N   UNL     1     -15.069   1.049 -33.576  1.00  0.00    -0.083 NA
HETATM   38  C   UNL     1     -14.286   1.959 -32.999  1.00  0.00     0.201 A 
BRANCH  38  39
HETATM   39  N   UNL     1     -14.406   2.373 -31.728  1.00  0.00    -0.379 N 
HETATM   40  H   UNL     1     -15.287   2.756 -31.397  1.00  0.00     0.158 HD
HETATM   41  H   UNL     1     -13.736   2.152 -30.994  1.00  0.00     0.158 HD
ENDBRANCH  38  39
ENDBRANCH  26  34
ENDBRANCH   1  24
TORSDOF 9
ENDMDL
MODEL 4
REMARK VINA RESULT:      -9.5      1.306      1.837
REMARK  9 active torsions:
REMARK  status: ('A' for Active; 'I' for Inactive)
REMARK    1  A    between atoms: N_2  and  C_4 
REMARK    2  A    between atoms: C_4  and  C_5 
REMARK    3  A    between atoms: N_6  and  C_7 
REMARK    4  A    between atoms: C_11  and  N_12 
REMARK    5  A    between atoms: C_15  and  C_16 
REMARK       I    between atoms: C_16  and  N_17 
REMARK    6  A    between atoms: N_17  and  N_18 
REMARK    7  A    between atoms: C_19  and  C_20 
REMARK    8  A    between atoms: C_21  and  C_22 
REMARK    9  A    between atoms: N_29  and  C_30 
ROOT
HETATM    1  C   UNL     1      -2.513   4.821 -31.997  1.00  0.00     0.293 C 
HETATM    2  N   UNL     1      -3.060   3.608 -31.622  1.00  0.00    -0.242 N 
HETATM    3  O   UNL     1      -2.876   5.517 -32.942  1.00  0.00    -0.264 OA
HETATM    4  H   UNL     1      -2.671   3.093 -30.834  1.00  0.00     0.192 HD
ENDROOT
BRANCH   2   5
HETATM    5  N   UNL     1      -4.094   3.086 -32.344  1.00  0.00    -0.183 NA
HETATM    6  C   UNL     1      -5.143   2.744 -31.668  1.00  0.00     0.154 C 
BRANCH   6   7
HETATM    7  C   UNL     1      -6.266   2.176 -32.371  1.00  0.00     0.032 A 
HETATM    8  C   UNL     1      -6.437   0.856 -32.871  1.00  0.00     0.101 A 
HETATM    9  N   UNL     1      -7.651   0.705 -33.418  1.00  0.00    -0.166 NA
HETATM   10  N   UNL     1      -8.252   1.916 -33.330  1.00  0.00    -0.244 N 
HETATM   11  C   UNL     1      -7.437   2.828 -32.703  1.00  0.00     0.134 A 
BRANCH   8  12
HETATM   12  C   UNL     1      -5.487  -0.257 -32.862  1.00  0.00    -0.005 A 
HETATM   13  C   UNL     1      -4.664  -0.469 -31.747  1.00  0.00     0.014 A 
HETATM   14  C   UNL     1      -3.759  -1.531 -31.727  1.00  0.00     0.001 A 
HETATM   15  C   UNL     1      -3.672  -2.395 -32.818  1.00  0.00     0.000 A 
HETATM   16  C   UNL     1      -4.497  -2.204 -33.925  1.00  0.00     0.001 A 
HETATM   17  C   UNL     1      -5.404  -1.143 -33.946  1.00  0.00     0.014 A 
ENDBRANCH   8  12
BRANCH  10  18
HETATM   18  C   UNL     1      -9.563   2.120 -33.846  1.00  0.00     0.058 A 
HETATM   19  C   UNL     1     -10.532   1.119 -33.680  1.00  0.00     0.031 A 
HETATM   20  C   UNL     1     -11.824   1.298 -34.180  1.00  0.00     0.002 A 
HETATM   21  C   UNL     1     -12.158   2.475 -34.846  1.00  0.00     0.000 A 
HETATM   22  C   UNL     1     -11.202   3.476 -35.013  1.00  0.00     0.002 A 
HETATM   23  C   UNL     1      -9.905   3.303 -34.517  1.00  0.00     0.031 A 
ENDBRANCH  10  18
ENDBRANCH   6   7
ENDBRANCH   2   5
BRANCH   1  24
HETATM   24  C   UNL     1      -1.401   5.250 -31.161  1.00  0.00     0.170 A 
HETATM   25  C   UNL     1      -1.431   6.215 -30.165  1.00  0.00     0.096 A 
HETATM   26  N   UNL     1      -0.149   6.189 -29.621  1.00  0.00    -0.215 N 
HETATM   27  N   UNL     1       0.616   5.337 -30.354  1.00  0.00     0.012 NA
HETATM   28  N   UNL     1      -0.138   4.748 -31.267  1.00  0.00    -0.152 NA
BRANCH  25  29
HETATM   29  C   UNL     1      -2.504   7.168 -29.794  1.00  0.00     0.295 C 
BRANCH  29  30
HETATM   30  N   UNL     1      -3.551   6.625 -28.854  1.00  0.00    -0.073 N 
HETATM   31  C   UNL     1      -4.882   6.383 -29.512  1.00  0.00     0.269 C 
HETATM   32  H   UNL     1      -3.195   5.729 -28.494  1.00  0.00     0.279 HD
HETATM   33  C   UNL     1      -3.708   7.515 -27.649  1.00  0.00     0.269 C 
ENDBRANCH  29  30
ENDBRANCH  25  29
BRANCH  26  34
HETATM   34  C   UNL     1       0.338   6.858 -28.474  1.00  0.00     0.225 A 
HETATM   35  N   UNL     1       1.125   7.929 -28.611  1.00  0.00    -0.081 NA
HETATM   36  O   UNL     1       1.381   8.320 -27.292  1.00  0.00    -0.103 OA
HETATM   37  N   UNL     1       0.721   7.500 -26.389  1.00  0.00    -0.083 NA
HETATM   38  C   UNL     1       0.072   6.594 -27.119  1.00  0.00     0.201 A 
BRANCH  38  39
HETATM   39  N   UNL     1      -0.691   5.613 -26.614  1.00  0.00    -0.379 N 
HETATM   40  H   UNL     1      -0.626   5.371 -25.630  1.00  0.00     0.158 HD
HETATM   41  H   UNL     1      -1.492   5.210 -27.098  1.00  0.00     0.158 HD
ENDBRANCH  38  39
ENDBRANCH  26  34
ENDBRANCH   1  24
TORSDOF 9
ENDMDL
MODEL 5
REMARK VINA RESULT:      -9.1     17.428     18.790
REMARK  9 active torsions:
REMARK  status: ('A' for Active; 'I' for Inactive)
REMARK    1  A    between atoms: N_2  and  C_4 
REMARK    2  A    between atoms: C_4  and  C_5 
REMARK    3  A    between atoms: N_6  and  C_7 
REMARK    4  A    between atoms: C_11  and  N_12 
REMARK    5  A    between atoms: C_15  and  C_16 
REMARK       I    between atoms: C_16  and  N_17 
REMARK    6  A    between atoms: N_17  and  N_18 
REMARK    7  A    between atoms: C_19  and  C_20 
REMARK    8  A    between atoms: C_21  and  C_22 
REMARK    9  A    between atoms: N_29  and  C_30 
ROOT
HETATM    1  C   UNL     1      -5.431 -15.995 -32.137  1.00  0.00     0.293 C 
HETATM    2  N   UNL     1      -5.186 -14.823 -32.829  1.00  0.00    -0.242 N 
HETATM    3  O   UNL     1      -6.147 -16.920 -32.510  1.00  0.00    -0.264 OA
HETATM    4  H   UNL     1      -4.593 -14.102 -32.422  1.00  0.00     0.192 HD
ENDROOT
BRANCH   2   5
HETATM    5  N   UNL     1      -5.782 -14.623 -34.040  1.00  0.00    -0.183 NA
HETATM    6  C   UNL     1      -5.012 -14.197 -34.990  1.00  0.00     0.154 C 
BRANCH   6   7
HETATM    7  C   UNL     1      -5.584 -13.955 -36.291  1.00  0.00     0.032 A 
HETATM    8  C   UNL     1      -4.928 -13.738 -37.533  1.00  0.00     0.101 A 
HETATM    9  N   UNL     1      -5.817 -13.607 -38.527  1.00  0.00    -0.166 NA
HETATM   10  N   UNL     1      -7.039 -13.682 -37.947  1.00  0.00    -0.244 N 
HETATM   11  C   UNL     1      -6.930 -13.891 -36.592  1.00  0.00     0.134 A 
BRANCH   8  12
HETATM   12  C   UNL     1      -3.495 -13.635 -37.806  1.00  0.00    -0.005 A 
HETATM   13  C   UNL     1      -2.697 -14.787 -37.821  1.00  0.00     0.014 A 
HETATM   14  C   UNL     1      -1.330 -14.699 -38.086  1.00  0.00     0.001 A 
HETATM   15  C   UNL     1      -0.747 -13.459 -38.344  1.00  0.00     0.000 A 
HETATM   16  C   UNL     1      -1.532 -12.308 -38.347  1.00  0.00     0.001 A 
HETATM   17  C   UNL     1      -2.901 -12.395 -38.085  1.00  0.00     0.014 A 
ENDBRANCH   8  12
BRANCH  10  18
HETATM   18  C   UNL     1      -8.226 -13.555 -38.722  1.00  0.00     0.058 A 
HETATM   19  C   UNL     1      -8.627 -12.285 -39.164  1.00  0.00     0.031 A 
HETATM   20  C   UNL     1      -9.790 -12.137 -39.923  1.00  0.00     0.002 A 
HETATM   21  C   UNL     1     -10.559 -13.253 -40.247  1.00  0.00     0.000 A 
HETATM   22  C   UNL     1     -10.167 -14.518 -39.813  1.00  0.00     0.002 A 
HETATM   23  C   UNL     1      -9.004 -14.675 -39.051  1.00  0.00     0.031 A 
ENDBRANCH  10  18
ENDBRANCH   6   7
ENDBRANCH   2   5
BRANCH   1  24
HETATM   24  C   UNL     1      -4.756 -16.069 -30.849  1.00  0.00     0.170 A 
HETATM   25  C   UNL     1      -3.447 -16.467 -30.616  1.00  0.00     0.096 A 
HETATM   26  N   UNL     1      -3.271 -16.283 -29.246  1.00  0.00    -0.215 N 
HETATM   27  N   UNL     1      -4.460 -15.917 -28.700  1.00  0.00     0.012 NA
HETATM   28  N   UNL     1      -5.353 -15.760 -29.663  1.00  0.00    -0.152 NA
BRANCH  25  29
HETATM   29  C   UNL     1      -2.454 -17.067 -31.539  1.00  0.00     0.295 C 
BRANCH  29  30
HETATM   30  N   UNL     1      -1.814 -16.106 -32.508  1.00  0.00    -0.073 N 
HETATM   31  C   UNL     1      -2.173 -16.373 -33.945  1.00  0.00     0.269 C 
HETATM   32  H   UNL     1      -2.143 -15.163 -32.258  1.00  0.00     0.279 HD
HETATM   33  C   UNL     1      -0.319 -16.077 -32.331  1.00  0.00     0.269 C 
ENDBRANCH  29  30
ENDBRANCH  25  29
BRANCH  26  34
HETATM   34  C   UNL     1      -2.081 -16.384 -28.487  1.00  0.00     0.225 A 
HETATM   35  N   UNL     1      -1.893 -17.433 -27.681  1.00  0.00    -0.081 NA
HETATM   36  O   UNL     1      -0.629 -17.200 -27.128  1.00  0.00    -0.103 OA
HETATM   37  N   UNL     1      -0.067 -16.038 -27.634  1.00  0.00    -0.083 NA
HETATM   38  C   UNL     1      -0.965 -15.531 -28.478  1.00  0.00     0.201 A 
BRANCH  38  39
HETATM   39  N   UNL     1      -0.799 -14.399 -29.178  1.00  0.00    -0.379 N 
HETATM   40  H   UNL     1      -1.483 -14.126 -29.878  1.00  0.00     0.158 HD
HETATM   41  H   UNL     1      -0.133 -13.670 -28.929  1.00  0.00     0.158 HD
ENDBRANCH  38  39
ENDBRANCH  26  34
ENDBRANCH   1  24
TORSDOF 9
ENDMDL
MODEL 6
REMARK VINA RESULT:      -8.9      2.411      5.485
REMARK  9 active torsions:
REMARK  status: ('A' for Active; 'I' for Inactive)
REMARK    1  A    between atoms: N_2  and  C_4 
REMARK    2  A    between atoms: C_4  and  C_5 
REMARK    3  A    between atoms: N_6  and  C_7 
REMARK    4  A    between atoms: C_11  and  N_12 
REMARK    5  A    between atoms: C_15  and  C_16 
REMARK       I    between atoms: C_16  and  N_17 
REMARK    6  A    between atoms: N_17  and  N_18 
REMARK    7  A    between atoms: C_19  and  C_20 
REMARK    8  A    between atoms: C_21  and  C_22 
REMARK    9  A    between atoms: N_29  and  C_30 
ROOT
HETATM    1  C   UNL     1      -5.868   5.160 -29.263  1.00  0.00     0.293 C 
HETATM    2  N   UNL     1      -5.414   3.856 -29.199  1.00  0.00    -0.242 N 
HETATM    3  O   UNL     1      -6.723   5.592 -30.031  1.00  0.00    -0.264 OA
HETATM    4  H   UNL     1      -4.680   3.601 -28.540  1.00  0.00     0.192 HD
ENDROOT
BRANCH   2   5
HETATM    5  N   UNL     1      -5.925   2.925 -30.055  1.00  0.00    -0.183 NA
HETATM    6  C   UNL     1      -5.154   2.566 -31.031  1.00  0.00     0.154 C 
BRANCH   6   7
HETATM    7  C   UNL     1      -5.640   1.593 -31.978  1.00  0.00     0.032 A 
HETATM    8  C   UNL     1      -6.704   1.706 -32.914  1.00  0.00     0.101 A 
HETATM    9  N   UNL     1      -6.807   0.596 -33.657  1.00  0.00    -0.166 NA
HETATM   10  N   UNL     1      -5.866  -0.256 -33.186  1.00  0.00    -0.244 N 
HETATM   11  C   UNL     1      -5.144   0.319 -32.167  1.00  0.00     0.134 A 
BRANCH   8  12
HETATM   12  C   UNL     1      -7.632   2.820 -33.116  1.00  0.00    -0.005 A 
HETATM   13  C   UNL     1      -7.180   4.015 -33.692  1.00  0.00     0.014 A 
HETATM   14  C   UNL     1      -8.060   5.080 -33.894  1.00  0.00     0.001 A 
HETATM   15  C   UNL     1      -9.399   4.959 -33.527  1.00  0.00     0.000 A 
HETATM   16  C   UNL     1      -9.863   3.770 -32.968  1.00  0.00     0.001 A 
HETATM   17  C   UNL     1      -8.986   2.702 -32.768  1.00  0.00     0.014 A 
ENDBRANCH   8  12
BRANCH  10  18
HETATM   18  C   UNL     1      -5.714  -1.558 -33.742  1.00  0.00     0.058 A 
HETATM   19  C   UNL     1      -6.829  -2.203 -34.299  1.00  0.00     0.031 A 
HETATM   20  C   UNL     1      -6.703  -3.481 -34.847  1.00  0.00     0.002 A 
HETATM   21  C   UNL     1      -5.467  -4.124 -34.844  1.00  0.00     0.000 A 
HETATM   22  C   UNL     1      -4.354  -3.489 -34.294  1.00  0.00     0.002 A 
HETATM   23  C   UNL     1      -4.472  -2.209 -33.742  1.00  0.00     0.031 A 
ENDBRANCH  10  18
ENDBRANCH   6   7
ENDBRANCH   2   5
BRANCH   1  24
HETATM   24  C   UNL     1      -5.222   6.056 -28.314  1.00  0.00     0.170 A 
HETATM   25  C   UNL     1      -4.169   6.923 -28.571  1.00  0.00     0.096 A 
HETATM   26  N   UNL     1      -3.981   7.602 -27.370  1.00  0.00    -0.215 N 
HETATM   27  N   UNL     1      -4.804   7.062 -26.433  1.00  0.00     0.012 NA
HETATM   28  N   UNL     1      -5.573   6.149 -27.000  1.00  0.00    -0.152 NA
BRANCH  25  29
HETATM   29  C   UNL     1      -3.321   7.060 -29.780  1.00  0.00     0.295 C 
BRANCH  29  30
HETATM   30  N   UNL     1      -2.281   5.984 -29.963  1.00  0.00    -0.073 N 
HETATM   31  C   UNL     1      -0.870   6.476 -29.790  1.00  0.00     0.269 C 
HETATM   32  H   UNL     1      -2.466   5.264 -29.250  1.00  0.00     0.279 HD
HETATM   33  C   UNL     1      -2.445   5.296 -31.292  1.00  0.00     0.269 C 
ENDBRANCH  29  30
ENDBRANCH  25  29
BRANCH  26  34
HETATM   34  C   UNL     1      -3.142   8.709 -27.102  1.00  0.00     0.225 A 
HETATM   35  N   UNL     1      -3.605   9.951 -27.267  1.00  0.00    -0.081 NA
HETATM   36  O   UNL     1      -2.524  10.757 -26.894  1.00  0.00    -0.103 OA
HETATM   37  N   UNL     1      -1.445   9.990 -26.483  1.00  0.00    -0.083 NA
HETATM   38  C   UNL     1      -1.826   8.720 -26.609  1.00  0.00     0.201 A 
BRANCH  38  39
HETATM   39  N   UNL     1      -1.059   7.660 -26.310  1.00  0.00    -0.379 N 
HETATM   40  H   UNL     1      -0.722   7.525 -25.361  1.00  0.00     0.158 HD
HETATM   41  H   UNL     1      -0.941   6.854 -26.921  1.00  0.00     0.158 HD
ENDBRANCH  38  39
ENDBRANCH  26  34
ENDBRANCH   1  24
TORSDOF 9
ENDMDL
MODEL 7
REMARK VINA RESULT:      -8.8      3.363     10.435
REMARK  9 active torsions:
REMARK  status: ('A' for Active; 'I' for Inactive)
REMARK    1  A    between atoms: N_2  and  C_4 
REMARK    2  A    between atoms: C_4  and  C_5 
REMARK    3  A    between atoms: N_6  and  C_7 
REMARK    4  A    between atoms: C_11  and  N_12 
REMARK    5  A    between atoms: C_15  and  C_16 
REMARK       I    between atoms: C_16  and  N_17 
REMARK    6  A    between atoms: N_17  and  N_18 
REMARK    7  A    between atoms: C_19  and  C_20 
REMARK    8  A    between atoms: C_21  and  C_22 
REMARK    9  A    between atoms: N_29  and  C_30 
ROOT
HETATM    1  C   UNL     1      -7.254   5.229 -33.615  1.00  0.00     0.293 C 
HETATM    2  N   UNL     1      -7.337   5.973 -32.453  1.00  0.00    -0.242 N 
HETATM    3  O   UNL     1      -6.223   4.932 -34.212  1.00  0.00    -0.264 OA
HETATM    4  H   UNL     1      -8.245   6.188 -32.046  1.00  0.00     0.192 HD
ENDROOT
BRANCH   2   5
HETATM    5  N   UNL     1      -6.195   6.455 -31.883  1.00  0.00    -0.183 NA
HETATM    6  C   UNL     1      -5.783   5.837 -30.822  1.00  0.00     0.154 C 
BRANCH   6   7
HETATM    7  C   UNL     1      -4.588   6.305 -30.166  1.00  0.00     0.032 A 
HETATM    8  C   UNL     1      -3.272   6.438 -30.688  1.00  0.00     0.101 A 
HETATM    9  N   UNL     1      -2.446   6.965 -29.774  1.00  0.00    -0.166 NA
HETATM   10  N   UNL     1      -3.187   7.127 -28.651  1.00  0.00    -0.244 N 
HETATM   11  C   UNL     1      -4.488   6.733 -28.858  1.00  0.00     0.134 A 
BRANCH   8  12
HETATM   12  C   UNL     1      -2.771   6.070 -32.012  1.00  0.00    -0.005 A 
HETATM   13  C   UNL     1      -2.343   7.064 -32.903  1.00  0.00     0.014 A 
HETATM   14  C   UNL     1      -1.857   6.722 -34.166  1.00  0.00     0.001 A 
HETATM   15  C   UNL     1      -1.788   5.383 -34.549  1.00  0.00     0.000 A 
HETATM   16  C   UNL     1      -2.196   4.385 -33.666  1.00  0.00     0.001 A 
HETATM   17  C   UNL     1      -2.680   4.726 -32.401  1.00  0.00     0.014 A 
ENDBRANCH   8  12
BRANCH  10  18
HETATM   18  C   UNL     1      -2.608   7.649 -27.461  1.00  0.00     0.058 A 
HETATM   19  C   UNL     1      -1.458   8.449 -27.549  1.00  0.00     0.031 A 
HETATM   20  C   UNL     1      -0.872   8.969 -26.393  1.00  0.00     0.002 A 
HETATM   21  C   UNL     1      -1.427   8.697 -25.144  1.00  0.00     0.000 A 
HETATM   22  C   UNL     1      -2.570   7.904 -25.049  1.00  0.00     0.002 A 
HETATM   23  C   UNL     1      -3.162   7.378 -26.202  1.00  0.00     0.031 A 
ENDBRANCH  10  18
ENDBRANCH   6   7
ENDBRANCH   2   5
BRANCH   1  24
HETATM   24  C   UNL     1      -8.546   4.800 -34.133  1.00  0.00     0.170 A 
HETATM   25  C   UNL     1      -9.147   3.563 -33.950  1.00  0.00     0.096 A 
HETATM   26  N   UNL     1     -10.389   3.690 -34.568  1.00  0.00    -0.215 N 
HETATM   27  N   UNL     1     -10.446   4.900 -35.184  1.00  0.00     0.012 NA
HETATM   28  N   UNL     1      -9.351   5.585 -34.904  1.00  0.00    -0.152 NA
BRANCH  25  29
HETATM   29  C   UNL     1      -8.606   2.319 -33.353  1.00  0.00     0.295 C 
BRANCH  29  30
HETATM   30  N   UNL     1      -9.100   2.004 -31.963  1.00  0.00    -0.073 N 
HETATM   31  C   UNL     1      -8.423   2.809 -30.888  1.00  0.00     0.269 C 
HETATM   32  H   UNL     1     -10.108   2.218 -31.947  1.00  0.00     0.279 HD
HETATM   33  C   UNL     1      -8.992   0.531 -31.673  1.00  0.00     0.269 C 
ENDBRANCH  29  30
ENDBRANCH  25  29
BRANCH  26  34
HETATM   34  C   UNL     1     -11.479   2.787 -34.556  1.00  0.00     0.225 A 
HETATM   35  N   UNL     1     -11.897   2.263 -33.400  1.00  0.00    -0.081 NA
HETATM   36  O   UNL     1     -12.976   1.456 -33.777  1.00  0.00    -0.103 OA
HETATM   37  N   UNL     1     -13.207   1.533 -35.142  1.00  0.00    -0.083 NA
HETATM   38  C   UNL     1     -12.282   2.360 -35.627  1.00  0.00     0.201 A 
BRANCH  38  39
HETATM   39  N   UNL     1     -12.165   2.699 -36.920  1.00  0.00    -0.379 N 
HETATM   40  H   UNL     1     -12.755   3.428 -37.312  1.00  0.00     0.158 HD
HETATM   41  H   UNL     1     -11.384   2.422 -37.511  1.00  0.00     0.158 HD
ENDBRANCH  38  39
ENDBRANCH  26  34
ENDBRANCH   1  24
TORSDOF 9
ENDMDL
MODEL 8
REMARK VINA RESULT:      -8.8      2.163      4.972
REMARK  9 active torsions:
REMARK  status: ('A' for Active; 'I' for Inactive)
REMARK    1  A    between atoms: N_2  and  C_4 
REMARK    2  A    between atoms: C_4  and  C_5 
REMARK    3  A    between atoms: N_6  and  C_7 
REMARK    4  A    between atoms: C_11  and  N_12 
REMARK    5  A    between atoms: C_15  and  C_16 
REMARK       I    between atoms: C_16  and  N_17 
REMARK    6  A    between atoms: N_17  and  N_18 
REMARK    7  A    between atoms: C_19  and  C_20 
REMARK    8  A    between atoms: C_21  and  C_22 
REMARK    9  A    between atoms: N_29  and  C_30 
ROOT
HETATM    1  C   UNL     1      -2.979   4.590 -32.311  1.00  0.00     0.293 C 
HETATM    2  N   UNL     1      -4.107   4.314 -33.062  1.00  0.00    -0.242 N 
HETATM    3  O   UNL     1      -2.233   3.762 -31.795  1.00  0.00    -0.264 OA
HETATM    4  H   UNL     1      -4.677   5.075 -33.428  1.00  0.00     0.192 HD
ENDROOT
BRANCH   2   5
HETATM    5  N   UNL     1      -4.475   3.016 -33.269  1.00  0.00    -0.183 NA
HETATM    6  C   UNL     1      -5.747   2.776 -33.251  1.00  0.00     0.154 C 
BRANCH   6   7
HETATM    7  C   UNL     1      -6.199   1.422 -33.451  1.00  0.00     0.032 A 
HETATM    8  C   UNL     1      -7.527   0.915 -33.484  1.00  0.00     0.101 A 
HETATM    9  N   UNL     1      -7.532  -0.397 -33.754  1.00  0.00    -0.166 NA
HETATM   10  N   UNL     1      -6.231  -0.764 -33.844  1.00  0.00    -0.244 N 
HETATM   11  C   UNL     1      -5.400   0.316 -33.663  1.00  0.00     0.134 A 
BRANCH   8  12
HETATM   12  C   UNL     1      -8.784   1.627 -33.254  1.00  0.00    -0.005 A 
HETATM   13  C   UNL     1      -9.017   2.263 -32.027  1.00  0.00     0.014 A 
HETATM   14  C   UNL     1     -10.211   2.950 -31.801  1.00  0.00     0.001 A 
HETATM   15  C   UNL     1     -11.181   3.014 -32.800  1.00  0.00     0.000 A 
HETATM   16  C   UNL     1     -10.953   2.400 -34.030  1.00  0.00     0.001 A 
HETATM   17  C   UNL     1      -9.759   1.713 -34.259  1.00  0.00     0.014 A 
ENDBRANCH   8  12
BRANCH  10  18
HETATM   18  C   UNL     1      -5.868  -2.116 -34.100  1.00  0.00     0.058 A 
HETATM   19  C   UNL     1      -4.554  -2.537 -33.842  1.00  0.00     0.031 A 
HETATM   20  C   UNL     1      -4.176  -3.858 -34.090  1.00  0.00     0.002 A 
HETATM   21  C   UNL     1      -5.104  -4.768 -34.593  1.00  0.00     0.000 A 
HETATM   22  C   UNL     1      -6.411  -4.358 -34.850  1.00  0.00     0.002 A 
HETATM   23  C   UNL     1      -6.798  -3.036 -34.607  1.00  0.00     0.031 A 
ENDBRANCH  10  18
ENDBRANCH   6   7
ENDBRANCH   2   5
BRANCH   1  24
HETATM   24  C   UNL     1      -2.716   6.012 -32.145  1.00  0.00     0.170 A 
HETATM   25  C   UNL     1      -3.147   6.823 -31.105  1.00  0.00     0.096 A 
HETATM   26  N   UNL     1      -2.566   8.061 -31.370  1.00  0.00    -0.215 N 
HETATM   27  N   UNL     1      -1.935   7.996 -32.572  1.00  0.00     0.012 NA
HETATM   28  N   UNL     1      -1.998   6.758 -33.032  1.00  0.00    -0.152 NA
BRANCH  25  29
HETATM   29  C   UNL     1      -4.098   6.537 -30.004  1.00  0.00     0.295 C 
BRANCH  29  30
HETATM   30  N   UNL     1      -5.533   6.346 -30.426  1.00  0.00    -0.073 N 
HETATM   31  C   UNL     1      -6.047   7.442 -31.319  1.00  0.00     0.269 C 
HETATM   32  H   UNL     1      -5.579   5.456 -30.941  1.00  0.00     0.279 HD
HETATM   33  C   UNL     1      -6.429   6.173 -29.228  1.00  0.00     0.269 C 
ENDBRANCH  29  30
ENDBRANCH  25  29
BRANCH  26  34
HETATM   34  C   UNL     1      -2.543   9.219 -30.557  1.00  0.00     0.225 A 
HETATM   35  N   UNL     1      -3.298  10.273 -30.878  1.00  0.00    -0.081 NA
HETATM   36  O   UNL     1      -3.032  11.191 -29.856  1.00  0.00    -0.103 OA
HETATM   37  N   UNL     1      -2.150  10.664 -28.926  1.00  0.00    -0.083 NA
HETATM   38  C   UNL     1      -1.847   9.440 -29.357  1.00  0.00     0.201 A 
BRANCH  38  39
HETATM   39  N   UNL     1      -1.014   8.595 -28.730  1.00  0.00    -0.379 N 
HETATM   40  H   UNL     1      -1.058   7.598 -28.922  1.00  0.00     0.158 HD
HETATM   41  H   UNL     1      -0.190   8.891 -28.211  1.00  0.00     0.158 HD
ENDBRANCH  38  39
ENDBRANCH  26  34
ENDBRANCH   1  24
TORSDOF 9
ENDMDL
MODEL 9
REMARK VINA RESULT:      -8.8      4.221      7.221
REMARK  9 active torsions:
REMARK  status: ('A' for Active; 'I' for Inactive)
REMARK    1  A    between atoms: N_2  and  C_4 
REMARK    2  A    between atoms: C_4  and  C_5 
REMARK    3  A    between atoms: N_6  and  C_7 
REMARK    4  A    between atoms: C_11  and  N_12 
REMARK    5  A    between atoms: C_15  and  C_16 
REMARK       I    between atoms: C_16  and  N_17 
REMARK    6  A    between atoms: N_17  and  N_18 
REMARK    7  A    between atoms: C_19  and  C_20 
REMARK    8  A    between atoms: C_21  and  C_22 
REMARK    9  A    between atoms: N_29  and  C_30 
ROOT
HETATM    1  C   UNL     1      -8.511   5.579 -31.111  1.00  0.00     0.293 C 
HETATM    2  N   UNL     1      -8.523   4.218 -30.869  1.00  0.00    -0.242 N 
HETATM    3  O   UNL     1      -7.983   6.140 -32.068  1.00  0.00    -0.264 OA
HETATM    4  H   UNL     1      -8.968   3.852 -30.030  1.00  0.00     0.192 HD
ENDROOT
BRANCH   2   5
HETATM    5  N   UNL     1      -7.893   3.377 -31.739  1.00  0.00    -0.183 NA
HETATM    6  C   UNL     1      -7.169   2.445 -31.207  1.00  0.00     0.154 C 
BRANCH   6   7
HETATM    7  C   UNL     1      -6.469   1.530 -32.073  1.00  0.00     0.032 A 
HETATM    8  C   UNL     1      -5.273   1.733 -32.815  1.00  0.00     0.101 A 
HETATM    9  N   UNL     1      -4.913   0.614 -33.457  1.00  0.00    -0.166 NA
HETATM   10  N   UNL     1      -5.880  -0.296 -33.191  1.00  0.00    -0.244 N 
HETATM   11  C   UNL     1      -6.837   0.230 -32.356  1.00  0.00     0.134 A 
BRANCH   8  12
HETATM   12  C   UNL     1      -4.473   2.951 -32.946  1.00  0.00    -0.005 A 
HETATM   13  C   UNL     1      -3.197   3.019 -32.371  1.00  0.00     0.014 A 
HETATM   14  C   UNL     1      -2.424   4.175 -32.497  1.00  0.00     0.001 A 
HETATM   15  C   UNL     1      -2.917   5.271 -33.204  1.00  0.00     0.000 A 
HETATM   16  C   UNL     1      -4.178   5.209 -33.794  1.00  0.00     0.001 A 
HETATM   17  C   UNL     1      -4.952   4.053 -33.671  1.00  0.00     0.014 A 
ENDBRANCH   8  12
BRANCH  10  18
HETATM   18  C   UNL     1      -5.824  -1.607 -33.744  1.00  0.00     0.058 A 
HETATM   19  C   UNL     1      -4.591  -2.274 -33.809  1.00  0.00     0.031 A 
HETATM   20  C   UNL     1      -4.513  -3.559 -34.351  1.00  0.00     0.002 A 
HETATM   21  C   UNL     1      -5.661  -4.186 -34.829  1.00  0.00     0.000 A 
HETATM   22  C   UNL     1      -6.890  -3.531 -34.767  1.00  0.00     0.002 A 
HETATM   23  C   UNL     1      -6.976  -2.243 -34.227  1.00  0.00     0.031 A 
ENDBRANCH  10  18
ENDBRANCH   6   7
ENDBRANCH   2   5
BRANCH   1  24
HETATM   24  C   UNL     1      -9.193   6.365 -30.092  1.00  0.00     0.170 A 
HETATM   25  C   UNL     1      -8.758   6.608 -28.798  1.00  0.00     0.096 A 
HETATM   26  N   UNL     1      -9.717   7.467 -28.268  1.00  0.00    -0.215 N 
HETATM   27  N   UNL     1     -10.720   7.610 -29.174  1.00  0.00     0.012 NA
HETATM   28  N   UNL     1     -10.399   6.971 -30.285  1.00  0.00    -0.152 NA
BRANCH  25  29
HETATM   29  C   UNL     1      -7.615   6.028 -28.051  1.00  0.00     0.295 C 
BRANCH  29  30
HETATM   30  N   UNL     1      -6.260   6.574 -28.423  1.00  0.00    -0.073 N 
HETATM   31  C   UNL     1      -6.321   7.888 -29.154  1.00  0.00     0.269 C 
HETATM   32  H   UNL     1      -5.740   6.711 -27.545  1.00  0.00     0.279 HD
HETATM   33  C   UNL     1      -5.470   5.564 -29.212  1.00  0.00     0.269 C 
ENDBRANCH  29  30
ENDBRANCH  25  29
BRANCH  26  34
HETATM   34  C   UNL     1      -9.700   8.158 -27.033  1.00  0.00     0.225 A 
HETATM   35  N   UNL     1      -8.673   8.959 -26.733  1.00  0.00    -0.081 NA
HETATM   36  O   UNL     1      -9.012   9.470 -25.475  1.00  0.00    -0.103 OA
HETATM   37  N   UNL     1     -10.245   8.995 -25.057  1.00  0.00    -0.083 NA
HETATM   38  C   UNL     1     -10.675   8.184 -26.022  1.00  0.00     0.201 A 
BRANCH  38  39
HETATM   39  N   UNL     1     -11.840   7.519 -25.997  1.00  0.00    -0.379 N 
HETATM   40  H   UNL     1     -12.082   6.942 -25.197  1.00  0.00     0.158 HD
HETATM   41  H   UNL     1     -12.611   7.701 -26.637  1.00  0.00     0.158 HD
ENDBRANCH  38  39
ENDBRANCH  26  34
ENDBRANCH   1  24
TORSDOF 9
ENDMDL
MODEL 10
REMARK VINA RESULT:      -8.8      2.039      2.991
REMARK  9 active torsions:
REMARK  status: ('A' for Active; 'I' for Inactive)
REMARK    1  A    between atoms: N_2  and  C_4 
REMARK    2  A    between atoms: C_4  and  C_5 
REMARK    3  A    between atoms: N_6  and  C_7 
REMARK    4  A    between atoms: C_11  and  N_12 
REMARK    5  A    between atoms: C_15  and  C_16 
REMARK       I    between atoms: C_16  and  N_17 
REMARK    6  A    between atoms: N_17  and  N_18 
REMARK    7  A    between atoms: C_19  and  C_20 
REMARK    8  A    between atoms: C_21  and  C_22 
REMARK    9  A    between atoms: N_29  and  C_30 
ROOT
HETATM    1  C   UNL     1      -6.121   5.453 -33.022  1.00  0.00     0.293 C 
HETATM    2  N   UNL     1      -7.156   5.129 -32.164  1.00  0.00    -0.242 N 
HETATM    3  O   UNL     1      -6.075   5.210 -34.225  1.00  0.00    -0.264 OA
HETATM    4  H   UNL     1      -7.088   5.354 -31.173  1.00  0.00     0.192 HD
ENDROOT
BRANCH   2   5
HETATM    5  N   UNL     1      -8.246   4.466 -32.648  1.00  0.00    -0.183 NA
HETATM    6  C   UNL     1      -8.434   3.271 -32.190  1.00  0.00     0.154 C 
BRANCH   6   7
HETATM    7  C   UNL     1      -9.563   2.513 -32.670  1.00  0.00     0.032 A 
HETATM    8  C   UNL     1      -9.583   1.255 -33.331  1.00  0.00     0.101 A 
HETATM    9  N   UNL     1     -10.841   0.858 -33.566  1.00  0.00    -0.166 NA
HETATM   10  N   UNL     1     -11.637   1.859 -33.119  1.00  0.00    -0.244 N 
HETATM   11  C   UNL     1     -10.891   2.876 -32.573  1.00  0.00     0.134 A 
BRANCH   8  12
HETATM   12  C   UNL     1      -8.455   0.427 -33.759  1.00  0.00    -0.005 A 
HETATM   13  C   UNL     1      -8.070   0.407 -35.107  1.00  0.00     0.014 A 
HETATM   14  C   UNL     1      -6.991  -0.374 -35.523  1.00  0.00     0.001 A 
HETATM   15  C   UNL     1      -6.282  -1.138 -34.596  1.00  0.00     0.000 A 
HETATM   16  C   UNL     1      -6.645  -1.112 -33.251  1.00  0.00     0.001 A 
HETATM   17  C   UNL     1      -7.723  -0.330 -32.832  1.00  0.00     0.014 A 
ENDBRANCH   8  12
BRANCH  10  18
HETATM   18  C   UNL     1     -13.053   1.776 -33.238  1.00  0.00     0.058 A 
HETATM   19  C   UNL     1     -13.860   2.608 -32.446  1.00  0.00     0.031 A 
HETATM   20  C   UNL     1     -15.252   2.541 -32.545  1.00  0.00     0.002 A 
HETATM   21  C   UNL     1     -15.847   1.647 -33.433  1.00  0.00     0.000 A 
HETATM   22  C   UNL     1     -15.052   0.819 -34.224  1.00  0.00     0.002 A 
HETATM   23  C   UNL     1     -13.658   0.879 -34.130  1.00  0.00     0.031 A 
ENDBRANCH  10  18
ENDBRANCH   6   7
ENDBRANCH   2   5
BRANCH   1  24
HETATM   24  C   UNL     1      -5.009   6.133 -32.373  1.00  0.00     0.170 A 
HETATM   25  C   UNL     1      -3.753   5.607 -32.105  1.00  0.00     0.096 A 
HETATM   26  N   UNL     1      -3.044   6.673 -31.557  1.00  0.00    -0.215 N 
HETATM   27  N   UNL     1      -3.891   7.725 -31.403  1.00  0.00     0.012 NA
HETATM   28  N   UNL     1      -5.069   7.416 -31.916  1.00  0.00    -0.152 NA
BRANCH  25  29
HETATM   29  C   UNL     1      -3.254   4.218 -32.236  1.00  0.00     0.295 C 
BRANCH  29  30
HETATM   30  N   UNL     1      -3.443   3.348 -31.019  1.00  0.00    -0.073 N 
HETATM   31  C   UNL     1      -3.156   1.893 -31.269  1.00  0.00     0.269 C 
HETATM   32  H   UNL     1      -2.789   3.692 -30.301  1.00  0.00     0.279 HD
HETATM   33  C   UNL     1      -4.820   3.526 -30.437  1.00  0.00     0.269 C 
ENDBRANCH  29  30
ENDBRANCH  25  29
BRANCH  26  34
HETATM   34  C   UNL     1      -1.667   6.749 -31.240  1.00  0.00     0.225 A 
HETATM   35  N   UNL     1      -0.767   6.914 -32.215  1.00  0.00    -0.081 NA
HETATM   36  O   UNL     1       0.452   6.963 -31.531  1.00  0.00    -0.103 OA
HETATM   37  N   UNL     1       0.264   6.858 -30.161  1.00  0.00    -0.083 NA
HETATM   38  C   UNL     1      -1.050   6.728 -29.978  1.00  0.00     0.201 A 
BRANCH  38  39
HETATM   39  N   UNL     1      -1.644   6.598 -28.782  1.00  0.00    -0.379 N 
HETATM   40  H   UNL     1      -2.334   5.867 -28.632  1.00  0.00     0.158 HD
HETATM   41  H   UNL     1      -1.315   7.053 -27.933  1.00  0.00     0.158 HD
ENDBRANCH  38  39
ENDBRANCH  26  34
ENDBRANCH   1  24
TORSDOF 9
ENDMDL
