MODEL 1
REMARK VINA RESULT:      -9.8      0.000      0.000
REMARK  7 active torsions:
REMARK  status: ('A' for Active; 'I' for Inactive)
REMARK    1  A    between atoms: C_7  and  C_8 
REMARK    2  A    between atoms: C_8  and  C_9 
REMARK       I    between atoms: C_9  and  N_10 
REMARK    3  A    between atoms: N_10  and  N_11 
REMARK       I    between atoms: N_11  and  C_12 
REMARK    4  A    between atoms: C_12  and  C_13 
REMARK    5  A    between atoms: C_23  and  O_24 
REMARK    6  A    between atoms: O_24  and  C_25 
REMARK    7  A    between atoms: C_25  and  C_26 
ROOT
HETATM    1  C   UNL     1      -6.416   3.684 -33.827  1.00  0.00     0.068 C 
HETATM    2  C   UNL     1      -5.073   4.206 -33.462  1.00  0.00     0.013 A 
HETATM    3  N   UNL     1      -4.460   5.186 -34.201  1.00  0.00    -0.359 N 
HETATM    4  H   UNL     1      -4.848   5.622 -35.026  1.00  0.00     0.166 HD
HETATM    5  C   UNL     1      -3.238   5.506 -33.659  1.00  0.00     0.043 A 
HETATM    6  C   UNL     1      -3.060   4.697 -32.540  1.00  0.00     0.002 A 
HETATM    7  C   UNL     1      -4.220   3.864 -32.423  1.00  0.00    -0.015 A 
HETATM    8  C   UNL     1      -2.287   6.445 -34.073  1.00  0.00     0.033 A 
HETATM    9  C   UNL     1      -1.117   6.570 -33.313  1.00  0.00     0.039 A 
HETATM   10  C   UNL     1      -0.906   5.784 -32.181  1.00  0.00     0.070 A 
HETATM   11  C   UNL     1      -1.870   4.841 -31.796  1.00  0.00     0.051 A 
ENDROOT
BRANCH   7  12
HETATM   12  C   UNL     1      -4.466   2.827 -31.369  1.00  0.00     0.146 C 
BRANCH  12  13
HETATM   13  C   UNL     1      -4.130   1.413 -31.807  1.00  0.00     0.240 C 
HETATM   14  N   UNL     1      -5.037   0.808 -32.657  1.00  0.00    -0.267 N 
HETATM   15  H   UNL     1      -6.012   1.114 -32.699  1.00  0.00     0.190 HD
HETATM   16  O   UNL     1      -3.069   0.864 -31.498  1.00  0.00    -0.272 OA
BRANCH  14  17
HETATM   17  N   UNL     1      -4.800  -0.536 -32.992  1.00  0.00    -0.263 N 
HETATM   18  C   UNL     1      -5.554  -1.092 -34.007  1.00  0.00     0.270 C 
HETATM   19  O   UNL     1      -6.335  -0.436 -34.690  1.00  0.00    -0.266 OA
HETATM   20  H   UNL     1      -4.379  -1.092 -32.251  1.00  0.00     0.190 HD
BRANCH  18  21
HETATM   21  C   UNL     1      -5.398  -2.555 -34.230  1.00  0.00     0.036 A 
HETATM   22  C   UNL     1      -6.459  -3.248 -34.816  1.00  0.00     0.036 A 
HETATM   23  C   UNL     1      -6.316  -4.606 -35.029  1.00  0.00     0.117 A 
HETATM   24  N   UNL     1      -5.203  -5.300 -34.709  1.00  0.00    -0.273 NA
HETATM   25  C   UNL     1      -4.185  -4.605 -34.160  1.00  0.00     0.117 A 
HETATM   26  C   UNL     1      -4.228  -3.245 -33.906  1.00  0.00     0.036 A 
ENDBRANCH  18  21
ENDBRANCH  14  17
ENDBRANCH  12  13
ENDBRANCH   7  12
BRANCH  10  27
HETATM   27  O   UNL     1       0.189   5.834 -31.360  1.00  0.00    -0.347 OA
BRANCH  27  28
HETATM   28  C   UNL     1       0.562   7.114 -30.847  1.00  0.00     0.214 C 
BRANCH  28  29
HETATM   29  C   UNL     1       0.547   7.118 -29.332  1.00  0.00    -0.034 A 
HETATM   30  C   UNL     1       0.012   6.055 -28.590  1.00  0.00     0.009 A 
HETATM   31  C   UNL     1       0.041   6.077 -27.193  1.00  0.00     0.001 A 
HETATM   32  C   UNL     1       0.616   7.153 -26.523  1.00  0.00     0.000 A 
HETATM   33  C   UNL     1       1.165   8.209 -27.246  1.00  0.00     0.001 A 
HETATM   34  C   UNL     1       1.134   8.190 -28.642  1.00  0.00     0.009 A 
ENDBRANCH  28  29
ENDBRANCH  27  28
ENDBRANCH  10  27
TORSDOF 7
ENDMDL
MODEL 2
REMARK VINA RESULT:      -9.6      2.559     10.173
REMARK  7 active torsions:
REMARK  status: ('A' for Active; 'I' for Inactive)
REMARK    1  A    between atoms: C_7  and  C_8 
REMARK    2  A    between atoms: C_8  and  C_9 
REMARK       I    between atoms: C_9  and  N_10 
REMARK    3  A    between atoms: N_10  and  N_11 
REMARK       I    between atoms: N_11  and  C_12 
REMARK    4  A    between atoms: C_12  and  C_13 
REMARK    5  A    between atoms: C_23  and  O_24 
REMARK    6  A    between atoms: O_24  and  C_25 
REMARK    7  A    between atoms: C_25  and  C_26 
ROOT
HETATM    1  C   UNL     1      -5.745   6.003 -32.723  1.00  0.00     0.068 C 
HETATM    2  C   UNL     1      -5.592   4.541 -32.502  1.00  0.00     0.013 A 
HETATM    3  N   UNL     1      -6.628   3.776 -32.029  1.00  0.00    -0.359 N 
HETATM    4  H   UNL     1      -7.549   4.121 -31.796  1.00  0.00     0.166 HD
HETATM    5  C   UNL     1      -6.246   2.459 -31.922  1.00  0.00     0.043 A 
HETATM    6  C   UNL     1      -4.918   2.382 -32.333  1.00  0.00     0.002 A 
HETATM    7  C   UNL     1      -4.500   3.706 -32.689  1.00  0.00    -0.015 A 
HETATM    8  C   UNL     1      -6.973   1.342 -31.497  1.00  0.00     0.033 A 
HETATM    9  C   UNL     1      -6.325   0.100 -31.501  1.00  0.00     0.039 A 
HETATM   10  C   UNL     1      -4.999  -0.019 -31.913  1.00  0.00     0.070 A 
HETATM   11  C   UNL     1      -4.289   1.119 -32.321  1.00  0.00     0.051 A 
ENDROOT
BRANCH   7  12
HETATM   12  C   UNL     1      -3.142   4.107 -33.181  1.00  0.00     0.146 C 
BRANCH  12  13
HETATM   13  C   UNL     1      -2.448   5.131 -32.302  1.00  0.00     0.240 C 
HETATM   14  N   UNL     1      -2.162   4.730 -31.011  1.00  0.00    -0.267 N 
HETATM   15  H   UNL     1      -2.684   3.974 -30.561  1.00  0.00     0.190 HD
HETATM   16  O   UNL     1      -2.077   6.225 -32.736  1.00  0.00    -0.272 OA
BRANCH  14  17
HETATM   17  N   UNL     1      -1.614   5.695 -30.149  1.00  0.00    -0.263 N 
HETATM   18  C   UNL     1      -0.303   5.535 -29.747  1.00  0.00     0.270 C 
HETATM   19  O   UNL     1       0.426   4.652 -30.194  1.00  0.00    -0.266 OA
HETATM   20  H   UNL     1      -2.298   6.216 -29.602  1.00  0.00     0.190 HD
BRANCH  18  21
HETATM   21  C   UNL     1       0.199   6.477 -28.710  1.00  0.00     0.036 A 
HETATM   22  C   UNL     1      -0.023   6.158 -27.369  1.00  0.00     0.036 A 
HETATM   23  C   UNL     1       0.446   7.029 -26.404  1.00  0.00     0.117 A 
HETATM   24  N   UNL     1       1.113   8.168 -26.685  1.00  0.00    -0.273 NA
HETATM   25  C   UNL     1       1.331   8.445 -27.987  1.00  0.00     0.117 A 
HETATM   26  C   UNL     1       0.903   7.640 -29.029  1.00  0.00     0.036 A 
ENDBRANCH  18  21
ENDBRANCH  14  17
ENDBRANCH  12  13
ENDBRANCH   7  12
BRANCH  10  27
HETATM   27  O   UNL     1      -4.276  -1.181 -31.970  1.00  0.00    -0.347 OA
BRANCH  27  28
HETATM   28  C   UNL     1      -3.758  -1.565 -33.245  1.00  0.00     0.214 C 
BRANCH  28  29
HETATM   29  C   UNL     1      -4.612  -2.647 -33.875  1.00  0.00    -0.034 A 
HETATM   30  C   UNL     1      -4.178  -3.977 -33.969  1.00  0.00     0.009 A 
HETATM   31  C   UNL     1      -5.003  -4.956 -34.529  1.00  0.00     0.001 A 
HETATM   32  C   UNL     1      -6.273  -4.620 -34.990  1.00  0.00     0.000 A 
HETATM   33  C   UNL     1      -6.724  -3.306 -34.890  1.00  0.00     0.001 A 
HETATM   34  C   UNL     1      -5.899  -2.326 -34.333  1.00  0.00     0.009 A 
ENDBRANCH  28  29
ENDBRANCH  27  28
ENDBRANCH  10  27
TORSDOF 7
ENDMDL
MODEL 3
REMARK VINA RESULT:      -9.5      4.483      7.412
REMARK  7 active torsions:
REMARK  status: ('A' for Active; 'I' for Inactive)
REMARK    1  A    between atoms: C_7  and  C_8 
REMARK    2  A    between atoms: C_8  and  C_9 
REMARK       I    between atoms: C_9  and  N_10 
REMARK    3  A    between atoms: N_10  and  N_11 
REMARK       I    between atoms: N_11  and  C_12 
REMARK    4  A    between atoms: C_12  and  C_13 
REMARK    5  A    between atoms: C_23  and  O_24 
REMARK    6  A    between atoms: O_24  and  C_25 
REMARK    7  A    between atoms: C_25  and  C_26 
ROOT
HETATM    1  C   UNL     1      -6.751  -3.032 -34.934  1.00  0.00     0.068 C 
HETATM    2  C   UNL     1      -6.124  -1.865 -34.261  1.00  0.00     0.013 A 
HETATM    3  N   UNL     1      -5.027  -2.010 -33.449  1.00  0.00    -0.359 N 
HETATM    4  H   UNL     1      -4.567  -2.886 -33.242  1.00  0.00     0.166 HD
HETATM    5  C   UNL     1      -4.627  -0.791 -32.955  1.00  0.00     0.043 A 
HETATM    6  C   UNL     1      -5.502   0.165 -33.463  1.00  0.00     0.002 A 
HETATM    7  C   UNL     1      -6.459  -0.519 -34.282  1.00  0.00    -0.015 A 
HETATM    8  C   UNL     1      -3.563  -0.468 -32.107  1.00  0.00     0.033 A 
HETATM    9  C   UNL     1      -3.380   0.880 -31.771  1.00  0.00     0.039 A 
HETATM   10  C   UNL     1      -4.230   1.868 -32.266  1.00  0.00     0.070 A 
HETATM   11  C   UNL     1      -5.297   1.515 -33.104  1.00  0.00     0.051 A 
ENDROOT
BRANCH   7  12
HETATM   12  C   UNL     1      -7.600   0.107 -35.027  1.00  0.00     0.146 C 
BRANCH  12  13
HETATM   13  C   UNL     1      -8.826   0.364 -34.170  1.00  0.00     0.240 C 
HETATM   14  N   UNL     1      -9.763   1.234 -34.695  1.00  0.00    -0.267 N 
HETATM   15  H   UNL     1      -9.507   1.926 -35.403  1.00  0.00     0.190 HD
HETATM   16  O   UNL     1      -9.023  -0.234 -33.108  1.00  0.00    -0.272 OA
BRANCH  14  17
HETATM   17  N   UNL     1     -10.855   1.567 -33.876  1.00  0.00    -0.263 N 
HETATM   18  C   UNL     1     -12.099   1.670 -34.466  1.00  0.00     0.270 C 
HETATM   19  O   UNL     1     -12.303   1.381 -35.642  1.00  0.00    -0.266 OA
HETATM   20  H   UNL     1     -10.610   2.057 -33.018  1.00  0.00     0.190 HD
BRANCH  18  21
HETATM   21  C   UNL     1     -13.205   2.182 -33.610  1.00  0.00     0.036 A 
HETATM   22  C   UNL     1     -14.331   1.375 -33.440  1.00  0.00     0.036 A 
HETATM   23  C   UNL     1     -15.357   1.845 -32.642  1.00  0.00     0.117 A 
HETATM   24  N   UNL     1     -15.328   3.038 -32.012  1.00  0.00    -0.273 NA
HETATM   25  C   UNL     1     -14.221   3.793 -32.179  1.00  0.00     0.117 A 
HETATM   26  C   UNL     1     -13.140   3.414 -32.956  1.00  0.00     0.036 A 
ENDBRANCH  18  21
ENDBRANCH  14  17
ENDBRANCH  12  13
ENDBRANCH   7  12
BRANCH  10  27
HETATM   27  O   UNL     1      -4.134   3.211 -32.015  1.00  0.00    -0.347 OA
BRANCH  27  28
HETATM   28  C   UNL     1      -2.899   3.688 -31.479  1.00  0.00     0.214 C 
BRANCH  28  29
HETATM   29  C   UNL     1      -2.242   4.675 -32.421  1.00  0.00    -0.034 A 
HETATM   30  C   UNL     1      -2.212   4.474 -33.809  1.00  0.00     0.009 A 
HETATM   31  C   UNL     1      -1.625   5.420 -34.652  1.00  0.00     0.001 A 
HETATM   32  C   UNL     1      -1.072   6.582 -34.121  1.00  0.00     0.000 A 
HETATM   33  C   UNL     1      -1.107   6.804 -32.747  1.00  0.00     0.001 A 
HETATM   34  C   UNL     1      -1.692   5.858 -31.902  1.00  0.00     0.009 A 
ENDBRANCH  28  29
ENDBRANCH  27  28
ENDBRANCH  10  27
TORSDOF 7
ENDMDL
MODEL 4
REMARK VINA RESULT:      -9.3      3.877      9.468
REMARK  7 active torsions:
REMARK  status: ('A' for Active; 'I' for Inactive)
REMARK    1  A    between atoms: C_7  and  C_8 
REMARK    2  A    between atoms: C_8  and  C_9 
REMARK       I    between atoms: C_9  and  N_10 
REMARK    3  A    between atoms: N_10  and  N_11 
REMARK       I    between atoms: N_11  and  C_12 
REMARK    4  A    between atoms: C_12  and  C_13 
REMARK    5  A    between atoms: C_23  and  O_24 
REMARK    6  A    between atoms: O_24  and  C_25 
REMARK    7  A    between atoms: C_25  and  C_26 
ROOT
HETATM    1  C   UNL     1     -10.707   4.589 -30.674  1.00  0.00     0.068 C 
HETATM    2  C   UNL     1      -9.879   3.442 -31.132  1.00  0.00     0.013 A 
HETATM    3  N   UNL     1     -10.352   2.537 -32.048  1.00  0.00    -0.359 N 
HETATM    4  H   UNL     1     -11.268   2.565 -32.476  1.00  0.00     0.166 HD
HETATM    5  C   UNL     1      -9.402   1.581 -32.318  1.00  0.00     0.043 A 
HETATM    6  C   UNL     1      -8.286   1.881 -31.541  1.00  0.00     0.002 A 
HETATM    7  C   UNL     1      -8.595   3.055 -30.780  1.00  0.00    -0.015 A 
HETATM    8  C   UNL     1      -9.447   0.485 -33.186  1.00  0.00     0.033 A 
HETATM    9  C   UNL     1      -8.310  -0.329 -33.272  1.00  0.00     0.039 A 
HETATM   10  C   UNL     1      -7.171  -0.057 -32.517  1.00  0.00     0.070 A 
HETATM   11  C   UNL     1      -7.157   1.041 -31.644  1.00  0.00     0.051 A 
ENDROOT
BRANCH   7  12
HETATM   12  C   UNL     1      -7.693   3.739 -29.797  1.00  0.00     0.146 C 
BRANCH  12  13
HETATM   13  C   UNL     1      -6.601   4.573 -30.442  1.00  0.00     0.240 C 
HETATM   14  N   UNL     1      -6.599   4.610 -31.823  1.00  0.00    -0.267 N 
HETATM   15  H   UNL     1      -7.038   3.869 -32.375  1.00  0.00     0.190 HD
HETATM   16  O   UNL     1      -5.814   5.252 -29.777  1.00  0.00    -0.272 OA
BRANCH  14  17
HETATM   17  N   UNL     1      -5.537   5.290 -32.443  1.00  0.00    -0.263 N 
HETATM   18  C   UNL     1      -4.453   4.547 -32.867  1.00  0.00     0.270 C 
HETATM   19  O   UNL     1      -4.429   3.320 -32.822  1.00  0.00    -0.266 OA
HETATM   20  H   UNL     1      -5.470   6.279 -32.209  1.00  0.00     0.190 HD
BRANCH  18  21
HETATM   21  C   UNL     1      -3.276   5.309 -33.370  1.00  0.00     0.036 A 
HETATM   22  C   UNL     1      -3.066   6.597 -32.873  1.00  0.00     0.036 A 
HETATM   23  C   UNL     1      -1.972   7.304 -33.333  1.00  0.00     0.117 A 
HETATM   24  N   UNL     1      -1.092   6.818 -34.233  1.00  0.00    -0.273 NA
HETATM   25  C   UNL     1      -1.307   5.565 -34.685  1.00  0.00     0.117 A 
HETATM   26  C   UNL     1      -2.371   4.774 -34.288  1.00  0.00     0.036 A 
ENDBRANCH  18  21
ENDBRANCH  14  17
ENDBRANCH  12  13
ENDBRANCH   7  12
BRANCH  10  27
HETATM   27  O   UNL     1      -6.005  -0.775 -32.534  1.00  0.00    -0.347 OA
BRANCH  27  28
HETATM   28  C   UNL     1      -5.377  -0.970 -33.802  1.00  0.00     0.214 C 
BRANCH  28  29
HETATM   29  C   UNL     1      -5.279  -2.443 -34.140  1.00  0.00    -0.034 A 
HETATM   30  C   UNL     1      -4.144  -3.205 -33.827  1.00  0.00     0.009 A 
HETATM   31  C   UNL     1      -4.099  -4.569 -34.125  1.00  0.00     0.001 A 
HETATM   32  C   UNL     1      -5.190  -5.190 -34.726  1.00  0.00     0.000 A 
HETATM   33  C   UNL     1      -6.330  -4.451 -35.029  1.00  0.00     0.001 A 
HETATM   34  C   UNL     1      -6.377  -3.086 -34.734  1.00  0.00     0.009 A 
ENDBRANCH  28  29
ENDBRANCH  27  28
ENDBRANCH  10  27
TORSDOF 7
ENDMDL
MODEL 5
REMARK VINA RESULT:      -9.2      3.634     10.125
REMARK  7 active torsions:
REMARK  status: ('A' for Active; 'I' for Inactive)
REMARK    1  A    between atoms: C_7  and  C_8 
REMARK    2  A    between atoms: C_8  and  C_9 
REMARK       I    between atoms: C_9  and  N_10 
REMARK    3  A    between atoms: N_10  and  N_11 
REMARK       I    between atoms: N_11  and  C_12 
REMARK    4  A    between atoms: C_12  and  C_13 
REMARK    5  A    between atoms: C_23  and  O_24 
REMARK    6  A    between atoms: O_24  and  C_25 
REMARK    7  A    between atoms: C_25  and  C_26 
ROOT
HETATM    1  C   UNL     1      -3.052  -2.259 -31.965  1.00  0.00     0.068 C 
HETATM    2  C   UNL     1      -4.222  -1.532 -32.523  1.00  0.00     0.013 A 
HETATM    3  N   UNL     1      -4.798  -1.905 -33.711  1.00  0.00    -0.359 N 
HETATM    4  H   UNL     1      -4.492  -2.675 -34.291  1.00  0.00     0.166 HD
HETATM    5  C   UNL     1      -5.866  -1.092 -34.007  1.00  0.00     0.043 A 
HETATM    6  C   UNL     1      -5.971  -0.161 -32.978  1.00  0.00     0.002 A 
HETATM    7  C   UNL     1      -4.920  -0.434 -32.042  1.00  0.00    -0.015 A 
HETATM    8  C   UNL     1      -6.739  -1.113 -35.100  1.00  0.00     0.033 A 
HETATM    9  C   UNL     1      -7.762  -0.157 -35.139  1.00  0.00     0.039 A 
HETATM   10  C   UNL     1      -7.905   0.786 -34.123  1.00  0.00     0.070 A 
HETATM   11  C   UNL     1      -7.008   0.794 -33.045  1.00  0.00     0.051 A 
ENDROOT
BRANCH   7  12
HETATM   12  C   UNL     1      -4.638   0.321 -30.779  1.00  0.00     0.146 C 
BRANCH  12  13
HETATM   13  C   UNL     1      -3.873   1.615 -30.993  1.00  0.00     0.240 C 
HETATM   14  N   UNL     1      -4.601   2.782 -30.855  1.00  0.00    -0.267 N 
HETATM   15  H   UNL     1      -5.618   2.790 -30.968  1.00  0.00     0.190 HD
HETATM   16  O   UNL     1      -2.655   1.634 -31.191  1.00  0.00    -0.272 OA
BRANCH  14  17
HETATM   17  N   UNL     1      -3.941   3.986 -31.151  1.00  0.00    -0.263 N 
HETATM   18  C   UNL     1      -4.022   4.468 -32.443  1.00  0.00     0.270 C 
HETATM   19  O   UNL     1      -4.728   3.950 -33.303  1.00  0.00    -0.266 OA
HETATM   20  H   UNL     1      -3.171   4.215 -30.525  1.00  0.00     0.190 HD
BRANCH  18  21
HETATM   21  C   UNL     1      -3.182   5.654 -32.767  1.00  0.00     0.036 A 
HETATM   22  C   UNL     1      -3.131   6.697 -31.840  1.00  0.00     0.036 A 
HETATM   23  C   UNL     1      -2.348   7.796 -32.136  1.00  0.00     0.117 A 
HETATM   24  N   UNL     1      -1.624   7.916 -33.269  1.00  0.00    -0.273 NA
HETATM   25  C   UNL     1      -1.676   6.887 -34.141  1.00  0.00     0.117 A 
HETATM   26  C   UNL     1      -2.428   5.743 -33.939  1.00  0.00     0.036 A 
ENDBRANCH  18  21
ENDBRANCH  14  17
ENDBRANCH  12  13
ENDBRANCH   7  12
BRANCH  10  27
HETATM   27  O   UNL     1      -8.873   1.752 -34.053  1.00  0.00    -0.347 OA
BRANCH  27  28
HETATM   28  C   UNL     1      -9.856   1.618 -33.025  1.00  0.00     0.214 C 
BRANCH  28  29
HETATM   29  C   UNL     1     -11.235   1.402 -33.615  1.00  0.00    -0.034 A 
HETATM   30  C   UNL     1     -11.781   2.272 -34.570  1.00  0.00     0.009 A 
HETATM   31  C   UNL     1     -13.043   2.027 -35.116  1.00  0.00     0.001 A 
HETATM   32  C   UNL     1     -13.767   0.904 -34.726  1.00  0.00     0.000 A 
HETATM   33  C   UNL     1     -13.232   0.022 -33.791  1.00  0.00     0.001 A 
HETATM   34  C   UNL     1     -11.972   0.267 -33.242  1.00  0.00     0.009 A 
ENDBRANCH  28  29
ENDBRANCH  27  28
ENDBRANCH  10  27
TORSDOF 7
ENDMDL
MODEL 6
REMARK VINA RESULT:      -9.2      5.291      9.283
REMARK  7 active torsions:
REMARK  status: ('A' for Active; 'I' for Inactive)
REMARK    1  A    between atoms: C_7  and  C_8 
REMARK    2  A    between atoms: C_8  and  C_9 
REMARK       I    between atoms: C_9  and  N_10 
REMARK    3  A    between atoms: N_10  and  N_11 
REMARK       I    between atoms: N_11  and  C_12 
REMARK    4  A    between atoms: C_12  and  C_13 
REMARK    5  A    between atoms: C_23  and  O_24 
REMARK    6  A    between atoms: O_24  and  C_25 
REMARK    7  A    between atoms: C_25  and  C_26 
ROOT
HETATM    1  C   UNL     1      -6.706   5.186 -28.811  1.00  0.00     0.068 C 
HETATM    2  C   UNL     1      -6.375   4.108 -29.779  1.00  0.00     0.013 A 
HETATM    3  N   UNL     1      -5.447   3.141 -29.484  1.00  0.00    -0.359 N 
HETATM    4  H   UNL     1      -4.925   3.078 -28.621  1.00  0.00     0.166 HD
HETATM    5  C   UNL     1      -5.326   2.254 -30.527  1.00  0.00     0.043 A 
HETATM    6  C   UNL     1      -6.200   2.673 -31.526  1.00  0.00     0.002 A 
HETATM    7  C   UNL     1      -6.857   3.856 -31.055  1.00  0.00    -0.015 A 
HETATM    8  C   UNL     1      -4.515   1.121 -30.657  1.00  0.00     0.033 A 
HETATM    9  C   UNL     1      -4.606   0.384 -31.845  1.00  0.00     0.039 A 
HETATM   10  C   UNL     1      -5.476   0.766 -32.865  1.00  0.00     0.070 A 
HETATM   11  C   UNL     1      -6.268   1.914 -32.714  1.00  0.00     0.051 A 
ENDROOT
BRANCH   7  12
HETATM   12  C   UNL     1      -7.878   4.661 -31.800  1.00  0.00     0.146 C 
BRANCH  12  13
HETATM   13  C   UNL     1      -9.302   4.168 -31.617  1.00  0.00     0.240 C 
HETATM   14  N   UNL     1      -9.728   3.197 -32.505  1.00  0.00    -0.267 N 
HETATM   15  H   UNL     1      -9.283   3.081 -33.418  1.00  0.00     0.190 HD
HETATM   16  O   UNL     1     -10.013   4.542 -30.680  1.00  0.00    -0.272 OA
BRANCH  14  17
HETATM   17  N   UNL     1     -11.073   2.801 -32.421  1.00  0.00    -0.263 N 
HETATM   18  C   UNL     1     -11.626   2.153 -33.508  1.00  0.00     0.270 C 
HETATM   19  O   UNL     1     -10.966   1.818 -34.488  1.00  0.00    -0.266 OA
HETATM   20  H   UNL     1     -11.631   3.327 -31.751  1.00  0.00     0.190 HD
BRANCH  18  21
HETATM   21  C   UNL     1     -13.090   1.891 -33.457  1.00  0.00     0.036 A 
HETATM   22  C   UNL     1     -13.628   0.981 -34.369  1.00  0.00     0.036 A 
HETATM   23  C   UNL     1     -14.986   0.732 -34.321  1.00  0.00     0.117 A 
HETATM   24  N   UNL     1     -15.822   1.315 -33.437  1.00  0.00    -0.273 NA
HETATM   25  C   UNL     1     -15.276   2.179 -32.555  1.00  0.00     0.117 A 
HETATM   26  C   UNL     1     -13.930   2.496 -32.519  1.00  0.00     0.036 A 
ENDBRANCH  18  21
ENDBRANCH  14  17
ENDBRANCH  12  13
ENDBRANCH   7  12
BRANCH  10  27
HETATM   27  O   UNL     1      -5.656   0.114 -34.056  1.00  0.00    -0.347 OA
BRANCH  27  28
HETATM   28  C   UNL     1      -6.672  -0.890 -34.103  1.00  0.00     0.214 C 
BRANCH  28  29
HETATM   29  C   UNL     1      -6.068  -2.265 -34.300  1.00  0.00    -0.034 A 
HETATM   30  C   UNL     1      -4.721  -2.535 -34.020  1.00  0.00     0.009 A 
HETATM   31  C   UNL     1      -4.204  -3.822 -34.185  1.00  0.00     0.001 A 
HETATM   32  C   UNL     1      -5.029  -4.857 -34.618  1.00  0.00     0.000 A 
HETATM   33  C   UNL     1      -6.372  -4.608 -34.886  1.00  0.00     0.001 A 
HETATM   34  C   UNL     1      -6.890  -3.321 -34.725  1.00  0.00     0.009 A 
ENDBRANCH  28  29
ENDBRANCH  27  28
ENDBRANCH  10  27
TORSDOF 7
ENDMDL
MODEL 7
REMARK VINA RESULT:      -9.1      2.885     10.382
REMARK  7 active torsions:
REMARK  status: ('A' for Active; 'I' for Inactive)
REMARK    1  A    between atoms: C_7  and  C_8 
REMARK    2  A    between atoms: C_8  and  C_9 
REMARK       I    between atoms: C_9  and  N_10 
REMARK    3  A    between atoms: N_10  and  N_11 
REMARK       I    between atoms: N_11  and  C_12 
REMARK    4  A    between atoms: C_12  and  C_13 
REMARK    5  A    between atoms: C_23  and  O_24 
REMARK    6  A    between atoms: O_24  and  C_25 
REMARK    7  A    between atoms: C_25  and  C_26 
ROOT
HETATM    1  C   UNL     1      -1.963   7.334 -33.949  1.00  0.00     0.068 C 
HETATM    2  C   UNL     1      -2.605   6.052 -33.554  1.00  0.00     0.013 A 
HETATM    3  N   UNL     1      -3.899   5.761 -33.904  1.00  0.00    -0.359 N 
HETATM    4  H   UNL     1      -4.509   6.366 -34.436  1.00  0.00     0.166 HD
HETATM    5  C   UNL     1      -4.258   4.520 -33.436  1.00  0.00     0.043 A 
HETATM    6  C   UNL     1      -3.159   4.002 -32.757  1.00  0.00     0.002 A 
HETATM    7  C   UNL     1      -2.113   4.981 -32.823  1.00  0.00    -0.015 A 
HETATM    8  C   UNL     1      -5.464   3.823 -33.565  1.00  0.00     0.033 A 
HETATM    9  C   UNL     1      -5.548   2.548 -32.988  1.00  0.00     0.039 A 
HETATM   10  C   UNL     1      -4.466   1.993 -32.309  1.00  0.00     0.070 A 
HETATM   11  C   UNL     1      -3.272   2.719 -32.183  1.00  0.00     0.051 A 
ENDROOT
BRANCH   7  12
HETATM   12  C   UNL     1      -0.745   4.861 -32.222  1.00  0.00     0.146 C 
BRANCH  12  13
HETATM   13  C   UNL     1      -0.454   5.892 -31.146  1.00  0.00     0.240 C 
HETATM   14  N   UNL     1      -1.006   5.647 -29.903  1.00  0.00    -0.267 N 
HETATM   15  H   UNL     1      -1.827   5.047 -29.795  1.00  0.00     0.190 HD
HETATM   16  O   UNL     1       0.303   6.847 -31.340  1.00  0.00    -0.272 OA
BRANCH  14  17
HETATM   17  N   UNL     1      -0.836   6.638 -28.922  1.00  0.00    -0.263 N 
HETATM   18  C   UNL     1       0.230   6.514 -28.053  1.00  0.00     0.270 C 
HETATM   19  O   UNL     1       1.086   5.641 -28.172  1.00  0.00    -0.266 OA
HETATM   20  H   UNL     1      -1.683   7.152 -28.685  1.00  0.00     0.190 HD
BRANCH  18  21
HETATM   21  C   UNL     1       0.291   7.485 -26.927  1.00  0.00     0.036 A 
HETATM   22  C   UNL     1       1.527   7.706 -26.316  1.00  0.00     0.036 A 
HETATM   23  C   UNL     1       1.589   8.611 -25.273  1.00  0.00     0.117 A 
HETATM   24  N   UNL     1       0.521   9.298 -24.816  1.00  0.00    -0.273 NA
HETATM   25  C   UNL     1      -0.659   9.080 -25.433  1.00  0.00     0.117 A 
HETATM   26  C   UNL     1      -0.826   8.196 -26.486  1.00  0.00     0.036 A 
ENDBRANCH  18  21
ENDBRANCH  14  17
ENDBRANCH  12  13
ENDBRANCH   7  12
BRANCH  10  27
HETATM   27  O   UNL     1      -4.434   0.755 -31.723  1.00  0.00    -0.347 OA
BRANCH  27  28
HETATM   28  C   UNL     1      -5.634  -0.018 -31.765  1.00  0.00     0.214 C 
BRANCH  28  29
HETATM   29  C   UNL     1      -5.597  -1.019 -32.901  1.00  0.00    -0.034 A 
HETATM   30  C   UNL     1      -4.426  -1.711 -33.246  1.00  0.00     0.009 A 
HETATM   31  C   UNL     1      -4.433  -2.651 -34.280  1.00  0.00     0.001 A 
HETATM   32  C   UNL     1      -5.611  -2.920 -34.972  1.00  0.00     0.000 A 
HETATM   33  C   UNL     1      -6.785  -2.252 -34.631  1.00  0.00     0.001 A 
HETATM   34  C   UNL     1      -6.779  -1.311 -33.600  1.00  0.00     0.009 A 
ENDBRANCH  28  29
ENDBRANCH  27  28
ENDBRANCH  10  27
TORSDOF 7
ENDMDL
MODEL 8
REMARK VINA RESULT:      -8.8      1.315      2.020
REMARK  7 active torsions:
REMARK  status: ('A' for Active; 'I' for Inactive)
REMARK    1  A    between atoms: C_7  and  C_8 
REMARK    2  A    between atoms: C_8  and  C_9 
REMARK       I    between atoms: C_9  and  N_10 
REMARK    3  A    between atoms: N_10  and  N_11 
REMARK       I    between atoms: N_11  and  C_12 
REMARK    4  A    between atoms: C_12  and  C_13 
REMARK    5  A    between atoms: C_23  and  O_24 
REMARK    6  A    between atoms: O_24  and  C_25 
REMARK    7  A    between atoms: C_25  and  C_26 
ROOT
HETATM    1  C   UNL     1      -4.809   5.111 -34.298  1.00  0.00     0.068 C 
HETATM    2  C   UNL     1      -3.643   5.325 -33.401  1.00  0.00     0.013 A 
HETATM    3  N   UNL     1      -2.712   6.301 -33.655  1.00  0.00    -0.359 N 
HETATM    4  H   UNL     1      -2.733   6.934 -34.443  1.00  0.00     0.166 HD
HETATM    5  C   UNL     1      -1.743   6.309 -32.681  1.00  0.00     0.043 A 
HETATM    6  C   UNL     1      -2.059   5.298 -31.778  1.00  0.00     0.002 A 
HETATM    7  C   UNL     1      -3.259   4.667 -32.242  1.00  0.00    -0.015 A 
HETATM    8  C   UNL     1      -0.620   7.130 -32.535  1.00  0.00     0.033 A 
HETATM    9  C   UNL     1       0.204   6.919 -31.422  1.00  0.00     0.039 A 
HETATM   10  C   UNL     1      -0.085   5.924 -30.490  1.00  0.00     0.070 A 
HETATM   11  C   UNL     1      -1.209   5.105 -30.668  1.00  0.00     0.051 A 
ENDROOT
BRANCH   7  12
HETATM   12  C   UNL     1      -3.968   3.518 -31.590  1.00  0.00     0.146 C 
BRANCH  12  13
HETATM   13  C   UNL     1      -3.936   2.235 -32.400  1.00  0.00     0.240 C 
HETATM   14  N   UNL     1      -5.146   1.812 -32.917  1.00  0.00    -0.267 N 
HETATM   15  H   UNL     1      -6.033   2.105 -32.501  1.00  0.00     0.190 HD
HETATM   16  O   UNL     1      -2.882   1.649 -32.661  1.00  0.00    -0.272 OA
BRANCH  14  17
HETATM   17  N   UNL     1      -5.159   0.574 -33.582  1.00  0.00    -0.263 N 
HETATM   18  C   UNL     1      -5.957  -0.429 -33.067  1.00  0.00     0.270 C 
HETATM   19  O   UNL     1      -6.726  -0.249 -32.127  1.00  0.00    -0.266 OA
HETATM   20  H   UNL     1      -4.334   0.386 -34.148  1.00  0.00     0.190 HD
BRANCH  18  21
HETATM   21  C   UNL     1      -5.827  -1.773 -33.692  1.00  0.00     0.036 A 
HETATM   22  C   UNL     1      -4.578  -2.398 -33.654  1.00  0.00     0.036 A 
HETATM   23  C   UNL     1      -4.455  -3.648 -34.229  1.00  0.00     0.117 A 
HETATM   24  N   UNL     1      -5.477  -4.304 -34.820  1.00  0.00    -0.273 NA
HETATM   25  C   UNL     1      -6.677  -3.687 -34.829  1.00  0.00     0.117 A 
HETATM   26  C   UNL     1      -6.905  -2.436 -34.281  1.00  0.00     0.036 A 
ENDBRANCH  18  21
ENDBRANCH  14  17
ENDBRANCH  12  13
ENDBRANCH   7  12
BRANCH  10  27
HETATM   27  O   UNL     1       0.641   5.642 -29.363  1.00  0.00    -0.347 OA
BRANCH  27  28
HETATM   28  C   UNL     1       0.020   5.907 -28.104  1.00  0.00     0.214 C 
BRANCH  28  29
HETATM   29  C   UNL     1       0.139   7.371 -27.736  1.00  0.00    -0.034 A 
HETATM   30  C   UNL     1      -0.986   8.168 -27.477  1.00  0.00     0.009 A 
HETATM   31  C   UNL     1      -0.839   9.508 -27.110  1.00  0.00     0.001 A 
HETATM   32  C   UNL     1       0.432  10.064 -26.985  1.00  0.00     0.000 A 
HETATM   33  C   UNL     1       1.559   9.281 -27.225  1.00  0.00     0.001 A 
HETATM   34  C   UNL     1       1.414   7.942 -27.594  1.00  0.00     0.009 A 
ENDBRANCH  28  29
ENDBRANCH  27  28
ENDBRANCH  10  27
TORSDOF 7
ENDMDL
MODEL 9
REMARK VINA RESULT:      -8.7      2.833      4.777
REMARK  7 active torsions:
REMARK  status: ('A' for Active; 'I' for Inactive)
REMARK    1  A    between atoms: C_7  and  C_8 
REMARK    2  A    between atoms: C_8  and  C_9 
REMARK       I    between atoms: C_9  and  N_10 
REMARK    3  A    between atoms: N_10  and  N_11 
REMARK       I    between atoms: N_11  and  C_12 
REMARK    4  A    between atoms: C_12  and  C_13 
REMARK    5  A    between atoms: C_23  and  O_24 
REMARK    6  A    between atoms: O_24  and  C_25 
REMARK    7  A    between atoms: C_25  and  C_26 
ROOT
HETATM    1  C   UNL     1     -11.076   3.377 -32.285  1.00  0.00     0.068 C 
HETATM    2  C   UNL     1      -9.646   3.484 -31.892  1.00  0.00     0.013 A 
HETATM    3  N   UNL     1      -9.277   3.870 -30.628  1.00  0.00    -0.359 N 
HETATM    4  H   UNL     1      -9.916   4.108 -29.881  1.00  0.00     0.166 HD
HETATM    5  C   UNL     1      -7.908   3.882 -30.507  1.00  0.00     0.043 A 
HETATM    6  C   UNL     1      -7.383   3.498 -31.738  1.00  0.00     0.002 A 
HETATM    7  C   UNL     1      -8.487   3.258 -32.620  1.00  0.00    -0.015 A 
HETATM    8  C   UNL     1      -7.103   4.199 -29.407  1.00  0.00     0.033 A 
HETATM    9  C   UNL     1      -5.714   4.113 -29.567  1.00  0.00     0.039 A 
HETATM   10  C   UNL     1      -5.151   3.724 -30.781  1.00  0.00     0.070 A 
HETATM   11  C   UNL     1      -5.980   3.424 -31.871  1.00  0.00     0.051 A 
ENDROOT
BRANCH   7  12
HETATM   12  C   UNL     1      -8.401   2.831 -34.054  1.00  0.00     0.146 C 
BRANCH  12  13
HETATM   13  C   UNL     1      -8.243   1.334 -34.243  1.00  0.00     0.240 C 
HETATM   14  N   UNL     1      -6.946   0.867 -34.341  1.00  0.00    -0.267 N 
HETATM   15  H   UNL     1      -6.182   1.479 -34.635  1.00  0.00     0.190 HD
HETATM   16  O   UNL     1      -9.207   0.563 -34.220  1.00  0.00    -0.272 OA
BRANCH  14  17
HETATM   17  N   UNL     1      -6.779  -0.500 -34.620  1.00  0.00    -0.263 N 
HETATM   18  C   UNL     1      -6.006  -1.248 -33.753  1.00  0.00     0.270 C 
HETATM   19  O   UNL     1      -5.555  -0.794 -32.705  1.00  0.00    -0.266 OA
HETATM   20  H   UNL     1      -6.916  -0.756 -35.596  1.00  0.00     0.190 HD
BRANCH  18  21
HETATM   21  C   UNL     1      -5.713  -2.650 -34.159  1.00  0.00     0.036 A 
HETATM   22  C   UNL     1      -6.716  -3.369 -34.810  1.00  0.00     0.036 A 
HETATM   23  C   UNL     1      -6.445  -4.669 -35.192  1.00  0.00     0.117 A 
HETATM   24  N   UNL     1      -5.262  -5.281 -34.977  1.00  0.00    -0.273 NA
HETATM   25  C   UNL     1      -4.302  -4.559 -34.361  1.00  0.00     0.117 A 
HETATM   26  C   UNL     1      -4.472  -3.252 -33.939  1.00  0.00     0.036 A 
ENDBRANCH  18  21
ENDBRANCH  14  17
ENDBRANCH  12  13
ENDBRANCH   7  12
BRANCH  10  27
HETATM   27  O   UNL     1      -3.813   3.592 -31.041  1.00  0.00    -0.347 OA
BRANCH  27  28
HETATM   28  C   UNL     1      -3.429   3.412 -32.405  1.00  0.00     0.214 C 
BRANCH  28  29
HETATM   29  C   UNL     1      -2.517   4.531 -32.866  1.00  0.00    -0.034 A 
HETATM   30  C   UNL     1      -1.890   5.400 -31.962  1.00  0.00     0.009 A 
HETATM   31  C   UNL     1      -1.031   6.403 -32.419  1.00  0.00     0.001 A 
HETATM   32  C   UNL     1      -0.780   6.541 -33.782  1.00  0.00     0.000 A 
HETATM   33  C   UNL     1      -1.383   5.675 -34.691  1.00  0.00     0.001 A 
HETATM   34  C   UNL     1      -2.244   4.674 -34.236  1.00  0.00     0.009 A 
ENDBRANCH  28  29
ENDBRANCH  27  28
ENDBRANCH  10  27
TORSDOF 7
ENDMDL
MODEL 10
REMARK VINA RESULT:      -8.7      1.687      2.726
REMARK  7 active torsions:
REMARK  status: ('A' for Active; 'I' for Inactive)
REMARK    1  A    between atoms: C_7  and  C_8 
REMARK    2  A    between atoms: C_8  and  C_9 
REMARK       I    between atoms: C_9  and  N_10 
REMARK    3  A    between atoms: N_10  and  N_11 
REMARK       I    between atoms: N_11  and  C_12 
REMARK    4  A    between atoms: C_12  and  C_13 
REMARK    5  A    between atoms: C_23  and  O_24 
REMARK    6  A    between atoms: O_24  and  C_25 
REMARK    7  A    between atoms: C_25  and  C_26 
ROOT
HETATM    1  C   UNL     1      -4.033   5.088 -35.287  1.00  0.00     0.068 C 
HETATM    2  C   UNL     1      -3.235   5.385 -34.068  1.00  0.00     0.013 A 
HETATM    3  N   UNL     1      -1.975   5.920 -34.149  1.00  0.00    -0.359 N 
HETATM    4  H   UNL     1      -1.493   6.151 -35.008  1.00  0.00     0.166 HD
HETATM    5  C   UNL     1      -1.450   6.114 -32.894  1.00  0.00     0.043 A 
HETATM    6  C   UNL     1      -2.404   5.679 -31.978  1.00  0.00     0.002 A 
HETATM    7  C   UNL     1      -3.532   5.206 -32.725  1.00  0.00    -0.015 A 
HETATM    8  C   UNL     1      -0.213   6.638 -32.505  1.00  0.00     0.033 A 
HETATM    9  C   UNL     1       0.057   6.731 -31.133  1.00  0.00     0.039 A 
HETATM   10  C   UNL     1      -0.877   6.315 -30.186  1.00  0.00     0.070 A 
HETATM   11  C   UNL     1      -2.105   5.780 -30.603  1.00  0.00     0.051 A 
ENDROOT
BRANCH   7  12
HETATM   12  C   UNL     1      -4.797   4.635 -32.158  1.00  0.00     0.146 C 
BRANCH  12  13
HETATM   13  C   UNL     1      -5.061   3.198 -32.568  1.00  0.00     0.240 C 
HETATM   14  N   UNL     1      -4.338   2.230 -31.896  1.00  0.00    -0.267 N 
HETATM   15  H   UNL     1      -3.452   2.453 -31.437  1.00  0.00     0.190 HD
HETATM   16  O   UNL     1      -5.932   2.898 -33.390  1.00  0.00    -0.272 OA
BRANCH  14  17
HETATM   17  N   UNL     1      -4.489   0.903 -32.330  1.00  0.00    -0.263 N 
HETATM   18  C   UNL     1      -3.560  -0.027 -31.905  1.00  0.00     0.270 C 
HETATM   19  O   UNL     1      -2.683   0.237 -31.088  1.00  0.00    -0.266 OA
HETATM   20  H   UNL     1      -5.025   0.794 -33.189  1.00  0.00     0.190 HD
BRANCH  18  21
HETATM   21  C   UNL     1      -3.650  -1.385 -32.509  1.00  0.00     0.036 A 
HETATM   22  C   UNL     1      -3.067  -2.450 -31.819  1.00  0.00     0.036 A 
HETATM   23  C   UNL     1      -3.153  -3.713 -32.374  1.00  0.00     0.117 A 
HETATM   24  N   UNL     1      -3.774  -3.975 -33.543  1.00  0.00    -0.273 NA
HETATM   25  C   UNL     1      -4.343  -2.932 -34.182  1.00  0.00     0.117 A 
HETATM   26  C   UNL     1      -4.314  -1.631 -33.712  1.00  0.00     0.036 A 
ENDBRANCH  18  21
ENDBRANCH  14  17
ENDBRANCH  12  13
ENDBRANCH   7  12
BRANCH  10  27
HETATM   27  O   UNL     1      -0.725   6.375 -28.826  1.00  0.00    -0.347 OA
BRANCH  27  28
HETATM   28  C   UNL     1       0.611   6.410 -28.321  1.00  0.00     0.214 C 
BRANCH  28  29
HETATM   29  C   UNL     1       0.842   7.650 -27.482  1.00  0.00    -0.034 A 
HETATM   30  C   UNL     1       1.810   7.692 -26.467  1.00  0.00     0.009 A 
HETATM   31  C   UNL     1       2.019   8.862 -25.732  1.00  0.00     0.001 A 
HETATM   32  C   UNL     1       1.274  10.005 -26.010  1.00  0.00     0.000 A 
HETATM   33  C   UNL     1       0.320   9.983 -27.025  1.00  0.00     0.001 A 
HETATM   34  C   UNL     1       0.108   8.814 -27.759  1.00  0.00     0.009 A 
ENDBRANCH  28  29
ENDBRANCH  27  28
ENDBRANCH  10  27
TORSDOF 7
ENDMDL
