MODEL 1
REMARK VINA RESULT:      -8.4      0.000      0.000
REMARK  7 active torsions:
REMARK  status: ('A' for Active; 'I' for Inactive)
REMARK    1  A    between atoms: C_3  and  C_4 
REMARK    2  A    between atoms: C_4  and  N_5 
REMARK    3  A    between atoms: C_4  and  C_9 
REMARK       I    between atoms: N_5  and  C_6 
REMARK       I    between atoms: C_6  and  N_7 
REMARK    4  A    between atoms: C_9  and  C_10 
REMARK       I    between atoms: C_10  and  N_11 
REMARK    5  A    between atoms: N_11  and  C_12 
REMARK    6  A    between atoms: C_12  and  C_13 
REMARK    7  A    between atoms: C_13  and  N_14 
ROOT
HETATM    1  C   UNL     1      -3.402  -0.422 -33.070  1.00  0.00     0.132 C 
ENDROOT
BRANCH   1   2
HETATM    2  C   UNL     1      -4.883  -0.829 -33.058  1.00  0.00     0.128 C 
BRANCH   2   3
HETATM    3  C   UNL     1      -5.144  -2.179 -33.727  1.00  0.00    -0.029 A 
HETATM    4  C   UNL     1      -6.309  -2.432 -34.487  1.00  0.00    -0.054 A 
HETATM    5  C   UNL     1      -7.386  -1.399 -34.684  1.00  0.00     0.049 C 
HETATM    6  C   UNL     1      -6.489  -3.697 -35.075  1.00  0.00     0.007 A 
HETATM    7  C   UNL     1      -5.541  -4.706 -34.913  1.00  0.00     0.001 A 
HETATM    8  C   UNL     1      -4.400  -4.469 -34.160  1.00  0.00     0.001 A 
HETATM    9  C   UNL     1      -4.204  -3.219 -33.572  1.00  0.00     0.010 A 
ENDBRANCH   2   3
BRANCH   2  10
HETATM   10  N   UNL     1      -5.511  -0.783 -31.741  1.00  0.00    -0.334 N 
HETATM   11  C   UNL     1      -6.456   0.114 -31.355  1.00  0.00     0.314 C 
HETATM   12  N   UNL     1      -6.801  -0.014 -30.051  1.00  0.00    -0.352 N 
HETATM   13  O   UNL     1      -7.002   0.931 -32.080  1.00  0.00    -0.248 OA
HETATM   14  H   UNL     1      -6.101  -0.285 -29.378  1.00  0.00     0.160 HD
HETATM   15  H   UNL     1      -7.452   0.691 -29.726  1.00  0.00     0.160 HD
HETATM   16  H   UNL     1      -5.060  -1.304 -31.004  1.00  0.00     0.165 HD
ENDBRANCH   2  10
ENDBRANCH   1   2
BRANCH   1  17
HETATM   17  C   UNL     1      -3.116   0.590 -31.986  1.00  0.00     0.219 C 
HETATM   18  N   UNL     1      -3.448   1.889 -32.289  1.00  0.00    -0.359 N 
HETATM   19  H   UNL     1      -4.027   2.010 -33.118  1.00  0.00     0.162 HD
HETATM   20  O   UNL     1      -2.562   0.292 -30.931  1.00  0.00    -0.274 OA
BRANCH  18  21
HETATM   21  C   UNL     1      -3.454   3.016 -31.358  1.00  0.00     0.150 C 
BRANCH  21  22
HETATM   22  C   UNL     1      -2.975   4.404 -31.841  1.00  0.00     0.254 C 
BRANCH  22  23
HETATM   23  N   UNL     1      -2.555   5.329 -30.728  1.00  0.00    -0.065 N 
HETATM   24  H   UNL     1      -2.688   4.759 -29.871  1.00  0.00     0.280 HD
HETATM   25  C   UNL     1      -1.105   5.752 -30.758  1.00  0.00     0.274 C 
HETATM   26  C   UNL     1      -0.801   6.760 -29.699  1.00  0.00    -0.019 A 
HETATM   27  C   UNL     1      -1.796   7.427 -29.010  1.00  0.00    -0.008 A 
HETATM   28  C   UNL     1       0.494   7.181 -29.263  1.00  0.00     0.017 A 
HETATM   29  S   UNL     1      -1.192   8.525 -27.863  1.00  0.00    -0.106 SA
HETATM   30  C   UNL     1      -3.260   7.207 -29.210  1.00  0.00     0.074 C 
HETATM   31  C   UNL     1       0.424   8.136 -28.270  1.00  0.00     0.051 A 
HETATM   32  C   UNL     1      -3.502   6.508 -30.559  1.00  0.00     0.240 C 
ENDBRANCH  22  23
ENDBRANCH  21  22
ENDBRANCH  18  21
ENDBRANCH   1  17
TORSDOF 7
ENDMDL
MODEL 2
REMARK VINA RESULT:      -8.4      2.845      4.183
REMARK  7 active torsions:
REMARK  status: ('A' for Active; 'I' for Inactive)
REMARK    1  A    between atoms: C_3  and  C_4 
REMARK    2  A    between atoms: C_4  and  N_5 
REMARK    3  A    between atoms: C_4  and  C_9 
REMARK       I    between atoms: N_5  and  C_6 
REMARK       I    between atoms: C_6  and  N_7 
REMARK    4  A    between atoms: C_9  and  C_10 
REMARK       I    between atoms: C_10  and  N_11 
REMARK    5  A    between atoms: N_11  and  C_12 
REMARK    6  A    between atoms: C_12  and  C_13 
REMARK    7  A    between atoms: C_13  and  N_14 
ROOT
HETATM    1  C   UNL     1      -6.928  -0.295 -31.629  1.00  0.00     0.132 C 
ENDROOT
BRANCH   1   2
HETATM    2  C   UNL     1      -6.883  -0.283 -33.164  1.00  0.00     0.128 C 
BRANCH   2   3
HETATM    3  C   UNL     1      -6.289  -1.558 -33.762  1.00  0.00    -0.029 A 
HETATM    4  C   UNL     1      -4.894  -1.781 -33.829  1.00  0.00    -0.054 A 
HETATM    5  C   UNL     1      -3.889  -0.777 -33.330  1.00  0.00     0.049 C 
HETATM    6  C   UNL     1      -4.412  -2.976 -34.394  1.00  0.00     0.007 A 
HETATM    7  C   UNL     1      -5.287  -3.938 -34.895  1.00  0.00     0.001 A 
HETATM    8  C   UNL     1      -6.657  -3.721 -34.843  1.00  0.00     0.001 A 
HETATM    9  C   UNL     1      -7.152  -2.543 -34.284  1.00  0.00     0.010 A 
ENDBRANCH   2   3
BRANCH   2  10
HETATM   10  N   UNL     1      -8.157   0.035 -33.803  1.00  0.00    -0.334 N 
HETATM   11  C   UNL     1      -8.588   1.286 -34.112  1.00  0.00     0.314 C 
HETATM   12  N   UNL     1      -9.845   1.299 -34.617  1.00  0.00    -0.352 N 
HETATM   13  O   UNL     1      -7.931   2.311 -34.013  1.00  0.00    -0.248 OA
HETATM   14  H   UNL     1     -10.523   0.636 -34.275  1.00  0.00     0.160 HD
HETATM   15  H   UNL     1     -10.211   2.229 -34.787  1.00  0.00     0.160 HD
HETATM   16  H   UNL     1      -8.854  -0.695 -33.814  1.00  0.00     0.165 HD
ENDBRANCH   2  10
ENDBRANCH   1   2
BRANCH   1  17
HETATM   17  C   UNL     1      -6.550   1.055 -31.070  1.00  0.00     0.219 C 
HETATM   18  N   UNL     1      -7.603   1.883 -30.762  1.00  0.00    -0.359 N 
HETATM   19  H   UNL     1      -8.519   1.438 -30.752  1.00  0.00     0.162 HD
HETATM   20  O   UNL     1      -5.382   1.423 -30.960  1.00  0.00    -0.274 OA
BRANCH  18  21
HETATM   21  C   UNL     1      -7.520   3.149 -30.037  1.00  0.00     0.150 C 
BRANCH  21  22
HETATM   22  C   UNL     1      -7.206   4.450 -30.811  1.00  0.00     0.254 C 
BRANCH  22  23
HETATM   23  N   UNL     1      -5.856   4.454 -31.481  1.00  0.00    -0.065 N 
HETATM   24  H   UNL     1      -5.581   3.453 -31.486  1.00  0.00     0.280 HD
HETATM   25  C   UNL     1      -5.854   4.922 -32.918  1.00  0.00     0.274 C 
HETATM   26  C   UNL     1      -4.469   5.014 -33.467  1.00  0.00    -0.019 A 
HETATM   27  C   UNL     1      -3.350   4.975 -32.656  1.00  0.00    -0.008 A 
HETATM   28  C   UNL     1      -4.099   5.161 -34.840  1.00  0.00     0.017 A 
HETATM   29  S   UNL     1      -1.894   5.103 -33.521  1.00  0.00    -0.106 SA
HETATM   30  C   UNL     1      -3.384   4.809 -31.171  1.00  0.00     0.074 C 
HETATM   31  C   UNL     1      -2.732   5.223 -35.008  1.00  0.00     0.051 A 
HETATM   32  C   UNL     1      -4.790   5.144 -30.643  1.00  0.00     0.240 C 
ENDBRANCH  22  23
ENDBRANCH  21  22
ENDBRANCH  18  21
ENDBRANCH   1  17
TORSDOF 7
ENDMDL
MODEL 3
REMARK VINA RESULT:      -8.4      5.446      8.649
REMARK  7 active torsions:
REMARK  status: ('A' for Active; 'I' for Inactive)
REMARK    1  A    between atoms: C_3  and  C_4 
REMARK    2  A    between atoms: C_4  and  N_5 
REMARK    3  A    between atoms: C_4  and  C_9 
REMARK       I    between atoms: N_5  and  C_6 
REMARK       I    between atoms: C_6  and  N_7 
REMARK    4  A    between atoms: C_9  and  C_10 
REMARK       I    between atoms: C_10  and  N_11 
REMARK    5  A    between atoms: N_11  and  C_12 
REMARK    6  A    between atoms: C_12  and  C_13 
REMARK    7  A    between atoms: C_13  and  N_14 
ROOT
HETATM    1  C   UNL     1      -6.858   0.200 -31.094  1.00  0.00     0.132 C 
ENDROOT
BRANCH   1   2
HETATM    2  C   UNL     1      -6.031   0.447 -32.365  1.00  0.00     0.128 C 
BRANCH   2   3
HETATM    3  C   UNL     1      -5.826  -0.812 -33.206  1.00  0.00    -0.029 A 
HETATM    4  C   UNL     1      -4.559  -1.423 -33.355  1.00  0.00    -0.054 A 
HETATM    5  C   UNL     1      -3.316  -0.872 -32.708  1.00  0.00     0.049 C 
HETATM    6  C   UNL     1      -4.439  -2.579 -34.146  1.00  0.00     0.007 A 
HETATM    7  C   UNL     1      -5.546  -3.128 -34.791  1.00  0.00     0.001 A 
HETATM    8  C   UNL     1      -6.790  -2.529 -34.658  1.00  0.00     0.001 A 
HETATM    9  C   UNL     1      -6.929  -1.383 -33.876  1.00  0.00     0.010 A 
ENDBRANCH   2   3
BRANCH   2  10
HETATM   10  N   UNL     1      -6.519   1.544 -33.197  1.00  0.00    -0.334 N 
HETATM   11  C   UNL     1      -5.928   2.762 -33.312  1.00  0.00     0.314 C 
HETATM   12  N   UNL     1      -6.639   3.621 -34.081  1.00  0.00    -0.352 N 
HETATM   13  O   UNL     1      -4.849   3.079 -32.835  1.00  0.00    -0.248 OA
HETATM   14  H   UNL     1      -7.646   3.582 -34.065  1.00  0.00     0.160 HD
HETATM   15  H   UNL     1      -6.251   4.556 -34.121  1.00  0.00     0.160 HD
HETATM   16  H   UNL     1      -7.467   1.471 -33.534  1.00  0.00     0.165 HD
ENDBRANCH   2  10
ENDBRANCH   1   2
BRANCH   1  17
HETATM   17  C   UNL     1      -8.187   0.911 -31.172  1.00  0.00     0.219 C 
HETATM   18  N   UNL     1      -8.239   2.136 -30.552  1.00  0.00    -0.359 N 
HETATM   19  H   UNL     1      -7.338   2.526 -30.280  1.00  0.00     0.162 HD
HETATM   20  O   UNL     1      -9.180   0.405 -31.692  1.00  0.00    -0.274 OA
BRANCH  18  21
HETATM   21  C   UNL     1      -9.332   3.103 -30.644  1.00  0.00     0.150 C 
BRANCH  21  22
HETATM   22  C   UNL     1      -9.897   3.484 -32.031  1.00  0.00     0.254 C 
BRANCH  22  23
HETATM   23  N   UNL     1     -11.129   2.710 -32.425  1.00  0.00    -0.065 N 
HETATM   24  H   UNL     1     -11.065   1.842 -31.860  1.00  0.00     0.280 HD
HETATM   25  C   UNL     1     -12.441   3.373 -32.074  1.00  0.00     0.274 C 
HETATM   26  C   UNL     1     -13.606   2.605 -32.605  1.00  0.00    -0.019 A 
HETATM   27  C   UNL     1     -13.462   1.606 -33.550  1.00  0.00    -0.008 A 
HETATM   28  C   UNL     1     -14.980   2.779 -32.251  1.00  0.00     0.017 A 
HETATM   29  S   UNL     1     -14.937   0.891 -33.994  1.00  0.00    -0.106 SA
HETATM   30  C   UNL     1     -12.155   1.160 -34.120  1.00  0.00     0.074 C 
HETATM   31  C   UNL     1     -15.808   1.911 -32.933  1.00  0.00     0.051 A 
HETATM   32  C   UNL     1     -11.084   2.236 -33.870  1.00  0.00     0.240 C 
ENDBRANCH  22  23
ENDBRANCH  21  22
ENDBRANCH  18  21
ENDBRANCH   1  17
TORSDOF 7
ENDMDL
MODEL 4
REMARK VINA RESULT:      -8.3      1.810      2.434
REMARK  7 active torsions:
REMARK  status: ('A' for Active; 'I' for Inactive)
REMARK    1  A    between atoms: C_3  and  C_4 
REMARK    2  A    between atoms: C_4  and  N_5 
REMARK    3  A    between atoms: C_4  and  C_9 
REMARK       I    between atoms: N_5  and  C_6 
REMARK       I    between atoms: C_6  and  N_7 
REMARK    4  A    between atoms: C_9  and  C_10 
REMARK       I    between atoms: C_10  and  N_11 
REMARK    5  A    between atoms: N_11  and  C_12 
REMARK    6  A    between atoms: C_12  and  C_13 
REMARK    7  A    between atoms: C_13  and  N_14 
ROOT
HETATM    1  C   UNL     1      -6.685  -0.098 -31.732  1.00  0.00     0.132 C 
ENDROOT
BRANCH   1   2
HETATM    2  C   UNL     1      -6.703  -0.171 -33.266  1.00  0.00     0.128 C 
BRANCH   2   3
HETATM    3  C   UNL     1      -6.196  -1.504 -33.814  1.00  0.00    -0.029 A 
HETATM    4  C   UNL     1      -4.819  -1.821 -33.876  1.00  0.00    -0.054 A 
HETATM    5  C   UNL     1      -3.749  -0.865 -33.419  1.00  0.00     0.049 C 
HETATM    6  C   UNL     1      -4.419  -3.065 -34.394  1.00  0.00     0.007 A 
HETATM    7  C   UNL     1      -5.357  -3.987 -34.855  1.00  0.00     0.001 A 
HETATM    8  C   UNL     1      -6.710  -3.680 -34.807  1.00  0.00     0.001 A 
HETATM    9  C   UNL     1      -7.124  -2.451 -34.295  1.00  0.00     0.010 A 
ENDBRANCH   2   3
BRANCH   2  10
HETATM   10  N   UNL     1      -7.987   0.175 -33.871  1.00  0.00    -0.334 N 
HETATM   11  C   UNL     1      -8.401   1.436 -34.160  1.00  0.00     0.314 C 
HETATM   12  N   UNL     1      -9.670   1.477 -34.634  1.00  0.00    -0.352 N 
HETATM   13  O   UNL     1      -7.723   2.449 -34.071  1.00  0.00    -0.248 OA
HETATM   14  H   UNL     1     -10.351   0.824 -34.280  1.00  0.00     0.160 HD
HETATM   15  H   UNL     1     -10.021   2.414 -34.789  1.00  0.00     0.160 HD
HETATM   16  H   UNL     1      -8.697  -0.541 -33.869  1.00  0.00     0.165 HD
ENDBRANCH   2  10
ENDBRANCH   1   2
BRANCH   1  17
HETATM   17  C   UNL     1      -5.953   1.136 -31.262  1.00  0.00     0.219 C 
HETATM   18  N   UNL     1      -5.444   1.935 -32.257  1.00  0.00    -0.359 N 
HETATM   19  H   UNL     1      -5.776   1.727 -33.197  1.00  0.00     0.162 HD
HETATM   20  O   UNL     1      -5.761   1.380 -30.073  1.00  0.00    -0.274 OA
BRANCH  18  21
HETATM   21  C   UNL     1      -4.869   3.268 -32.083  1.00  0.00     0.150 C 
BRANCH  21  22
HETATM   22  C   UNL     1      -3.334   3.442 -32.098  1.00  0.00     0.254 C 
BRANCH  22  23
HETATM   23  N   UNL     1      -2.829   4.507 -31.158  1.00  0.00    -0.065 N 
HETATM   24  H   UNL     1      -2.975   4.094 -30.217  1.00  0.00     0.280 HD
HETATM   25  C   UNL     1      -1.357   4.825 -31.280  1.00  0.00     0.274 C 
HETATM   26  C   UNL     1      -0.965   5.970 -30.405  1.00  0.00    -0.019 A 
HETATM   27  C   UNL     1      -1.898   6.803 -29.819  1.00  0.00    -0.008 A 
HETATM   28  C   UNL     1       0.365   6.372 -30.064  1.00  0.00     0.017 A 
HETATM   29  S   UNL     1      -1.199   8.031 -28.878  1.00  0.00    -0.106 SA
HETATM   30  C   UNL     1      -3.378   6.649 -29.958  1.00  0.00     0.074 C 
HETATM   31  C   UNL     1       0.379   7.478 -29.241  1.00  0.00     0.051 A 
HETATM   32  C   UNL     1      -3.697   5.757 -31.170  1.00  0.00     0.240 C 
ENDBRANCH  22  23
ENDBRANCH  21  22
ENDBRANCH  18  21
ENDBRANCH   1  17
TORSDOF 7
ENDMDL
MODEL 5
REMARK VINA RESULT:      -8.3      5.592      8.445
REMARK  7 active torsions:
REMARK  status: ('A' for Active; 'I' for Inactive)
REMARK    1  A    between atoms: C_3  and  C_4 
REMARK    2  A    between atoms: C_4  and  N_5 
REMARK    3  A    between atoms: C_4  and  C_9 
REMARK       I    between atoms: N_5  and  C_6 
REMARK       I    between atoms: C_6  and  N_7 
REMARK    4  A    between atoms: C_9  and  C_10 
REMARK       I    between atoms: C_10  and  N_11 
REMARK    5  A    between atoms: N_11  and  C_12 
REMARK    6  A    between atoms: C_12  and  C_13 
REMARK    7  A    between atoms: C_13  and  N_14 
ROOT
HETATM    1  C   UNL     1      -5.681   2.753 -33.635  1.00  0.00     0.132 C 
ENDROOT
BRANCH   1   2
HETATM    2  C   UNL     1      -6.420   1.610 -32.922  1.00  0.00     0.128 C 
BRANCH   2   3
HETATM    3  C   UNL     1      -6.092   0.230 -33.492  1.00  0.00    -0.029 A 
HETATM    4  C   UNL     1      -6.888  -0.384 -34.486  1.00  0.00    -0.054 A 
HETATM    5  C   UNL     1      -8.123   0.267 -35.050  1.00  0.00     0.049 C 
HETATM    6  C   UNL     1      -6.532  -1.657 -34.966  1.00  0.00     0.007 A 
HETATM    7  C   UNL     1      -5.413  -2.325 -34.472  1.00  0.00     0.001 A 
HETATM    8  C   UNL     1      -4.633  -1.733 -33.488  1.00  0.00     0.001 A 
HETATM    9  C   UNL     1      -4.970  -0.470 -33.002  1.00  0.00     0.010 A 
ENDBRANCH   2   3
BRANCH   2  10
HETATM   10  N   UNL     1      -6.272   1.611 -31.469  1.00  0.00    -0.334 N 
HETATM   11  C   UNL     1      -7.151   2.164 -30.593  1.00  0.00     0.314 C 
HETATM   12  N   UNL     1      -6.724   2.100 -29.309  1.00  0.00    -0.352 N 
HETATM   13  O   UNL     1      -8.243   2.633 -30.878  1.00  0.00    -0.248 OA
HETATM   14  H   UNL     1      -5.739   2.186 -29.110  1.00  0.00     0.160 HD
HETATM   15  H   UNL     1      -7.332   2.570 -28.649  1.00  0.00     0.160 HD
HETATM   16  H   UNL     1      -5.358   1.385 -31.106  1.00  0.00     0.165 HD
ENDBRANCH   2  10
ENDBRANCH   1   2
BRANCH   1  17
HETATM   17  C   UNL     1      -6.609   3.918 -33.883  1.00  0.00     0.219 C 
HETATM   18  N   UNL     1      -7.949   3.645 -33.746  1.00  0.00    -0.359 N 
HETATM   19  H   UNL     1      -8.170   2.755 -33.304  1.00  0.00     0.162 HD
HETATM   20  O   UNL     1      -6.206   5.020 -34.250  1.00  0.00    -0.274 OA
BRANCH  18  21
HETATM   21  C   UNL     1      -9.032   4.627 -33.741  1.00  0.00     0.150 C 
BRANCH  21  22
HETATM   22  C   UNL     1     -10.092   4.597 -34.865  1.00  0.00     0.254 C 
BRANCH  22  23
HETATM   23  N   UNL     1     -11.408   3.992 -34.450  1.00  0.00    -0.065 N 
HETATM   24  H   UNL     1     -12.106   4.505 -35.022  1.00  0.00     0.280 HD
HETATM   25  C   UNL     1     -11.568   2.523 -34.767  1.00  0.00     0.274 C 
HETATM   26  C   UNL     1     -12.842   1.974 -34.216  1.00  0.00    -0.019 A 
HETATM   27  C   UNL     1     -13.596   2.658 -33.282  1.00  0.00    -0.008 A 
HETATM   28  C   UNL     1     -13.445   0.718 -34.539  1.00  0.00     0.017 A 
HETATM   29  S   UNL     1     -14.996   1.820 -32.810  1.00  0.00    -0.106 SA
HETATM   30  C   UNL     1     -13.257   4.010 -32.743  1.00  0.00     0.074 C 
HETATM   31  C   UNL     1     -14.619   0.511 -33.845  1.00  0.00     0.051 A 
HETATM   32  C   UNL     1     -11.773   4.319 -33.009  1.00  0.00     0.240 C 
ENDBRANCH  22  23
ENDBRANCH  21  22
ENDBRANCH  18  21
ENDBRANCH   1  17
TORSDOF 7
ENDMDL
MODEL 6
REMARK VINA RESULT:      -8.2      2.254      2.796
REMARK  7 active torsions:
REMARK  status: ('A' for Active; 'I' for Inactive)
REMARK    1  A    between atoms: C_3  and  C_4 
REMARK    2  A    between atoms: C_4  and  N_5 
REMARK    3  A    between atoms: C_4  and  C_9 
REMARK       I    between atoms: N_5  and  C_6 
REMARK       I    between atoms: C_6  and  N_7 
REMARK    4  A    between atoms: C_9  and  C_10 
REMARK       I    between atoms: C_10  and  N_11 
REMARK    5  A    between atoms: N_11  and  C_12 
REMARK    6  A    between atoms: C_12  and  C_13 
REMARK    7  A    between atoms: C_13  and  N_14 
ROOT
HETATM    1  C   UNL     1      -5.258   2.279 -32.614  1.00  0.00     0.132 C 
ENDROOT
BRANCH   1   2
HETATM    2  C   UNL     1      -6.408   1.326 -32.973  1.00  0.00     0.128 C 
BRANCH   2   3
HETATM    3  C   UNL     1      -5.930  -0.046 -33.449  1.00  0.00    -0.029 A 
HETATM    4  C   UNL     1      -6.563  -0.740 -34.506  1.00  0.00    -0.054 A 
HETATM    5  C   UNL     1      -7.761  -0.189 -35.232  1.00  0.00     0.049 C 
HETATM    6  C   UNL     1      -6.074  -2.001 -34.894  1.00  0.00     0.007 A 
HETATM    7  C   UNL     1      -4.982  -2.578 -34.249  1.00  0.00     0.001 A 
HETATM    8  C   UNL     1      -4.362  -1.907 -33.204  1.00  0.00     0.001 A 
HETATM    9  C   UNL     1      -4.832  -0.656 -32.807  1.00  0.00     0.010 A 
ENDBRANCH   2   3
BRANCH   2  10
HETATM   10  N   UNL     1      -7.418   1.179 -31.928  1.00  0.00    -0.334 N 
HETATM   11  C   UNL     1      -8.684   1.668 -31.989  1.00  0.00     0.314 C 
HETATM   12  N   UNL     1      -9.382   1.466 -30.846  1.00  0.00    -0.352 N 
HETATM   13  O   UNL     1      -9.200   2.192 -32.965  1.00  0.00    -0.248 OA
HETATM   14  H   UNL     1      -8.902   1.504 -29.960  1.00  0.00     0.160 HD
HETATM   15  H   UNL     1     -10.304   1.885 -30.846  1.00  0.00     0.160 HD
HETATM   16  H   UNL     1      -7.091   0.894 -31.017  1.00  0.00     0.165 HD
ENDBRANCH   2  10
ENDBRANCH   1   2
BRANCH   1  17
HETATM   17  C   UNL     1      -5.279   3.501 -33.500  1.00  0.00     0.219 C 
HETATM   18  N   UNL     1      -4.147   4.278 -33.461  1.00  0.00    -0.359 N 
HETATM   19  H   UNL     1      -3.342   3.855 -33.001  1.00  0.00     0.162 HD
HETATM   20  O   UNL     1      -6.264   3.824 -34.162  1.00  0.00    -0.274 OA
BRANCH  18  21
HETATM   21  C   UNL     1      -3.835   5.394 -34.352  1.00  0.00     0.150 C 
BRANCH  21  22
HETATM   22  C   UNL     1      -2.466   6.102 -34.236  1.00  0.00     0.254 C 
BRANCH  22  23
HETATM   23  N   UNL     1      -2.022   6.349 -32.817  1.00  0.00    -0.065 N 
HETATM   24  H   UNL     1      -2.866   6.128 -32.254  1.00  0.00     0.280 HD
HETATM   25  C   UNL     1      -0.913   5.448 -32.327  1.00  0.00     0.274 C 
HETATM   26  C   UNL     1      -0.449   5.835 -30.962  1.00  0.00    -0.019 A 
HETATM   27  C   UNL     1      -0.786   7.045 -30.385  1.00  0.00    -0.008 A 
HETATM   28  C   UNL     1       0.382   5.067 -30.088  1.00  0.00     0.017 A 
HETATM   29  S   UNL     1      -0.130   7.250 -28.832  1.00  0.00    -0.106 SA
HETATM   30  C   UNL     1      -1.659   8.076 -31.024  1.00  0.00     0.074 C 
HETATM   31  C   UNL     1       0.631   5.719 -28.899  1.00  0.00     0.051 A 
HETATM   32  C   UNL     1      -1.744   7.819 -32.539  1.00  0.00     0.240 C 
ENDBRANCH  22  23
ENDBRANCH  21  22
ENDBRANCH  18  21
ENDBRANCH   1  17
TORSDOF 7
ENDMDL
MODEL 7
REMARK VINA RESULT:      -8.2      3.698      9.975
REMARK  7 active torsions:
REMARK  status: ('A' for Active; 'I' for Inactive)
REMARK    1  A    between atoms: C_3  and  C_4 
REMARK    2  A    between atoms: C_4  and  N_5 
REMARK    3  A    between atoms: C_4  and  C_9 
REMARK       I    between atoms: N_5  and  C_6 
REMARK       I    between atoms: C_6  and  N_7 
REMARK    4  A    between atoms: C_9  and  C_10 
REMARK       I    between atoms: C_10  and  N_11 
REMARK    5  A    between atoms: N_11  and  C_12 
REMARK    6  A    between atoms: C_12  and  C_13 
REMARK    7  A    between atoms: C_13  and  N_14 
ROOT
HETATM    1  C   UNL     1      -3.564   5.335 -31.125  1.00  0.00     0.132 C 
ENDROOT
BRANCH   1   2
HETATM    2  C   UNL     1      -2.424   6.224 -31.643  1.00  0.00     0.128 C 
BRANCH   2   3
HETATM    3  C   UNL     1      -1.393   6.572 -30.570  1.00  0.00    -0.029 A 
HETATM    4  C   UNL     1      -1.307   7.861 -29.995  1.00  0.00    -0.054 A 
HETATM    5  C   UNL     1      -2.214   8.991 -30.405  1.00  0.00     0.049 C 
HETATM    6  C   UNL     1      -0.333   8.115 -29.012  1.00  0.00     0.007 A 
HETATM    7  C   UNL     1       0.552   7.120 -28.604  1.00  0.00     0.001 A 
HETATM    8  C   UNL     1       0.481   5.856 -29.170  1.00  0.00     0.001 A 
HETATM    9  C   UNL     1      -0.480   5.585 -30.144  1.00  0.00     0.010 A 
ENDBRANCH   2   3
BRANCH   2  10
HETATM   10  N   UNL     1      -1.762   5.719 -32.843  1.00  0.00    -0.334 N 
HETATM   11  C   UNL     1      -1.435   6.465 -33.930  1.00  0.00     0.314 C 
HETATM   12  N   UNL     1      -0.909   5.726 -34.936  1.00  0.00    -0.352 N 
HETATM   13  O   UNL     1      -1.536   7.679 -34.018  1.00  0.00    -0.248 OA
HETATM   14  H   UNL     1      -1.245   4.787 -35.089  1.00  0.00     0.160 HD
HETATM   15  H   UNL     1      -0.725   6.253 -35.781  1.00  0.00     0.160 HD
HETATM   16  H   UNL     1      -1.746   4.717 -32.964  1.00  0.00     0.165 HD
ENDBRANCH   2  10
ENDBRANCH   1   2
BRANCH   1  17
HETATM   17  C   UNL     1      -3.628   4.040 -31.899  1.00  0.00     0.219 C 
HETATM   18  N   UNL     1      -3.113   2.941 -31.253  1.00  0.00    -0.359 N 
HETATM   19  H   UNL     1      -2.927   3.065 -30.260  1.00  0.00     0.162 HD
HETATM   20  O   UNL     1      -4.045   3.977 -33.053  1.00  0.00    -0.274 OA
BRANCH  18  21
HETATM   21  C   UNL     1      -3.225   1.552 -31.694  1.00  0.00     0.150 C 
BRANCH  21  22
HETATM   22  C   UNL     1      -4.373   0.671 -31.152  1.00  0.00     0.254 C 
BRANCH  22  23
HETATM   23  N   UNL     1      -4.446  -0.697 -31.780  1.00  0.00    -0.065 N 
HETATM   24  H   UNL     1      -4.975  -1.259 -31.085  1.00  0.00     0.280 HD
HETATM   25  C   UNL     1      -5.212  -0.765 -33.081  1.00  0.00     0.274 C 
HETATM   26  C   UNL     1      -5.133  -2.122 -33.698  1.00  0.00    -0.019 A 
HETATM   27  C   UNL     1      -4.220  -3.071 -33.278  1.00  0.00    -0.008 A 
HETATM   28  C   UNL     1      -5.935  -2.624 -34.771  1.00  0.00     0.017 A 
HETATM   29  S   UNL     1      -4.328  -4.529 -34.142  1.00  0.00    -0.106 SA
HETATM   30  C   UNL     1      -3.245  -2.874 -32.163  1.00  0.00     0.074 C 
HETATM   31  C   UNL     1      -5.600  -3.918 -35.109  1.00  0.00     0.051 A 
HETATM   32  C   UNL     1      -3.085  -1.372 -31.870  1.00  0.00     0.240 C 
ENDBRANCH  22  23
ENDBRANCH  21  22
ENDBRANCH  18  21
ENDBRANCH   1  17
TORSDOF 7
ENDMDL
MODEL 8
REMARK VINA RESULT:      -8.1      3.347      4.862
REMARK  7 active torsions:
REMARK  status: ('A' for Active; 'I' for Inactive)
REMARK    1  A    between atoms: C_3  and  C_4 
REMARK    2  A    between atoms: C_4  and  N_5 
REMARK    3  A    between atoms: C_4  and  C_9 
REMARK       I    between atoms: N_5  and  C_6 
REMARK       I    between atoms: C_6  and  N_7 
REMARK    4  A    between atoms: C_9  and  C_10 
REMARK       I    between atoms: C_10  and  N_11 
REMARK    5  A    between atoms: N_11  and  C_12 
REMARK    6  A    between atoms: C_12  and  C_13 
REMARK    7  A    between atoms: C_13  and  N_14 
ROOT
HETATM    1  C   UNL     1      -3.393  -0.204 -33.221  1.00  0.00     0.132 C 
ENDROOT
BRANCH   1   2
HETATM    2  C   UNL     1      -4.780  -0.853 -33.106  1.00  0.00     0.128 C 
BRANCH   2   3
HETATM    3  C   UNL     1      -4.813  -2.300 -33.595  1.00  0.00    -0.029 A 
HETATM    4  C   UNL     1      -5.857  -2.800 -34.408  1.00  0.00    -0.054 A 
HETATM    5  C   UNL     1      -7.021  -1.949 -34.841  1.00  0.00     0.049 C 
HETATM    6  C   UNL     1      -5.828  -4.144 -34.822  1.00  0.00     0.007 A 
HETATM    7  C   UNL     1      -4.791  -4.991 -34.438  1.00  0.00     0.001 A 
HETATM    8  C   UNL     1      -3.767  -4.512 -33.632  1.00  0.00     0.001 A 
HETATM    9  C   UNL     1      -3.779  -3.181 -33.214  1.00  0.00     0.010 A 
ENDBRANCH   2   3
BRANCH   2  10
HETATM   10  N   UNL     1      -5.388  -0.747 -31.783  1.00  0.00    -0.334 N 
HETATM   11  C   UNL     1      -6.539  -0.082 -31.500  1.00  0.00     0.314 C 
HETATM   12  N   UNL     1      -6.827  -0.069 -30.177  1.00  0.00    -0.352 N 
HETATM   13  O   UNL     1      -7.292   0.421 -32.320  1.00  0.00    -0.248 OA
HETATM   14  H   UNL     1      -6.076  -0.021 -29.507  1.00  0.00     0.160 HD
HETATM   15  H   UNL     1      -7.643   0.482 -29.938  1.00  0.00     0.160 HD
HETATM   16  H   UNL     1      -4.807  -0.993 -30.995  1.00  0.00     0.165 HD
ENDBRANCH   2  10
ENDBRANCH   1   2
BRANCH   1  17
HETATM   17  C   UNL     1      -3.134   0.717 -32.053  1.00  0.00     0.219 C 
HETATM   18  N   UNL     1      -3.373   2.050 -32.287  1.00  0.00    -0.359 N 
HETATM   19  H   UNL     1      -3.882   2.258 -33.144  1.00  0.00     0.162 HD
HETATM   20  O   UNL     1      -2.675   0.319 -30.984  1.00  0.00    -0.274 OA
BRANCH  18  21
HETATM   21  C   UNL     1      -3.387   3.113 -31.284  1.00  0.00     0.150 C 
BRANCH  21  22
HETATM   22  C   UNL     1      -4.229   4.384 -31.533  1.00  0.00     0.254 C 
BRANCH  22  23
HETATM   23  N   UNL     1      -5.616   4.108 -32.055  1.00  0.00    -0.065 N 
HETATM   24  H   UNL     1      -5.500   3.244 -32.617  1.00  0.00     0.280 HD
HETATM   25  C   UNL     1      -6.652   3.813 -30.996  1.00  0.00     0.274 C 
HETATM   26  C   UNL     1      -8.018   3.673 -31.583  1.00  0.00    -0.019 A 
HETATM   27  C   UNL     1      -8.311   4.076 -32.872  1.00  0.00    -0.008 A 
HETATM   28  C   UNL     1      -9.178   3.142 -30.937  1.00  0.00     0.017 A 
HETATM   29  S   UNL     1      -9.934   3.816 -33.300  1.00  0.00    -0.106 SA
HETATM   30  C   UNL     1      -7.317   4.657 -33.825  1.00  0.00     0.074 C 
HETATM   31  C   UNL     1     -10.286   3.163 -31.759  1.00  0.00     0.051 A 
HETATM   32  C   UNL     1      -6.085   5.158 -33.052  1.00  0.00     0.240 C 
ENDBRANCH  22  23
ENDBRANCH  21  22
ENDBRANCH  18  21
ENDBRANCH   1  17
TORSDOF 7
ENDMDL
MODEL 9
REMARK VINA RESULT:      -8.1      1.587      2.205
REMARK  7 active torsions:
REMARK  status: ('A' for Active; 'I' for Inactive)
REMARK    1  A    between atoms: C_3  and  C_4 
REMARK    2  A    between atoms: C_4  and  N_5 
REMARK    3  A    between atoms: C_4  and  C_9 
REMARK       I    between atoms: N_5  and  C_6 
REMARK       I    between atoms: C_6  and  N_7 
REMARK    4  A    between atoms: C_9  and  C_10 
REMARK       I    between atoms: C_10  and  N_11 
REMARK    5  A    between atoms: N_11  and  C_12 
REMARK    6  A    between atoms: C_12  and  C_13 
REMARK    7  A    between atoms: C_13  and  N_14 
ROOT
HETATM    1  C   UNL     1      -3.591   1.222 -32.314  1.00  0.00     0.132 C 
ENDROOT
BRANCH   1   2
HETATM    2  C   UNL     1      -5.061   1.001 -32.699  1.00  0.00     0.128 C 
BRANCH   2   3
HETATM    3  C   UNL     1      -5.293  -0.295 -33.477  1.00  0.00    -0.029 A 
HETATM    4  C   UNL     1      -6.320  -0.423 -34.440  1.00  0.00    -0.054 A 
HETATM    5  C   UNL     1      -7.270   0.700 -34.764  1.00  0.00     0.049 C 
HETATM    6  C   UNL     1      -6.482  -1.644 -35.119  1.00  0.00     0.007 A 
HETATM    7  C   UNL     1      -5.651  -2.731 -34.851  1.00  0.00     0.001 A 
HETATM    8  C   UNL     1      -4.648  -2.616 -33.900  1.00  0.00     0.001 A 
HETATM    9  C   UNL     1      -4.472  -1.412 -33.219  1.00  0.00     0.010 A 
ENDBRANCH   2   3
BRANCH   2  10
HETATM   10  N   UNL     1      -5.999   1.102 -31.585  1.00  0.00    -0.334 N 
HETATM   11  C   UNL     1      -6.793   2.174 -31.325  1.00  0.00     0.314 C 
HETATM   12  N   UNL     1      -7.500   2.038 -30.178  1.00  0.00    -0.352 N 
HETATM   13  O   UNL     1      -6.928   3.152 -32.043  1.00  0.00    -0.248 OA
HETATM   14  H   UNL     1      -7.087   1.553 -29.396  1.00  0.00     0.160 HD
HETATM   15  H   UNL     1      -8.044   2.856 -29.930  1.00  0.00     0.160 HD
HETATM   16  H   UNL     1      -5.891   0.432 -30.838  1.00  0.00     0.165 HD
ENDBRANCH   2  10
ENDBRANCH   1   2
BRANCH   1  17
HETATM   17  C   UNL     1      -3.312   2.688 -32.081  1.00  0.00     0.219 C 
HETATM   18  N   UNL     1      -3.982   3.554 -32.911  1.00  0.00    -0.359 N 
HETATM   19  H   UNL     1      -4.738   3.142 -33.456  1.00  0.00     0.162 HD
HETATM   20  O   UNL     1      -2.492   3.084 -31.256  1.00  0.00    -0.274 OA
BRANCH  18  21
HETATM   21  C   UNL     1      -4.040   5.008 -32.773  1.00  0.00     0.150 C 
BRANCH  21  22
HETATM   22  C   UNL     1      -2.859   5.868 -33.278  1.00  0.00     0.254 C 
BRANCH  22  23
HETATM   23  N   UNL     1      -2.007   6.447 -32.178  1.00  0.00    -0.065 N 
HETATM   24  H   UNL     1      -1.814   7.415 -32.499  1.00  0.00     0.280 HD
HETATM   25  C   UNL     1      -2.683   6.552 -30.831  1.00  0.00     0.274 C 
HETATM   26  C   UNL     1      -1.738   7.017 -29.773  1.00  0.00    -0.019 A 
HETATM   27  C   UNL     1      -0.369   7.035 -29.963  1.00  0.00    -0.008 A 
HETATM   28  C   UNL     1      -2.078   7.479 -28.463  1.00  0.00     0.017 A 
HETATM   29  S   UNL     1       0.486   7.599 -28.609  1.00  0.00    -0.106 SA
HETATM   30  C   UNL     1       0.316   6.632 -31.229  1.00  0.00     0.074 C 
HETATM   31  C   UNL     1      -0.963   7.826 -27.729  1.00  0.00     0.051 A 
HETATM   32  C   UNL     1      -0.638   5.787 -32.091  1.00  0.00     0.240 C 
ENDBRANCH  22  23
ENDBRANCH  21  22
ENDBRANCH  18  21
ENDBRANCH   1  17
TORSDOF 7
ENDMDL
MODEL 10
REMARK VINA RESULT:      -7.9      3.935      5.584
REMARK  7 active torsions:
REMARK  status: ('A' for Active; 'I' for Inactive)
REMARK    1  A    between atoms: C_3  and  C_4 
REMARK    2  A    between atoms: C_4  and  N_5 
REMARK    3  A    between atoms: C_4  and  C_9 
REMARK       I    between atoms: N_5  and  C_6 
REMARK       I    between atoms: C_6  and  N_7 
REMARK    4  A    between atoms: C_9  and  C_10 
REMARK       I    between atoms: C_10  and  N_11 
REMARK    5  A    between atoms: N_11  and  C_12 
REMARK    6  A    between atoms: C_12  and  C_13 
REMARK    7  A    between atoms: C_13  and  N_14 
ROOT
HETATM    1  C   UNL     1      -6.873  -0.144 -31.433  1.00  0.00     0.132 C 
ENDROOT
BRANCH   1   2
HETATM    2  C   UNL     1      -6.641   0.012 -32.943  1.00  0.00     0.128 C 
BRANCH   2   3
HETATM    3  C   UNL     1      -6.169  -1.275 -33.619  1.00  0.00    -0.029 A 
HETATM    4  C   UNL     1      -4.799  -1.603 -33.744  1.00  0.00    -0.054 A 
HETATM    5  C   UNL     1      -3.703  -0.705 -33.236  1.00  0.00     0.049 C 
HETATM    6  C   UNL     1      -4.431  -2.803 -34.379  1.00  0.00     0.007 A 
HETATM    7  C   UNL     1      -5.395  -3.669 -34.893  1.00  0.00     0.001 A 
HETATM    8  C   UNL     1      -6.741  -3.349 -34.782  1.00  0.00     0.001 A 
HETATM    9  C   UNL     1      -7.123  -2.165 -34.154  1.00  0.00     0.010 A 
ENDBRANCH   2   3
BRANCH   2  10
HETATM   10  N   UNL     1      -7.770   0.586 -33.670  1.00  0.00    -0.334 N 
HETATM   11  C   UNL     1      -8.015   1.914 -33.815  1.00  0.00     0.314 C 
HETATM   12  N   UNL     1      -9.179   2.167 -34.460  1.00  0.00    -0.352 N 
HETATM   13  O   UNL     1      -7.272   2.819 -33.465  1.00  0.00    -0.248 OA
HETATM   14  H   UNL     1      -9.966   1.553 -34.321  1.00  0.00     0.160 HD
HETATM   15  H   UNL     1      -9.414   3.151 -34.515  1.00  0.00     0.160 HD
HETATM   16  H   UNL     1      -8.533  -0.038 -33.889  1.00  0.00     0.165 HD
ENDBRANCH   2  10
ENDBRANCH   1   2
BRANCH   1  17
HETATM   17  C   UNL     1      -5.996   0.807 -30.655  1.00  0.00     0.219 C 
HETATM   18  N   UNL     1      -5.373   1.780 -31.400  1.00  0.00    -0.359 N 
HETATM   19  H   UNL     1      -5.715   1.885 -32.354  1.00  0.00     0.162 HD
HETATM   20  O   UNL     1      -5.792   0.685 -29.449  1.00  0.00    -0.274 OA
BRANCH  18  21
HETATM   21  C   UNL     1      -4.635   2.927 -30.876  1.00  0.00     0.150 C 
BRANCH  21  22
HETATM   22  C   UNL     1      -5.409   4.106 -30.244  1.00  0.00     0.254 C 
BRANCH  22  23
HETATM   23  N   UNL     1      -6.739   4.385 -30.895  1.00  0.00    -0.065 N 
HETATM   24  H   UNL     1      -6.698   3.845 -31.781  1.00  0.00     0.280 HD
HETATM   25  C   UNL     1      -7.944   3.890 -30.130  1.00  0.00     0.274 C 
HETATM   26  C   UNL     1      -9.222   4.312 -30.778  1.00  0.00    -0.019 A 
HETATM   27  C   UNL     1      -9.265   5.284 -31.759  1.00  0.00    -0.008 A 
HETATM   28  C   UNL     1     -10.532   3.816 -30.492  1.00  0.00     0.017 A 
HETATM   29  S   UNL     1     -10.835   5.587 -32.330  1.00  0.00    -0.106 SA
HETATM   30  C   UNL     1      -8.067   5.993 -32.303  1.00  0.00     0.074 C 
HETATM   31  C   UNL     1     -11.499   4.424 -31.265  1.00  0.00     0.051 A 
HETATM   32  C   UNL     1      -6.883   5.835 -31.333  1.00  0.00     0.240 C 
ENDBRANCH  22  23
ENDBRANCH  21  22
ENDBRANCH  18  21
ENDBRANCH   1  17
TORSDOF 7
ENDMDL
