MODEL 1
REMARK VINA RESULT:      -8.2      0.000      0.000
REMARK  6 active torsions:
REMARK  status: ('A' for Active; 'I' for Inactive)
REMARK    1  A    between atoms: C_2  and  C_3 
REMARK    2  A    between atoms: C_4  and  O_5 
REMARK    3  A    between atoms: C_6  and  C_7 
REMARK       I    between atoms: C_7  and  N_8 
REMARK    4  A    between atoms: N_8  and  C_9 
REMARK    5  A    between atoms: C_9  and  C_10 
REMARK    6  A    between atoms: C_10  and  C_11 
ROOT
HETATM    1  C   UNL     1      -8.911   0.969 -32.992  1.00  0.00     0.254 C 
HETATM    2  N   UNL     1      -8.379  -0.271 -33.246  1.00  0.00    -0.356 N 
HETATM    3  O   UNL     1      -8.318   1.812 -32.325  1.00  0.00    -0.268 OA
HETATM    4  H   UNL     1      -8.922  -0.899 -33.834  1.00  0.00     0.162 HD
ENDROOT
BRANCH   1   5
HETATM    5  C   UNL     1     -10.264   1.265 -33.574  1.00  0.00     0.065 A 
HETATM    6  C   UNL     1     -11.398   0.439 -33.433  1.00  0.00     0.087 A 
HETATM    7  C   UNL     1     -12.635   0.808 -34.001  1.00  0.00    -0.024 A 
HETATM    8  C   UNL     1     -12.707   1.999 -34.743  1.00  0.00     0.010 A 
HETATM    9  C   UNL     1     -11.588   2.814 -34.902  1.00  0.00     0.002 A 
HETATM   10  C   UNL     1     -10.378   2.451 -34.316  1.00  0.00     0.020 A 
BRANCH   6  11
HETATM   11  O   UNL     1     -11.288  -0.736 -32.731  1.00  0.00    -0.359 OA
HETATM   12  H   UNL     1     -11.419  -1.488 -33.333  1.00  0.00     0.218 HD
ENDBRANCH   6  11
BRANCH   7  13
HETATM   13  C   UNL     1     -13.896  -0.012 -33.852  1.00  0.00     0.037 C 
HETATM   14  C   UNL     1     -15.131   0.747 -34.314  1.00  0.00     0.010 C 
ENDBRANCH   7  13
ENDBRANCH   1   5
BRANCH   2  15
HETATM   15  C   UNL     1      -7.066  -0.666 -32.781  1.00  0.00     0.136 C 
BRANCH  15  16
HETATM   16  C   UNL     1      -6.039  -0.899 -33.930  1.00  0.00    -0.004 C 
HETATM   17  C   UNL     1      -6.612  -0.260 -35.213  1.00  0.00     0.021 C 
HETATM   18  C   UNL     1      -4.744  -0.136 -33.555  1.00  0.00     0.021 C 
BRANCH  16  19
HETATM   19  C   UNL     1      -5.783  -2.391 -34.226  1.00  0.00    -0.046 A 
HETATM   20  C   UNL     1      -4.536  -2.984 -33.973  1.00  0.00     0.027 A 
HETATM   21  C   UNL     1      -4.347  -4.332 -34.248  1.00  0.00     0.116 A 
HETATM   22  N   UNL     1      -5.305  -5.139 -34.744  1.00  0.00    -0.273 NA
HETATM   23  C   UNL     1      -6.508  -4.572 -34.959  1.00  0.00     0.116 A 
HETATM   24  C   UNL     1      -6.790  -3.233 -34.718  1.00  0.00     0.027 A 
ENDBRANCH  16  19
ENDBRANCH  15  16
ENDBRANCH   2  15
TORSDOF 6
ENDMDL
MODEL 2
REMARK VINA RESULT:      -7.8      4.635      7.924
REMARK  6 active torsions:
REMARK  status: ('A' for Active; 'I' for Inactive)
REMARK    1  A    between atoms: C_2  and  C_3 
REMARK    2  A    between atoms: C_4  and  O_5 
REMARK    3  A    between atoms: C_6  and  C_7 
REMARK       I    between atoms: C_7  and  N_8 
REMARK    4  A    between atoms: N_8  and  C_9 
REMARK    5  A    between atoms: C_9  and  C_10 
REMARK    6  A    between atoms: C_10  and  C_11 
ROOT
HETATM    1  C   UNL     1      -4.669   3.663 -33.036  1.00  0.00     0.254 C 
HETATM    2  N   UNL     1      -4.563   2.353 -32.642  1.00  0.00    -0.356 N 
HETATM    3  O   UNL     1      -5.751   4.185 -33.288  1.00  0.00    -0.268 OA
HETATM    4  H   UNL     1      -3.632   2.007 -32.421  1.00  0.00     0.162 HD
ENDROOT
BRANCH   1   5
HETATM    5  C   UNL     1      -3.395   4.451 -33.143  1.00  0.00     0.065 A 
HETATM    6  C   UNL     1      -2.349   4.421 -32.198  1.00  0.00     0.087 A 
HETATM    7  C   UNL     1      -1.178   5.182 -32.392  1.00  0.00    -0.024 A 
HETATM    8  C   UNL     1      -1.089   6.003 -33.528  1.00  0.00     0.010 A 
HETATM    9  C   UNL     1      -2.124   6.054 -34.460  1.00  0.00     0.002 A 
HETATM   10  C   UNL     1      -3.266   5.278 -34.270  1.00  0.00     0.020 A 
BRANCH   6  11
HETATM   11  O   UNL     1      -2.479   3.634 -31.080  1.00  0.00    -0.359 OA
HETATM   12  H   UNL     1      -3.249   3.050 -31.182  1.00  0.00     0.218 HD
ENDBRANCH   6  11
BRANCH   7  13
HETATM   13  C   UNL     1      -0.006   5.162 -31.438  1.00  0.00     0.037 C 
HETATM   14  C   UNL     1       0.451   6.564 -31.063  1.00  0.00     0.010 C 
ENDBRANCH   7  13
ENDBRANCH   1   5
BRANCH   2  15
HETATM   15  C   UNL     1      -5.717   1.497 -32.457  1.00  0.00     0.136 C 
BRANCH  15  16
HETATM   16  C   UNL     1      -5.366   0.086 -31.897  1.00  0.00    -0.004 C 
HETATM   17  C   UNL     1      -3.912   0.129 -31.382  1.00  0.00     0.021 C 
HETATM   18  C   UNL     1      -6.294  -0.174 -30.684  1.00  0.00     0.021 C 
BRANCH  16  19
HETATM   19  C   UNL     1      -5.452  -1.030 -32.958  1.00  0.00    -0.046 A 
HETATM   20  C   UNL     1      -6.658  -1.327 -33.613  1.00  0.00     0.027 A 
HETATM   21  C   UNL     1      -6.692  -2.336 -34.566  1.00  0.00     0.116 A 
HETATM   22  N   UNL     1      -5.619  -3.064 -34.929  1.00  0.00    -0.273 NA
HETATM   23  C   UNL     1      -4.458  -2.757 -34.318  1.00  0.00     0.116 A 
HETATM   24  C   UNL     1      -4.326  -1.769 -33.350  1.00  0.00     0.027 A 
ENDBRANCH  16  19
ENDBRANCH  15  16
ENDBRANCH   2  15
TORSDOF 6
ENDMDL
MODEL 3
REMARK VINA RESULT:      -7.8      4.803      7.847
REMARK  6 active torsions:
REMARK  status: ('A' for Active; 'I' for Inactive)
REMARK    1  A    between atoms: C_2  and  C_3 
REMARK    2  A    between atoms: C_4  and  O_5 
REMARK    3  A    between atoms: C_6  and  C_7 
REMARK       I    between atoms: C_7  and  N_8 
REMARK    4  A    between atoms: N_8  and  C_9 
REMARK    5  A    between atoms: C_9  and  C_10 
REMARK    6  A    between atoms: C_10  and  C_11 
ROOT
HETATM    1  C   UNL     1      -4.525   0.683 -32.217  1.00  0.00     0.254 C 
HETATM    2  N   UNL     1      -4.154   1.911 -32.706  1.00  0.00    -0.356 N 
HETATM    3  O   UNL     1      -4.282   0.337 -31.064  1.00  0.00    -0.268 OA
HETATM    4  H   UNL     1      -4.422   2.133 -33.662  1.00  0.00     0.162 HD
ENDROOT
BRANCH   1   5
HETATM    5  C   UNL     1      -5.255  -0.234 -33.155  1.00  0.00     0.065 A 
HETATM    6  C   UNL     1      -4.882  -1.566 -33.432  1.00  0.00     0.087 A 
HETATM    7  C   UNL     1      -5.641  -2.360 -34.316  1.00  0.00    -0.024 A 
HETATM    8  C   UNL     1      -6.758  -1.786 -34.946  1.00  0.00     0.010 A 
HETATM    9  C   UNL     1      -7.126  -0.467 -34.693  1.00  0.00     0.002 A 
HETATM   10  C   UNL     1      -6.382   0.301 -33.799  1.00  0.00     0.020 A 
BRANCH   6  11
HETATM   11  O   UNL     1      -3.765  -2.088 -32.827  1.00  0.00    -0.359 OA
HETATM   12  H   UNL     1      -3.083  -1.399 -32.755  1.00  0.00     0.218 HD
ENDBRANCH   6  11
BRANCH   7  13
HETATM   13  C   UNL     1      -5.317  -3.804 -34.623  1.00  0.00     0.037 C 
HETATM   14  C   UNL     1      -6.462  -4.509 -35.335  1.00  0.00     0.010 C 
ENDBRANCH   7  13
ENDBRANCH   1   5
BRANCH   2  15
HETATM   15  C   UNL     1      -3.484   2.905 -31.892  1.00  0.00     0.136 C 
BRANCH  15  16
HETATM   16  C   UNL     1      -3.981   4.360 -32.146  1.00  0.00    -0.004 C 
HETATM   17  C   UNL     1      -5.257   4.280 -33.011  1.00  0.00     0.021 C 
HETATM   18  C   UNL     1      -4.372   4.962 -30.774  1.00  0.00     0.021 C 
BRANCH  16  19
HETATM   19  C   UNL     1      -2.958   5.231 -32.904  1.00  0.00    -0.046 A 
HETATM   20  C   UNL     1      -2.700   6.557 -32.523  1.00  0.00     0.027 A 
HETATM   21  C   UNL     1      -1.766   7.306 -33.228  1.00  0.00     0.116 A 
HETATM   22  N   UNL     1      -1.061   6.835 -34.274  1.00  0.00    -0.273 NA
HETATM   23  C   UNL     1      -1.291   5.553 -34.618  1.00  0.00     0.116 A 
HETATM   24  C   UNL     1      -2.206   4.728 -33.976  1.00  0.00     0.027 A 
ENDBRANCH  16  19
ENDBRANCH  15  16
ENDBRANCH   2  15
TORSDOF 6
ENDMDL
MODEL 4
REMARK VINA RESULT:      -7.7      4.749      7.805
REMARK  6 active torsions:
REMARK  status: ('A' for Active; 'I' for Inactive)
REMARK    1  A    between atoms: C_2  and  C_3 
REMARK    2  A    between atoms: C_4  and  O_5 
REMARK    3  A    between atoms: C_6  and  C_7 
REMARK       I    between atoms: C_7  and  N_8 
REMARK    4  A    between atoms: N_8  and  C_9 
REMARK    5  A    between atoms: C_9  and  C_10 
REMARK    6  A    between atoms: C_10  and  C_11 
ROOT
HETATM    1  C   UNL     1      -3.649   2.692 -32.124  1.00  0.00     0.254 C 
HETATM    2  N   UNL     1      -4.977   2.494 -32.408  1.00  0.00    -0.356 N 
HETATM    3  O   UNL     1      -2.987   1.877 -31.489  1.00  0.00    -0.268 OA
HETATM    4  H   UNL     1      -5.445   3.202 -32.968  1.00  0.00     0.162 HD
ENDROOT
BRANCH   1   5
HETATM    5  C   UNL     1      -3.022   3.958 -32.634  1.00  0.00     0.065 A 
HETATM    6  C   UNL     1      -1.951   4.633 -32.012  1.00  0.00     0.087 A 
HETATM    7  C   UNL     1      -1.414   5.809 -32.575  1.00  0.00    -0.024 A 
HETATM    8  C   UNL     1      -1.993   6.318 -33.749  1.00  0.00     0.010 A 
HETATM    9  C   UNL     1      -3.063   5.669 -34.362  1.00  0.00     0.002 A 
HETATM   10  C   UNL     1      -3.569   4.495 -33.811  1.00  0.00     0.020 A 
BRANCH   6  11
HETATM   11  O   UNL     1      -1.429   4.128 -30.846  1.00  0.00    -0.359 OA
HETATM   12  H   UNL     1      -0.580   3.693 -31.032  1.00  0.00     0.218 HD
ENDBRANCH   6  11
BRANCH   7  13
HETATM   13  C   UNL     1      -0.242   6.555 -31.980  1.00  0.00     0.037 C 
HETATM   14  C   UNL     1      -0.654   7.417 -30.795  1.00  0.00     0.010 C 
ENDBRANCH   7  13
ENDBRANCH   1   5
BRANCH   2  15
HETATM   15  C   UNL     1      -5.689   1.295 -32.012  1.00  0.00     0.136 C 
BRANCH  15  16
HETATM   16  C   UNL     1      -6.459   0.611 -33.182  1.00  0.00    -0.004 C 
HETATM   17  C   UNL     1      -7.892   0.312 -32.695  1.00  0.00     0.021 C 
HETATM   18  C   UNL     1      -6.552   1.637 -34.338  1.00  0.00     0.021 C 
BRANCH  16  19
HETATM   19  C   UNL     1      -5.829  -0.725 -33.627  1.00  0.00    -0.046 A 
HETATM   20  C   UNL     1      -4.622  -1.185 -33.078  1.00  0.00     0.027 A 
HETATM   21  C   UNL     1      -4.091  -2.397 -33.501  1.00  0.00     0.116 A 
HETATM   22  N   UNL     1      -4.673  -3.192 -34.418  1.00  0.00    -0.273 NA
HETATM   23  C   UNL     1      -5.845  -2.761 -34.922  1.00  0.00     0.116 A 
HETATM   24  C   UNL     1      -6.452  -1.563 -34.564  1.00  0.00     0.027 A 
ENDBRANCH  16  19
ENDBRANCH  15  16
ENDBRANCH   2  15
TORSDOF 6
ENDMDL
MODEL 5
REMARK VINA RESULT:      -7.4      4.602      7.868
REMARK  6 active torsions:
REMARK  status: ('A' for Active; 'I' for Inactive)
REMARK    1  A    between atoms: C_2  and  C_3 
REMARK    2  A    between atoms: C_4  and  O_5 
REMARK    3  A    between atoms: C_6  and  C_7 
REMARK       I    between atoms: C_7  and  N_8 
REMARK    4  A    between atoms: N_8  and  C_9 
REMARK    5  A    between atoms: C_9  and  C_10 
REMARK    6  A    between atoms: C_10  and  C_11 
ROOT
HETATM    1  C   UNL     1      -5.867   1.451 -33.201  1.00  0.00     0.254 C 
HETATM    2  N   UNL     1      -4.809   2.304 -33.010  1.00  0.00    -0.356 N 
HETATM    3  O   UNL     1      -7.033   1.833 -33.154  1.00  0.00    -0.268 OA
HETATM    4  H   UNL     1      -3.874   1.914 -33.098  1.00  0.00     0.162 HD
ENDROOT
BRANCH   1   5
HETATM    5  C   UNL     1      -5.543   0.012 -33.483  1.00  0.00     0.065 A 
HETATM    6  C   UNL     1      -6.419  -0.905 -34.100  1.00  0.00     0.087 A 
HETATM    7  C   UNL     1      -6.020  -2.235 -34.341  1.00  0.00    -0.024 A 
HETATM    8  C   UNL     1      -4.744  -2.642 -33.920  1.00  0.00     0.010 A 
HETATM    9  C   UNL     1      -3.876  -1.749 -33.295  1.00  0.00     0.002 A 
HETATM   10  C   UNL     1      -4.272  -0.431 -33.084  1.00  0.00     0.020 A 
BRANCH   6  11
HETATM   11  O   UNL     1      -7.674  -0.486 -34.470  1.00  0.00    -0.359 OA
HETATM   12  H   UNL     1      -8.135  -0.119 -33.697  1.00  0.00     0.218 HD
ENDBRANCH   6  11
BRANCH   7  13
HETATM   13  C   UNL     1      -6.897  -3.254 -35.033  1.00  0.00     0.037 C 
HETATM   14  C   UNL     1      -6.317  -4.658 -34.952  1.00  0.00     0.010 C 
ENDBRANCH   7  13
ENDBRANCH   1   5
BRANCH   2  15
HETATM   15  C   UNL     1      -4.984   3.723 -32.774  1.00  0.00     0.136 C 
BRANCH  15  16
HETATM   16  C   UNL     1      -3.840   4.363 -31.932  1.00  0.00    -0.004 C 
HETATM   17  C   UNL     1      -4.489   5.224 -30.828  1.00  0.00     0.021 C 
HETATM   18  C   UNL     1      -3.070   3.208 -31.244  1.00  0.00     0.021 C 
BRANCH  16  19
HETATM   19  C   UNL     1      -2.915   5.281 -32.756  1.00  0.00    -0.046 A 
HETATM   20  C   UNL     1      -2.161   4.786 -33.832  1.00  0.00     0.027 A 
HETATM   21  C   UNL     1      -1.344   5.647 -34.554  1.00  0.00     0.116 A 
HETATM   22  N   UNL     1      -1.229   6.964 -34.297  1.00  0.00    -0.273 NA
HETATM   23  C   UNL     1      -1.975   7.440 -33.282  1.00  0.00     0.116 A 
HETATM   24  C   UNL     1      -2.817   6.657 -32.502  1.00  0.00     0.027 A 
ENDBRANCH  16  19
ENDBRANCH  15  16
ENDBRANCH   2  15
TORSDOF 6
ENDMDL
MODEL 6
REMARK VINA RESULT:      -7.4      3.209      6.952
REMARK  6 active torsions:
REMARK  status: ('A' for Active; 'I' for Inactive)
REMARK    1  A    between atoms: C_2  and  C_3 
REMARK    2  A    between atoms: C_4  and  O_5 
REMARK    3  A    between atoms: C_6  and  C_7 
REMARK       I    between atoms: C_7  and  N_8 
REMARK    4  A    between atoms: N_8  and  C_9 
REMARK    5  A    between atoms: C_9  and  C_10 
REMARK    6  A    between atoms: C_10  and  C_11 
ROOT
HETATM    1  C   UNL     1      -4.482   0.010 -31.863  1.00  0.00     0.254 C 
HETATM    2  N   UNL     1      -4.748   1.065 -32.701  1.00  0.00    -0.356 N 
HETATM    3  O   UNL     1      -4.398   0.146 -30.646  1.00  0.00    -0.268 OA
HETATM    4  H   UNL     1      -4.834   0.861 -33.694  1.00  0.00     0.162 HD
ENDROOT
BRANCH   1   5
HETATM    5  C   UNL     1      -4.302  -1.339 -32.498  1.00  0.00     0.065 A 
HETATM    6  C   UNL     1      -5.004  -1.793 -33.634  1.00  0.00     0.087 A 
HETATM    7  C   UNL     1      -4.756  -3.072 -34.173  1.00  0.00    -0.024 A 
HETATM    8  C   UNL     1      -3.821  -3.902 -33.532  1.00  0.00     0.010 A 
HETATM    9  C   UNL     1      -3.134  -3.470 -32.400  1.00  0.00     0.002 A 
HETATM   10  C   UNL     1      -3.370  -2.195 -31.891  1.00  0.00     0.020 A 
BRANCH   6  11
HETATM   11  O   UNL     1      -5.937  -0.971 -34.218  1.00  0.00    -0.359 OA
HETATM   12  H   UNL     1      -6.200  -1.338 -35.078  1.00  0.00     0.218 HD
ENDBRANCH   6  11
BRANCH   7  13
HETATM   13  C   UNL     1      -5.445  -3.602 -35.409  1.00  0.00     0.037 C 
HETATM   14  C   UNL     1      -6.654  -4.460 -35.068  1.00  0.00     0.010 C 
ENDBRANCH   7  13
ENDBRANCH   1   5
BRANCH   2  15
HETATM   15  C   UNL     1      -4.985   2.408 -32.213  1.00  0.00     0.136 C 
BRANCH  15  16
HETATM   16  C   UNL     1      -6.288   3.055 -32.772  1.00  0.00    -0.004 C 
HETATM   17  C   UNL     1      -6.700   4.195 -31.815  1.00  0.00     0.021 C 
HETATM   18  C   UNL     1      -5.940   3.687 -34.143  1.00  0.00     0.021 C 
BRANCH  16  19
HETATM   19  C   UNL     1      -7.471   2.069 -32.858  1.00  0.00    -0.046 A 
HETATM   20  C   UNL     1      -8.041   1.715 -34.091  1.00  0.00     0.027 A 
HETATM   21  C   UNL     1      -9.101   0.818 -34.126  1.00  0.00     0.116 A 
HETATM   22  N   UNL     1      -9.631   0.237 -33.033  1.00  0.00    -0.273 NA
HETATM   23  C   UNL     1      -9.062   0.559 -31.854  1.00  0.00     0.116 A 
HETATM   24  C   UNL     1      -8.002   1.447 -31.719  1.00  0.00     0.027 A 
ENDBRANCH  16  19
ENDBRANCH  15  16
ENDBRANCH   2  15
TORSDOF 6
ENDMDL
MODEL 7
REMARK VINA RESULT:      -7.4      1.608      2.307
REMARK  6 active torsions:
REMARK  status: ('A' for Active; 'I' for Inactive)
REMARK    1  A    between atoms: C_2  and  C_3 
REMARK    2  A    between atoms: C_4  and  O_5 
REMARK    3  A    between atoms: C_6  and  C_7 
REMARK       I    between atoms: C_7  and  N_8 
REMARK    4  A    between atoms: N_8  and  C_9 
REMARK    5  A    between atoms: C_9  and  C_10 
REMARK    6  A    between atoms: C_10  and  C_11 
ROOT
HETATM    1  C   UNL     1     -10.189   0.448 -33.221  1.00  0.00     0.254 C 
HETATM    2  N   UNL     1      -8.840   0.649 -33.379  1.00  0.00    -0.356 N 
HETATM    3  O   UNL     1     -10.648  -0.605 -32.788  1.00  0.00    -0.268 OA
HETATM    4  H   UNL     1      -8.541   1.563 -33.712  1.00  0.00     0.162 HD
ENDROOT
BRANCH   1   5
HETATM    5  C   UNL     1     -11.098   1.584 -33.594  1.00  0.00     0.065 A 
HETATM    6  C   UNL     1     -11.271   2.759 -32.834  1.00  0.00     0.087 A 
HETATM    7  C   UNL     1     -12.134   3.783 -33.273  1.00  0.00    -0.024 A 
HETATM    8  C   UNL     1     -12.851   3.594 -34.466  1.00  0.00     0.010 A 
HETATM    9  C   UNL     1     -12.701   2.429 -35.217  1.00  0.00     0.002 A 
HETATM   10  C   UNL     1     -11.826   1.435 -34.785  1.00  0.00     0.020 A 
BRANCH   6  11
HETATM   11  O   UNL     1     -10.582   2.901 -31.654  1.00  0.00    -0.359 OA
HETATM   12  H   UNL     1      -9.987   3.667 -31.715  1.00  0.00     0.218 HD
ENDBRANCH   6  11
BRANCH   7  13
HETATM   13  C   UNL     1     -12.332   5.082 -32.526  1.00  0.00     0.037 C 
HETATM   14  C   UNL     1     -13.498   5.010 -31.551  1.00  0.00     0.010 C 
ENDBRANCH   7  13
ENDBRANCH   1   5
BRANCH   2  15
HETATM   15  C   UNL     1      -7.855  -0.349 -33.015  1.00  0.00     0.136 C 
BRANCH  15  16
HETATM   16  C   UNL     1      -6.650  -0.426 -34.001  1.00  0.00    -0.004 C 
HETATM   17  C   UNL     1      -7.116   0.133 -35.363  1.00  0.00     0.021 C 
HETATM   18  C   UNL     1      -5.544   0.510 -33.455  1.00  0.00     0.021 C 
BRANCH  16  19
HETATM   19  C   UNL     1      -6.145  -1.864 -34.236  1.00  0.00    -0.046 A 
HETATM   20  C   UNL     1      -4.804  -2.214 -34.017  1.00  0.00     0.027 A 
HETATM   21  C   UNL     1      -4.390  -3.523 -34.234  1.00  0.00     0.116 A 
HETATM   22  N   UNL     1      -5.209  -4.512 -34.640  1.00  0.00    -0.273 NA
HETATM   23  C   UNL     1      -6.501  -4.177 -34.823  1.00  0.00     0.116 A 
HETATM   24  C   UNL     1      -7.007  -2.897 -34.635  1.00  0.00     0.027 A 
ENDBRANCH  16  19
ENDBRANCH  15  16
ENDBRANCH   2  15
TORSDOF 6
ENDMDL
MODEL 8
REMARK VINA RESULT:      -7.2      1.472      2.397
REMARK  6 active torsions:
REMARK  status: ('A' for Active; 'I' for Inactive)
REMARK    1  A    between atoms: C_2  and  C_3 
REMARK    2  A    between atoms: C_4  and  O_5 
REMARK    3  A    between atoms: C_6  and  C_7 
REMARK       I    between atoms: C_7  and  N_8 
REMARK    4  A    between atoms: N_8  and  C_9 
REMARK    5  A    between atoms: C_9  and  C_10 
REMARK    6  A    between atoms: C_10  and  C_11 
ROOT
HETATM    1  C   UNL     1      -8.558   1.581 -34.323  1.00  0.00     0.254 C 
HETATM    2  N   UNL     1      -8.135   0.348 -34.756  1.00  0.00    -0.356 N 
HETATM    3  O   UNL     1      -7.772   2.483 -34.049  1.00  0.00    -0.268 OA
HETATM    4  H   UNL     1      -8.852  -0.334 -34.994  1.00  0.00     0.162 HD
ENDROOT
BRANCH   1   5
HETATM    5  C   UNL     1     -10.040   1.791 -34.203  1.00  0.00     0.065 A 
HETATM    6  C   UNL     1     -10.712   2.988 -34.530  1.00  0.00     0.087 A 
HETATM    7  C   UNL     1     -12.112   3.088 -34.402  1.00  0.00    -0.024 A 
HETATM    8  C   UNL     1     -12.823   1.984 -33.905  1.00  0.00     0.010 A 
HETATM    9  C   UNL     1     -12.168   0.802 -33.563  1.00  0.00     0.002 A 
HETATM   10  C   UNL     1     -10.787   0.707 -33.717  1.00  0.00     0.020 A 
BRANCH   6  11
HETATM   11  O   UNL     1      -9.984   4.062 -34.981  1.00  0.00    -0.359 OA
HETATM   12  H   UNL     1     -10.540   4.611 -35.559  1.00  0.00     0.218 HD
ENDBRANCH   6  11
BRANCH   7  13
HETATM   13  C   UNL     1     -12.894   4.327 -34.773  1.00  0.00     0.037 C 
HETATM   14  C   UNL     1     -13.259   5.160 -33.553  1.00  0.00     0.010 C 
ENDBRANCH   7  13
ENDBRANCH   1   5
BRANCH   2  15
HETATM   15  C   UNL     1      -6.736   0.030 -34.957  1.00  0.00     0.136 C 
BRANCH  15  16
HETATM   16  C   UNL     1      -6.114  -0.809 -33.801  1.00  0.00    -0.004 C 
HETATM   17  C   UNL     1      -4.745  -0.189 -33.449  1.00  0.00     0.021 C 
HETATM   18  C   UNL     1      -7.038  -0.654 -32.568  1.00  0.00     0.021 C 
BRANCH  16  19
HETATM   19  C   UNL     1      -5.874  -2.285 -34.179  1.00  0.00    -0.046 A 
HETATM   20  C   UNL     1      -4.622  -2.893 -33.999  1.00  0.00     0.027 A 
HETATM   21  C   UNL     1      -4.448  -4.227 -34.347  1.00  0.00     0.116 A 
HETATM   22  N   UNL     1      -5.426  -5.006 -34.848  1.00  0.00    -0.273 NA
HETATM   23  C   UNL     1      -6.633  -4.426 -34.993  1.00  0.00     0.116 A 
HETATM   24  C   UNL     1      -6.902  -3.100 -34.676  1.00  0.00     0.027 A 
ENDBRANCH  16  19
ENDBRANCH  15  16
ENDBRANCH   2  15
TORSDOF 6
ENDMDL
MODEL 9
REMARK VINA RESULT:      -7.1      1.375      2.058
REMARK  6 active torsions:
REMARK  status: ('A' for Active; 'I' for Inactive)
REMARK    1  A    between atoms: C_2  and  C_3 
REMARK    2  A    between atoms: C_4  and  O_5 
REMARK    3  A    between atoms: C_6  and  C_7 
REMARK       I    between atoms: C_7  and  N_8 
REMARK    4  A    between atoms: N_8  and  C_9 
REMARK    5  A    between atoms: C_9  and  C_10 
REMARK    6  A    between atoms: C_10  and  C_11 
ROOT
HETATM    1  C   UNL     1      -8.942   2.356 -34.390  1.00  0.00     0.254 C 
HETATM    2  N   UNL     1      -8.535   1.122 -34.832  1.00  0.00    -0.356 N 
HETATM    3  O   UNL     1      -8.150   3.193 -33.965  1.00  0.00    -0.268 OA
HETATM    4  H   UNL     1      -9.251   0.499 -35.199  1.00  0.00     0.162 HD
ENDROOT
BRANCH   1   5
HETATM    5  C   UNL     1     -10.412   2.655 -34.452  1.00  0.00     0.065 A 
HETATM    6  C   UNL     1     -11.412   1.918 -33.785  1.00  0.00     0.087 A 
HETATM    7  C   UNL     1     -12.770   2.284 -33.888  1.00  0.00    -0.024 A 
HETATM    8  C   UNL     1     -13.112   3.376 -34.701  1.00  0.00     0.010 A 
HETATM    9  C   UNL     1     -12.135   4.101 -35.379  1.00  0.00     0.002 A 
HETATM   10  C   UNL     1     -10.794   3.745 -35.250  1.00  0.00     0.020 A 
BRANCH   6  11
HETATM   11  O   UNL     1     -11.048   0.833 -33.024  1.00  0.00    -0.359 OA
HETATM   12  H   UNL     1     -11.843   0.338 -32.764  1.00  0.00     0.218 HD
ENDBRANCH   6  11
BRANCH   7  13
HETATM   13  C   UNL     1     -13.883   1.560 -33.165  1.00  0.00     0.037 C 
HETATM   14  C   UNL     1     -14.612   2.465 -32.184  1.00  0.00     0.010 C 
ENDBRANCH   7  13
ENDBRANCH   1   5
BRANCH   2  15
HETATM   15  C   UNL     1      -7.142   0.725 -34.866  1.00  0.00     0.136 C 
BRANCH  15  16
HETATM   16  C   UNL     1      -6.708  -0.138 -33.643  1.00  0.00    -0.004 C 
HETATM   17  C   UNL     1      -5.548   0.593 -32.935  1.00  0.00     0.021 C 
HETATM   18  C   UNL     1      -7.907  -0.190 -32.664  1.00  0.00     0.021 C 
BRANCH  16  19
HETATM   19  C   UNL     1      -6.205  -1.542 -34.036  1.00  0.00    -0.046 A 
HETATM   20  C   UNL     1      -7.078  -2.519 -34.539  1.00  0.00     0.027 A 
HETATM   21  C   UNL     1      -6.583  -3.770 -34.887  1.00  0.00     0.116 A 
HETATM   22  N   UNL     1      -5.287  -4.120 -34.785  1.00  0.00    -0.273 NA
HETATM   23  C   UNL     1      -4.448  -3.170 -34.327  1.00  0.00     0.116 A 
HETATM   24  C   UNL     1      -4.850  -1.894 -33.952  1.00  0.00     0.027 A 
ENDBRANCH  16  19
ENDBRANCH  15  16
ENDBRANCH   2  15
TORSDOF 6
ENDMDL
MODEL 10
REMARK VINA RESULT:      -7.1      2.042      2.958
REMARK  6 active torsions:
REMARK  status: ('A' for Active; 'I' for Inactive)
REMARK    1  A    between atoms: C_2  and  C_3 
REMARK    2  A    between atoms: C_4  and  O_5 
REMARK    3  A    between atoms: C_6  and  C_7 
REMARK       I    between atoms: C_7  and  N_8 
REMARK    4  A    between atoms: N_8  and  C_9 
REMARK    5  A    between atoms: C_9  and  C_10 
REMARK    6  A    between atoms: C_10  and  C_11 
ROOT
HETATM    1  C   UNL     1      -8.781   2.030 -34.218  1.00  0.00     0.254 C 
HETATM    2  N   UNL     1      -8.372   0.940 -34.945  1.00  0.00    -0.356 N 
HETATM    3  O   UNL     1      -8.006   2.682 -33.524  1.00  0.00    -0.268 OA
HETATM    4  H   UNL     1      -9.070   0.474 -35.520  1.00  0.00     0.162 HD
ENDROOT
BRANCH   1   5
HETATM    5  C   UNL     1     -10.232   2.408 -34.310  1.00  0.00     0.065 A 
HETATM    6  C   UNL     1     -11.292   1.671 -33.743  1.00  0.00     0.087 A 
HETATM    7  C   UNL     1     -12.625   2.113 -33.865  1.00  0.00    -0.024 A 
HETATM    8  C   UNL     1     -12.881   3.284 -34.596  1.00  0.00     0.010 A 
HETATM    9  C   UNL     1     -11.843   4.011 -35.175  1.00  0.00     0.002 A 
HETATM   10  C   UNL     1     -10.528   3.577 -35.027  1.00  0.00     0.020 A 
BRANCH   6  11
HETATM   11  O   UNL     1     -11.013   0.511 -33.062  1.00  0.00    -0.359 OA
HETATM   12  H   UNL     1     -11.841   0.038 -32.873  1.00  0.00     0.218 HD
ENDBRANCH   6  11
BRANCH   7  13
HETATM   13  C   UNL     1     -13.801   1.392 -33.247  1.00  0.00     0.037 C 
HETATM   14  C   UNL     1     -14.600   0.610 -34.279  1.00  0.00     0.010 C 
ENDBRANCH   7  13
ENDBRANCH   1   5
BRANCH   2  15
HETATM   15  C   UNL     1      -6.993   0.497 -34.978  1.00  0.00     0.136 C 
BRANCH  15  16
HETATM   16  C   UNL     1      -6.702  -0.714 -34.040  1.00  0.00    -0.004 C 
HETATM   17  C   UNL     1      -7.995  -1.027 -33.257  1.00  0.00     0.021 C 
HETATM   18  C   UNL     1      -6.384  -1.932 -34.943  1.00  0.00     0.021 C 
BRANCH  16  19
HETATM   19  C   UNL     1      -5.589  -0.434 -33.010  1.00  0.00    -0.046 A 
HETATM   20  C   UNL     1      -5.886   0.023 -31.717  1.00  0.00     0.027 A 
HETATM   21  C   UNL     1      -4.855   0.258 -30.816  1.00  0.00     0.116 A 
HETATM   22  N   UNL     1      -3.552   0.061 -31.098  1.00  0.00    -0.273 NA
HETATM   23  C   UNL     1      -3.274  -0.404 -32.331  1.00  0.00     0.116 A 
HETATM   24  C   UNL     1      -4.236  -0.665 -33.299  1.00  0.00     0.027 A 
ENDBRANCH  16  19
ENDBRANCH  15  16
ENDBRANCH   2  15
TORSDOF 6
ENDMDL
