MODEL 1
REMARK VINA RESULT:      -8.9      0.000      0.000
REMARK  6 active torsions:
REMARK  status: ('A' for Active; 'I' for Inactive)
REMARK    1  A    between atoms: C_3  and  N_4 
REMARK       I    between atoms: N_4  and  C_5 
REMARK       I    between atoms: C_5  and  N_6 
REMARK    2  A    between atoms: N_6  and  N_7 
REMARK       I    between atoms: N_7  and  C_8 
REMARK    3  A    between atoms: C_8  and  C_9 
REMARK    4  A    between atoms: C_9  and  N_10 
REMARK       I    between atoms: N_10  and  C_11 
REMARK       I    between atoms: C_11  and  N_12 
REMARK    5  A    between atoms: N_12  and  C_13 
REMARK    6  A    between atoms: C_16  and  O_17 
ROOT
HETATM    1  N   UNL     1      -4.961   3.170 -32.697  1.00  0.00    -0.265 N 
HETATM    2  C   UNL     1      -6.101   3.939 -32.891  1.00  0.00     0.253 C 
HETATM    3  O   UNL     1      -7.173   3.676 -32.344  1.00  0.00    -0.270 OA
HETATM    4  H   UNL     1      -4.062   3.658 -32.796  1.00  0.00     0.190 HD
ENDROOT
BRANCH   2   5
HETATM    5  C   UNL     1      -5.884   5.255 -33.638  1.00  0.00     0.228 C 
BRANCH   5   6
HETATM    6  N   UNL     1      -4.543   5.810 -33.635  1.00  0.00    -0.334 N 
HETATM    7  C   UNL     1      -3.656   5.601 -34.635  1.00  0.00     0.321 C 
HETATM    8  N   UNL     1      -2.350   5.890 -34.394  1.00  0.00    -0.309 N 
HETATM    9  O   UNL     1      -4.021   5.222 -35.747  1.00  0.00    -0.247 OA
HETATM   10  H   UNL     1      -1.800   5.884 -35.245  1.00  0.00     0.170 HD
HETATM   11  H   UNL     1      -4.347   6.587 -33.017  1.00  0.00     0.164 HD
BRANCH   8  12
HETATM   12  C   UNL     1      -1.616   5.996 -33.193  1.00  0.00     0.036 A 
HETATM   13  C   UNL     1      -1.048   7.176 -32.711  1.00  0.00     0.032 A 
HETATM   14  C   UNL     1      -0.374   7.190 -31.483  1.00  0.00     0.039 A 
HETATM   15  C   UNL     1      -0.282   6.039 -30.702  1.00  0.00     0.068 A 
HETATM   16  C   UNL     1      -0.853   4.859 -31.171  1.00  0.00     0.039 A 
HETATM   17  C   UNL     1      -1.518   4.842 -32.406  1.00  0.00     0.032 A 
BRANCH  15  18
HETATM   18  O   UNL     1       0.384   6.199 -29.520  1.00  0.00    -0.356 OA
HETATM   19  C   UNL     1       0.531   7.531 -29.046  1.00  0.00     0.210 C 
ENDBRANCH  15  18
ENDBRANCH   8  12
ENDBRANCH   5   6
ENDBRANCH   2   5
BRANCH   1  20
HETATM   20  N   UNL     1      -5.051   2.226 -31.645  1.00  0.00    -0.249 N 
HETATM   21  C   UNL     1      -5.374   0.904 -31.869  1.00  0.00     0.339 C 
HETATM   22  N   UNL     1      -5.094   0.469 -33.142  1.00  0.00    -0.307 N 
HETATM   23  O   UNL     1      -5.830   0.239 -30.946  1.00  0.00    -0.245 OA
HETATM   24  H   UNL     1      -4.614   1.157 -33.700  1.00  0.00     0.170 HD
HETATM   25  H   UNL     1      -5.442   2.586 -30.774  1.00  0.00     0.192 HD
BRANCH  22  26
HETATM   26  C   UNL     1      -5.317  -0.812 -33.691  1.00  0.00     0.042 A 
HETATM   27  C   UNL     1      -6.549  -1.080 -34.327  1.00  0.00    -0.034 A 
HETATM   28  C   UNL     1      -7.626  -0.037 -34.468  1.00  0.00     0.050 C 
HETATM   29  C   UNL     1      -6.785  -2.361 -34.862  1.00  0.00     0.032 A 
HETATM   30  C   UNL     1      -5.817  -3.359 -34.770  1.00  0.00     0.034 A 
HETATM   31  C   UNL     1      -4.605  -3.100 -34.145  1.00  0.00     0.026 A 
HETATM   32 CL   UNL     1      -6.126  -4.917 -35.431  1.00  0.00    -0.084 Cl
HETATM   33  C   UNL     1      -4.360  -1.833 -33.609  1.00  0.00     0.032 A 
ENDBRANCH  22  26
ENDBRANCH   1  20
TORSDOF 6
ENDMDL
MODEL 2
REMARK VINA RESULT:      -8.9      1.690      2.104
REMARK  6 active torsions:
REMARK  status: ('A' for Active; 'I' for Inactive)
REMARK    1  A    between atoms: C_3  and  N_4 
REMARK       I    between atoms: N_4  and  C_5 
REMARK       I    between atoms: C_5  and  N_6 
REMARK    2  A    between atoms: N_6  and  N_7 
REMARK       I    between atoms: N_7  and  C_8 
REMARK    3  A    between atoms: C_8  and  C_9 
REMARK    4  A    between atoms: C_9  and  N_10 
REMARK       I    between atoms: N_10  and  C_11 
REMARK       I    between atoms: C_11  and  N_12 
REMARK    5  A    between atoms: N_12  and  C_13 
REMARK    6  A    between atoms: C_16  and  O_17 
ROOT
HETATM    1  N   UNL     1      -3.515   2.735 -32.170  1.00  0.00    -0.265 N 
HETATM    2  C   UNL     1      -4.291   3.789 -31.704  1.00  0.00     0.253 C 
HETATM    3  O   UNL     1      -5.020   3.683 -30.717  1.00  0.00    -0.270 OA
HETATM    4  H   UNL     1      -2.652   2.992 -32.666  1.00  0.00     0.190 HD
ENDROOT
BRANCH   2   5
HETATM    5  C   UNL     1      -4.010   5.145 -32.351  1.00  0.00     0.228 C 
BRANCH   5   6
HETATM    6  N   UNL     1      -2.722   5.758 -32.083  1.00  0.00    -0.334 N 
HETATM    7  C   UNL     1      -1.594   5.428 -32.755  1.00  0.00     0.321 C 
HETATM    8  N   UNL     1      -0.404   5.816 -32.225  1.00  0.00    -0.309 N 
HETATM    9  O   UNL     1      -1.642   4.851 -33.841  1.00  0.00    -0.247 OA
HETATM   10  H   UNL     1       0.357   5.694 -32.882  1.00  0.00     0.170 HD
HETATM   11  H   UNL     1      -2.703   6.636 -31.580  1.00  0.00     0.164 HD
BRANCH   8  12
HETATM   12  C   UNL     1      -0.028   6.156 -30.908  1.00  0.00     0.036 A 
HETATM   13  C   UNL     1      -0.128   7.435 -30.359  1.00  0.00     0.032 A 
HETATM   14  C   UNL     1       0.231   7.665 -29.025  1.00  0.00     0.039 A 
HETATM   15  C   UNL     1       0.666   6.622 -28.209  1.00  0.00     0.068 A 
HETATM   16  C   UNL     1       0.761   5.341 -28.746  1.00  0.00     0.039 A 
HETATM   17  C   UNL     1       0.413   5.112 -30.085  1.00  0.00     0.032 A 
BRANCH  15  18
HETATM   18  O   UNL     1       0.963   6.982 -26.925  1.00  0.00    -0.356 OA
HETATM   19  C   UNL     1       1.733   8.166 -26.757  1.00  0.00     0.210 C 
ENDBRANCH  15  18
ENDBRANCH   8  12
ENDBRANCH   5   6
ENDBRANCH   2   5
BRANCH   1  20
HETATM   20  N   UNL     1      -3.429   1.626 -31.294  1.00  0.00    -0.249 N 
HETATM   21  C   UNL     1      -4.011   0.410 -31.589  1.00  0.00     0.339 C 
HETATM   22  N   UNL     1      -4.204   0.195 -32.932  1.00  0.00    -0.307 N 
HETATM   23  O   UNL     1      -4.264  -0.365 -30.673  1.00  0.00    -0.245 OA
HETATM   24  H   UNL     1      -3.814   0.922 -33.511  1.00  0.00     0.170 HD
HETATM   25  H   UNL     1      -3.475   1.855 -30.300  1.00  0.00     0.192 HD
BRANCH  22  26
HETATM   26  C   UNL     1      -4.784  -0.930 -33.557  1.00  0.00     0.042 A 
HETATM   27  C   UNL     1      -6.103  -0.836 -34.051  1.00  0.00    -0.034 A 
HETATM   28  C   UNL     1      -6.907   0.434 -33.962  1.00  0.00     0.050 C 
HETATM   29  C   UNL     1      -6.694  -1.960 -34.660  1.00  0.00     0.032 A 
HETATM   30  C   UNL     1      -5.989  -3.156 -34.780  1.00  0.00     0.034 A 
HETATM   31  C   UNL     1      -4.692  -3.252 -34.296  1.00  0.00     0.026 A 
HETATM   32 CL   UNL     1      -6.730  -4.516 -35.529  1.00  0.00    -0.084 Cl
HETATM   33  C   UNL     1      -4.096  -2.145 -33.687  1.00  0.00     0.032 A 
ENDBRANCH  22  26
ENDBRANCH   1  20
TORSDOF 6
ENDMDL
MODEL 3
REMARK VINA RESULT:      -8.6      3.763      7.698
REMARK  6 active torsions:
REMARK  status: ('A' for Active; 'I' for Inactive)
REMARK    1  A    between atoms: C_3  and  N_4 
REMARK       I    between atoms: N_4  and  C_5 
REMARK       I    between atoms: C_5  and  N_6 
REMARK    2  A    between atoms: N_6  and  N_7 
REMARK       I    between atoms: N_7  and  C_8 
REMARK    3  A    between atoms: C_8  and  C_9 
REMARK    4  A    between atoms: C_9  and  N_10 
REMARK       I    between atoms: N_10  and  C_11 
REMARK       I    between atoms: C_11  and  N_12 
REMARK    5  A    between atoms: N_12  and  C_13 
REMARK    6  A    between atoms: C_16  and  O_17 
ROOT
HETATM    1  N   UNL     1      -7.706   2.252 -30.026  1.00  0.00    -0.265 N 
HETATM    2  C   UNL     1      -8.890   2.383 -30.739  1.00  0.00     0.253 C 
HETATM    3  O   UNL     1      -9.535   3.432 -30.757  1.00  0.00    -0.270 OA
HETATM    4  H   UNL     1      -7.030   1.568 -30.390  1.00  0.00     0.190 HD
ENDROOT
BRANCH   2   5
HETATM    5  C   UNL     1      -9.221   1.223 -31.678  1.00  0.00     0.228 C 
BRANCH   5   6
HETATM    6  N   UNL     1      -8.242   0.889 -32.696  1.00  0.00    -0.334 N 
HETATM    7  C   UNL     1      -8.564   0.706 -33.998  1.00  0.00     0.321 C 
HETATM    8  N   UNL     1      -7.650   0.096 -34.798  1.00  0.00    -0.309 N 
HETATM    9  O   UNL     1      -9.621   1.132 -34.462  1.00  0.00    -0.247 OA
HETATM   10  H   UNL     1      -7.896   0.174 -35.777  1.00  0.00     0.170 HD
HETATM   11  H   UNL     1      -7.265   1.059 -32.497  1.00  0.00     0.164 HD
BRANCH   8  12
HETATM   12  C   UNL     1      -6.569  -0.764 -34.504  1.00  0.00     0.036 A 
HETATM   13  C   UNL     1      -5.398  -0.374 -33.854  1.00  0.00     0.032 A 
HETATM   14  C   UNL     1      -4.398  -1.312 -33.568  1.00  0.00     0.039 A 
HETATM   15  C   UNL     1      -4.562  -2.656 -33.897  1.00  0.00     0.068 A 
HETATM   16  C   UNL     1      -5.730  -3.057 -34.538  1.00  0.00     0.039 A 
HETATM   17  C   UNL     1      -6.727  -2.116 -34.835  1.00  0.00     0.032 A 
BRANCH  15  18
HETATM   18  O   UNL     1      -3.519  -3.465 -33.542  1.00  0.00    -0.356 OA
HETATM   19  C   UNL     1      -3.755  -4.867 -33.586  1.00  0.00     0.210 C 
ENDBRANCH  15  18
ENDBRANCH   8  12
ENDBRANCH   5   6
ENDBRANCH   2   5
BRANCH   1  20
HETATM   20  N   UNL     1      -7.168   3.467 -29.536  1.00  0.00    -0.249 N 
HETATM   21  C   UNL     1      -6.049   4.052 -30.091  1.00  0.00     0.339 C 
HETATM   22  N   UNL     1      -5.822   3.692 -31.398  1.00  0.00    -0.307 N 
HETATM   23  O   UNL     1      -5.395   4.841 -29.419  1.00  0.00    -0.245 OA
HETATM   24  H   UNL     1      -6.555   3.120 -31.786  1.00  0.00     0.170 HD
HETATM   25  H   UNL     1      -7.211   3.581 -28.522  1.00  0.00     0.192 HD
BRANCH  22  26
HETATM   26  C   UNL     1      -4.764   4.099 -32.239  1.00  0.00     0.042 A 
HETATM   27  C   UNL     1      -3.568   3.349 -32.249  1.00  0.00    -0.034 A 
HETATM   28  C   UNL     1      -3.389   2.110 -31.412  1.00  0.00     0.050 C 
HETATM   29  C   UNL     1      -2.502   3.759 -33.073  1.00  0.00     0.032 A 
HETATM   30  C   UNL     1      -2.620   4.891 -33.876  1.00  0.00     0.034 A 
HETATM   31  C   UNL     1      -3.794   5.631 -33.870  1.00  0.00     0.026 A 
HETATM   32 CL   UNL     1      -1.306   5.373 -34.876  1.00  0.00    -0.084 Cl
HETATM   33  C   UNL     1      -4.858   5.236 -33.055  1.00  0.00     0.032 A 
ENDBRANCH  22  26
ENDBRANCH   1  20
TORSDOF 6
ENDMDL
MODEL 4
REMARK VINA RESULT:      -8.5      1.796      2.559
REMARK  6 active torsions:
REMARK  status: ('A' for Active; 'I' for Inactive)
REMARK    1  A    between atoms: C_3  and  N_4 
REMARK       I    between atoms: N_4  and  C_5 
REMARK       I    between atoms: C_5  and  N_6 
REMARK    2  A    between atoms: N_6  and  N_7 
REMARK       I    between atoms: N_7  and  C_8 
REMARK    3  A    between atoms: C_8  and  C_9 
REMARK    4  A    between atoms: C_9  and  N_10 
REMARK       I    between atoms: N_10  and  C_11 
REMARK       I    between atoms: C_11  and  N_12 
REMARK    5  A    between atoms: N_12  and  C_13 
REMARK    6  A    between atoms: C_16  and  O_17 
ROOT
HETATM    1  N   UNL     1      -4.804   2.859 -31.343  1.00  0.00    -0.265 N 
HETATM    2  C   UNL     1      -3.448   2.752 -31.620  1.00  0.00     0.253 C 
HETATM    3  O   UNL     1      -2.718   1.950 -31.036  1.00  0.00    -0.270 OA
HETATM    4  H   UNL     1      -5.401   3.183 -32.115  1.00  0.00     0.190 HD
ENDROOT
BRANCH   2   5
HETATM    5  C   UNL     1      -2.967   3.525 -32.848  1.00  0.00     0.228 C 
BRANCH   5   6
HETATM    6  N   UNL     1      -2.544   4.899 -32.647  1.00  0.00    -0.334 N 
HETATM    7  C   UNL     1      -1.664   5.527 -33.462  1.00  0.00     0.321 C 
HETATM    8  N   UNL     1      -1.099   6.680 -33.017  1.00  0.00    -0.309 N 
HETATM    9  O   UNL     1      -1.426   5.106 -34.594  1.00  0.00    -0.247 OA
HETATM   10  H   UNL     1      -0.611   7.170 -33.756  1.00  0.00     0.170 HD
HETATM   11  H   UNL     1      -3.110   5.494 -32.057  1.00  0.00     0.164 HD
BRANCH   8  12
HETATM   12  C   UNL     1      -0.912   7.194 -31.715  1.00  0.00     0.036 A 
HETATM   13  C   UNL     1      -1.805   8.043 -31.060  1.00  0.00     0.032 A 
HETATM   14  C   UNL     1      -1.552   8.466 -29.749  1.00  0.00     0.039 A 
HETATM   15  C   UNL     1      -0.423   8.026 -29.060  1.00  0.00     0.068 A 
HETATM   16  C   UNL     1       0.469   7.172 -29.701  1.00  0.00     0.039 A 
HETATM   17  C   UNL     1       0.222   6.757 -31.018  1.00  0.00     0.032 A 
BRANCH  15  18
HETATM   18  O   UNL     1      -0.310   8.498 -27.783  1.00  0.00    -0.356 OA
HETATM   19  C   UNL     1      -1.220   7.972 -26.825  1.00  0.00     0.210 C 
ENDBRANCH  15  18
ENDBRANCH   8  12
ENDBRANCH   5   6
ENDBRANCH   2   5
BRANCH   1  20
HETATM   20  N   UNL     1      -5.331   1.822 -30.535  1.00  0.00    -0.249 N 
HETATM   21  C   UNL     1      -5.775   0.629 -31.067  1.00  0.00     0.339 C 
HETATM   22  N   UNL     1      -5.215   0.318 -32.283  1.00  0.00    -0.307 N 
HETATM   23  O   UNL     1      -6.569  -0.048 -30.425  1.00  0.00    -0.245 OA
HETATM   24  H   UNL     1      -4.498   0.966 -32.567  1.00  0.00     0.170 HD
HETATM   25  H   UNL     1      -5.894   2.135 -29.743  1.00  0.00     0.192 HD
BRANCH  22  26
HETATM   26  C   UNL     1      -5.465  -0.812 -33.090  1.00  0.00     0.042 A 
HETATM   27  C   UNL     1      -4.495  -1.835 -33.158  1.00  0.00    -0.034 A 
HETATM   28  C   UNL     1      -3.209  -1.778 -32.376  1.00  0.00     0.050 C 
HETATM   29  C   UNL     1      -4.731  -2.958 -33.974  1.00  0.00     0.032 A 
HETATM   30  C   UNL     1      -5.910  -3.067 -34.709  1.00  0.00     0.034 A 
HETATM   31  C   UNL     1      -6.866  -2.063 -34.645  1.00  0.00     0.026 A 
HETATM   32 CL   UNL     1      -6.179  -4.447 -35.700  1.00  0.00    -0.084 Cl
HETATM   33  C   UNL     1      -6.643  -0.943 -33.840  1.00  0.00     0.032 A 
ENDBRANCH  22  26
ENDBRANCH   1  20
TORSDOF 6
ENDMDL
MODEL 5
REMARK VINA RESULT:      -8.5      2.524      3.899
REMARK  6 active torsions:
REMARK  status: ('A' for Active; 'I' for Inactive)
REMARK    1  A    between atoms: C_3  and  N_4 
REMARK       I    between atoms: N_4  and  C_5 
REMARK       I    between atoms: C_5  and  N_6 
REMARK    2  A    between atoms: N_6  and  N_7 
REMARK       I    between atoms: N_7  and  C_8 
REMARK    3  A    between atoms: C_8  and  C_9 
REMARK    4  A    between atoms: C_9  and  N_10 
REMARK       I    between atoms: N_10  and  C_11 
REMARK       I    between atoms: C_11  and  N_12 
REMARK    5  A    between atoms: N_12  and  C_13 
REMARK    6  A    between atoms: C_16  and  O_17 
ROOT
HETATM    1  N   UNL     1      -3.966   4.127 -31.308  1.00  0.00    -0.265 N 
HETATM    2  C   UNL     1      -4.008   5.439 -30.855  1.00  0.00     0.253 C 
HETATM    3  O   UNL     1      -4.667   5.774 -29.869  1.00  0.00    -0.270 OA
HETATM    4  H   UNL     1      -3.111   3.845 -31.803  1.00  0.00     0.190 HD
ENDROOT
BRANCH   2   5
HETATM    5  C   UNL     1      -3.010   6.392 -31.512  1.00  0.00     0.228 C 
BRANCH   5   6
HETATM    6  N   UNL     1      -1.712   6.540 -30.878  1.00  0.00    -0.334 N 
HETATM    7  C   UNL     1      -0.813   5.532 -30.795  1.00  0.00     0.321 C 
HETATM    8  N   UNL     1       0.218   5.674 -29.921  1.00  0.00    -0.309 N 
HETATM    9  O   UNL     1      -0.885   4.547 -31.528  1.00  0.00    -0.247 OA
HETATM   10  H   UNL     1       0.931   4.969 -30.064  1.00  0.00     0.170 HD
HETATM   11  H   UNL     1      -1.353   7.475 -30.734  1.00  0.00     0.164 HD
BRANCH   8  12
HETATM   12  C   UNL     1       0.370   6.473 -28.767  1.00  0.00     0.036 A 
HETATM   13  C   UNL     1       0.024   6.076 -27.475  1.00  0.00     0.032 A 
HETATM   14  C   UNL     1       0.254   6.925 -26.385  1.00  0.00     0.039 A 
HETATM   15  C   UNL     1       0.859   8.169 -26.561  1.00  0.00     0.068 A 
HETATM   16  C   UNL     1       1.216   8.570 -27.845  1.00  0.00     0.039 A 
HETATM   17  C   UNL     1       0.975   7.724 -28.938  1.00  0.00     0.032 A 
BRANCH  15  18
HETATM   18  O   UNL     1       1.043   8.885 -25.412  1.00  0.00    -0.356 OA
HETATM   19  C   UNL     1       2.304   8.747 -24.769  1.00  0.00     0.210 C 
ENDBRANCH  15  18
ENDBRANCH   8  12
ENDBRANCH   5   6
ENDBRANCH   2   5
BRANCH   1  20
HETATM   20  N   UNL     1      -4.522   3.172 -30.422  1.00  0.00    -0.249 N 
HETATM   21  C   UNL     1      -5.042   1.974 -30.865  1.00  0.00     0.339 C 
HETATM   22  N   UNL     1      -4.534   1.558 -32.072  1.00  0.00    -0.307 N 
HETATM   23  O   UNL     1      -5.852   1.381 -30.161  1.00  0.00    -0.245 OA
HETATM   24  H   UNL     1      -3.793   2.147 -32.416  1.00  0.00     0.170 HD
HETATM   25  H   UNL     1      -5.045   3.564 -29.637  1.00  0.00     0.192 HD
BRANCH  22  26
HETATM   26  C   UNL     1      -4.866   0.394 -32.799  1.00  0.00     0.042 A 
HETATM   27  C   UNL     1      -4.030  -0.740 -32.697  1.00  0.00    -0.034 A 
HETATM   28  C   UNL     1      -2.809  -0.762 -31.817  1.00  0.00     0.050 C 
HETATM   29  C   UNL     1      -4.347  -1.898 -33.432  1.00  0.00     0.032 A 
HETATM   30  C   UNL     1      -5.473  -1.935 -34.252  1.00  0.00     0.034 A 
HETATM   31  C   UNL     1      -6.297  -0.823 -34.354  1.00  0.00     0.026 A 
HETATM   32 CL   UNL     1      -5.841  -3.361 -35.140  1.00  0.00    -0.084 Cl
HETATM   33  C   UNL     1      -5.992   0.334 -33.632  1.00  0.00     0.032 A 
ENDBRANCH  22  26
ENDBRANCH   1  20
TORSDOF 6
ENDMDL
MODEL 6
REMARK VINA RESULT:      -8.4      3.489      5.123
REMARK  6 active torsions:
REMARK  status: ('A' for Active; 'I' for Inactive)
REMARK    1  A    between atoms: C_3  and  N_4 
REMARK       I    between atoms: N_4  and  C_5 
REMARK       I    between atoms: C_5  and  N_6 
REMARK    2  A    between atoms: N_6  and  N_7 
REMARK       I    between atoms: N_7  and  C_8 
REMARK    3  A    between atoms: C_8  and  C_9 
REMARK    4  A    between atoms: C_9  and  N_10 
REMARK       I    between atoms: N_10  and  C_11 
REMARK       I    between atoms: C_11  and  N_12 
REMARK    5  A    between atoms: N_12  and  C_13 
REMARK    6  A    between atoms: C_16  and  O_17 
ROOT
HETATM    1  N   UNL     1      -5.358   4.986 -28.278  1.00  0.00    -0.265 N 
HETATM    2  C   UNL     1      -5.429   6.182 -27.577  1.00  0.00     0.253 C 
HETATM    3  O   UNL     1      -6.484   6.805 -27.443  1.00  0.00    -0.270 OA
HETATM    4  H   UNL     1      -4.620   4.333 -27.987  1.00  0.00     0.190 HD
ENDROOT
BRANCH   2   5
HETATM    5  C   UNL     1      -4.171   6.558 -26.794  1.00  0.00     0.228 C 
BRANCH   5   6
HETATM    6  N   UNL     1      -2.952   6.770 -27.552  1.00  0.00    -0.334 N 
HETATM    7  C   UNL     1      -2.024   7.695 -27.214  1.00  0.00     0.321 C 
HETATM    8  N   UNL     1      -1.093   8.029 -28.146  1.00  0.00    -0.309 N 
HETATM    9  O   UNL     1      -1.981   8.176 -26.082  1.00  0.00    -0.247 OA
HETATM   10  H   UNL     1      -0.340   8.576 -27.746  1.00  0.00     0.170 HD
HETATM   11  H   UNL     1      -2.647   6.041 -28.184  1.00  0.00     0.164 HD
BRANCH   8  12
HETATM   12  C   UNL     1      -1.092   7.923 -29.554  1.00  0.00     0.036 A 
HETATM   13  C   UNL     1      -0.265   7.069 -30.285  1.00  0.00     0.032 A 
HETATM   14  C   UNL     1      -0.368   7.002 -31.680  1.00  0.00     0.039 A 
HETATM   15  C   UNL     1      -1.316   7.761 -32.366  1.00  0.00     0.068 A 
HETATM   16  C   UNL     1      -2.151   8.609 -31.644  1.00  0.00     0.039 A 
HETATM   17  C   UNL     1      -2.040   8.685 -30.248  1.00  0.00     0.032 A 
BRANCH  15  18
HETATM   18  O   UNL     1      -1.322   7.584 -33.720  1.00  0.00    -0.356 OA
HETATM   19  C   UNL     1      -2.248   6.636 -34.236  1.00  0.00     0.210 C 
ENDBRANCH  15  18
ENDBRANCH   8  12
ENDBRANCH   5   6
ENDBRANCH   2   5
BRANCH   1  20
HETATM   20  N   UNL     1      -6.611   4.412 -28.605  1.00  0.00    -0.249 N 
HETATM   21  C   UNL     1      -6.738   3.411 -29.546  1.00  0.00     0.339 C 
HETATM   22  N   UNL     1      -5.590   2.681 -29.742  1.00  0.00    -0.307 N 
HETATM   23  O   UNL     1      -7.826   3.234 -30.082  1.00  0.00    -0.245 OA
HETATM   24  H   UNL     1      -4.848   2.929 -29.107  1.00  0.00     0.170 HD
HETATM   25  H   UNL     1      -7.396   5.064 -28.615  1.00  0.00     0.192 HD
BRANCH  22  26
HETATM   26  C   UNL     1      -5.385   1.608 -30.636  1.00  0.00     0.042 A 
HETATM   27  C   UNL     1      -4.328   1.686 -31.570  1.00  0.00    -0.034 A 
HETATM   28  C   UNL     1      -3.391   2.863 -31.627  1.00  0.00     0.050 C 
HETATM   29  C   UNL     1      -4.129   0.627 -32.476  1.00  0.00     0.032 A 
HETATM   30  C   UNL     1      -4.960  -0.491 -32.457  1.00  0.00     0.034 A 
HETATM   31  C   UNL     1      -6.000  -0.571 -31.542  1.00  0.00     0.026 A 
HETATM   32 CL   UNL     1      -4.698  -1.773 -33.573  1.00  0.00    -0.084 Cl
HETATM   33  C   UNL     1      -6.210   0.474 -30.638  1.00  0.00     0.032 A 
ENDBRANCH  22  26
ENDBRANCH   1  20
TORSDOF 6
ENDMDL
MODEL 7
REMARK VINA RESULT:      -8.3      1.728      2.698
REMARK  6 active torsions:
REMARK  status: ('A' for Active; 'I' for Inactive)
REMARK    1  A    between atoms: C_3  and  N_4 
REMARK       I    between atoms: N_4  and  C_5 
REMARK       I    between atoms: C_5  and  N_6 
REMARK    2  A    between atoms: N_6  and  N_7 
REMARK       I    between atoms: N_7  and  C_8 
REMARK    3  A    between atoms: C_8  and  C_9 
REMARK    4  A    between atoms: C_9  and  N_10 
REMARK       I    between atoms: N_10  and  C_11 
REMARK       I    between atoms: C_11  and  N_12 
REMARK    5  A    between atoms: N_12  and  C_13 
REMARK    6  A    between atoms: C_16  and  O_17 
ROOT
HETATM    1  N   UNL     1      -4.382   3.779 -32.786  1.00  0.00    -0.265 N 
HETATM    2  C   UNL     1      -4.342   4.656 -33.862  1.00  0.00     0.253 C 
HETATM    3  O   UNL     1      -5.340   4.920 -34.534  1.00  0.00    -0.270 OA
HETATM    4  H   UNL     1      -3.692   3.942 -32.042  1.00  0.00     0.190 HD
ENDROOT
BRANCH   2   5
HETATM    5  C   UNL     1      -3.041   5.445 -34.016  1.00  0.00     0.228 C 
BRANCH   5   6
HETATM    6  N   UNL     1      -2.686   6.360 -32.947  1.00  0.00    -0.334 N 
HETATM    7  C   UNL     1      -1.961   7.485 -33.150  1.00  0.00     0.321 C 
HETATM    8  N   UNL     1      -1.419   8.094 -32.062  1.00  0.00    -0.309 N 
HETATM    9  O   UNL     1      -1.845   7.979 -34.271  1.00  0.00    -0.247 OA
HETATM   10  H   UNL     1      -1.063   9.016 -32.286  1.00  0.00     0.170 HD
HETATM   11  H   UNL     1      -3.208   6.314 -32.082  1.00  0.00     0.164 HD
BRANCH   8  12
HETATM   12  C   UNL     1      -1.099   7.611 -30.775  1.00  0.00     0.036 A 
HETATM   13  C   UNL     1       0.095   6.969 -30.442  1.00  0.00     0.032 A 
HETATM   14  C   UNL     1       0.340   6.564 -29.124  1.00  0.00     0.039 A 
HETATM   15  C   UNL     1      -0.585   6.817 -28.113  1.00  0.00     0.068 A 
HETATM   16  C   UNL     1      -1.775   7.464 -28.434  1.00  0.00     0.039 A 
HETATM   17  C   UNL     1      -2.026   7.860 -29.756  1.00  0.00     0.032 A 
BRANCH  15  18
HETATM   18  O   UNL     1      -0.211   6.386 -26.871  1.00  0.00    -0.356 OA
HETATM   19  C   UNL     1       0.756   7.174 -26.188  1.00  0.00     0.210 C 
ENDBRANCH  15  18
ENDBRANCH   8  12
ENDBRANCH   5   6
ENDBRANCH   2   5
BRANCH   1  20
HETATM   20  N   UNL     1      -5.684   3.412 -32.365  1.00  0.00    -0.249 N 
HETATM   21  C   UNL     1      -6.286   2.240 -32.777  1.00  0.00     0.339 C 
HETATM   22  N   UNL     1      -5.399   1.262 -33.159  1.00  0.00    -0.307 N 
HETATM   23  O   UNL     1      -7.508   2.154 -32.735  1.00  0.00    -0.245 OA
HETATM   24  H   UNL     1      -4.437   1.515 -33.001  1.00  0.00     0.170 HD
HETATM   25  H   UNL     1      -6.345   4.185 -32.278  1.00  0.00     0.192 HD
BRANCH  22  26
HETATM   26  C   UNL     1      -5.690  -0.032 -33.640  1.00  0.00     0.042 A 
HETATM   27  C   UNL     1      -4.751  -1.067 -33.433  1.00  0.00    -0.034 A 
HETATM   28  C   UNL     1      -3.461  -0.846 -32.691  1.00  0.00     0.050 C 
HETATM   29  C   UNL     1      -5.028  -2.357 -33.925  1.00  0.00     0.032 A 
HETATM   30  C   UNL     1      -6.213  -2.619 -34.609  1.00  0.00     0.034 A 
HETATM   31  C   UNL     1      -7.138  -1.604 -34.814  1.00  0.00     0.026 A 
HETATM   32 CL   UNL     1      -6.531  -4.203 -35.201  1.00  0.00    -0.084 Cl
HETATM   33  C   UNL     1      -6.875  -0.319 -34.332  1.00  0.00     0.032 A 
ENDBRANCH  22  26
ENDBRANCH   1  20
TORSDOF 6
ENDMDL
MODEL 8
REMARK VINA RESULT:      -8.1      3.800      9.354
REMARK  6 active torsions:
REMARK  status: ('A' for Active; 'I' for Inactive)
REMARK    1  A    between atoms: C_3  and  N_4 
REMARK       I    between atoms: N_4  and  C_5 
REMARK       I    between atoms: C_5  and  N_6 
REMARK    2  A    between atoms: N_6  and  N_7 
REMARK       I    between atoms: N_7  and  C_8 
REMARK    3  A    between atoms: C_8  and  C_9 
REMARK    4  A    between atoms: C_9  and  N_10 
REMARK       I    between atoms: N_10  and  C_11 
REMARK       I    between atoms: C_11  and  N_12 
REMARK    5  A    between atoms: N_12  and  C_13 
REMARK    6  A    between atoms: C_16  and  O_17 
ROOT
HETATM    1  N   UNL     1      -4.313   5.533 -33.813  1.00  0.00    -0.265 N 
HETATM    2  C   UNL     1      -4.231   4.310 -33.159  1.00  0.00     0.253 C 
HETATM    3  O   UNL     1      -3.231   3.594 -33.226  1.00  0.00    -0.270 OA
HETATM    4  H   UNL     1      -4.926   6.237 -33.383  1.00  0.00     0.190 HD
ENDROOT
BRANCH   2   5
HETATM    5  C   UNL     1      -5.362   4.018 -32.173  1.00  0.00     0.228 C 
BRANCH   5   6
HETATM    6  N   UNL     1      -6.129   2.803 -32.380  1.00  0.00    -0.334 N 
HETATM    7  C   UNL     1      -6.785   2.165 -31.381  1.00  0.00     0.321 C 
HETATM    8  N   UNL     1      -7.198   0.891 -31.608  1.00  0.00    -0.309 N 
HETATM    9  O   UNL     1      -7.054   2.736 -30.325  1.00  0.00    -0.247 OA
HETATM   10  H   UNL     1      -7.835   0.569 -30.889  1.00  0.00     0.170 HD
HETATM   11  H   UNL     1      -6.412   2.568 -33.322  1.00  0.00     0.164 HD
BRANCH   8  12
HETATM   12  C   UNL     1      -6.761  -0.092 -32.522  1.00  0.00     0.036 A 
HETATM   13  C   UNL     1      -7.489  -0.524 -33.631  1.00  0.00     0.032 A 
HETATM   14  C   UNL     1      -6.950  -1.475 -34.508  1.00  0.00     0.039 A 
HETATM   15  C   UNL     1      -5.668  -1.986 -34.311  1.00  0.00     0.068 A 
HETATM   16  C   UNL     1      -4.931  -1.554 -33.213  1.00  0.00     0.039 A 
HETATM   17  C   UNL     1      -5.474  -0.610 -32.328  1.00  0.00     0.032 A 
BRANCH  15  18
HETATM   18  O   UNL     1      -5.259  -2.889 -35.252  1.00  0.00    -0.356 OA
HETATM   19  C   UNL     1      -5.981  -4.113 -35.317  1.00  0.00     0.210 C 
ENDBRANCH  15  18
ENDBRANCH   8  12
ENDBRANCH   5   6
ENDBRANCH   2   5
BRANCH   1  20
HETATM   20  N   UNL     1      -3.089   6.007 -34.345  1.00  0.00    -0.249 N 
HETATM   21  C   UNL     1      -2.151   6.654 -33.568  1.00  0.00     0.339 C 
HETATM   22  N   UNL     1      -2.233   6.354 -32.229  1.00  0.00    -0.307 N 
HETATM   23  O   UNL     1      -1.331   7.385 -34.112  1.00  0.00    -0.245 OA
HETATM   24  H   UNL     1      -2.912   5.639 -32.023  1.00  0.00     0.170 HD
HETATM   25  H   UNL     1      -3.147   6.385 -35.291  1.00  0.00     0.192 HD
BRANCH  22  26
HETATM   26  C   UNL     1      -1.437   6.856 -31.177  1.00  0.00     0.042 A 
HETATM   27  C   UNL     1      -1.969   7.854 -30.331  1.00  0.00    -0.034 A 
HETATM   28  C   UNL     1      -3.369   8.384 -30.493  1.00  0.00     0.050 C 
HETATM   29  C   UNL     1      -1.175   8.371 -29.290  1.00  0.00     0.032 A 
HETATM   30  C   UNL     1       0.123   7.906 -29.088  1.00  0.00     0.034 A 
HETATM   31  C   UNL     1       0.649   6.926 -29.917  1.00  0.00     0.026 A 
HETATM   32 CL   UNL     1       1.076   8.551 -27.808  1.00  0.00    -0.084 Cl
HETATM   33  C   UNL     1      -0.128   6.406 -30.955  1.00  0.00     0.032 A 
ENDBRANCH  22  26
ENDBRANCH   1  20
TORSDOF 6
ENDMDL
MODEL 9
REMARK VINA RESULT:      -8.1      3.763      7.425
REMARK  6 active torsions:
REMARK  status: ('A' for Active; 'I' for Inactive)
REMARK    1  A    between atoms: C_3  and  N_4 
REMARK       I    between atoms: N_4  and  C_5 
REMARK       I    between atoms: C_5  and  N_6 
REMARK    2  A    between atoms: N_6  and  N_7 
REMARK       I    between atoms: N_7  and  C_8 
REMARK    3  A    between atoms: C_8  and  C_9 
REMARK    4  A    between atoms: C_9  and  N_10 
REMARK       I    between atoms: N_10  and  C_11 
REMARK       I    between atoms: C_11  and  N_12 
REMARK    5  A    between atoms: N_12  and  C_13 
REMARK    6  A    between atoms: C_16  and  O_17 
ROOT
HETATM    1  N   UNL     1      -5.378   2.598 -30.882  1.00  0.00    -0.265 N 
HETATM    2  C   UNL     1      -5.779   3.705 -31.618  1.00  0.00     0.253 C 
HETATM    3  O   UNL     1      -5.028   4.276 -32.410  1.00  0.00    -0.270 OA
HETATM    4  H   UNL     1      -6.120   1.939 -30.613  1.00  0.00     0.190 HD
ENDROOT
BRANCH   2   5
HETATM    5  C   UNL     1      -7.272   4.029 -31.553  1.00  0.00     0.228 C 
BRANCH   5   6
HETATM    6  N   UNL     1      -8.112   3.517 -32.620  1.00  0.00    -0.334 N 
HETATM    7  C   UNL     1      -8.340   4.195 -33.769  1.00  0.00     0.321 C 
HETATM    8  N   UNL     1      -9.373   3.786 -34.552  1.00  0.00    -0.309 N 
HETATM    9  O   UNL     1      -7.603   5.113 -34.129  1.00  0.00    -0.247 OA
HETATM   10  H   UNL     1      -9.349   4.222 -35.465  1.00  0.00     0.170 HD
HETATM   11  H   UNL     1      -8.316   2.526 -32.637  1.00  0.00     0.164 HD
BRANCH   8  12
HETATM   12  C   UNL     1     -10.538   3.043 -34.260  1.00  0.00     0.036 A 
HETATM   13  C   UNL     1     -10.608   1.649 -34.243  1.00  0.00     0.032 A 
HETATM   14  C   UNL     1     -11.800   1.002 -33.898  1.00  0.00     0.039 A 
HETATM   15  C   UNL     1     -12.932   1.730 -33.534  1.00  0.00     0.068 A 
HETATM   16  C   UNL     1     -12.870   3.121 -33.539  1.00  0.00     0.039 A 
HETATM   17  C   UNL     1     -11.679   3.770 -33.896  1.00  0.00     0.032 A 
BRANCH  15  18
HETATM   18  O   UNL     1     -14.020   0.973 -33.201  1.00  0.00    -0.356 OA
HETATM   19  C   UNL     1     -14.980   0.751 -34.226  1.00  0.00     0.210 C 
ENDBRANCH  15  18
ENDBRANCH   8  12
ENDBRANCH   5   6
ENDBRANCH   2   5
BRANCH   1  20
HETATM   20  N   UNL     1      -4.148   2.026 -31.289  1.00  0.00    -0.249 N 
HETATM   21  C   UNL     1      -4.081   0.802 -31.924  1.00  0.00     0.339 C 
HETATM   22  N   UNL     1      -5.238   0.448 -32.575  1.00  0.00    -0.307 N 
HETATM   23  O   UNL     1      -3.029   0.173 -31.891  1.00  0.00    -0.245 OA
HETATM   24  H   UNL     1      -5.937   1.172 -32.565  1.00  0.00     0.170 HD
HETATM   25  H   UNL     1      -3.366   2.183 -30.652  1.00  0.00     0.192 HD
BRANCH  22  26
HETATM   26  C   UNL     1      -5.498  -0.735 -33.299  1.00  0.00     0.042 A 
HETATM   27  C   UNL     1      -6.838  -1.115 -33.534  1.00  0.00    -0.034 A 
HETATM   28  C   UNL     1      -8.003  -0.287 -33.063  1.00  0.00     0.050 C 
HETATM   29  C   UNL     1      -7.104  -2.303 -34.242  1.00  0.00     0.032 A 
HETATM   30  C   UNL     1      -6.062  -3.100 -34.711  1.00  0.00     0.034 A 
HETATM   31  C   UNL     1      -4.744  -2.730 -34.483  1.00  0.00     0.026 A 
HETATM   32 CL   UNL     1      -6.411  -4.546 -35.575  1.00  0.00    -0.084 Cl
HETATM   33  C   UNL     1      -4.466  -1.555 -33.780  1.00  0.00     0.032 A 
ENDBRANCH  22  26
ENDBRANCH   1  20
TORSDOF 6
ENDMDL
MODEL 10
REMARK VINA RESULT:      -8.0      3.872      7.422
REMARK  6 active torsions:
REMARK  status: ('A' for Active; 'I' for Inactive)
REMARK    1  A    between atoms: C_3  and  N_4 
REMARK       I    between atoms: N_4  and  C_5 
REMARK       I    between atoms: C_5  and  N_6 
REMARK    2  A    between atoms: N_6  and  N_7 
REMARK       I    between atoms: N_7  and  C_8 
REMARK    3  A    between atoms: C_8  and  C_9 
REMARK    4  A    between atoms: C_9  and  N_10 
REMARK       I    between atoms: N_10  and  C_11 
REMARK       I    between atoms: C_11  and  N_12 
REMARK    5  A    between atoms: N_12  and  C_13 
REMARK    6  A    between atoms: C_16  and  O_17 
ROOT
HETATM    1  N   UNL     1      -6.049   3.031 -30.524  1.00  0.00    -0.265 N 
HETATM    2  C   UNL     1      -7.046   3.969 -30.759  1.00  0.00     0.253 C 
HETATM    3  O   UNL     1      -6.907   4.889 -31.566  1.00  0.00    -0.270 OA
HETATM    4  H   UNL     1      -6.363   2.102 -30.218  1.00  0.00     0.190 HD
ENDROOT
BRANCH   2   5
HETATM    5  C   UNL     1      -8.402   3.655 -30.126  1.00  0.00     0.228 C 
BRANCH   5   6
HETATM    6  N   UNL     1      -9.428   3.100 -30.990  1.00  0.00    -0.334 N 
HETATM    7  C   UNL     1      -9.290   1.918 -31.634  1.00  0.00     0.321 C 
HETATM    8  N   UNL     1     -10.152   1.645 -32.649  1.00  0.00    -0.309 N 
HETATM    9  O   UNL     1      -8.454   1.088 -31.278  1.00  0.00    -0.247 OA
HETATM   10  H   UNL     1     -10.096   0.676 -32.938  1.00  0.00     0.170 HD
HETATM   11  H   UNL     1     -10.372   3.456 -30.905  1.00  0.00     0.164 HD
BRANCH   8  12
HETATM   12  C   UNL     1     -10.936   2.485 -33.469  1.00  0.00     0.036 A 
HETATM   13  C   UNL     1     -12.286   2.767 -33.256  1.00  0.00     0.032 A 
HETATM   14  C   UNL     1     -12.969   3.650 -34.102  1.00  0.00     0.039 A 
HETATM   15  C   UNL     1     -12.312   4.288 -35.153  1.00  0.00     0.068 A 
HETATM   16  C   UNL     1     -10.963   4.020 -35.368  1.00  0.00     0.039 A 
HETATM   17  C   UNL     1     -10.282   3.127 -34.528  1.00  0.00     0.032 A 
BRANCH  15  18
HETATM   18  O   UNL     1     -13.091   5.139 -35.885  1.00  0.00    -0.356 OA
HETATM   19  C   UNL     1     -13.448   6.369 -35.267  1.00  0.00     0.210 C 
ENDBRANCH  15  18
ENDBRANCH   8  12
ENDBRANCH   5   6
ENDBRANCH   2   5
BRANCH   1  20
HETATM   20  N   UNL     1      -4.976   3.057 -31.449  1.00  0.00    -0.249 N 
HETATM   21  C   UNL     1      -4.644   1.963 -32.221  1.00  0.00     0.339 C 
HETATM   22  N   UNL     1      -5.682   1.083 -32.416  1.00  0.00    -0.307 N 
HETATM   23  O   UNL     1      -3.512   1.884 -32.683  1.00  0.00    -0.245 OA
HETATM   24  H   UNL     1      -6.556   1.410 -32.038  1.00  0.00     0.170 HD
HETATM   25  H   UNL     1      -4.159   3.591 -31.149  1.00  0.00     0.192 HD
BRANCH  22  26
HETATM   26  C   UNL     1      -5.666  -0.130 -33.138  1.00  0.00     0.042 A 
HETATM   27  C   UNL     1      -6.517  -0.273 -34.256  1.00  0.00    -0.034 A 
HETATM   28  C   UNL     1      -7.423   0.835 -34.725  1.00  0.00     0.050 C 
HETATM   29  C   UNL     1      -6.519  -1.486 -34.971  1.00  0.00     0.032 A 
HETATM   30  C   UNL     1      -5.691  -2.539 -34.587  1.00  0.00     0.034 A 
HETATM   31  C   UNL     1      -4.853  -2.402 -33.489  1.00  0.00     0.026 A 
HETATM   32 CL   UNL     1      -5.709  -4.012 -35.475  1.00  0.00    -0.084 Cl
HETATM   33  C   UNL     1      -4.844  -1.203 -32.770  1.00  0.00     0.032 A 
ENDBRANCH  22  26
ENDBRANCH   1  20
TORSDOF 6
ENDMDL
