MODEL 1
REMARK VINA RESULT:      -9.7      0.000      0.000
REMARK  3 active torsions:
REMARK  status: ('A' for Active; 'I' for Inactive)
REMARK    1  A    between atoms: O_2  and  C_3 
REMARK       I    between atoms: N_13  and  C_14 
REMARK       I    between atoms: C_14  and  N_15 
REMARK    2  A    between atoms: N_15  and  C_16 
REMARK    3  A    between atoms: C_22  and  C_23 
ROOT
HETATM    1  C   UNL     1     -12.874   2.712 -33.237  1.00  0.00     0.069 A 
HETATM    2  C   UNL     1     -11.722   2.584 -32.452  1.00  0.00     0.051 A 
HETATM    3  C   UNL     1     -10.481   2.327 -33.074  1.00  0.00     0.002 A 
HETATM    4  C   UNL     1     -10.434   2.221 -34.466  1.00  0.00     0.043 A 
HETATM    5  N   UNL     1      -9.124   1.972 -34.821  1.00  0.00    -0.356 N 
HETATM    6  H   UNL     1      -8.804   1.849 -35.772  1.00  0.00     0.166 HD
HETATM    7  C   UNL     1      -8.350   1.876 -33.697  1.00  0.00     0.045 A 
HETATM    8  C   UNL     1      -9.155   2.138 -32.601  1.00  0.00    -0.019 A 
HETATM    9  C   UNL     1      -8.590   2.200 -31.218  1.00  0.00     0.061 C 
HETATM   10  C   UNL     1      -7.181   1.569 -31.198  1.00  0.00     0.133 C 
HETATM   11  N   UNL     1      -6.375   2.002 -32.359  1.00  0.00    -0.320 N 
HETATM   12  C   UNL     1      -5.521   3.077 -32.170  1.00  0.00     0.319 C 
HETATM   13  N   UNL     1      -4.810   3.460 -33.280  1.00  0.00    -0.338 N 
HETATM   14  O   UNL     1      -5.397   3.641 -31.086  1.00  0.00    -0.247 OA
HETATM   15  C   UNL     1      -6.878   1.558 -33.680  1.00  0.00     0.172 C 
HETATM   16  C   UNL     1     -11.568   2.366 -35.270  1.00  0.00     0.033 A 
HETATM   17  C   UNL     1     -12.785   2.612 -34.626  1.00  0.00     0.039 A 
HETATM   18  H   UNL     1      -4.569   2.705 -33.900  1.00  0.00     0.164 HD
ENDROOT
BRANCH  15  19
HETATM   19  C   UNL     1      -6.526   0.085 -33.919  1.00  0.00    -0.029 A 
HETATM   20  C   UNL     1      -7.460  -0.869 -34.370  1.00  0.00     0.012 A 
HETATM   21  C   UNL     1      -7.089  -2.201 -34.569  1.00  0.00     0.043 A 
HETATM   22  C   UNL     1      -5.785  -2.597 -34.312  1.00  0.00     0.116 A 
HETATM   23  F   UNL     1      -5.432  -3.877 -34.499  1.00  0.00    -0.206 F 
HETATM   24  C   UNL     1      -4.842  -1.687 -33.858  1.00  0.00     0.043 A 
HETATM   25  C   UNL     1      -5.211  -0.354 -33.663  1.00  0.00     0.012 A 
ENDBRANCH  15  19
BRANCH  13  26
HETATM   26  C   UNL     1      -3.861   4.559 -33.286  1.00  0.00     0.086 C 
HETATM   27  C   UNL     1      -2.452   4.211 -32.796  1.00  0.00     0.025 C 
HETATM   28  C   UNL     1      -1.585   5.274 -33.452  1.00  0.00     0.002 C 
HETATM   29  C   UNL     1      -2.177   5.394 -34.847  1.00  0.00     0.002 C 
HETATM   30  C   UNL     1      -3.684   5.243 -34.650  1.00  0.00     0.025 C 
ENDBRANCH  13  26
BRANCH   1  31
HETATM   31  O   UNL     1     -14.139   2.942 -32.765  1.00  0.00    -0.356 OA
HETATM   32  C   UNL     1     -15.022   1.827 -32.731  1.00  0.00     0.210 C 
ENDBRANCH   1  31
TORSDOF 3
ENDMDL
MODEL 2
REMARK VINA RESULT:      -9.0      3.234      7.891
REMARK  3 active torsions:
REMARK  status: ('A' for Active; 'I' for Inactive)
REMARK    1  A    between atoms: O_2  and  C_3 
REMARK       I    between atoms: N_13  and  C_14 
REMARK       I    between atoms: C_14  and  N_15 
REMARK    2  A    between atoms: N_15  and  C_16 
REMARK    3  A    between atoms: C_22  and  C_23 
ROOT
HETATM    1  C   UNL     1      -1.702   6.562 -32.425  1.00  0.00     0.069 A 
HETATM    2  C   UNL     1      -2.596   5.710 -31.765  1.00  0.00     0.051 A 
HETATM    3  C   UNL     1      -3.556   4.995 -32.513  1.00  0.00     0.002 A 
HETATM    4  C   UNL     1      -3.579   5.146 -33.902  1.00  0.00     0.043 A 
HETATM    5  N   UNL     1      -4.593   4.350 -34.392  1.00  0.00    -0.356 N 
HETATM    6  H   UNL     1      -4.834   4.270 -35.370  1.00  0.00     0.166 HD
HETATM    7  C   UNL     1      -5.240   3.734 -33.354  1.00  0.00     0.045 A 
HETATM    8  C   UNL     1      -4.589   4.078 -32.182  1.00  0.00    -0.019 A 
HETATM    9  C   UNL     1      -4.997   3.495 -30.867  1.00  0.00     0.061 C 
HETATM   10  C   UNL     1      -6.390   2.842 -30.992  1.00  0.00     0.133 C 
HETATM   11  N   UNL     1      -6.510   2.049 -32.234  1.00  0.00    -0.320 N 
HETATM   12  C   UNL     1      -6.260   0.689 -32.144  1.00  0.00     0.319 C 
HETATM   13  N   UNL     1      -6.360  -0.002 -33.325  1.00  0.00    -0.338 N 
HETATM   14  O   UNL     1      -5.982   0.138 -31.083  1.00  0.00    -0.247 OA
HETATM   15  C   UNL     1      -6.437   2.830 -33.491  1.00  0.00     0.172 C 
HETATM   16  C   UNL     1      -2.681   5.975 -34.582  1.00  0.00     0.033 A 
HETATM   17  C   UNL     1      -1.747   6.677 -33.815  1.00  0.00     0.039 A 
HETATM   18  H   UNL     1      -7.049   0.361 -33.962  1.00  0.00     0.164 HD
ENDROOT
BRANCH  15  19
HETATM   19  C   UNL     1      -7.767   3.545 -33.756  1.00  0.00    -0.029 A 
HETATM   20  C   UNL     1      -7.897   4.947 -33.792  1.00  0.00     0.012 A 
HETATM   21  C   UNL     1      -9.134   5.549 -34.034  1.00  0.00     0.043 A 
HETATM   22  C   UNL     1     -10.256   4.759 -34.235  1.00  0.00     0.116 A 
HETATM   23  F   UNL     1     -11.442   5.339 -34.462  1.00  0.00    -0.206 F 
HETATM   24  C   UNL     1     -10.166   3.376 -34.196  1.00  0.00     0.043 A 
HETATM   25  C   UNL     1      -8.929   2.772 -33.959  1.00  0.00     0.012 A 
ENDBRANCH  15  19
BRANCH  13  26
HETATM   26  C   UNL     1      -6.140  -1.433 -33.438  1.00  0.00     0.086 C 
HETATM   27  C   UNL     1      -6.937  -2.132 -34.544  1.00  0.00     0.025 C 
HETATM   28  C   UNL     1      -6.113  -3.377 -34.832  1.00  0.00     0.002 C 
HETATM   29  C   UNL     1      -4.682  -2.867 -34.776  1.00  0.00     0.002 C 
HETATM   30  C   UNL     1      -4.673  -1.839 -33.645  1.00  0.00     0.025 C 
ENDBRANCH  13  26
BRANCH   1  31
HETATM   31  O   UNL     1      -0.737   7.326 -31.824  1.00  0.00    -0.356 OA
HETATM   32  C   UNL     1       0.351   6.629 -31.229  1.00  0.00     0.210 C 
ENDBRANCH   1  31
TORSDOF 3
ENDMDL
MODEL 3
REMARK VINA RESULT:      -8.8      3.587      7.993
REMARK  3 active torsions:
REMARK  status: ('A' for Active; 'I' for Inactive)
REMARK    1  A    between atoms: O_2  and  C_3 
REMARK       I    between atoms: N_13  and  C_14 
REMARK       I    between atoms: C_14  and  N_15 
REMARK    2  A    between atoms: N_15  and  C_16 
REMARK    3  A    between atoms: C_22  and  C_23 
ROOT
HETATM    1  C   UNL     1      -1.358   5.858 -32.612  1.00  0.00     0.069 A 
HETATM    2  C   UNL     1      -1.769   4.648 -32.039  1.00  0.00     0.051 A 
HETATM    3  C   UNL     1      -2.990   4.066 -32.444  1.00  0.00     0.002 A 
HETATM    4  C   UNL     1      -3.753   4.711 -33.421  1.00  0.00     0.043 A 
HETATM    5  N   UNL     1      -4.882   3.949 -33.638  1.00  0.00    -0.356 N 
HETATM    6  H   UNL     1      -5.611   4.184 -34.297  1.00  0.00     0.166 HD
HETATM    7  C   UNL     1      -4.879   2.867 -32.800  1.00  0.00     0.045 A 
HETATM    8  C   UNL     1      -3.696   2.888 -32.081  1.00  0.00    -0.019 A 
HETATM    9  C   UNL     1      -3.341   1.787 -31.134  1.00  0.00     0.061 C 
HETATM   10  C   UNL     1      -4.592   0.936 -30.827  1.00  0.00     0.133 C 
HETATM   11  N   UNL     1      -5.371   0.652 -32.051  1.00  0.00    -0.320 N 
HETATM   12  C   UNL     1      -5.130  -0.554 -32.690  1.00  0.00     0.319 C 
HETATM   13  N   UNL     1      -5.858  -0.764 -33.835  1.00  0.00    -0.338 N 
HETATM   14  O   UNL     1      -4.333  -1.382 -32.259  1.00  0.00    -0.247 OA
HETATM   15  C   UNL     1      -5.974   1.837 -32.705  1.00  0.00     0.172 C 
HETATM   16  C   UNL     1      -3.350   5.908 -34.020  1.00  0.00     0.033 A 
HETATM   17  C   UNL     1      -2.140   6.465 -33.594  1.00  0.00     0.039 A 
HETATM   18  H   UNL     1      -6.776  -0.353 -33.824  1.00  0.00     0.164 HD
ENDROOT
BRANCH  15  19
HETATM   19  C   UNL     1      -7.229   2.286 -31.948  1.00  0.00    -0.029 A 
HETATM   20  C   UNL     1      -7.199   3.205 -30.880  1.00  0.00     0.012 A 
HETATM   21  C   UNL     1      -8.372   3.580 -30.220  1.00  0.00     0.043 A 
HETATM   22  C   UNL     1      -9.585   3.035 -30.612  1.00  0.00     0.116 A 
HETATM   23  F   UNL     1     -10.708   3.391 -29.974  1.00  0.00    -0.206 F 
HETATM   24  C   UNL     1      -9.650   2.120 -31.652  1.00  0.00     0.043 A 
HETATM   25  C   UNL     1      -8.479   1.748 -32.317  1.00  0.00     0.012 A 
ENDBRANCH  15  19
BRANCH  13  26
HETATM   26  C   UNL     1      -5.753  -1.965 -34.643  1.00  0.00     0.086 C 
HETATM   27  C   UNL     1      -4.609  -2.911 -34.265  1.00  0.00     0.025 C 
HETATM   28  C   UNL     1      -5.080  -4.255 -34.796  1.00  0.00     0.002 C 
HETATM   29  C   UNL     1      -6.561  -4.263 -34.456  1.00  0.00     0.002 C 
HETATM   30  C   UNL     1      -7.025  -2.825 -34.679  1.00  0.00     0.025 C 
ENDBRANCH  13  26
BRANCH   1  31
HETATM   31  O   UNL     1      -0.211   6.538 -32.299  1.00  0.00    -0.356 OA
HETATM   32  C   UNL     1       0.454   6.156 -31.101  1.00  0.00     0.210 C 
ENDBRANCH   1  31
TORSDOF 3
ENDMDL
MODEL 4
REMARK VINA RESULT:      -8.7      5.286      7.986
REMARK  3 active torsions:
REMARK  status: ('A' for Active; 'I' for Inactive)
REMARK    1  A    between atoms: O_2  and  C_3 
REMARK       I    between atoms: N_13  and  C_14 
REMARK       I    between atoms: C_14  and  N_15 
REMARK    2  A    between atoms: N_15  and  C_16 
REMARK    3  A    between atoms: C_22  and  C_23 
ROOT
HETATM    1  C   UNL     1      -5.282  -0.178 -32.166  1.00  0.00     0.069 A 
HETATM    2  C   UNL     1      -4.436   0.871 -32.546  1.00  0.00     0.051 A 
HETATM    3  C   UNL     1      -4.411   2.058 -31.782  1.00  0.00     0.002 A 
HETATM    4  C   UNL     1      -5.228   2.149 -30.652  1.00  0.00     0.043 A 
HETATM    5  N   UNL     1      -5.021   3.390 -30.087  1.00  0.00    -0.356 N 
HETATM    6  H   UNL     1      -5.488   3.724 -29.255  1.00  0.00     0.166 HD
HETATM    7  C   UNL     1      -4.132   4.102 -30.847  1.00  0.00     0.045 A 
HETATM    8  C   UNL     1      -3.702   3.285 -31.878  1.00  0.00    -0.019 A 
HETATM    9  C   UNL     1      -2.653   3.736 -32.842  1.00  0.00     0.061 C 
HETATM   10  C   UNL     1      -2.469   5.265 -32.739  1.00  0.00     0.133 C 
HETATM   11  N   UNL     1      -2.440   5.717 -31.332  1.00  0.00    -0.320 N 
HETATM   12  C   UNL     1      -1.195   5.873 -30.743  1.00  0.00     0.319 C 
HETATM   13  N   UNL     1      -1.216   6.271 -29.430  1.00  0.00    -0.338 N 
HETATM   14  O   UNL     1      -0.147   5.684 -31.354  1.00  0.00    -0.247 OA
HETATM   15  C   UNL     1      -3.701   5.520 -30.579  1.00  0.00     0.172 C 
HETATM   16  C   UNL     1      -6.064   1.106 -30.243  1.00  0.00     0.033 A 
HETATM   17  C   UNL     1      -6.074  -0.054 -31.023  1.00  0.00     0.039 A 
HETATM   18  H   UNL     1      -1.987   6.872 -29.190  1.00  0.00     0.164 HD
ENDROOT
BRANCH  15  19
HETATM   19  C   UNL     1      -4.724   6.597 -30.958  1.00  0.00    -0.029 A 
HETATM   20  C   UNL     1      -5.892   6.326 -31.697  1.00  0.00     0.012 A 
HETATM   21  C   UNL     1      -6.793   7.344 -32.019  1.00  0.00     0.043 A 
HETATM   22  C   UNL     1      -6.532   8.645 -31.615  1.00  0.00     0.116 A 
HETATM   23  F   UNL     1      -7.394   9.622 -31.930  1.00  0.00    -0.206 F 
HETATM   24  C   UNL     1      -5.387   8.950 -30.895  1.00  0.00     0.043 A 
HETATM   25  C   UNL     1      -4.488   7.931 -30.568  1.00  0.00     0.012 A 
ENDBRANCH  15  19
BRANCH  13  26
HETATM   26  C   UNL     1      -0.019   6.494 -28.639  1.00  0.00     0.086 C 
HETATM   27  C   UNL     1       0.617   7.878 -28.792  1.00  0.00     0.025 C 
HETATM   28  C   UNL     1       1.398   8.046 -27.498  1.00  0.00     0.002 C 
HETATM   29  C   UNL     1       0.462   7.466 -26.450  1.00  0.00     0.002 C 
HETATM   30  C   UNL     1      -0.199   6.269 -27.130  1.00  0.00     0.025 C 
ENDBRANCH  13  26
BRANCH   1  31
HETATM   31  O   UNL     1      -5.418  -1.371 -32.823  1.00  0.00    -0.356 OA
HETATM   32  C   UNL     1      -4.447  -1.666 -33.821  1.00  0.00     0.210 C 
ENDBRANCH   1  31
TORSDOF 3
ENDMDL
MODEL 5
REMARK VINA RESULT:      -8.7      1.732      2.518
REMARK  3 active torsions:
REMARK  status: ('A' for Active; 'I' for Inactive)
REMARK    1  A    between atoms: O_2  and  C_3 
REMARK       I    between atoms: N_13  and  C_14 
REMARK       I    between atoms: C_14  and  N_15 
REMARK    2  A    between atoms: N_15  and  C_16 
REMARK    3  A    between atoms: C_22  and  C_23 
ROOT
HETATM    1  C   UNL     1     -10.821   3.024 -32.532  1.00  0.00     0.069 A 
HETATM    2  C   UNL     1      -9.650   3.151 -31.775  1.00  0.00     0.051 A 
HETATM    3  C   UNL     1      -8.411   2.784 -32.345  1.00  0.00     0.002 A 
HETATM    4  C   UNL     1      -8.386   2.316 -33.662  1.00  0.00     0.043 A 
HETATM    5  N   UNL     1      -7.074   2.031 -33.978  1.00  0.00    -0.356 N 
HETATM    6  H   UNL     1      -6.768   1.673 -34.872  1.00  0.00     0.166 HD
HETATM    7  C   UNL     1      -6.275   2.264 -32.892  1.00  0.00     0.045 A 
HETATM    8  C   UNL     1      -7.069   2.776 -31.880  1.00  0.00    -0.019 A 
HETATM    9  C   UNL     1      -6.481   3.221 -30.579  1.00  0.00     0.061 C 
HETATM   10  C   UNL     1      -5.046   2.670 -30.437  1.00  0.00     0.133 C 
HETATM   11  N   UNL     1      -4.281   2.811 -31.694  1.00  0.00    -0.320 N 
HETATM   12  C   UNL     1      -3.471   3.928 -31.821  1.00  0.00     0.319 C 
HETATM   13  N   UNL     1      -2.799   4.030 -33.013  1.00  0.00    -0.338 N 
HETATM   14  O   UNL     1      -3.352   4.762 -30.927  1.00  0.00    -0.247 OA
HETATM   15  C   UNL     1      -4.790   2.015 -32.836  1.00  0.00     0.172 C 
HETATM   16  C   UNL     1      -9.541   2.202 -34.440  1.00  0.00     0.033 A 
HETATM   17  C   UNL     1     -10.755   2.565 -33.848  1.00  0.00     0.039 A 
HETATM   18  H   UNL     1      -2.539   3.147 -33.420  1.00  0.00     0.164 HD
ENDROOT
BRANCH  15  19
HETATM   19  C   UNL     1      -4.379   0.545 -32.690  1.00  0.00    -0.029 A 
HETATM   20  C   UNL     1      -5.043  -0.510 -33.346  1.00  0.00     0.012 A 
HETATM   21  C   UNL     1      -4.630  -1.835 -33.176  1.00  0.00     0.043 A 
HETATM   22  C   UNL     1      -3.558  -2.120 -32.344  1.00  0.00     0.116 A 
HETATM   23  F   UNL     1      -3.168  -3.391 -32.179  1.00  0.00    -0.206 F 
HETATM   24  C   UNL     1      -2.889  -1.106 -31.675  1.00  0.00     0.043 A 
HETATM   25  C   UNL     1      -3.297   0.219 -31.847  1.00  0.00     0.012 A 
ENDBRANCH  15  19
BRANCH  13  26
HETATM   26  C   UNL     1      -1.900   5.123 -33.337  1.00  0.00     0.086 C 
HETATM   27  C   UNL     1      -2.573   6.481 -33.555  1.00  0.00     0.025 C 
HETATM   28  C   UNL     1      -1.455   7.472 -33.269  1.00  0.00     0.002 C 
HETATM   29  C   UNL     1      -0.754   6.866 -32.064  1.00  0.00     0.002 C 
HETATM   30  C   UNL     1      -0.784   5.358 -32.307  1.00  0.00     0.025 C 
ENDBRANCH  13  26
BRANCH   1  31
HETATM   31  O   UNL     1     -12.085   3.325 -32.099  1.00  0.00    -0.356 OA
HETATM   32  C   UNL     1     -13.161   2.938 -32.947  1.00  0.00     0.210 C 
ENDBRANCH   1  31
TORSDOF 3
ENDMDL
MODEL 6
REMARK VINA RESULT:      -8.4      3.972      6.410
REMARK  3 active torsions:
REMARK  status: ('A' for Active; 'I' for Inactive)
REMARK    1  A    between atoms: O_2  and  C_3 
REMARK       I    between atoms: N_13  and  C_14 
REMARK       I    between atoms: C_14  and  N_15 
REMARK    2  A    between atoms: N_15  and  C_16 
REMARK    3  A    between atoms: C_22  and  C_23 
ROOT
HETATM    1  C   UNL     1      -6.962  -1.748 -34.096  1.00  0.00     0.069 A 
HETATM    2  C   UNL     1      -6.404  -1.011 -33.044  1.00  0.00     0.051 A 
HETATM    3  C   UNL     1      -6.265   0.389 -33.172  1.00  0.00     0.002 A 
HETATM    4  C   UNL     1      -6.704   1.005 -34.346  1.00  0.00     0.043 A 
HETATM    5  N   UNL     1      -6.461   2.357 -34.223  1.00  0.00    -0.356 N 
HETATM    6  H   UNL     1      -6.680   3.044 -34.932  1.00  0.00     0.166 HD
HETATM    7  C   UNL     1      -5.845   2.610 -33.027  1.00  0.00     0.045 A 
HETATM    8  C   UNL     1      -5.753   1.415 -32.334  1.00  0.00    -0.019 A 
HETATM    9  C   UNL     1      -5.205   1.362 -30.944  1.00  0.00     0.061 C 
HETATM   10  C   UNL     1      -4.455   2.673 -30.626  1.00  0.00     0.133 C 
HETATM   11  N   UNL     1      -5.207   3.857 -31.092  1.00  0.00    -0.320 N 
HETATM   12  C   UNL     1      -6.016   4.498 -30.167  1.00  0.00     0.319 C 
HETATM   13  N   UNL     1      -6.713   5.578 -30.649  1.00  0.00    -0.338 N 
HETATM   14  O   UNL     1      -6.095   4.137 -28.996  1.00  0.00    -0.247 OA
HETATM   15  C   UNL     1      -5.373   3.962 -32.561  1.00  0.00     0.172 C 
HETATM   16  C   UNL     1      -7.282   0.291 -35.399  1.00  0.00     0.033 A 
HETATM   17  C   UNL     1      -7.401  -1.095 -35.249  1.00  0.00     0.039 A 
HETATM   18  H   UNL     1      -6.235   6.092 -31.371  1.00  0.00     0.164 HD
ENDROOT
BRANCH  15  19
HETATM   19  C   UNL     1      -4.079   4.463 -33.212  1.00  0.00    -0.029 A 
HETATM   20  C   UNL     1      -2.822   4.399 -32.579  1.00  0.00     0.012 A 
HETATM   21  C   UNL     1      -1.671   4.872 -33.215  1.00  0.00     0.043 A 
HETATM   22  C   UNL     1      -1.764   5.422 -34.485  1.00  0.00     0.116 A 
HETATM   23  F   UNL     1      -0.661   5.880 -35.091  1.00  0.00    -0.206 F 
HETATM   24  C   UNL     1      -2.987   5.510 -35.133  1.00  0.00     0.043 A 
HETATM   25  C   UNL     1      -4.138   5.033 -34.500  1.00  0.00     0.012 A 
ENDBRANCH  15  19
BRANCH  13  26
HETATM   26  C   UNL     1      -7.608   6.383 -29.838  1.00  0.00     0.086 C 
HETATM   27  C   UNL     1      -7.711   7.856 -30.242  1.00  0.00     0.025 C 
HETATM   28  C   UNL     1      -9.065   8.273 -29.692  1.00  0.00     0.002 C 
HETATM   29  C   UNL     1      -9.947   7.072 -29.993  1.00  0.00     0.002 C 
HETATM   30  C   UNL     1      -9.050   5.857 -29.764  1.00  0.00     0.025 C 
ENDBRANCH  13  26
BRANCH   1  31
HETATM   31  O   UNL     1      -7.138  -3.106 -34.112  1.00  0.00    -0.356 OA
HETATM   32  C   UNL     1      -6.295  -3.850 -34.983  1.00  0.00     0.210 C 
ENDBRANCH   1  31
TORSDOF 3
ENDMDL
MODEL 7
REMARK VINA RESULT:      -8.4      0.687      1.377
REMARK  3 active torsions:
REMARK  status: ('A' for Active; 'I' for Inactive)
REMARK    1  A    between atoms: O_2  and  C_3 
REMARK       I    between atoms: N_13  and  C_14 
REMARK       I    between atoms: C_14  and  N_15 
REMARK    2  A    between atoms: N_15  and  C_16 
REMARK    3  A    between atoms: C_22  and  C_23 
ROOT
HETATM    1  C   UNL     1     -12.873   2.796 -33.362  1.00  0.00     0.069 A 
HETATM    2  C   UNL     1     -11.750   2.668 -32.535  1.00  0.00     0.051 A 
HETATM    3  C   UNL     1     -10.489   2.398 -33.112  1.00  0.00     0.002 A 
HETATM    4  C   UNL     1     -10.394   2.279 -34.500  1.00  0.00     0.043 A 
HETATM    5  N   UNL     1      -9.074   2.020 -34.807  1.00  0.00    -0.356 N 
HETATM    6  H   UNL     1      -8.722   1.886 -35.745  1.00  0.00     0.166 HD
HETATM    7  C   UNL     1      -8.340   1.931 -33.655  1.00  0.00     0.045 A 
HETATM    8  C   UNL     1      -9.181   2.207 -32.591  1.00  0.00    -0.019 A 
HETATM    9  C   UNL     1      -8.665   2.278 -31.189  1.00  0.00     0.061 C 
HETATM   10  C   UNL     1      -7.262   1.640 -31.114  1.00  0.00     0.133 C 
HETATM   11  N   UNL     1      -6.412   2.058 -32.250  1.00  0.00    -0.320 N 
HETATM   12  C   UNL     1      -5.559   3.130 -32.042  1.00  0.00     0.319 C 
HETATM   13  N   UNL     1      -4.807   3.498 -33.129  1.00  0.00    -0.338 N 
HETATM   14  O   UNL     1      -5.471   3.703 -30.959  1.00  0.00    -0.247 OA
HETATM   15  C   UNL     1      -6.872   1.604 -33.584  1.00  0.00     0.172 C 
HETATM   16  C   UNL     1     -11.499   2.423 -35.344  1.00  0.00     0.033 A 
HETATM   17  C   UNL     1     -12.736   2.682 -34.746  1.00  0.00     0.039 A 
HETATM   18  H   UNL     1      -4.550   2.736 -33.734  1.00  0.00     0.164 HD
ENDROOT
BRANCH  15  19
HETATM   19  C   UNL     1      -6.520   0.126 -33.797  1.00  0.00    -0.029 A 
HETATM   20  C   UNL     1      -5.200  -0.363 -33.781  1.00  0.00     0.012 A 
HETATM   21  C   UNL     1      -4.932  -1.719 -33.983  1.00  0.00     0.043 A 
HETATM   22  C   UNL     1      -5.979  -2.599 -34.213  1.00  0.00     0.116 A 
HETATM   23  F   UNL     1      -5.720  -3.899 -34.412  1.00  0.00    -0.206 F 
HETATM   24  C   UNL     1      -7.291  -2.150 -34.245  1.00  0.00     0.043 A 
HETATM   25  C   UNL     1      -7.560  -0.795 -34.038  1.00  0.00     0.012 A 
ENDBRANCH  15  19
BRANCH  13  26
HETATM   26  C   UNL     1      -3.853   4.592 -33.112  1.00  0.00     0.086 C 
HETATM   27  C   UNL     1      -4.434   5.962 -32.748  1.00  0.00     0.025 C 
HETATM   28  C   UNL     1      -3.226   6.723 -32.226  1.00  0.00     0.002 C 
HETATM   29  C   UNL     1      -2.487   5.680 -31.403  1.00  0.00     0.002 C 
HETATM   30  C   UNL     1      -2.650   4.376 -32.181  1.00  0.00     0.025 C 
ENDBRANCH  13  26
BRANCH   1  31
HETATM   31  O   UNL     1     -14.152   3.037 -32.936  1.00  0.00    -0.356 OA
HETATM   32  C   UNL     1     -14.928   1.904 -32.567  1.00  0.00     0.210 C 
ENDBRANCH   1  31
TORSDOF 3
ENDMDL
MODEL 8
REMARK VINA RESULT:      -8.2      3.155      7.160
REMARK  3 active torsions:
REMARK  status: ('A' for Active; 'I' for Inactive)
REMARK    1  A    between atoms: O_2  and  C_3 
REMARK       I    between atoms: N_13  and  C_14 
REMARK       I    between atoms: C_14  and  N_15 
REMARK    2  A    between atoms: N_15  and  C_16 
REMARK    3  A    between atoms: C_22  and  C_23 
ROOT
HETATM    1  C   UNL     1      -3.784   5.934 -31.290  1.00  0.00     0.069 A 
HETATM    2  C   UNL     1      -4.280   4.673 -30.937  1.00  0.00     0.051 A 
HETATM    3  C   UNL     1      -5.082   3.959 -31.855  1.00  0.00     0.002 A 
HETATM    4  C   UNL     1      -5.348   4.527 -33.103  1.00  0.00     0.043 A 
HETATM    5  N   UNL     1      -6.139   3.642 -33.804  1.00  0.00    -0.356 N 
HETATM    6  H   UNL     1      -6.483   3.802 -34.741  1.00  0.00     0.166 HD
HETATM    7  C   UNL     1      -6.417   2.551 -33.025  1.00  0.00     0.045 A 
HETATM    8  C   UNL     1      -5.736   2.698 -31.828  1.00  0.00    -0.019 A 
HETATM    9  C   UNL     1      -5.758   1.628 -30.784  1.00  0.00     0.061 C 
HETATM   10  C   UNL     1      -6.897   0.629 -31.081  1.00  0.00     0.133 C 
HETATM   11  N   UNL     1      -6.954   0.280 -32.517  1.00  0.00    -0.320 N 
HETATM   12  C   UNL     1      -6.301  -0.876 -32.913  1.00  0.00     0.319 C 
HETATM   13  N   UNL     1      -6.360  -1.149 -34.257  1.00  0.00    -0.338 N 
HETATM   14  O   UNL     1      -5.721  -1.613 -32.120  1.00  0.00    -0.247 OA
HETATM   15  C   UNL     1      -7.298   1.398 -33.426  1.00  0.00     0.172 C 
HETATM   16  C   UNL     1      -4.845   5.775 -33.482  1.00  0.00     0.033 A 
HETATM   17  C   UNL     1      -4.061   6.464 -32.551  1.00  0.00     0.039 A 
HETATM   18  H   UNL     1      -7.210  -0.849 -34.705  1.00  0.00     0.164 HD
ENDROOT
BRANCH  15  19
HETATM   19  C   UNL     1      -8.804   1.680 -33.382  1.00  0.00    -0.029 A 
HETATM   20  C   UNL     1      -9.780   0.714 -33.695  1.00  0.00     0.012 A 
HETATM   21  C   UNL     1     -11.142   1.023 -33.642  1.00  0.00     0.043 A 
HETATM   22  C   UNL     1     -11.543   2.302 -33.284  1.00  0.00     0.116 A 
HETATM   23  F   UNL     1     -12.849   2.598 -33.239  1.00  0.00    -0.206 F 
HETATM   24  C   UNL     1     -10.609   3.280 -32.980  1.00  0.00     0.043 A 
HETATM   25  C   UNL     1      -9.247   2.971 -33.027  1.00  0.00     0.012 A 
ENDBRANCH  15  19
BRANCH  13  26
HETATM   26  C   UNL     1      -5.743  -2.313 -34.868  1.00  0.00     0.086 C 
HETATM   27  C   UNL     1      -4.420  -2.758 -34.239  1.00  0.00     0.025 C 
HETATM   28  C   UNL     1      -4.334  -4.229 -34.616  1.00  0.00     0.002 C 
HETATM   29  C   UNL     1      -5.762  -4.718 -34.435  1.00  0.00     0.002 C 
HETATM   30  C   UNL     1      -6.638  -3.561 -34.912  1.00  0.00     0.025 C 
ENDBRANCH  13  26
BRANCH   1  31
HETATM   31  O   UNL     1      -3.014   6.739 -30.494  1.00  0.00    -0.356 OA
HETATM   32  C   UNL     1      -1.646   6.377 -30.350  1.00  0.00     0.210 C 
ENDBRANCH   1  31
TORSDOF 3
ENDMDL
MODEL 9
REMARK VINA RESULT:      -7.9     16.579     18.115
REMARK  3 active torsions:
REMARK  status: ('A' for Active; 'I' for Inactive)
REMARK    1  A    between atoms: O_2  and  C_3 
REMARK       I    between atoms: N_13  and  C_14 
REMARK       I    between atoms: C_14  and  N_15 
REMARK    2  A    between atoms: N_15  and  C_16 
REMARK    3  A    between atoms: C_22  and  C_23 
ROOT
HETATM    1  C   UNL     1      -6.819 -17.196 -32.709  1.00  0.00     0.069 A 
HETATM    2  C   UNL     1      -6.418 -17.384 -34.037  1.00  0.00     0.051 A 
HETATM    3  C   UNL     1      -6.167 -16.259 -34.853  1.00  0.00     0.002 A 
HETATM    4  C   UNL     1      -6.313 -14.982 -34.306  1.00  0.00     0.043 A 
HETATM    5  N   UNL     1      -6.012 -14.068 -35.293  1.00  0.00    -0.356 N 
HETATM    6  H   UNL     1      -6.038 -13.065 -35.170  1.00  0.00     0.166 HD
HETATM    7  C   UNL     1      -5.721 -14.724 -36.459  1.00  0.00     0.045 A 
HETATM    8  C   UNL     1      -5.764 -16.084 -36.204  1.00  0.00    -0.019 A 
HETATM    9  C   UNL     1      -5.405 -17.084 -37.256  1.00  0.00     0.061 C 
HETATM   10  C   UNL     1      -5.392 -16.405 -38.642  1.00  0.00     0.133 C 
HETATM   11  N   UNL     1      -4.721 -15.089 -38.597  1.00  0.00    -0.320 N 
HETATM   12  C   UNL     1      -3.380 -15.049 -38.946  1.00  0.00     0.319 C 
HETATM   13  N   UNL     1      -2.792 -13.811 -38.867  1.00  0.00    -0.338 N 
HETATM   14  O   UNL     1      -2.763 -16.045 -39.313  1.00  0.00    -0.247 OA
HETATM   15  C   UNL     1      -5.399 -14.061 -37.772  1.00  0.00     0.172 C 
HETATM   16  C   UNL     1      -6.692 -14.774 -32.976  1.00  0.00     0.033 A 
HETATM   17  C   UNL     1      -6.942 -15.906 -32.194  1.00  0.00     0.039 A 
HETATM   18  H   UNL     1      -3.409 -13.044 -39.076  1.00  0.00     0.164 HD
ENDROOT
BRANCH  15  19
HETATM   19  C   UNL     1      -6.603 -13.480 -38.524  1.00  0.00    -0.029 A 
HETATM   20  C   UNL     1      -7.930 -13.607 -38.070  1.00  0.00     0.012 A 
HETATM   21  C   UNL     1      -8.993 -13.061 -38.794  1.00  0.00     0.043 A 
HETATM   22  C   UNL     1      -8.743 -12.392 -39.983  1.00  0.00     0.116 A 
HETATM   23  F   UNL     1      -9.765 -11.874 -40.679  1.00  0.00    -0.206 F 
HETATM   24  C   UNL     1      -7.450 -12.258 -40.464  1.00  0.00     0.043 A 
HETATM   25  C   UNL     1      -6.385 -12.798 -39.738  1.00  0.00     0.012 A 
ENDBRANCH  15  19
BRANCH  13  26
HETATM   26  C   UNL     1      -1.400 -13.562 -39.195  1.00  0.00     0.086 C 
HETATM   27  C   UNL     1      -0.381 -14.150 -38.214  1.00  0.00     0.025 C 
HETATM   28  C   UNL     1       0.877 -14.282 -39.058  1.00  0.00     0.002 C 
HETATM   29  C   UNL     1       0.348 -14.776 -40.395  1.00  0.00     0.002 C 
HETATM   30  C   UNL     1      -0.976 -14.040 -40.591  1.00  0.00     0.025 C 
ENDBRANCH  13  26
BRANCH   1  31
HETATM   31  O   UNL     1      -7.112 -18.193 -31.817  1.00  0.00    -0.356 OA
HETATM   32  C   UNL     1      -6.867 -17.915 -30.443  1.00  0.00     0.210 C 
ENDBRANCH   1  31
TORSDOF 3
ENDMDL
MODEL 10
REMARK VINA RESULT:      -7.8      2.055      2.315
REMARK  3 active torsions:
REMARK  status: ('A' for Active; 'I' for Inactive)
REMARK    1  A    between atoms: O_2  and  C_3 
REMARK       I    between atoms: N_13  and  C_14 
REMARK       I    between atoms: C_14  and  N_15 
REMARK    2  A    between atoms: N_15  and  C_16 
REMARK    3  A    between atoms: C_22  and  C_23 
ROOT
HETATM    1  C   UNL     1     -11.645   5.440 -31.104  1.00  0.00     0.069 A 
HETATM    2  C   UNL     1     -10.448   4.912 -30.605  1.00  0.00     0.051 A 
HETATM    3  C   UNL     1      -9.492   4.386 -31.501  1.00  0.00     0.002 A 
HETATM    4  C   UNL     1      -9.762   4.421 -32.872  1.00  0.00     0.043 A 
HETATM    5  N   UNL     1      -8.685   3.856 -33.523  1.00  0.00    -0.356 N 
HETATM    6  H   UNL     1      -8.616   3.751 -34.526  1.00  0.00     0.166 HD
HETATM    7  C   UNL     1      -7.762   3.428 -32.607  1.00  0.00     0.045 A 
HETATM    8  C   UNL     1      -8.214   3.785 -31.348  1.00  0.00    -0.019 A 
HETATM    9  C   UNL     1      -7.388   3.538 -30.126  1.00  0.00     0.061 C 
HETATM   10  C   UNL     1      -6.256   2.541 -30.451  1.00  0.00     0.133 C 
HETATM   11  N   UNL     1      -5.610   2.853 -31.744  1.00  0.00    -0.320 N 
HETATM   12  C   UNL     1      -4.457   3.621 -31.707  1.00  0.00     0.319 C 
HETATM   13  N   UNL     1      -3.905   3.905 -32.931  1.00  0.00    -0.338 N 
HETATM   14  O   UNL     1      -3.955   4.008 -30.655  1.00  0.00    -0.247 OA
HETATM   15  C   UNL     1      -6.479   2.711 -32.936  1.00  0.00     0.172 C 
HETATM   16  C   UNL     1     -10.941   4.962 -33.392  1.00  0.00     0.033 A 
HETATM   17  C   UNL     1     -11.873   5.468 -32.480  1.00  0.00     0.039 A 
HETATM   18  H   UNL     1      -4.030   3.184 -33.621  1.00  0.00     0.164 HD
ENDROOT
BRANCH  15  19
HETATM   19  C   UNL     1      -6.635   1.232 -33.311  1.00  0.00    -0.029 A 
HETATM   20  C   UNL     1      -7.884   0.587 -33.403  1.00  0.00     0.012 A 
HETATM   21  C   UNL     1      -7.972  -0.765 -33.747  1.00  0.00     0.043 A 
HETATM   22  C   UNL     1      -6.814  -1.488 -33.993  1.00  0.00     0.116 A 
HETATM   23  F   UNL     1      -6.900  -2.785 -34.316  1.00  0.00    -0.206 F 
HETATM   24  C   UNL     1      -5.568  -0.887 -33.901  1.00  0.00     0.043 A 
HETATM   25  C   UNL     1      -5.479   0.466 -33.562  1.00  0.00     0.012 A 
ENDBRANCH  15  19
BRANCH  13  26
HETATM   26  C   UNL     1      -2.695   4.691 -33.103  1.00  0.00     0.086 C 
HETATM   27  C   UNL     1      -2.058   4.614 -34.493  1.00  0.00     0.025 C 
HETATM   28  C   UNL     1      -1.258   5.904 -34.579  1.00  0.00     0.002 C 
HETATM   29  C   UNL     1      -2.180   6.928 -33.938  1.00  0.00     0.002 C 
HETATM   30  C   UNL     1      -2.854   6.185 -32.786  1.00  0.00     0.025 C 
ENDBRANCH  13  26
BRANCH   1  31
HETATM   31  O   UNL     1     -12.661   5.962 -30.350  1.00  0.00    -0.356 OA
HETATM   32  C   UNL     1     -13.837   5.171 -30.225  1.00  0.00     0.210 C 
ENDBRANCH   1  31
TORSDOF 3
ENDMDL
