MODEL 1
REMARK VINA RESULT:      -8.7      0.000      0.000
REMARK  4 active torsions:
REMARK  status: ('A' for Active; 'I' for Inactive)
REMARK    1  A    between atoms: C_7  and  C_8 
REMARK    2  A    between atoms: C_8  and  O_9 
REMARK    3  A    between atoms: N_12  and  C_14 
REMARK    4  A    between atoms: C_14  and  C_15 
ROOT
HETATM    1  C   UNL     1      -2.706   9.353 -28.763  1.00  0.00     0.001 A 
HETATM    2  C   UNL     1      -2.529   7.989 -29.010  1.00  0.00     0.010 A 
HETATM    3  C   UNL     1      -2.211   7.558 -30.300  1.00  0.00    -0.018 A 
HETATM    4  C   UNL     1      -2.062   8.503 -31.321  1.00  0.00     0.075 A 
HETATM    5  O   UNL     1      -1.739   8.082 -32.587  1.00  0.00    -0.350 OA
HETATM    6  C   UNL     1      -0.654   7.148 -32.504  1.00  0.00     0.189 C 
HETATM    7  C   UNL     1      -1.074   5.845 -31.786  1.00  0.00     0.036 C 
HETATM    8  C   UNL     1      -2.109   6.105 -30.665  1.00  0.00     0.061 C 
HETATM    9  C   UNL     1      -1.776   4.909 -32.787  1.00  0.00     0.250 C 
HETATM   10  N   UNL     1      -3.074   4.493 -32.138  1.00  0.00    -0.064 N 
HETATM   11  H   UNL     1      -3.768   4.395 -32.899  1.00  0.00     0.280 HD
HETATM   12  C   UNL     1      -3.446   5.625 -31.238  1.00  0.00     0.245 C 
HETATM   13  C   UNL     1      -2.270   9.855 -31.090  1.00  0.00     0.037 A 
HETATM   14  C   UNL     1      -2.585  10.281 -29.800  1.00  0.00     0.003 A 
ENDROOT
BRANCH  10  15
HETATM   15  C   UNL     1      -3.079   3.126 -31.497  1.00  0.00     0.294 C 
BRANCH  15  16
HETATM   16  C   UNL     1      -3.975   2.153 -32.237  1.00  0.00     0.068 A 
HETATM   17  N   UNL     1      -3.503   0.862 -32.328  1.00  0.00    -0.233 NA
HETATM   18  C   UNL     1      -4.265  -0.013 -32.922  1.00  0.00     0.137 A 
HETATM   19  N   UNL     1      -5.508   0.276 -33.476  1.00  0.00    -0.272 N 
HETATM   20  C   UNL     1      -3.797  -1.425 -33.017  1.00  0.00     0.053 A 
HETATM   21  C   UNL     1      -6.007   1.566 -33.418  1.00  0.00     0.255 A 
HETATM   22  C   UNL     1      -6.268  -0.715 -34.092  1.00  0.00     0.125 A 
HETATM   23  O   UNL     1      -7.081   1.950 -33.874  1.00  0.00    -0.268 OA
HETATM   24  C   UNL     1      -5.155   2.547 -32.727  1.00  0.00     0.104 A 
HETATM   25  C   UNL     1      -5.842  -1.982 -34.170  1.00  0.00     0.050 A 
HETATM   26  C   UNL     1      -4.566  -2.345 -33.612  1.00  0.00     0.029 A 
HETATM   27 CL   UNL     1      -6.791  -3.200 -34.927  1.00  0.00    -0.083 Cl
ENDBRANCH  15  16
ENDBRANCH  10  15
BRANCH   7  28
HETATM   28  C   UNL     1       0.192   5.176 -31.227  1.00  0.00     0.178 C 
BRANCH  28  29
HETATM   29  O   UNL     1      -0.136   4.482 -30.034  1.00  0.00    -0.400 OA
HETATM   30  H   UNL     1       0.265   4.963 -29.284  1.00  0.00     0.209 HD
ENDBRANCH  28  29
ENDBRANCH   7  28
TORSDOF 4
ENDMDL
MODEL 2
REMARK VINA RESULT:      -8.6      5.673      8.986
REMARK  4 active torsions:
REMARK  status: ('A' for Active; 'I' for Inactive)
REMARK    1  A    between atoms: C_7  and  C_8 
REMARK    2  A    between atoms: C_8  and  O_9 
REMARK    3  A    between atoms: N_12  and  C_14 
REMARK    4  A    between atoms: C_14  and  C_15 
ROOT
HETATM    1  C   UNL     1      -4.441  -1.886 -33.671  1.00  0.00     0.001 A 
HETATM    2  C   UNL     1      -5.359  -0.920 -34.090  1.00  0.00     0.010 A 
HETATM    3  C   UNL     1      -5.657   0.158 -33.254  1.00  0.00    -0.018 A 
HETATM    4  C   UNL     1      -5.019   0.259 -32.013  1.00  0.00     0.075 A 
HETATM    5  O   UNL     1      -5.303   1.323 -31.194  1.00  0.00    -0.350 OA
HETATM    6  C   UNL     1      -5.253   2.531 -31.966  1.00  0.00     0.189 C 
HETATM    7  C   UNL     1      -6.377   2.580 -33.025  1.00  0.00     0.036 C 
HETATM    8  C   UNL     1      -6.707   1.177 -33.591  1.00  0.00     0.061 C 
HETATM    9  C   UNL     1      -7.679   3.077 -32.370  1.00  0.00     0.250 C 
HETATM   10  N   UNL     1      -8.749   2.080 -32.746  1.00  0.00    -0.064 N 
HETATM   11  H   UNL     1      -9.396   2.022 -31.941  1.00  0.00     0.280 HD
HETATM   12  C   UNL     1      -8.033   0.783 -32.932  1.00  0.00     0.245 C 
HETATM   13  C   UNL     1      -4.132  -0.715 -31.575  1.00  0.00     0.037 A 
HETATM   14  C   UNL     1      -3.837  -1.788 -32.415  1.00  0.00     0.003 A 
ENDROOT
BRANCH  10  15
HETATM   15  C   UNL     1      -9.657   2.488 -33.881  1.00  0.00     0.294 C 
BRANCH  15  16
HETATM   16  C   UNL     1     -11.115   2.211 -33.574  1.00  0.00     0.068 A 
HETATM   17  N   UNL     1     -11.807   3.246 -32.983  1.00  0.00    -0.233 NA
HETATM   18  C   UNL     1     -13.073   3.058 -32.741  1.00  0.00     0.137 A 
HETATM   19  N   UNL     1     -13.762   1.883 -33.028  1.00  0.00    -0.272 N 
HETATM   20  C   UNL     1     -13.858   4.166 -32.126  1.00  0.00     0.053 A 
HETATM   21  C   UNL     1     -13.096   0.816 -33.605  1.00  0.00     0.255 A 
HETATM   22  C   UNL     1     -15.119   1.759 -32.743  1.00  0.00     0.125 A 
HETATM   23  O   UNL     1     -13.585  -0.271 -33.898  1.00  0.00    -0.268 OA
HETATM   24  C   UNL     1     -11.671   1.039 -33.898  1.00  0.00     0.104 A 
HETATM   25  C   UNL     1     -15.818   2.760 -32.193  1.00  0.00     0.050 A 
HETATM   26  C   UNL     1     -15.164   4.003 -31.878  1.00  0.00     0.029 A 
HETATM   27 CL   UNL     1     -17.495   2.599 -31.852  1.00  0.00    -0.083 Cl
ENDBRANCH  15  16
ENDBRANCH  10  15
BRANCH   7  28
HETATM   28  C   UNL     1      -5.943   3.540 -34.144  1.00  0.00     0.178 C 
BRANCH  28  29
HETATM   29  O   UNL     1      -6.910   4.569 -34.277  1.00  0.00    -0.400 OA
HETATM   30  H   UNL     1      -6.946   5.061 -33.433  1.00  0.00     0.209 HD
ENDBRANCH  28  29
ENDBRANCH   7  28
TORSDOF 4
ENDMDL
MODEL 3
REMARK VINA RESULT:      -8.6      3.822      8.538
REMARK  4 active torsions:
REMARK  status: ('A' for Active; 'I' for Inactive)
REMARK    1  A    between atoms: C_7  and  C_8 
REMARK    2  A    between atoms: C_8  and  O_9 
REMARK    3  A    between atoms: N_12  and  C_14 
REMARK    4  A    between atoms: C_14  and  C_15 
ROOT
HETATM    1  C   UNL     1      -7.263   0.172 -35.240  1.00  0.00     0.001 A 
HETATM    2  C   UNL     1      -6.669   1.343 -34.764  1.00  0.00     0.010 A 
HETATM    3  C   UNL     1      -6.228   1.405 -33.440  1.00  0.00    -0.018 A 
HETATM    4  C   UNL     1      -6.378   0.284 -32.616  1.00  0.00     0.075 A 
HETATM    5  O   UNL     1      -5.936   0.340 -31.318  1.00  0.00    -0.350 OA
HETATM    6  C   UNL     1      -4.613   0.894 -31.299  1.00  0.00     0.189 C 
HETATM    7  C   UNL     1      -4.607   2.374 -31.746  1.00  0.00     0.036 C 
HETATM    8  C   UNL     1      -5.676   2.660 -32.830  1.00  0.00     0.061 C 
HETATM    9  C   UNL     1      -4.979   3.273 -30.553  1.00  0.00     0.250 C 
HETATM   10  N   UNL     1      -6.084   4.181 -31.036  1.00  0.00    -0.064 N 
HETATM   11  H   UNL     1      -6.710   4.342 -30.228  1.00  0.00     0.280 HD
HETATM   12  C   UNL     1      -6.794   3.409 -32.098  1.00  0.00     0.245 C 
HETATM   13  C   UNL     1      -6.998  -0.870 -33.071  1.00  0.00     0.037 A 
HETATM   14  C   UNL     1      -7.435  -0.927 -34.394  1.00  0.00     0.003 A 
ENDROOT
BRANCH  10  15
HETATM   15  C   UNL     1      -5.664   5.579 -31.421  1.00  0.00     0.294 C 
BRANCH  15  16
HETATM   16  C   UNL     1      -4.532   6.094 -30.555  1.00  0.00     0.068 A 
HETATM   17  N   UNL     1      -3.290   6.117 -31.150  1.00  0.00    -0.233 NA
HETATM   18  C   UNL     1      -2.300   6.592 -30.449  1.00  0.00     0.137 A 
HETATM   19  N   UNL     1      -2.414   7.060 -29.144  1.00  0.00    -0.272 N 
HETATM   20  C   UNL     1      -0.946   6.655 -31.071  1.00  0.00     0.053 A 
HETATM   21  C   UNL     1      -3.643   7.037 -28.507  1.00  0.00     0.255 A 
HETATM   22  C   UNL     1      -1.308   7.557 -28.459  1.00  0.00     0.125 A 
HETATM   23  O   UNL     1      -3.874   7.411 -27.361  1.00  0.00    -0.268 OA
HETATM   24  C   UNL     1      -4.765   6.521 -29.309  1.00  0.00     0.104 A 
HETATM   25  C   UNL     1      -0.096   7.614 -29.026  1.00  0.00     0.050 A 
HETATM   26  C   UNL     1       0.086   7.149 -30.376  1.00  0.00     0.029 A 
HETATM   27 CL   UNL     1       1.262   8.236 -28.175  1.00  0.00    -0.083 Cl
ENDBRANCH  15  16
ENDBRANCH  10  15
BRANCH   7  28
HETATM   28  C   UNL     1      -3.198   2.717 -32.255  1.00  0.00     0.178 C 
BRANCH  28  29
HETATM   29  O   UNL     1      -2.420   3.207 -31.175  1.00  0.00    -0.400 OA
HETATM   30  H   UNL     1      -2.076   4.087 -31.425  1.00  0.00     0.209 HD
ENDBRANCH  28  29
ENDBRANCH   7  28
TORSDOF 4
ENDMDL
MODEL 4
REMARK VINA RESULT:      -8.5      3.803      8.661
REMARK  4 active torsions:
REMARK  status: ('A' for Active; 'I' for Inactive)
REMARK    1  A    between atoms: C_7  and  C_8 
REMARK    2  A    between atoms: C_8  and  O_9 
REMARK    3  A    between atoms: N_12  and  C_14 
REMARK    4  A    between atoms: C_14  and  C_15 
ROOT
HETATM    1  C   UNL     1      -8.989   0.778 -34.242  1.00  0.00     0.001 A 
HETATM    2  C   UNL     1      -7.740   1.402 -34.220  1.00  0.00     0.010 A 
HETATM    3  C   UNL     1      -7.113   1.650 -32.997  1.00  0.00    -0.018 A 
HETATM    4  C   UNL     1      -7.745   1.256 -31.812  1.00  0.00     0.075 A 
HETATM    5  O   UNL     1      -7.126   1.490 -30.609  1.00  0.00    -0.350 OA
HETATM    6  C   UNL     1      -5.758   1.068 -30.700  1.00  0.00     0.189 C 
HETATM    7  C   UNL     1      -4.956   1.939 -31.694  1.00  0.00     0.036 C 
HETATM    8  C   UNL     1      -5.822   2.408 -32.888  1.00  0.00     0.061 C 
HETATM    9  C   UNL     1      -4.491   3.227 -30.990  1.00  0.00     0.250 C 
HETATM   10  N   UNL     1      -4.905   4.371 -31.885  1.00  0.00    -0.064 N 
HETATM   11  H   UNL     1      -5.150   5.160 -31.263  1.00  0.00     0.280 HD
HETATM   12  C   UNL     1      -6.116   3.885 -32.611  1.00  0.00     0.245 C 
HETATM   13  C   UNL     1      -9.001   0.667 -31.824  1.00  0.00     0.037 A 
HETATM   14  C   UNL     1      -9.621   0.420 -33.048  1.00  0.00     0.003 A 
ENDROOT
BRANCH  10  15
HETATM   15  C   UNL     1      -3.816   4.951 -32.755  1.00  0.00     0.294 C 
BRANCH  15  16
HETATM   16  C   UNL     1      -2.629   5.426 -31.942  1.00  0.00     0.068 A 
HETATM   17  N   UNL     1      -2.845   6.546 -31.171  1.00  0.00    -0.233 NA
HETATM   18  C   UNL     1      -1.859   6.961 -30.427  1.00  0.00     0.137 A 
HETATM   19  N   UNL     1      -0.607   6.355 -30.374  1.00  0.00    -0.272 N 
HETATM   20  C   UNL     1      -2.066   8.156 -29.560  1.00  0.00     0.053 A 
HETATM   21  C   UNL     1      -0.347   5.237 -31.147  1.00  0.00     0.255 A 
HETATM   22  C   UNL     1       0.398   6.854 -29.549  1.00  0.00     0.125 A 
HETATM   23  O   UNL     1       0.712   4.619 -31.197  1.00  0.00    -0.268 OA
HETATM   24  C   UNL     1      -1.471   4.758 -31.969  1.00  0.00     0.104 A 
HETATM   25  C   UNL     1       0.203   7.927 -28.771  1.00  0.00     0.050 A 
HETATM   26  C   UNL     1      -1.072   8.595 -28.778  1.00  0.00     0.029 A 
HETATM   27 CL   UNL     1       1.448   8.531 -27.752  1.00  0.00    -0.083 Cl
ENDBRANCH  15  16
ENDBRANCH  10  15
BRANCH   7  28
HETATM   28  C   UNL     1      -3.743   1.126 -32.174  1.00  0.00     0.178 C 
BRANCH  28  29
HETATM   29  O   UNL     1      -2.798   1.032 -31.121  1.00  0.00    -0.400 OA
HETATM   30  H   UNL     1      -2.739   1.906 -30.688  1.00  0.00     0.209 HD
ENDBRANCH  28  29
ENDBRANCH   7  28
TORSDOF 4
ENDMDL
MODEL 5
REMARK VINA RESULT:      -8.4      3.494      8.648
REMARK  4 active torsions:
REMARK  status: ('A' for Active; 'I' for Inactive)
REMARK    1  A    between atoms: C_7  and  C_8 
REMARK    2  A    between atoms: C_8  and  O_9 
REMARK    3  A    between atoms: N_12  and  C_14 
REMARK    4  A    between atoms: C_14  and  C_15 
ROOT
HETATM    1  C   UNL     1      -4.203  -1.564 -33.170  1.00  0.00     0.001 A 
HETATM    2  C   UNL     1      -4.725  -0.334 -32.763  1.00  0.00     0.010 A 
HETATM    3  C   UNL     1      -5.945   0.105 -33.282  1.00  0.00    -0.018 A 
HETATM    4  C   UNL     1      -6.630  -0.704 -34.196  1.00  0.00     0.075 A 
HETATM    5  O   UNL     1      -7.834  -0.280 -34.700  1.00  0.00    -0.350 OA
HETATM    6  C   UNL     1      -8.653   0.189 -33.619  1.00  0.00     0.189 C 
HETATM    7  C   UNL     1      -8.065   1.461 -32.967  1.00  0.00     0.036 C 
HETATM    8  C   UNL     1      -6.517   1.457 -32.972  1.00  0.00     0.061 C 
HETATM    9  C   UNL     1      -8.478   2.697 -33.787  1.00  0.00     0.250 C 
HETATM   10  N   UNL     1      -7.208   3.469 -34.056  1.00  0.00    -0.064 N 
HETATM   11  H   UNL     1      -7.314   3.897 -34.992  1.00  0.00     0.280 HD
HETATM   12  C   UNL     1      -6.120   2.447 -34.072  1.00  0.00     0.245 C 
HETATM   13  C   UNL     1      -6.101  -1.911 -34.631  1.00  0.00     0.037 A 
HETATM   14  C   UNL     1      -4.884  -2.345 -34.108  1.00  0.00     0.003 A 
ENDROOT
BRANCH  10  15
HETATM   15  C   UNL     1      -6.965   4.662 -33.164  1.00  0.00     0.294 C 
BRANCH  15  16
HETATM   16  C   UNL     1      -5.507   5.077 -33.150  1.00  0.00     0.068 A 
HETATM   17  N   UNL     1      -4.998   5.424 -31.918  1.00  0.00    -0.233 NA
HETATM   18  C   UNL     1      -3.737   5.747 -31.861  1.00  0.00     0.137 A 
HETATM   19  N   UNL     1      -2.883   5.776 -32.959  1.00  0.00    -0.272 N 
HETATM   20  C   UNL     1      -3.147   6.104 -30.539  1.00  0.00     0.053 A 
HETATM   21  C   UNL     1      -3.363   5.450 -34.215  1.00  0.00     0.255 A 
HETATM   22  C   UNL     1      -1.543   6.128 -32.818  1.00  0.00     0.125 A 
HETATM   23  O   UNL     1      -2.717   5.445 -35.260  1.00  0.00    -0.268 OA
HETATM   24  C   UNL     1      -4.782   5.063 -34.273  1.00  0.00     0.104 A 
HETATM   25  C   UNL     1      -1.020   6.445 -31.626  1.00  0.00     0.050 A 
HETATM   26  C   UNL     1      -1.851   6.429 -30.451  1.00  0.00     0.029 A 
HETATM   27 CL   UNL     1       0.637   6.871 -31.461  1.00  0.00    -0.083 Cl
ENDBRANCH  15  16
ENDBRANCH  10  15
BRANCH   7  28
HETATM   28  C   UNL     1      -8.614   1.564 -31.535  1.00  0.00     0.178 C 
BRANCH  28  29
HETATM   29  O   UNL     1      -9.436   0.440 -31.268  1.00  0.00    -0.400 OA
HETATM   30  H   UNL     1     -10.085   0.360 -31.995  1.00  0.00     0.209 HD
ENDBRANCH  28  29
ENDBRANCH   7  28
TORSDOF 4
ENDMDL
MODEL 6
REMARK VINA RESULT:      -8.4      2.178      3.461
REMARK  4 active torsions:
REMARK  status: ('A' for Active; 'I' for Inactive)
REMARK    1  A    between atoms: C_7  and  C_8 
REMARK    2  A    between atoms: C_8  and  O_9 
REMARK    3  A    between atoms: N_12  and  C_14 
REMARK    4  A    between atoms: C_14  and  C_15 
ROOT
HETATM    1  C   UNL     1       0.385   6.708 -31.606  1.00  0.00     0.001 A 
HETATM    2  C   UNL     1      -0.739   6.117 -32.187  1.00  0.00     0.010 A 
HETATM    3  C   UNL     1      -1.903   5.957 -31.432  1.00  0.00    -0.018 A 
HETATM    4  C   UNL     1      -1.926   6.405 -30.107  1.00  0.00     0.075 A 
HETATM    5  O   UNL     1      -3.072   6.258 -29.366  1.00  0.00    -0.350 OA
HETATM    6  C   UNL     1      -4.190   6.707 -30.144  1.00  0.00     0.189 C 
HETATM    7  C   UNL     1      -4.434   5.800 -31.371  1.00  0.00     0.036 C 
HETATM    8  C   UNL     1      -3.114   5.240 -31.954  1.00  0.00     0.061 C 
HETATM    9  C   UNL     1      -5.253   4.567 -30.945  1.00  0.00     0.250 C 
HETATM   10  N   UNL     1      -4.507   3.363 -31.468  1.00  0.00    -0.064 N 
HETATM   11  H   UNL     1      -4.644   2.606 -30.776  1.00  0.00     0.280 HD
HETATM   12  C   UNL     1      -3.072   3.774 -31.510  1.00  0.00     0.245 C 
HETATM   13  C   UNL     1      -0.802   6.961 -29.512  1.00  0.00     0.037 A 
HETATM   14  C   UNL     1       0.356   7.120 -30.271  1.00  0.00     0.003 A 
ENDROOT
BRANCH  10  15
HETATM   15  C   UNL     1      -5.047   2.759 -32.742  1.00  0.00     0.294 C 
BRANCH  15  16
HETATM   16  C   UNL     1      -4.736   1.280 -32.849  1.00  0.00     0.068 A 
HETATM   17  N   UNL     1      -5.619   0.539 -33.604  1.00  0.00    -0.233 NA
HETATM   18  C   UNL     1      -5.361  -0.729 -33.752  1.00  0.00     0.137 A 
HETATM   19  N   UNL     1      -4.267  -1.380 -33.190  1.00  0.00    -0.272 N 
HETATM   20  C   UNL     1      -6.283  -1.556 -34.583  1.00  0.00     0.053 A 
HETATM   21  C   UNL     1      -3.368  -0.672 -32.412  1.00  0.00     0.255 A 
HETATM   22  C   UNL     1      -4.056  -2.741 -33.397  1.00  0.00     0.125 A 
HETATM   23  O   UNL     1      -2.373  -1.128 -31.856  1.00  0.00    -0.268 OA
HETATM   24  C   UNL     1      -3.648   0.766 -32.265  1.00  0.00     0.104 A 
HETATM   25  C   UNL     1      -4.886  -3.475 -34.148  1.00  0.00     0.050 A 
HETATM   26  C   UNL     1      -6.034  -2.860 -34.760  1.00  0.00     0.029 A 
HETATM   27 CL   UNL     1      -4.613  -5.153 -34.404  1.00  0.00    -0.083 Cl
ENDBRANCH  15  16
ENDBRANCH  10  15
BRANCH   7  28
HETATM   28  C   UNL     1      -5.204   6.612 -32.425  1.00  0.00     0.178 C 
BRANCH  28  29
HETATM   29  O   UNL     1      -4.997   6.033 -33.702  1.00  0.00    -0.400 OA
HETATM   30  H   UNL     1      -5.420   5.152 -33.707  1.00  0.00     0.209 HD
ENDBRANCH  28  29
ENDBRANCH   7  28
TORSDOF 4
ENDMDL
MODEL 7
REMARK VINA RESULT:      -8.2      3.853      8.875
REMARK  4 active torsions:
REMARK  status: ('A' for Active; 'I' for Inactive)
REMARK    1  A    between atoms: C_7  and  C_8 
REMARK    2  A    between atoms: C_8  and  O_9 
REMARK    3  A    between atoms: N_12  and  C_14 
REMARK    4  A    between atoms: C_14  and  C_15 
ROOT
HETATM    1  C   UNL     1      -3.165  -4.182 -32.780  1.00  0.00     0.001 A 
HETATM    2  C   UNL     1      -3.325  -2.986 -32.078  1.00  0.00     0.010 A 
HETATM    3  C   UNL     1      -4.170  -1.996 -32.584  1.00  0.00    -0.018 A 
HETATM    4  C   UNL     1      -4.853  -2.227 -33.783  1.00  0.00     0.075 A 
HETATM    5  O   UNL     1      -5.693  -1.259 -34.276  1.00  0.00    -0.350 OA
HETATM    6  C   UNL     1      -6.534  -0.787 -33.216  1.00  0.00     0.189 C 
HETATM    7  C   UNL     1      -5.724  -0.043 -32.130  1.00  0.00     0.036 C 
HETATM    8  C   UNL     1      -4.311  -0.646 -31.941  1.00  0.00     0.061 C 
HETATM    9  C   UNL     1      -5.495   1.415 -32.569  1.00  0.00     0.250 C 
HETATM   10  N   UNL     1      -4.014   1.673 -32.421  1.00  0.00    -0.064 N 
HETATM   11  H   UNL     1      -3.749   2.322 -33.182  1.00  0.00     0.280 HD
HETATM   12  C   UNL     1      -3.360   0.346 -32.618  1.00  0.00     0.245 C 
HETATM   13  C   UNL     1      -4.673  -3.399 -34.503  1.00  0.00     0.037 A 
HETATM   14  C   UNL     1      -3.830  -4.384 -33.992  1.00  0.00     0.003 A 
ENDROOT
BRANCH  10  15
HETATM   15  C   UNL     1      -3.600   2.423 -31.177  1.00  0.00     0.294 C 
BRANCH  15  16
HETATM   16  C   UNL     1      -4.372   3.716 -31.006  1.00  0.00     0.068 A 
HETATM   17  N   UNL     1      -5.390   3.683 -30.079  1.00  0.00    -0.233 NA
HETATM   18  C   UNL     1      -6.049   4.789 -29.875  1.00  0.00     0.137 A 
HETATM   19  N   UNL     1      -5.801   5.985 -30.540  1.00  0.00    -0.272 N 
HETATM   20  C   UNL     1      -7.141   4.796 -28.860  1.00  0.00     0.053 A 
HETATM   21  C   UNL     1      -4.797   6.051 -31.491  1.00  0.00     0.255 A 
HETATM   22  C   UNL     1      -6.547   7.129 -30.265  1.00  0.00     0.125 A 
HETATM   23  O   UNL     1      -4.485   7.039 -32.150  1.00  0.00    -0.268 OA
HETATM   24  C   UNL     1      -4.039   4.808 -31.703  1.00  0.00     0.104 A 
HETATM   25  C   UNL     1      -7.524   7.128 -29.350  1.00  0.00     0.050 A 
HETATM   26  C   UNL     1      -7.826   5.922 -28.624  1.00  0.00     0.029 A 
HETATM   27 CL   UNL     1      -8.434   8.546 -29.012  1.00  0.00    -0.083 Cl
ENDBRANCH  15  16
ENDBRANCH  10  15
BRANCH   7  28
HETATM   28  C   UNL     1      -6.525  -0.086 -30.819  1.00  0.00     0.178 C 
BRANCH  28  29
HETATM   29  O   UNL     1      -7.619   0.811 -30.912  1.00  0.00    -0.400 OA
HETATM   30  H   UNL     1      -8.443   0.297 -30.797  1.00  0.00     0.209 HD
ENDBRANCH  28  29
ENDBRANCH   7  28
TORSDOF 4
ENDMDL
MODEL 8
REMARK VINA RESULT:      -8.2      3.312      9.132
REMARK  4 active torsions:
REMARK  status: ('A' for Active; 'I' for Inactive)
REMARK    1  A    between atoms: C_7  and  C_8 
REMARK    2  A    between atoms: C_8  and  O_9 
REMARK    3  A    between atoms: N_12  and  C_14 
REMARK    4  A    between atoms: C_14  and  C_15 
ROOT
HETATM    1  C   UNL     1      -4.419  -3.616 -34.108  1.00  0.00     0.001 A 
HETATM    2  C   UNL     1      -4.138  -2.591 -33.201  1.00  0.00     0.010 A 
HETATM    3  C   UNL     1      -4.990  -1.487 -33.122  1.00  0.00    -0.018 A 
HETATM    4  C   UNL     1      -6.120  -1.434 -33.945  1.00  0.00     0.075 A 
HETATM    5  O   UNL     1      -6.964  -0.355 -33.861  1.00  0.00    -0.350 OA
HETATM    6  C   UNL     1      -7.245  -0.090 -32.481  1.00  0.00     0.189 C 
HETATM    7  C   UNL     1      -5.984   0.378 -31.719  1.00  0.00     0.036 C 
HETATM    8  C   UNL     1      -4.698  -0.301 -32.250  1.00  0.00     0.061 C 
HETATM    9  C   UNL     1      -5.777   1.887 -31.945  1.00  0.00     0.250 C 
HETATM   10  N   UNL     1      -4.342   2.056 -32.386  1.00  0.00    -0.064 N 
HETATM   11  H   UNL     1      -4.329   2.842 -33.058  1.00  0.00     0.280 HD
HETATM   12  C   UNL     1      -3.987   0.778 -33.072  1.00  0.00     0.245 C 
HETATM   13  C   UNL     1      -6.386  -2.432 -34.872  1.00  0.00     0.037 A 
HETATM   14  C   UNL     1      -5.534  -3.532 -34.946  1.00  0.00     0.003 A 
ENDROOT
BRANCH  10  15
HETATM   15  C   UNL     1      -3.377   2.509 -31.317  1.00  0.00     0.294 C 
BRANCH  15  16
HETATM   16  C   UNL     1      -3.102   3.997 -31.390  1.00  0.00     0.068 A 
HETATM   17  N   UNL     1      -3.970   4.798 -30.681  1.00  0.00    -0.233 NA
HETATM   18  C   UNL     1      -3.741   6.081 -30.687  1.00  0.00     0.137 A 
HETATM   19  N   UNL     1      -2.691   6.688 -31.370  1.00  0.00    -0.272 N 
HETATM   20  C   UNL     1      -4.647   6.975 -29.911  1.00  0.00     0.053 A 
HETATM   21  C   UNL     1      -1.809   5.917 -32.106  1.00  0.00     0.255 A 
HETATM   22  C   UNL     1      -2.508   8.068 -31.325  1.00  0.00     0.125 A 
HETATM   23  O   UNL     1      -0.852   6.330 -32.756  1.00  0.00    -0.268 OA
HETATM   24  C   UNL     1      -2.056   4.466 -32.079  1.00  0.00     0.104 A 
HETATM   25  C   UNL     1      -3.324   8.864 -30.623  1.00  0.00     0.050 A 
HETATM   26  C   UNL     1      -4.426   8.296 -29.891  1.00  0.00     0.029 A 
HETATM   27 CL   UNL     1      -3.086  10.566 -30.568  1.00  0.00    -0.083 Cl
ENDBRANCH  15  16
ENDBRANCH  10  15
BRANCH   7  28
HETATM   28  C   UNL     1      -6.188   0.086 -30.224  1.00  0.00     0.178 C 
BRANCH  28  29
HETATM   29  O   UNL     1      -6.455   1.301 -29.544  1.00  0.00    -0.400 OA
HETATM   30  H   UNL     1      -5.705   1.908 -29.703  1.00  0.00     0.209 HD
ENDBRANCH  28  29
ENDBRANCH   7  28
TORSDOF 4
ENDMDL
MODEL 9
REMARK VINA RESULT:      -8.1     19.094     20.735
REMARK  4 active torsions:
REMARK  status: ('A' for Active; 'I' for Inactive)
REMARK    1  A    between atoms: C_7  and  C_8 
REMARK    2  A    between atoms: C_8  and  O_9 
REMARK    3  A    between atoms: N_12  and  C_14 
REMARK    4  A    between atoms: C_14  and  C_15 
ROOT
HETATM    1  C   UNL     1     -10.260 -12.024 -40.233  1.00  0.00     0.001 A 
HETATM    2  C   UNL     1      -8.866 -11.932 -40.255  1.00  0.00     0.010 A 
HETATM    3  C   UNL     1      -8.098 -13.097 -40.285  1.00  0.00    -0.018 A 
HETATM    4  C   UNL     1      -8.740 -14.340 -40.307  1.00  0.00     0.075 A 
HETATM    5  O   UNL     1      -7.986 -15.487 -40.348  1.00  0.00    -0.350 OA
HETATM    6  C   UNL     1      -6.976 -15.344 -41.355  1.00  0.00     0.189 C 
HETATM    7  C   UNL     1      -5.949 -14.250 -40.984  1.00  0.00     0.036 C 
HETATM    8  C   UNL     1      -6.599 -13.080 -40.206  1.00  0.00     0.061 C 
HETATM    9  C   UNL     1      -4.890 -14.839 -40.034  1.00  0.00     0.250 C 
HETATM   10  N   UNL     1      -4.807 -13.897 -38.857  1.00  0.00    -0.064 N 
HETATM   11  H   UNL     1      -4.611 -14.480 -38.025  1.00  0.00     0.280 HD
HETATM   12  C   UNL     1      -6.160 -13.277 -38.752  1.00  0.00     0.245 C 
HETATM   13  C   UNL     1     -10.123 -14.440 -40.250  1.00  0.00     0.037 A 
HETATM   14  C   UNL     1     -10.885 -13.274 -40.221  1.00  0.00     0.003 A 
ENDROOT
BRANCH  10  15
HETATM   15  C   UNL     1      -3.648 -12.929 -38.872  1.00  0.00     0.294 C 
BRANCH  15  16
HETATM   16  C   UNL     1      -2.333 -13.607 -38.544  1.00  0.00     0.068 A 
HETATM   17  N   UNL     1      -2.222 -14.102 -37.263  1.00  0.00    -0.233 NA
HETATM   18  C   UNL     1      -1.120 -14.727 -36.957  1.00  0.00     0.137 A 
HETATM   19  N   UNL     1      -0.054 -14.914 -37.831  1.00  0.00    -0.272 N 
HETATM   20  C   UNL     1      -0.976 -15.297 -35.587  1.00  0.00     0.053 A 
HETATM   21  C   UNL     1      -0.123 -14.416 -39.121  1.00  0.00     0.255 A 
HETATM   22  C   UNL     1       1.091 -15.598 -37.432  1.00  0.00     0.125 A 
HETATM   23  O   UNL     1       0.748 -14.506 -39.981  1.00  0.00    -0.268 OA
HETATM   24  C   UNL     1      -1.378 -13.730 -39.471  1.00  0.00     0.104 A 
HETATM   25  C   UNL     1       1.212 -16.110 -36.200  1.00  0.00     0.050 A 
HETATM   26  C   UNL     1       0.142 -15.954 -35.251  1.00  0.00     0.029 A 
HETATM   27 CL   UNL     1       2.627 -16.959 -35.719  1.00  0.00    -0.083 Cl
ENDBRANCH  15  16
ENDBRANCH  10  15
BRANCH   7  28
HETATM   28  C   UNL     1      -5.286 -13.753 -42.279  1.00  0.00     0.178 C 
BRANCH  28  29
HETATM   29  O   UNL     1      -3.899 -13.567 -42.051  1.00  0.00    -0.400 OA
HETATM   30  H   UNL     1      -3.619 -12.762 -42.529  1.00  0.00     0.209 HD
ENDBRANCH  28  29
ENDBRANCH   7  28
TORSDOF 4
ENDMDL
MODEL 10
REMARK VINA RESULT:      -8.0     18.443     20.381
REMARK  4 active torsions:
REMARK  status: ('A' for Active; 'I' for Inactive)
REMARK    1  A    between atoms: C_7  and  C_8 
REMARK    2  A    between atoms: C_8  and  O_9 
REMARK    3  A    between atoms: N_12  and  C_14 
REMARK    4  A    between atoms: C_14  and  C_15 
ROOT
HETATM    1  C   UNL     1     -10.761 -11.856 -40.422  1.00  0.00     0.001 A 
HETATM    2  C   UNL     1      -9.411 -11.771 -40.076  1.00  0.00     0.010 A 
HETATM    3  C   UNL     1      -8.675 -12.941 -39.874  1.00  0.00    -0.018 A 
HETATM    4  C   UNL     1      -9.303 -14.180 -40.035  1.00  0.00     0.075 A 
HETATM    5  O   UNL     1      -8.578 -15.331 -39.847  1.00  0.00    -0.350 OA
HETATM    6  C   UNL     1      -7.336 -15.220 -40.553  1.00  0.00     0.189 C 
HETATM    7  C   UNL     1      -6.431 -14.121 -39.950  1.00  0.00     0.036 C 
HETATM    8  C   UNL     1      -7.251 -12.928 -39.400  1.00  0.00     0.061 C 
HETATM    9  C   UNL     1      -5.668 -14.690 -38.740  1.00  0.00     0.250 C 
HETATM   10  N   UNL     1      -5.889 -13.718 -37.605  1.00  0.00    -0.064 N 
HETATM   11  H   UNL     1      -5.928 -14.280 -36.737  1.00  0.00     0.280 HD
HETATM   12  C   UNL     1      -7.215 -13.089 -37.878  1.00  0.00     0.245 C 
HETATM   13  C   UNL     1     -10.652 -14.273 -40.344  1.00  0.00     0.037 A 
HETATM   14  C   UNL     1     -11.382 -13.102 -40.547  1.00  0.00     0.003 A 
ENDROOT
BRANCH  10  15
HETATM   15  C   UNL     1      -4.757 -12.756 -37.336  1.00  0.00     0.294 C 
BRANCH  15  16
HETATM   16  C   UNL     1      -3.402 -13.430 -37.424  1.00  0.00     0.068 A 
HETATM   17  N   UNL     1      -2.836 -13.465 -38.679  1.00  0.00    -0.233 NA
HETATM   18  C   UNL     1      -1.653 -14.000 -38.787  1.00  0.00     0.137 A 
HETATM   19  N   UNL     1      -0.938 -14.546 -37.725  1.00  0.00    -0.272 N 
HETATM   20  C   UNL     1      -0.999 -14.033 -40.126  1.00  0.00     0.053 A 
HETATM   21  C   UNL     1      -1.482 -14.544 -36.452  1.00  0.00     0.255 A 
HETATM   22  C   UNL     1       0.326 -15.098 -37.917  1.00  0.00     0.125 A 
HETATM   23  O   UNL     1      -0.960 -14.998 -35.438  1.00  0.00    -0.268 OA
HETATM   24  C   UNL     1      -2.809 -13.918 -36.330  1.00  0.00     0.104 A 
HETATM   25  C   UNL     1       0.908 -15.120 -39.123  1.00  0.00     0.050 A 
HETATM   26  C   UNL     1       0.222 -14.568 -40.261  1.00  0.00     0.029 A 
HETATM   27 CL   UNL     1       2.472 -15.798 -39.350  1.00  0.00    -0.083 Cl
ENDBRANCH  15  16
ENDBRANCH  10  15
BRANCH   7  28
HETATM   28  C   UNL     1      -5.444 -13.662 -41.035  1.00  0.00     0.178 C 
BRANCH  28  29
HETATM   29  O   UNL     1      -4.866 -12.427 -40.646  1.00  0.00    -0.400 OA
HETATM   30  H   UNL     1      -5.492 -11.976 -40.045  1.00  0.00     0.209 HD
ENDBRANCH  28  29
ENDBRANCH   7  28
TORSDOF 4
ENDMDL
