MODEL 1
REMARK VINA RESULT:      -8.3      0.000      0.000
REMARK  5 active torsions:
REMARK  status: ('A' for Active; 'I' for Inactive)
REMARK    1  A    between atoms: C_8  and  C_9 
REMARK    2  A    between atoms: N_10  and  N_11 
REMARK       I    between atoms: N_11  and  C_12 
REMARK    3  A    between atoms: C_12  and  C_13 
REMARK    4  A    between atoms: C_13  and  N_14 
REMARK    5  A    between atoms: N_14  and  C_15 
ROOT
HETATM    1  N   UNL     1      -2.562   4.284 -30.997  1.00  0.00    -0.246 N 
HETATM    2  C   UNL     1      -1.405   5.062 -30.978  1.00  0.00     0.250 C 
HETATM    3  O   UNL     1      -0.294   4.702 -31.365  1.00  0.00    -0.270 OA
HETATM    4  H   UNL     1      -3.458   4.752 -30.889  1.00  0.00     0.192 HD
ENDROOT
BRANCH   1   5
HETATM    5  N   UNL     1      -2.669   3.019 -31.526  1.00  0.00    -0.184 NA
HETATM    6  C   UNL     1      -3.704   2.305 -31.210  1.00  0.00     0.152 C 
BRANCH   6   7
HETATM    7  C   UNL     1      -3.831   0.955 -31.726  1.00  0.00     0.011 A 
HETATM    8  C   UNL     1      -4.770   0.496 -32.707  1.00  0.00     0.004 A 
HETATM    9  C   UNL     1      -5.803   1.113 -33.444  1.00  0.00     0.014 A 
HETATM   10  C   UNL     1      -4.531  -0.864 -32.910  1.00  0.00     0.043 A 
HETATM   11  C   UNL     1      -6.550   0.355 -34.353  1.00  0.00     0.001 A 
HETATM   12  C   UNL     1      -6.284  -1.000 -34.535  1.00  0.00     0.002 A 
HETATM   13  C   UNL     1      -5.269  -1.636 -33.816  1.00  0.00     0.030 A 
HETATM   14  N   UNL     1      -3.493  -1.222 -32.081  1.00  0.00    -0.364 N 
HETATM   15  H   UNL     1      -3.109  -2.153 -32.013  1.00  0.00     0.165 HD
HETATM   16  C   UNL     1      -3.063  -0.137 -31.365  1.00  0.00     0.102 A 
ENDBRANCH   6   7
ENDBRANCH   1   5
BRANCH   2  17
HETATM   17  C   UNL     1      -1.630   6.439 -30.348  1.00  0.00     0.197 C 
BRANCH  17  18
HETATM   18  N   UNL     1      -1.630   6.375 -28.881  1.00  0.00    -0.283 NA
HETATM   19  H   UNL     1      -1.821   5.450 -28.497  1.00  0.00     0.128 HD
BRANCH  18  20
HETATM   20  C   UNL     1      -0.526   6.959 -28.226  1.00  0.00     0.030 A 
HETATM   21  C   UNL     1      -0.342   6.803 -26.836  1.00  0.00     0.055 A 
HETATM   22 CL   UNL     1      -1.423   5.811 -25.916  1.00  0.00    -0.082 Cl
HETATM   23  C   UNL     1       0.728   7.408 -26.170  1.00  0.00     0.026 A 
HETATM   24  C   UNL     1       1.628   8.201 -26.877  1.00  0.00     0.002 A 
HETATM   25  C   UNL     1       1.452   8.391 -28.246  1.00  0.00     0.002 A 
HETATM   26  C   UNL     1       0.382   7.781 -28.910  1.00  0.00     0.025 A 
ENDBRANCH  18  20
ENDBRANCH  17  18
ENDBRANCH   2  17
TORSDOF 5
ENDMDL
MODEL 2
REMARK VINA RESULT:      -8.3      3.374      4.870
REMARK  5 active torsions:
REMARK  status: ('A' for Active; 'I' for Inactive)
REMARK    1  A    between atoms: C_8  and  C_9 
REMARK    2  A    between atoms: N_10  and  N_11 
REMARK       I    between atoms: N_11  and  C_12 
REMARK    3  A    between atoms: C_12  and  C_13 
REMARK    4  A    between atoms: C_13  and  N_14 
REMARK    5  A    between atoms: N_14  and  C_15 
ROOT
HETATM    1  N   UNL     1      -4.828   2.312 -32.606  1.00  0.00    -0.246 N 
HETATM    2  C   UNL     1      -4.711   2.584 -31.243  1.00  0.00     0.250 C 
HETATM    3  O   UNL     1      -5.245   1.946 -30.337  1.00  0.00    -0.270 OA
HETATM    4  H   UNL     1      -4.159   2.739 -33.241  1.00  0.00     0.192 HD
ENDROOT
BRANCH   1   5
HETATM    5  N   UNL     1      -5.490   1.238 -33.155  1.00  0.00    -0.184 NA
HETATM    6  C   UNL     1      -4.853   0.115 -33.270  1.00  0.00     0.152 C 
BRANCH   6   7
HETATM    7  C   UNL     1      -5.513  -1.027 -33.874  1.00  0.00     0.011 A 
HETATM    8  C   UNL     1      -5.030  -2.375 -33.913  1.00  0.00     0.004 A 
HETATM    9  C   UNL     1      -3.866  -3.018 -33.440  1.00  0.00     0.014 A 
HETATM   10  C   UNL     1      -5.986  -3.143 -34.582  1.00  0.00     0.043 A 
HETATM   11  C   UNL     1      -3.703  -4.392 -33.647  1.00  0.00     0.001 A 
HETATM   12  C   UNL     1      -4.677  -5.130 -34.314  1.00  0.00     0.002 A 
HETATM   13  C   UNL     1      -5.837  -4.519 -34.796  1.00  0.00     0.030 A 
HETATM   14  N   UNL     1      -7.006  -2.294 -34.942  1.00  0.00    -0.364 N 
HETATM   15  H   UNL     1      -7.835  -2.577 -35.447  1.00  0.00     0.165 HD
HETATM   16  C   UNL     1      -6.735  -1.021 -34.522  1.00  0.00     0.102 A 
ENDBRANCH   6   7
ENDBRANCH   1   5
BRANCH   2  17
HETATM   17  C   UNL     1      -3.878   3.837 -30.962  1.00  0.00     0.197 C 
BRANCH  17  18
HETATM   18  N   UNL     1      -2.479   3.666 -31.379  1.00  0.00    -0.283 NA
HETATM   19  H   UNL     1      -2.240   2.724 -31.685  1.00  0.00     0.128 HD
BRANCH  18  20
HETATM   20  C   UNL     1      -1.973   4.620 -32.286  1.00  0.00     0.030 A 
HETATM   21  C   UNL     1      -1.329   5.788 -31.826  1.00  0.00     0.055 A 
HETATM   22 CL   UNL     1      -1.065   6.032 -30.132  1.00  0.00    -0.082 Cl
HETATM   23  C   UNL     1      -0.856   6.758 -32.714  1.00  0.00     0.026 A 
HETATM   24  C   UNL     1      -1.035   6.590 -34.085  1.00  0.00     0.002 A 
HETATM   25  C   UNL     1      -1.692   5.458 -34.562  1.00  0.00     0.002 A 
HETATM   26  C   UNL     1      -2.161   4.488 -33.670  1.00  0.00     0.025 A 
ENDBRANCH  18  20
ENDBRANCH  17  18
ENDBRANCH   2  17
TORSDOF 5
ENDMDL
MODEL 3
REMARK VINA RESULT:      -8.3      7.746     10.465
REMARK  5 active torsions:
REMARK  status: ('A' for Active; 'I' for Inactive)
REMARK    1  A    between atoms: C_8  and  C_9 
REMARK    2  A    between atoms: N_10  and  N_11 
REMARK       I    between atoms: N_11  and  C_12 
REMARK    3  A    between atoms: C_12  and  C_13 
REMARK    4  A    between atoms: C_13  and  N_14 
REMARK    5  A    between atoms: N_14  and  C_15 
ROOT
HETATM    1  N   UNL     1      -8.942   1.658 -34.617  1.00  0.00    -0.246 N 
HETATM    2  C   UNL     1      -9.193   2.929 -34.101  1.00  0.00     0.250 C 
HETATM    3  O   UNL     1      -8.387   3.623 -33.484  1.00  0.00    -0.270 OA
HETATM    4  H   UNL     1      -9.584   1.285 -35.311  1.00  0.00     0.192 HD
ENDROOT
BRANCH   1   5
HETATM    5  N   UNL     1      -7.730   1.008 -34.592  1.00  0.00    -0.184 NA
HETATM    6  C   UNL     1      -7.668  -0.157 -34.025  1.00  0.00     0.152 C 
BRANCH   6   7
HETATM    7  C   UNL     1      -6.398  -0.855 -33.954  1.00  0.00     0.011 A 
HETATM    8  C   UNL     1      -6.161  -2.236 -34.249  1.00  0.00     0.004 A 
HETATM    9  C   UNL     1      -6.980  -3.309 -34.665  1.00  0.00     0.014 A 
HETATM   10  C   UNL     1      -4.799  -2.478 -34.058  1.00  0.00     0.043 A 
HETATM   11  C   UNL     1      -6.412  -4.570 -34.876  1.00  0.00     0.001 A 
HETATM   12  C   UNL     1      -5.049  -4.776 -34.679  1.00  0.00     0.002 A 
HETATM   13  C   UNL     1      -4.216  -3.734 -34.265  1.00  0.00     0.030 A 
HETATM   14  N   UNL     1      -4.232  -1.292 -33.653  1.00  0.00    -0.364 N 
HETATM   15  H   UNL     1      -3.253  -1.171 -33.435  1.00  0.00     0.165 HD
HETATM   16  C   UNL     1      -5.182  -0.309 -33.588  1.00  0.00     0.102 A 
ENDBRANCH   6   7
ENDBRANCH   1   5
BRANCH   2  17
HETATM   17  C   UNL     1     -10.639   3.380 -34.323  1.00  0.00     0.197 C 
BRANCH  17  18
HETATM   18  N   UNL     1     -11.486   3.090 -33.159  1.00  0.00    -0.283 NA
HETATM   19  H   UNL     1     -11.693   3.899 -32.574  1.00  0.00     0.128 HD
BRANCH  18  20
HETATM   20  C   UNL     1     -12.660   2.348 -33.404  1.00  0.00     0.030 A 
HETATM   21  C   UNL     1     -13.838   2.589 -32.665  1.00  0.00     0.055 A 
HETATM   22 CL   UNL     1     -13.892   3.868 -31.499  1.00  0.00    -0.082 Cl
HETATM   23  C   UNL     1     -14.996   1.835 -32.874  1.00  0.00     0.026 A 
HETATM   24  C   UNL     1     -14.996   0.808 -33.814  1.00  0.00     0.002 A 
HETATM   25  C   UNL     1     -13.837   0.534 -34.537  1.00  0.00     0.002 A 
HETATM   26  C   UNL     1     -12.680   1.292 -34.328  1.00  0.00     0.025 A 
ENDBRANCH  18  20
ENDBRANCH  17  18
ENDBRANCH   2  17
TORSDOF 5
ENDMDL
MODEL 4
REMARK VINA RESULT:      -8.2      3.662      9.826
REMARK  5 active torsions:
REMARK  status: ('A' for Active; 'I' for Inactive)
REMARK    1  A    between atoms: C_8  and  C_9 
REMARK    2  A    between atoms: N_10  and  N_11 
REMARK       I    between atoms: N_11  and  C_12 
REMARK    3  A    between atoms: C_12  and  C_13 
REMARK    4  A    between atoms: C_13  and  N_14 
REMARK    5  A    between atoms: N_14  and  C_15 
ROOT
HETATM    1  N   UNL     1      -4.127   1.313 -32.292  1.00  0.00    -0.246 N 
HETATM    2  C   UNL     1      -3.427   0.289 -31.653  1.00  0.00     0.250 C 
HETATM    3  O   UNL     1      -2.478   0.441 -30.887  1.00  0.00    -0.270 OA
HETATM    4  H   UNL     1      -5.033   1.096 -32.697  1.00  0.00     0.192 HD
ENDROOT
BRANCH   1   5
HETATM    5  N   UNL     1      -3.921   2.660 -32.107  1.00  0.00    -0.184 NA
HETATM    6  C   UNL     1      -3.049   3.259 -32.856  1.00  0.00     0.152 C 
BRANCH   6   7
HETATM    7  C   UNL     1      -2.786   4.673 -32.664  1.00  0.00     0.011 A 
HETATM    8  C   UNL     1      -1.659   5.253 -31.996  1.00  0.00     0.004 A 
HETATM    9  C   UNL     1      -0.522   4.727 -31.347  1.00  0.00     0.014 A 
HETATM   10  C   UNL     1      -1.808   6.640 -32.054  1.00  0.00     0.043 A 
HETATM   11  C   UNL     1       0.420   5.599 -30.788  1.00  0.00     0.001 A 
HETATM   12  C   UNL     1       0.243   6.978 -30.865  1.00  0.00     0.002 A 
HETATM   13  C   UNL     1      -0.875   7.526 -31.499  1.00  0.00     0.030 A 
HETATM   14  N   UNL     1      -2.983   6.894 -32.722  1.00  0.00    -0.364 N 
HETATM   15  H   UNL     1      -3.349   7.817 -32.907  1.00  0.00     0.165 HD
HETATM   16  C   UNL     1      -3.579   5.720 -33.095  1.00  0.00     0.102 A 
ENDBRANCH   6   7
ENDBRANCH   1   5
BRANCH   2  17
HETATM   17  C   UNL     1      -3.924  -1.103 -32.053  1.00  0.00     0.197 C 
BRANCH  17  18
HETATM   18  N   UNL     1      -3.996  -1.258 -33.512  1.00  0.00    -0.283 NA
HETATM   19  H   UNL     1      -3.101  -1.167 -33.992  1.00  0.00     0.128 HD
BRANCH  18  20
HETATM   20  C   UNL     1      -4.698  -2.384 -33.991  1.00  0.00     0.030 A 
HETATM   21  C   UNL     1      -6.034  -2.272 -34.431  1.00  0.00     0.055 A 
HETATM   22 CL   UNL     1      -6.813  -0.726 -34.477  1.00  0.00    -0.082 Cl
HETATM   23  C   UNL     1      -6.751  -3.387 -34.873  1.00  0.00     0.026 A 
HETATM   24  C   UNL     1      -6.154  -4.645 -34.866  1.00  0.00     0.002 A 
HETATM   25  C   UNL     1      -4.844  -4.784 -34.411  1.00  0.00     0.002 A 
HETATM   26  C   UNL     1      -4.128  -3.666 -33.972  1.00  0.00     0.025 A 
ENDBRANCH  18  20
ENDBRANCH  17  18
ENDBRANCH   2  17
TORSDOF 5
ENDMDL
MODEL 5
REMARK VINA RESULT:      -8.2      7.807     10.494
REMARK  5 active torsions:
REMARK  status: ('A' for Active; 'I' for Inactive)
REMARK    1  A    between atoms: C_8  and  C_9 
REMARK    2  A    between atoms: N_10  and  N_11 
REMARK       I    between atoms: N_11  and  C_12 
REMARK    3  A    between atoms: C_12  and  C_13 
REMARK    4  A    between atoms: C_13  and  N_14 
REMARK    5  A    between atoms: N_14  and  C_15 
ROOT
HETATM    1  N   UNL     1      -8.403   1.488 -32.552  1.00  0.00    -0.246 N 
HETATM    2  C   UNL     1      -9.760   1.275 -32.796  1.00  0.00     0.250 C 
HETATM    3  O   UNL     1     -10.272   0.201 -33.104  1.00  0.00    -0.270 OA
HETATM    4  H   UNL     1      -8.128   2.339 -32.071  1.00  0.00     0.192 HD
ENDROOT
BRANCH   1   5
HETATM    5  N   UNL     1      -7.430   0.515 -32.537  1.00  0.00    -0.184 NA
HETATM    6  C   UNL     1      -6.677   0.381 -33.584  1.00  0.00     0.152 C 
BRANCH   6   7
HETATM    7  C   UNL     1      -5.663  -0.656 -33.612  1.00  0.00     0.011 A 
HETATM    8  C   UNL     1      -5.830  -2.007 -34.056  1.00  0.00     0.004 A 
HETATM    9  C   UNL     1      -6.917  -2.749 -34.567  1.00  0.00     0.014 A 
HETATM   10  C   UNL     1      -4.597  -2.648 -33.917  1.00  0.00     0.043 A 
HETATM   11  C   UNL     1      -6.733  -4.090 -34.922  1.00  0.00     0.001 A 
HETATM   12  C   UNL     1      -5.489  -4.698 -34.774  1.00  0.00     0.002 A 
HETATM   13  C   UNL     1      -4.397  -3.989 -34.268  1.00  0.00     0.030 A 
HETATM   14  N   UNL     1      -3.717  -1.726 -33.401  1.00  0.00    -0.364 N 
HETATM   15  H   UNL     1      -2.747  -1.915 -33.190  1.00  0.00     0.165 HD
HETATM   16  C   UNL     1      -4.345  -0.525 -33.214  1.00  0.00     0.102 A 
ENDBRANCH   6   7
ENDBRANCH   1   5
BRANCH   2  17
HETATM   17  C   UNL     1     -10.583   2.563 -32.704  1.00  0.00     0.197 C 
BRANCH  17  18
HETATM   18  N   UNL     1     -11.712   2.557 -33.645  1.00  0.00    -0.283 NA
HETATM   19  H   UNL     1     -11.663   1.832 -34.360  1.00  0.00     0.128 HD
BRANCH  18  20
HETATM   20  C   UNL     1     -13.003   2.603 -33.079  1.00  0.00     0.030 A 
HETATM   21  C   UNL     1     -13.946   1.588 -33.344  1.00  0.00     0.055 A 
HETATM   22 CL   UNL     1     -13.507   0.213 -34.301  1.00  0.00    -0.082 Cl
HETATM   23  C   UNL     1     -15.240   1.641 -32.818  1.00  0.00     0.026 A 
HETATM   24  C   UNL     1     -15.626   2.722 -32.031  1.00  0.00     0.002 A 
HETATM   25  C   UNL     1     -14.720   3.749 -31.777  1.00  0.00     0.002 A 
HETATM   26  C   UNL     1     -13.425   3.692 -32.302  1.00  0.00     0.025 A 
ENDBRANCH  18  20
ENDBRANCH  17  18
ENDBRANCH   2  17
TORSDOF 5
ENDMDL
MODEL 6
REMARK VINA RESULT:      -8.1      1.779      2.113
REMARK  5 active torsions:
REMARK  status: ('A' for Active; 'I' for Inactive)
REMARK    1  A    between atoms: C_8  and  C_9 
REMARK    2  A    between atoms: N_10  and  N_11 
REMARK       I    between atoms: N_11  and  C_12 
REMARK    3  A    between atoms: C_12  and  C_13 
REMARK    4  A    between atoms: C_13  and  N_14 
REMARK    5  A    between atoms: N_14  and  C_15 
ROOT
HETATM    1  N   UNL     1      -3.118   3.425 -31.122  1.00  0.00    -0.246 N 
HETATM    2  C   UNL     1      -2.570   4.514 -31.799  1.00  0.00     0.250 C 
HETATM    3  O   UNL     1      -1.836   4.449 -32.783  1.00  0.00    -0.270 OA
HETATM    4  H   UNL     1      -3.896   3.594 -30.489  1.00  0.00     0.192 HD
ENDROOT
BRANCH   1   5
HETATM    5  N   UNL     1      -2.994   2.106 -31.491  1.00  0.00    -0.184 NA
HETATM    6  C   UNL     1      -4.053   1.478 -31.897  1.00  0.00     0.152 C 
BRANCH   6   7
HETATM    7  C   UNL     1      -3.961   0.077 -32.264  1.00  0.00     0.011 A 
HETATM    8  C   UNL     1      -4.793  -0.620 -33.200  1.00  0.00     0.004 A 
HETATM    9  C   UNL     1      -5.885  -0.250 -34.013  1.00  0.00     0.014 A 
HETATM   10  C   UNL     1      -4.347  -1.943 -33.250  1.00  0.00     0.043 A 
HETATM   11  C   UNL     1      -6.484  -1.205 -34.842  1.00  0.00     0.001 A 
HETATM   12  C   UNL     1      -6.013  -2.514 -34.871  1.00  0.00     0.002 A 
HETATM   13  C   UNL     1      -4.935  -2.909 -34.075  1.00  0.00     0.030 A 
HETATM   14  N   UNL     1      -3.292  -2.048 -32.374  1.00  0.00    -0.364 N 
HETATM   15  H   UNL     1      -2.775  -2.898 -32.200  1.00  0.00     0.165 HD
HETATM   16  C   UNL     1      -3.050  -0.841 -31.776  1.00  0.00     0.102 A 
ENDBRANCH   6   7
ENDBRANCH   1   5
BRANCH   2  17
HETATM   17  C   UNL     1      -2.925   5.853 -31.147  1.00  0.00     0.197 C 
BRANCH  17  18
HETATM   18  N   UNL     1      -1.933   6.891 -31.458  1.00  0.00    -0.283 NA
HETATM   19  H   UNL     1      -2.271   7.628 -32.076  1.00  0.00     0.128 HD
BRANCH  18  20
HETATM   20  C   UNL     1      -1.242   7.448 -30.362  1.00  0.00     0.030 A 
HETATM   21  C   UNL     1       0.012   6.938 -29.962  1.00  0.00     0.055 A 
HETATM   22 CL   UNL     1       0.772   5.673 -30.868  1.00  0.00    -0.082 Cl
HETATM   23  C   UNL     1       0.690   7.457 -28.855  1.00  0.00     0.026 A 
HETATM   24  C   UNL     1       0.119   8.486 -28.111  1.00  0.00     0.002 A 
HETATM   25  C   UNL     1      -1.130   8.987 -28.471  1.00  0.00     0.002 A 
HETATM   26  C   UNL     1      -1.804   8.468 -29.581  1.00  0.00     0.025 A 
ENDBRANCH  18  20
ENDBRANCH  17  18
ENDBRANCH   2  17
TORSDOF 5
ENDMDL
MODEL 7
REMARK VINA RESULT:      -8.0      7.594      9.614
REMARK  5 active torsions:
REMARK  status: ('A' for Active; 'I' for Inactive)
REMARK    1  A    between atoms: C_8  and  C_9 
REMARK    2  A    between atoms: N_10  and  N_11 
REMARK       I    between atoms: N_11  and  C_12 
REMARK    3  A    between atoms: C_12  and  C_13 
REMARK    4  A    between atoms: C_13  and  N_14 
REMARK    5  A    between atoms: N_14  and  C_15 
ROOT
HETATM    1  N   UNL     1      -7.539   1.884 -32.313  1.00  0.00    -0.246 N 
HETATM    2  C   UNL     1      -8.853   1.709 -31.881  1.00  0.00     0.250 C 
HETATM    3  O   UNL     1      -9.368   0.636 -31.570  1.00  0.00    -0.270 OA
HETATM    4  H   UNL     1      -7.150   2.822 -32.304  1.00  0.00     0.192 HD
ENDROOT
BRANCH   1   5
HETATM    5  N   UNL     1      -6.581   0.899 -32.383  1.00  0.00    -0.184 NA
HETATM    6  C   UNL     1      -6.493   0.202 -33.473  1.00  0.00     0.152 C 
BRANCH   6   7
HETATM    7  C   UNL     1      -5.514  -0.865 -33.567  1.00  0.00     0.011 A 
HETATM    8  C   UNL     1      -5.737  -2.193 -34.056  1.00  0.00     0.004 A 
HETATM    9  C   UNL     1      -6.861  -2.879 -34.564  1.00  0.00     0.014 A 
HETATM   10  C   UNL     1      -4.523  -2.877 -33.976  1.00  0.00     0.043 A 
HETATM   11  C   UNL     1      -6.731  -4.211 -34.972  1.00  0.00     0.001 A 
HETATM   12  C   UNL     1      -5.505  -4.864 -34.882  1.00  0.00     0.002 A 
HETATM   13  C   UNL     1      -4.376  -4.210 -34.380  1.00  0.00     0.030 A 
HETATM   14  N   UNL     1      -3.600  -2.004 -33.450  1.00  0.00    -0.364 N 
HETATM   15  H   UNL     1      -2.632  -2.231 -33.274  1.00  0.00     0.165 HD
HETATM   16  C   UNL     1      -4.183  -0.791 -33.201  1.00  0.00     0.102 A 
ENDBRANCH   6   7
ENDBRANCH   1   5
BRANCH   2  17
HETATM   17  C   UNL     1      -9.654   3.013 -31.887  1.00  0.00     0.197 C 
BRANCH  17  18
HETATM   18  N   UNL     1     -11.083   2.775 -32.131  1.00  0.00    -0.283 NA
HETATM   19  H   UNL     1     -11.708   3.241 -31.474  1.00  0.00     0.128 HD
BRANCH  18  20
HETATM   20  C   UNL     1     -11.535   2.961 -33.454  1.00  0.00     0.030 A 
HETATM   21  C   UNL     1     -12.031   1.877 -34.210  1.00  0.00     0.055 A 
HETATM   22 CL   UNL     1     -12.179   0.307 -33.494  1.00  0.00    -0.082 Cl
HETATM   23  C   UNL     1     -12.447   2.042 -35.533  1.00  0.00     0.026 A 
HETATM   24  C   UNL     1     -12.358   3.293 -36.139  1.00  0.00     0.002 A 
HETATM   25  C   UNL     1     -11.848   4.372 -35.422  1.00  0.00     0.002 A 
HETATM   26  C   UNL     1     -11.435   4.205 -34.095  1.00  0.00     0.025 A 
ENDBRANCH  18  20
ENDBRANCH  17  18
ENDBRANCH   2  17
TORSDOF 5
ENDMDL
MODEL 8
REMARK VINA RESULT:      -8.0      7.257     10.030
REMARK  5 active torsions:
REMARK  status: ('A' for Active; 'I' for Inactive)
REMARK    1  A    between atoms: C_8  and  C_9 
REMARK    2  A    between atoms: N_10  and  N_11 
REMARK       I    between atoms: N_11  and  C_12 
REMARK    3  A    between atoms: C_12  and  C_13 
REMARK    4  A    between atoms: C_13  and  N_14 
REMARK    5  A    between atoms: N_14  and  C_15 
ROOT
HETATM    1  N   UNL     1      -7.387  -0.028 -32.238  1.00  0.00    -0.246 N 
HETATM    2  C   UNL     1      -6.082   0.434 -32.409  1.00  0.00     0.250 C 
HETATM    3  O   UNL     1      -5.766   1.542 -32.838  1.00  0.00    -0.270 OA
HETATM    4  H   UNL     1      -7.535  -0.846 -31.655  1.00  0.00     0.192 HD
ENDROOT
BRANCH   1   5
HETATM    5  N   UNL     1      -8.531   0.708 -32.444  1.00  0.00    -0.184 NA
HETATM    6  C   UNL     1      -9.038   0.737 -33.637  1.00  0.00     0.152 C 
BRANCH   6   7
HETATM    7  C   UNL     1     -10.226   1.529 -33.894  1.00  0.00     0.011 A 
HETATM    8  C   UNL     1     -11.586   1.079 -33.837  1.00  0.00     0.004 A 
HETATM    9  C   UNL     1     -12.202  -0.157 -33.549  1.00  0.00     0.014 A 
HETATM   10  C   UNL     1     -12.400   2.170 -34.145  1.00  0.00     0.043 A 
HETATM   11  C   UNL     1     -13.598  -0.256 -33.576  1.00  0.00     0.001 A 
HETATM   12  C   UNL     1     -14.382   0.852 -33.884  1.00  0.00     0.002 A 
HETATM   13  C   UNL     1     -13.798   2.088 -34.176  1.00  0.00     0.030 A 
HETATM   14  N   UNL     1     -11.570   3.239 -34.389  1.00  0.00    -0.364 N 
HETATM   15  H   UNL     1     -11.886   4.164 -34.643  1.00  0.00     0.165 HD
HETATM   16  C   UNL     1     -10.261   2.867 -34.240  1.00  0.00     0.102 A 
ENDBRANCH   6   7
ENDBRANCH   1   5
BRANCH   2  17
HETATM   17  C   UNL     1      -5.032  -0.624 -32.061  1.00  0.00     0.197 C 
BRANCH  17  18
HETATM   18  N   UNL     1      -4.272  -1.048 -33.245  1.00  0.00    -0.283 NA
HETATM   19  H   UNL     1      -3.287  -0.786 -33.232  1.00  0.00     0.128 HD
BRANCH  18  20
HETATM   20  C   UNL     1      -4.416  -2.396 -33.634  1.00  0.00     0.030 A 
HETATM   21  C   UNL     1      -5.463  -2.795 -34.493  1.00  0.00     0.055 A 
HETATM   22 CL   UNL     1      -6.542  -1.617 -35.161  1.00  0.00    -0.082 Cl
HETATM   23  C   UNL     1      -5.637  -4.133 -34.856  1.00  0.00     0.026 A 
HETATM   24  C   UNL     1      -4.780  -5.107 -34.352  1.00  0.00     0.002 A 
HETATM   25  C   UNL     1      -3.755  -4.742 -33.482  1.00  0.00     0.002 A 
HETATM   26  C   UNL     1      -3.581  -3.401 -33.123  1.00  0.00     0.025 A 
ENDBRANCH  18  20
ENDBRANCH  17  18
ENDBRANCH   2  17
TORSDOF 5
ENDMDL
MODEL 9
REMARK VINA RESULT:      -7.7      8.043      9.912
REMARK  5 active torsions:
REMARK  status: ('A' for Active; 'I' for Inactive)
REMARK    1  A    between atoms: C_8  and  C_9 
REMARK    2  A    between atoms: N_10  and  N_11 
REMARK       I    between atoms: N_11  and  C_12 
REMARK    3  A    between atoms: C_12  and  C_13 
REMARK    4  A    between atoms: C_13  and  N_14 
REMARK    5  A    between atoms: N_14  and  C_15 
ROOT
HETATM    1  N   UNL     1      -9.417   0.651 -33.468  1.00  0.00    -0.246 N 
HETATM    2  C   UNL     1     -10.690   0.172 -33.156  1.00  0.00     0.250 C 
HETATM    3  O   UNL     1     -10.945  -0.944 -32.710  1.00  0.00    -0.270 OA
HETATM    4  H   UNL     1      -9.297   1.652 -33.591  1.00  0.00     0.192 HD
ENDROOT
BRANCH   1   5
HETATM    5  N   UNL     1      -8.235  -0.017 -33.251  1.00  0.00    -0.184 NA
HETATM    6  C   UNL     1      -7.457  -0.238 -34.265  1.00  0.00     0.152 C 
BRANCH   6   7
HETATM    7  C   UNL     1      -6.218  -0.968 -34.076  1.00  0.00     0.011 A 
HETATM    8  C   UNL     1      -5.999  -2.364 -34.312  1.00  0.00     0.004 A 
HETATM    9  C   UNL     1      -6.814  -3.426 -34.760  1.00  0.00     0.014 A 
HETATM   10  C   UNL     1      -4.664  -2.636 -34.008  1.00  0.00     0.043 A 
HETATM   11  C   UNL     1      -6.269  -4.708 -34.891  1.00  0.00     0.001 A 
HETATM   12  C   UNL     1      -4.932  -4.944 -34.582  1.00  0.00     0.002 A 
HETATM   13  C   UNL     1      -4.104  -3.913 -34.133  1.00  0.00     0.030 A 
HETATM   14  N   UNL     1      -4.095  -1.454 -33.594  1.00  0.00    -0.364 N 
HETATM   15  H   UNL     1      -3.133  -1.353 -33.304  1.00  0.00     0.165 HD
HETATM   16  C   UNL     1      -5.018  -0.444 -33.631  1.00  0.00     0.102 A 
ENDBRANCH   6   7
ENDBRANCH   1   5
BRANCH   2  17
HETATM   17  C   UNL     1     -11.795   1.177 -33.490  1.00  0.00     0.197 C 
BRANCH  17  18
HETATM   18  N   UNL     1     -11.580   2.468 -32.821  1.00  0.00    -0.283 NA
HETATM   19  H   UNL     1     -10.762   2.498 -32.213  1.00  0.00     0.128 HD
BRANCH  18  20
HETATM   20  C   UNL     1     -11.627   3.616 -33.639  1.00  0.00     0.030 A 
HETATM   21  C   UNL     1     -12.798   4.398 -33.724  1.00  0.00     0.055 A 
HETATM   22 CL   UNL     1     -14.179   4.013 -32.752  1.00  0.00    -0.082 Cl
HETATM   23  C   UNL     1     -12.869   5.516 -34.559  1.00  0.00     0.026 A 
HETATM   24  C   UNL     1     -11.774   5.867 -35.344  1.00  0.00     0.002 A 
HETATM   25  C   UNL     1     -10.615   5.095 -35.297  1.00  0.00     0.002 A 
HETATM   26  C   UNL     1     -10.547   3.978 -34.457  1.00  0.00     0.025 A 
ENDBRANCH  18  20
ENDBRANCH  17  18
ENDBRANCH   2  17
TORSDOF 5
ENDMDL
MODEL 10
REMARK VINA RESULT:      -7.7      3.384      4.041
REMARK  5 active torsions:
REMARK  status: ('A' for Active; 'I' for Inactive)
REMARK    1  A    between atoms: C_8  and  C_9 
REMARK    2  A    between atoms: N_10  and  N_11 
REMARK       I    between atoms: N_11  and  C_12 
REMARK    3  A    between atoms: C_12  and  C_13 
REMARK    4  A    between atoms: C_13  and  N_14 
REMARK    5  A    between atoms: N_14  and  C_15 
ROOT
HETATM    1  N   UNL     1      -4.249   2.662 -30.780  1.00  0.00    -0.246 N 
HETATM    2  C   UNL     1      -4.916   3.758 -31.327  1.00  0.00     0.250 C 
HETATM    3  O   UNL     1      -5.706   3.719 -32.269  1.00  0.00    -0.270 OA
HETATM    4  H   UNL     1      -3.822   2.767 -29.864  1.00  0.00     0.192 HD
ENDROOT
BRANCH   1   5
HETATM    5  N   UNL     1      -4.428   1.350 -31.150  1.00  0.00    -0.184 NA
HETATM    6  C   UNL     1      -3.622   0.843 -32.030  1.00  0.00     0.152 C 
BRANCH   6   7
HETATM    7  C   UNL     1      -3.803  -0.529 -32.465  1.00  0.00     0.011 A 
HETATM    8  C   UNL     1      -4.814  -1.021 -33.353  1.00  0.00     0.004 A 
HETATM    9  C   UNL     1      -5.887  -0.426 -34.050  1.00  0.00     0.014 A 
HETATM   10  C   UNL     1      -4.609  -2.395 -33.500  1.00  0.00     0.043 A 
HETATM   11  C   UNL     1      -6.705  -1.216 -34.865  1.00  0.00     0.001 A 
HETATM   12  C   UNL     1      -6.472  -2.582 -34.992  1.00  0.00     0.002 A 
HETATM   13  C   UNL     1      -5.419  -3.199 -34.312  1.00  0.00     0.030 A 
HETATM   14  N   UNL     1      -3.522  -2.727 -32.726  1.00  0.00    -0.364 N 
HETATM   15  H   UNL     1      -3.147  -3.661 -32.635  1.00  0.00     0.165 HD
HETATM   16  C   UNL     1      -3.029  -1.615 -32.099  1.00  0.00     0.102 A 
ENDBRANCH   6   7
ENDBRANCH   1   5
BRANCH   2  17
HETATM   17  C   UNL     1      -4.515   5.081 -30.668  1.00  0.00     0.197 C 
BRANCH  17  18
HETATM   18  N   UNL     1      -3.056   5.229 -30.586  1.00  0.00    -0.283 NA
HETATM   19  H   UNL     1      -2.570   4.428 -30.184  1.00  0.00     0.128 HD
BRANCH  18  20
HETATM   20  C   UNL     1      -2.401   5.664 -31.757  1.00  0.00     0.030 A 
HETATM   21  C   UNL     1      -2.092   7.027 -31.952  1.00  0.00     0.055 A 
HETATM   22 CL   UNL     1      -2.432   8.187 -30.711  1.00  0.00    -0.082 Cl
HETATM   23  C   UNL     1      -1.477   7.474 -33.124  1.00  0.00     0.026 A 
HETATM   24  C   UNL     1      -1.174   6.569 -34.138  1.00  0.00     0.002 A 
HETATM   25  C   UNL     1      -1.492   5.222 -33.979  1.00  0.00     0.002 A 
HETATM   26  C   UNL     1      -2.106   4.778 -32.803  1.00  0.00     0.025 A 
ENDBRANCH  18  20
ENDBRANCH  17  18
ENDBRANCH   2  17
TORSDOF 5
ENDMDL
