MODEL 1
REMARK VINA RESULT:      -9.3      0.000      0.000
REMARK  5 active torsions:
REMARK  status: ('A' for Active; 'I' for Inactive)
REMARK       I    between atoms: N_6  and  C_7 
REMARK    1  A    between atoms: C_7  and  C_8 
REMARK    2  A    between atoms: N_11  and  C_12 
REMARK    3  A    between atoms: C_19  and  C_20 
REMARK    4  A    between atoms: C_20  and  N_21 
REMARK    5  A    between atoms: N_21  and  C_22 
ROOT
HETATM    1  C   UNL     1      -5.425   2.741 -32.415  1.00  0.00     0.719 A 
HETATM    2  N   UNL     1      -6.639   2.988 -31.786  1.00  0.00    -0.154 N 
HETATM    3  C   UNL     1      -7.407   1.838 -31.992  1.00  0.00     0.083 A 
HETATM    4  C   UNL     1      -8.712   1.786 -31.423  1.00  0.00     0.033 A 
HETATM    5  C   UNL     1      -9.186   2.854 -30.754  1.00  0.00     0.004 A 
HETATM    6  C   UNL     1      -8.401   4.063 -30.610  1.00  0.00     0.018 A 
HETATM    7  C   UNL     1      -7.161   4.105 -31.123  1.00  0.00     0.115 A 
HETATM    8  C   UNL     1      -6.662   1.010 -32.801  1.00  0.00     0.099 A 
HETATM    9  N   UNL     1      -5.420   1.576 -33.059  1.00  0.00    -0.064 NA
ENDROOT
BRANCH   1  10
HETATM   10  N   UNL     1      -4.304   3.583 -32.432  1.00  0.00    -0.147 N 
HETATM   11  C   UNL     1      -3.999   4.450 -33.461  1.00  0.00     0.233 A 
HETATM   12  N   UNL     1      -2.910   5.150 -33.242  1.00  0.00    -0.236 NA
HETATM   13  C   UNL     1      -2.448   4.732 -32.014  1.00  0.00     0.142 A 
HETATM   14  C   UNL     1      -3.279   3.734 -31.531  1.00  0.00     0.153 A 
BRANCH  13  15
HETATM   15  C   UNL     1      -1.235   5.213 -31.329  1.00  0.00     0.273 C 
HETATM   16  N   UNL     1      -1.236   6.466 -30.691  1.00  0.00    -0.345 N 
HETATM   17  C   UNL     1       0.062   6.986 -30.257  1.00  0.00     0.154 C 
HETATM   18  C   UNL     1      -2.446   7.214 -30.363  1.00  0.00     0.128 C 
HETATM   19  C   UNL     1       0.416   6.529 -28.836  1.00  0.00     0.254 C 
HETATM   20  N   UNL     1      -0.357   7.299 -27.768  1.00  0.00    -0.073 N 
HETATM   21  C   UNL     1       0.080   6.848 -26.391  1.00  0.00     0.269 C 
HETATM   22  H   UNL     1      -0.074   8.286 -27.839  1.00  0.00     0.279 HD
HETATM   23  C   UNL     1      -1.867   7.248 -27.892  1.00  0.00     0.236 C 
HETATM   24  C   UNL     1      -2.352   8.055 -29.091  1.00  0.00     0.048 C 
HETATM   25  O   UNL     1      -0.224   4.510 -31.290  1.00  0.00    -0.266 OA
ENDBRANCH  13  15
ENDBRANCH   1  10
BRANCH   8  26
HETATM   26  C   UNL     1      -7.031  -0.320 -33.394  1.00  0.00     0.183 C 
BRANCH  26  27
HETATM   27  N   UNL     1      -6.100  -0.907 -34.354  1.00  0.00    -0.371 N 
HETATM   28  H   UNL     1      -6.152  -0.490 -35.282  1.00  0.00     0.161 HD
BRANCH  27  29
HETATM   29  C   UNL     1      -5.763  -2.247 -34.369  1.00  0.00     0.101 A 
HETATM   30  N   UNL     1      -4.528  -2.677 -34.065  1.00  0.00    -0.353 N 
HETATM   31  H   UNL     1      -3.861  -1.985 -33.709  1.00  0.00     0.166 HD
HETATM   32  C   UNL     1      -4.154  -3.962 -34.130  1.00  0.00     0.089 A 
HETATM   33  C   UNL     1      -5.057  -4.932 -34.532  1.00  0.00     0.017 A 
HETATM   34  C   UNL     1      -6.352  -4.547 -34.851  1.00  0.00     0.005 A 
HETATM   35  C   UNL     1      -6.706  -3.201 -34.770  1.00  0.00     0.048 A 
ENDBRANCH  27  29
ENDBRANCH  26  27
ENDBRANCH   8  26
TORSDOF 5
ENDMDL
MODEL 2
REMARK VINA RESULT:      -9.3      2.779      5.101
REMARK  5 active torsions:
REMARK  status: ('A' for Active; 'I' for Inactive)
REMARK       I    between atoms: N_6  and  C_7 
REMARK    1  A    between atoms: C_7  and  C_8 
REMARK    2  A    between atoms: N_11  and  C_12 
REMARK    3  A    between atoms: C_19  and  C_20 
REMARK    4  A    between atoms: C_20  and  N_21 
REMARK    5  A    between atoms: N_21  and  C_22 
ROOT
HETATM    1  C   UNL     1      -5.706   0.718 -32.746  1.00  0.00     0.719 A 
HETATM    2  N   UNL     1      -5.528  -0.509 -33.374  1.00  0.00    -0.154 N 
HETATM    3  C   UNL     1      -6.816  -0.981 -33.644  1.00  0.00     0.083 A 
HETATM    4  C   UNL     1      -6.951  -2.224 -34.325  1.00  0.00     0.033 A 
HETATM    5  C   UNL     1      -5.850  -2.929 -34.642  1.00  0.00     0.004 A 
HETATM    6  C   UNL     1      -4.525  -2.456 -34.292  1.00  0.00     0.018 A 
HETATM    7  C   UNL     1      -4.394  -1.272 -33.673  1.00  0.00     0.115 A 
HETATM    8  C   UNL     1      -7.690  -0.073 -33.089  1.00  0.00     0.099 A 
HETATM    9  N   UNL     1      -6.992   0.991 -32.532  1.00  0.00    -0.064 NA
ENDROOT
BRANCH   1  10
HETATM   10  N   UNL     1      -4.699   1.603 -32.335  1.00  0.00    -0.147 N 
HETATM   11  C   UNL     1      -3.754   1.312 -31.372  1.00  0.00     0.233 A 
HETATM   12  N   UNL     1      -2.902   2.290 -31.172  1.00  0.00    -0.236 NA
HETATM   13  C   UNL     1      -3.291   3.295 -32.029  1.00  0.00     0.142 A 
HETATM   14  C   UNL     1      -4.426   2.893 -32.715  1.00  0.00     0.153 A 
BRANCH  13  15
HETATM   15  C   UNL     1      -2.654   4.616 -32.170  1.00  0.00     0.273 C 
HETATM   16  N   UNL     1      -3.278   5.759 -31.639  1.00  0.00    -0.345 N 
HETATM   17  C   UNL     1      -2.723   7.056 -32.033  1.00  0.00     0.154 C 
HETATM   18  C   UNL     1      -4.364   5.719 -30.665  1.00  0.00     0.128 C 
HETATM   19  C   UNL     1      -1.609   7.515 -31.083  1.00  0.00     0.254 C 
HETATM   20  N   UNL     1      -2.154   8.043 -29.759  1.00  0.00    -0.073 N 
HETATM   21  C   UNL     1      -1.016   8.536 -28.893  1.00  0.00     0.269 C 
HETATM   22  H   UNL     1      -2.720   8.876 -29.972  1.00  0.00     0.279 HD
HETATM   23  C   UNL     1      -3.034   7.080 -28.986  1.00  0.00     0.236 C 
HETATM   24  C   UNL     1      -4.379   6.883 -29.675  1.00  0.00     0.048 C 
HETATM   25  O   UNL     1      -1.561   4.723 -32.729  1.00  0.00    -0.266 OA
ENDBRANCH  13  15
ENDBRANCH   1  10
BRANCH   8  26
HETATM   26  C   UNL     1      -9.189  -0.120 -33.015  1.00  0.00     0.183 C 
BRANCH  26  27
HETATM   27  N   UNL     1      -9.919   1.078 -33.418  1.00  0.00    -0.371 N 
HETATM   28  H   UNL     1      -9.608   1.925 -32.944  1.00  0.00     0.161 HD
BRANCH  27  29
HETATM   29  C   UNL     1     -11.265   1.084 -33.731  1.00  0.00     0.101 A 
HETATM   30  N   UNL     1     -12.103   0.126 -33.301  1.00  0.00    -0.353 N 
HETATM   31  H   UNL     1     -11.735  -0.559 -32.635  1.00  0.00     0.166 HD
HETATM   32  C   UNL     1     -13.398   0.070 -33.638  1.00  0.00     0.089 A 
HETATM   33  C   UNL     1     -13.944   1.030 -34.475  1.00  0.00     0.017 A 
HETATM   34  C   UNL     1     -13.126   2.049 -34.944  1.00  0.00     0.005 A 
HETATM   35  C   UNL     1     -11.784   2.076 -34.571  1.00  0.00     0.048 A 
ENDBRANCH  27  29
ENDBRANCH  26  27
ENDBRANCH   8  26
TORSDOF 5
ENDMDL
MODEL 3
REMARK VINA RESULT:      -9.1      2.573      5.077
REMARK  5 active torsions:
REMARK  status: ('A' for Active; 'I' for Inactive)
REMARK       I    between atoms: N_6  and  C_7 
REMARK    1  A    between atoms: C_7  and  C_8 
REMARK    2  A    between atoms: N_11  and  C_12 
REMARK    3  A    between atoms: C_19  and  C_20 
REMARK    4  A    between atoms: C_20  and  N_21 
REMARK    5  A    between atoms: N_21  and  C_22 
ROOT
HETATM    1  C   UNL     1      -5.818   0.736 -32.655  1.00  0.00     0.719 A 
HETATM    2  N   UNL     1      -5.664  -0.478 -33.313  1.00  0.00    -0.154 N 
HETATM    3  C   UNL     1      -6.961  -0.957 -33.522  1.00  0.00     0.083 A 
HETATM    4  C   UNL     1      -7.121  -2.190 -34.216  1.00  0.00     0.033 A 
HETATM    5  C   UNL     1      -6.032  -2.880 -34.604  1.00  0.00     0.004 A 
HETATM    6  C   UNL     1      -4.695  -2.400 -34.318  1.00  0.00     0.018 A 
HETATM    7  C   UNL     1      -4.541  -1.225 -33.686  1.00  0.00     0.115 A 
HETATM    8  C   UNL     1      -7.811  -0.067 -32.905  1.00  0.00     0.099 A 
HETATM    9  N   UNL     1      -7.093   0.994 -32.368  1.00  0.00    -0.064 NA
ENDROOT
BRANCH   1  10
HETATM   10  N   UNL     1      -4.799   1.623 -32.283  1.00  0.00    -0.147 N 
HETATM   11  C   UNL     1      -3.809   1.331 -31.367  1.00  0.00     0.233 A 
HETATM   12  N   UNL     1      -2.954   2.312 -31.198  1.00  0.00    -0.236 NA
HETATM   13  C   UNL     1      -3.387   3.322 -32.029  1.00  0.00     0.142 A 
HETATM   14  C   UNL     1      -4.550   2.918 -32.666  1.00  0.00     0.153 A 
BRANCH  13  15
HETATM   15  C   UNL     1      -2.764   4.647 -32.188  1.00  0.00     0.273 C 
HETATM   16  N   UNL     1      -3.371   5.783 -31.624  1.00  0.00    -0.345 N 
HETATM   17  C   UNL     1      -2.841   7.086 -32.033  1.00  0.00     0.154 C 
HETATM   18  C   UNL     1      -4.415   5.731 -30.606  1.00  0.00     0.128 C 
HETATM   19  C   UNL     1      -1.690   7.545 -31.129  1.00  0.00     0.254 C 
HETATM   20  N   UNL     1      -2.183   8.062 -29.779  1.00  0.00    -0.073 N 
HETATM   21  C   UNL     1      -1.011   8.557 -28.959  1.00  0.00     0.269 C 
HETATM   22  H   UNL     1      -2.762   8.893 -29.963  1.00  0.00     0.279 HD
HETATM   23  C   UNL     1      -3.023   7.090 -28.976  1.00  0.00     0.236 C 
HETATM   24  C   UNL     1      -4.396   6.889 -29.609  1.00  0.00     0.048 C 
HETATM   25  O   UNL     1      -1.696   4.764 -32.792  1.00  0.00    -0.266 OA
ENDBRANCH  13  15
ENDBRANCH   1  10
BRANCH   8  26
HETATM   26  C   UNL     1      -9.303  -0.131 -32.752  1.00  0.00     0.183 C 
BRANCH  26  27
HETATM   27  N   UNL     1     -10.018   1.135 -32.616  1.00  0.00    -0.371 N 
HETATM   28  H   UNL     1     -10.337   1.325 -31.667  1.00  0.00     0.161 HD
BRANCH  27  29
HETATM   29  C   UNL     1     -10.850   1.651 -33.591  1.00  0.00     0.101 A 
HETATM   30  N   UNL     1     -10.576   2.801 -34.229  1.00  0.00    -0.353 N 
HETATM   31  H   UNL     1      -9.667   3.236 -34.049  1.00  0.00     0.166 HD
HETATM   32  C   UNL     1     -11.393   3.358 -35.134  1.00  0.00     0.089 A 
HETATM   33  C   UNL     1     -12.595   2.751 -35.456  1.00  0.00     0.017 A 
HETATM   34  C   UNL     1     -12.927   1.556 -34.834  1.00  0.00     0.005 A 
HETATM   35  C   UNL     1     -12.053   1.004 -33.899  1.00  0.00     0.048 A 
ENDBRANCH  27  29
ENDBRANCH  26  27
ENDBRANCH   8  26
TORSDOF 5
ENDMDL
MODEL 4
REMARK VINA RESULT:      -8.7      3.902      9.963
REMARK  5 active torsions:
REMARK  status: ('A' for Active; 'I' for Inactive)
REMARK       I    between atoms: N_6  and  C_7 
REMARK    1  A    between atoms: C_7  and  C_8 
REMARK    2  A    between atoms: N_11  and  C_12 
REMARK    3  A    between atoms: C_19  and  C_20 
REMARK    4  A    between atoms: C_20  and  N_21 
REMARK    5  A    between atoms: N_21  and  C_22 
ROOT
HETATM    1  C   UNL     1      -6.101   1.753 -32.315  1.00  0.00     0.719 A 
HETATM    2  N   UNL     1      -5.324   0.607 -32.434  1.00  0.00    -0.154 N 
HETATM    3  C   UNL     1      -3.999   1.051 -32.428  1.00  0.00     0.083 A 
HETATM    4  C   UNL     1      -2.960   0.080 -32.504  1.00  0.00     0.033 A 
HETATM    5  C   UNL     1      -3.278  -1.222 -32.631  1.00  0.00     0.004 A 
HETATM    6  C   UNL     1      -4.658  -1.657 -32.705  1.00  0.00     0.018 A 
HETATM    7  C   UNL     1      -5.640  -0.746 -32.608  1.00  0.00     0.115 A 
HETATM    8  C   UNL     1      -4.048   2.427 -32.400  1.00  0.00     0.099 A 
HETATM    9  N   UNL     1      -5.365   2.862 -32.325  1.00  0.00    -0.064 NA
ENDROOT
BRANCH   1  10
HETATM   10  N   UNL     1      -7.498   1.812 -32.217  1.00  0.00    -0.147 N 
HETATM   11  C   UNL     1      -8.290   0.777 -31.764  1.00  0.00     0.233 A 
HETATM   12  N   UNL     1      -9.569   1.075 -31.742  1.00  0.00    -0.236 NA
HETATM   13  C   UNL     1      -9.651   2.367 -32.212  1.00  0.00     0.142 A 
HETATM   14  C   UNL     1      -8.381   2.809 -32.549  1.00  0.00     0.153 A 
BRANCH  13  15
HETATM   15  C   UNL     1     -10.884   3.152 -32.392  1.00  0.00     0.273 C 
HETATM   16  N   UNL     1     -11.809   2.793 -33.389  1.00  0.00    -0.345 N 
HETATM   17  C   UNL     1     -12.874   3.756 -33.677  1.00  0.00     0.154 C 
HETATM   18  C   UNL     1     -11.817   1.502 -34.069  1.00  0.00     0.128 C 
HETATM   19  C   UNL     1     -14.105   3.532 -32.789  1.00  0.00     0.254 C 
HETATM   20  N   UNL     1     -14.936   2.333 -33.239  1.00  0.00    -0.073 N 
HETATM   21  C   UNL     1     -16.164   2.201 -32.366  1.00  0.00     0.269 C 
HETATM   22  H   UNL     1     -15.288   2.543 -34.183  1.00  0.00     0.279 HD
HETATM   23  C   UNL     1     -14.191   1.015 -33.314  1.00  0.00     0.236 C 
HETATM   24  C   UNL     1     -13.202   1.002 -34.475  1.00  0.00     0.048 C 
HETATM   25  O   UNL     1     -11.124   4.110 -31.655  1.00  0.00    -0.266 OA
ENDBRANCH  13  15
ENDBRANCH   1  10
BRANCH   8  26
HETATM   26  C   UNL     1      -2.921   3.418 -32.457  1.00  0.00     0.183 C 
BRANCH  26  27
HETATM   27  N   UNL     1      -2.543   4.075 -31.209  1.00  0.00    -0.371 N 
HETATM   28  H   UNL     1      -3.337   4.335 -30.627  1.00  0.00     0.161 HD
BRANCH  27  29
HETATM   29  C   UNL     1      -1.470   4.939 -31.095  1.00  0.00     0.101 A 
HETATM   30  N   UNL     1      -0.584   4.848 -30.091  1.00  0.00    -0.353 N 
HETATM   31  H   UNL     1      -0.662   4.044 -29.463  1.00  0.00     0.166 HD
HETATM   32  C   UNL     1       0.430   5.707 -29.918  1.00  0.00     0.089 A 
HETATM   33  C   UNL     1       0.609   6.762 -30.799  1.00  0.00     0.017 A 
HETATM   34  C   UNL     1      -0.272   6.900 -31.862  1.00  0.00     0.005 A 
HETATM   35  C   UNL     1      -1.314   5.986 -32.011  1.00  0.00     0.048 A 
ENDBRANCH  27  29
ENDBRANCH  26  27
ENDBRANCH   8  26
TORSDOF 5
ENDMDL
MODEL 5
REMARK VINA RESULT:      -8.7      3.097      9.949
REMARK  5 active torsions:
REMARK  status: ('A' for Active; 'I' for Inactive)
REMARK       I    between atoms: N_6  and  C_7 
REMARK    1  A    between atoms: C_7  and  C_8 
REMARK    2  A    between atoms: N_11  and  C_12 
REMARK    3  A    between atoms: C_19  and  C_20 
REMARK    4  A    between atoms: C_20  and  N_21 
REMARK    5  A    between atoms: N_21  and  C_22 
ROOT
HETATM    1  C   UNL     1      -3.298   4.443 -31.708  1.00  0.00     0.719 A 
HETATM    2  N   UNL     1      -2.504   4.995 -32.706  1.00  0.00    -0.154 N 
HETATM    3  C   UNL     1      -1.874   6.095 -32.117  1.00  0.00     0.083 A 
HETATM    4  C   UNL     1      -0.957   6.850 -32.904  1.00  0.00     0.033 A 
HETATM    5  C   UNL     1      -0.762   6.520 -34.193  1.00  0.00     0.004 A 
HETATM    6  C   UNL     1      -1.476   5.417 -34.806  1.00  0.00     0.018 A 
HETATM    7  C   UNL     1      -2.322   4.688 -34.060  1.00  0.00     0.115 A 
HETATM    8  C   UNL     1      -2.385   6.203 -30.843  1.00  0.00     0.099 A 
HETATM    9  N   UNL     1      -3.272   5.164 -30.589  1.00  0.00    -0.064 NA
ENDROOT
BRANCH   1  10
HETATM   10  N   UNL     1      -4.079   3.283 -31.804  1.00  0.00    -0.147 N 
HETATM   11  C   UNL     1      -3.666   2.031 -31.396  1.00  0.00     0.233 A 
HETATM   12  N   UNL     1      -4.579   1.104 -31.566  1.00  0.00    -0.236 NA
HETATM   13  C   UNL     1      -5.658   1.752 -32.126  1.00  0.00     0.142 A 
HETATM   14  C   UNL     1      -5.337   3.087 -32.316  1.00  0.00     0.153 A 
BRANCH  13  15
HETATM   15  C   UNL     1      -6.936   1.135 -32.522  1.00  0.00     0.273 C 
HETATM   16  N   UNL     1      -8.091   1.351 -31.750  1.00  0.00    -0.345 N 
HETATM   17  C   UNL     1      -9.253   0.512 -32.052  1.00  0.00     0.154 C 
HETATM   18  C   UNL     1      -8.219   2.406 -30.750  1.00  0.00     0.128 C 
HETATM   19  C   UNL     1     -10.146   1.138 -33.132  1.00  0.00     0.254 C 
HETATM   20  N   UNL     1     -10.995   2.285 -32.590  1.00  0.00    -0.073 N 
HETATM   21  C   UNL     1     -11.897   2.818 -33.682  1.00  0.00     0.269 C 
HETATM   22  H   UNL     1     -11.626   1.889 -31.880  1.00  0.00     0.279 HD
HETATM   23  C   UNL     1     -10.224   3.414 -31.936  1.00  0.00     0.236 C 
HETATM   24  C   UNL     1      -9.629   2.979 -30.602  1.00  0.00     0.048 C 
HETATM   25  O   UNL     1      -7.005   0.450 -33.543  1.00  0.00    -0.266 OA
ENDBRANCH  13  15
ENDBRANCH   1  10
BRANCH   8  26
HETATM   26  C   UNL     1      -2.118   7.248 -29.798  1.00  0.00     0.183 C 
BRANCH  26  27
HETATM   27  N   UNL     1      -1.569   6.796 -28.523  1.00  0.00    -0.371 N 
HETATM   28  H   UNL     1      -2.272   6.432 -27.881  1.00  0.00     0.161 HD
BRANCH  27  29
HETATM   29  C   UNL     1      -0.508   7.411 -27.887  1.00  0.00     0.101 A 
HETATM   30  N   UNL     1      -0.488   7.610 -26.559  1.00  0.00    -0.353 N 
HETATM   31  H   UNL     1      -1.242   7.190 -26.007  1.00  0.00     0.166 HD
HETATM   32  C   UNL     1       0.497   8.257 -25.922  1.00  0.00     0.089 A 
HETATM   33  C   UNL     1       1.571   8.768 -26.633  1.00  0.00     0.017 A 
HETATM   34  C   UNL     1       1.608   8.585 -28.008  1.00  0.00     0.005 A 
HETATM   35  C   UNL     1       0.567   7.905 -28.637  1.00  0.00     0.048 A 
ENDBRANCH  27  29
ENDBRANCH  26  27
ENDBRANCH   8  26
TORSDOF 5
ENDMDL
MODEL 6
REMARK VINA RESULT:      -8.6      3.943      8.160
REMARK  5 active torsions:
REMARK  status: ('A' for Active; 'I' for Inactive)
REMARK       I    between atoms: N_6  and  C_7 
REMARK    1  A    between atoms: C_7  and  C_8 
REMARK    2  A    between atoms: N_11  and  C_12 
REMARK    3  A    between atoms: C_19  and  C_20 
REMARK    4  A    between atoms: C_20  and  N_21 
REMARK    5  A    between atoms: N_21  and  C_22 
ROOT
HETATM    1  C   UNL     1      -6.607   3.102 -32.839  1.00  0.00     0.719 A 
HETATM    2  N   UNL     1      -5.379   3.518 -32.339  1.00  0.00    -0.154 N 
HETATM    3  C   UNL     1      -4.552   2.392 -32.394  1.00  0.00     0.083 A 
HETATM    4  C   UNL     1      -3.199   2.526 -31.971  1.00  0.00     0.033 A 
HETATM    5  C   UNL     1      -2.770   3.706 -31.486  1.00  0.00     0.004 A 
HETATM    6  C   UNL     1      -3.660   4.843 -31.373  1.00  0.00     0.018 A 
HETATM    7  C   UNL     1      -4.930   4.727 -31.795  1.00  0.00     0.115 A 
HETATM    8  C   UNL     1      -5.340   1.350 -32.829  1.00  0.00     0.099 A 
HETATM    9  N   UNL     1      -6.623   1.799 -33.111  1.00  0.00    -0.064 NA
ENDROOT
BRANCH   1  10
HETATM   10  N   UNL     1      -7.744   3.897 -33.036  1.00  0.00    -0.147 N 
HETATM   11  C   UNL     1      -7.781   5.015 -33.845  1.00  0.00     0.233 A 
HETATM   12  N   UNL     1      -8.963   5.584 -33.888  1.00  0.00    -0.236 NA
HETATM   13  C   UNL     1      -9.764   4.826 -33.062  1.00  0.00     0.142 A 
HETATM   14  C   UNL     1      -9.005   3.812 -32.500  1.00  0.00     0.153 A 
BRANCH  13  15
HETATM   15  C   UNL     1     -11.186   5.068 -32.765  1.00  0.00     0.273 C 
HETATM   16  N   UNL     1     -12.180   4.582 -33.632  1.00  0.00    -0.345 N 
HETATM   17  C   UNL     1     -13.543   5.073 -33.415  1.00  0.00     0.154 C 
HETATM   18  C   UNL     1     -11.947   3.567 -34.654  1.00  0.00     0.128 C 
HETATM   19  C   UNL     1     -14.316   4.196 -32.422  1.00  0.00     0.254 C 
HETATM   20  N   UNL     1     -14.786   2.885 -33.048  1.00  0.00    -0.073 N 
HETATM   21  C   UNL     1     -15.593   2.094 -32.041  1.00  0.00     0.269 C 
HETATM   22  H   UNL     1     -15.444   3.126 -33.802  1.00  0.00     0.279 HD
HETATM   23  C   UNL     1     -13.695   2.023 -33.652  1.00  0.00     0.236 C 
HETATM   24  C   UNL     1     -13.138   2.648 -34.926  1.00  0.00     0.048 C 
HETATM   25  O   UNL     1     -11.513   5.674 -31.743  1.00  0.00    -0.266 OA
ENDBRANCH  13  15
ENDBRANCH   1  10
BRANCH   8  26
HETATM   26  C   UNL     1      -4.987  -0.100 -32.997  1.00  0.00     0.183 C 
BRANCH  26  27
HETATM   27  N   UNL     1      -5.652  -0.832 -34.071  1.00  0.00    -0.371 N 
HETATM   28  H   UNL     1      -6.563  -0.450 -34.323  1.00  0.00     0.161 HD
BRANCH  27  29
HETATM   29  C   UNL     1      -5.566  -2.202 -34.229  1.00  0.00     0.101 A 
HETATM   30  N   UNL     1      -4.429  -2.878 -33.999  1.00  0.00    -0.353 N 
HETATM   31  H   UNL     1      -3.645  -2.360 -33.592  1.00  0.00     0.166 HD
HETATM   32  C   UNL     1      -4.296  -4.196 -34.202  1.00  0.00     0.089 A 
HETATM   33  C   UNL     1      -5.364  -4.940 -34.678  1.00  0.00     0.017 A 
HETATM   34  C   UNL     1      -6.568  -4.295 -34.926  1.00  0.00     0.005 A 
HETATM   35  C   UNL     1      -6.670  -2.923 -34.701  1.00  0.00     0.048 A 
ENDBRANCH  27  29
ENDBRANCH  26  27
ENDBRANCH   8  26
TORSDOF 5
ENDMDL
MODEL 7
REMARK VINA RESULT:      -8.6      4.081      9.025
REMARK  5 active torsions:
REMARK  status: ('A' for Active; 'I' for Inactive)
REMARK       I    between atoms: N_6  and  C_7 
REMARK    1  A    between atoms: C_7  and  C_8 
REMARK    2  A    between atoms: N_11  and  C_12 
REMARK    3  A    between atoms: C_19  and  C_20 
REMARK    4  A    between atoms: C_20  and  N_21 
REMARK    5  A    between atoms: N_21  and  C_22 
ROOT
HETATM    1  C   UNL     1      -7.051   0.594 -33.283  1.00  0.00     0.719 A 
HETATM    2  N   UNL     1      -6.407  -0.556 -33.723  1.00  0.00    -0.154 N 
HETATM    3  C   UNL     1      -5.087  -0.439 -33.278  1.00  0.00     0.083 A 
HETATM    4  C   UNL     1      -4.183  -1.505 -33.556  1.00  0.00     0.033 A 
HETATM    5  C   UNL     1      -4.605  -2.560 -34.277  1.00  0.00     0.004 A 
HETATM    6  C   UNL     1      -5.958  -2.631 -34.790  1.00  0.00     0.018 A 
HETATM    7  C   UNL     1      -6.820  -1.640 -34.507  1.00  0.00     0.115 A 
HETATM    8  C   UNL     1      -4.983   0.798 -32.683  1.00  0.00     0.099 A 
HETATM    9  N   UNL     1      -6.215   1.440 -32.684  1.00  0.00    -0.064 NA
ENDROOT
BRANCH   1  10
HETATM   10  N   UNL     1      -8.409   0.906 -33.438  1.00  0.00    -0.147 N 
HETATM   11  C   UNL     1      -9.439   0.216 -32.832  1.00  0.00     0.233 A 
HETATM   12  N   UNL     1     -10.624   0.707 -33.110  1.00  0.00    -0.236 NA
HETATM   13  C   UNL     1     -10.390   1.772 -33.953  1.00  0.00     0.142 A 
HETATM   14  C   UNL     1      -9.029   1.870 -34.193  1.00  0.00     0.153 A 
BRANCH  13  15
HETATM   15  C   UNL     1     -11.411   2.643 -34.560  1.00  0.00     0.273 C 
HETATM   16  N   UNL     1     -11.794   3.833 -33.916  1.00  0.00    -0.345 N 
HETATM   17  C   UNL     1     -12.981   4.513 -34.438  1.00  0.00     0.154 C 
HETATM   18  C   UNL     1     -11.034   4.460 -32.839  1.00  0.00     0.128 C 
HETATM   19  C   UNL     1     -12.628   5.509 -35.550  1.00  0.00     0.254 C 
HETATM   20  N   UNL     1     -12.014   6.796 -35.004  1.00  0.00    -0.073 N 
HETATM   21  C   UNL     1     -11.745   7.760 -36.139  1.00  0.00     0.269 C 
HETATM   22  H   UNL     1     -12.728   7.250 -34.419  1.00  0.00     0.279 HD
HETATM   23  C   UNL     1     -10.773   6.616 -34.153  1.00  0.00     0.236 C 
HETATM   24  C   UNL     1     -11.111   5.986 -32.806  1.00  0.00     0.048 C 
HETATM   25  O   UNL     1     -11.915   2.349 -35.645  1.00  0.00    -0.266 OA
ENDBRANCH  13  15
ENDBRANCH   1  10
BRANCH   8  26
HETATM   26  C   UNL     1      -3.774   1.473 -32.101  1.00  0.00     0.183 C 
BRANCH  26  27
HETATM   27  N   UNL     1      -3.859   2.910 -31.860  1.00  0.00    -0.371 N 
HETATM   28  H   UNL     1      -4.670   3.185 -31.308  1.00  0.00     0.161 HD
BRANCH  27  29
HETATM   29  C   UNL     1      -3.471   3.864 -32.781  1.00  0.00     0.101 A 
HETATM   30  N   UNL     1      -4.331   4.396 -33.665  1.00  0.00    -0.353 N 
HETATM   31  H   UNL     1      -5.320   4.154 -33.565  1.00  0.00     0.166 HD
HETATM   32  C   UNL     1      -3.972   5.276 -34.609  1.00  0.00     0.089 A 
HETATM   33  C   UNL     1      -2.652   5.684 -34.718  1.00  0.00     0.017 A 
HETATM   34  C   UNL     1      -1.720   5.173 -33.826  1.00  0.00     0.005 A 
HETATM   35  C   UNL     1      -2.130   4.261 -32.855  1.00  0.00     0.048 A 
ENDBRANCH  27  29
ENDBRANCH  26  27
ENDBRANCH   8  26
TORSDOF 5
ENDMDL
MODEL 8
REMARK VINA RESULT:      -8.6      2.372      4.491
REMARK  5 active torsions:
REMARK  status: ('A' for Active; 'I' for Inactive)
REMARK       I    between atoms: N_6  and  C_7 
REMARK    1  A    between atoms: C_7  and  C_8 
REMARK    2  A    between atoms: N_11  and  C_12 
REMARK    3  A    between atoms: C_19  and  C_20 
REMARK    4  A    between atoms: C_20  and  N_21 
REMARK    5  A    between atoms: N_21  and  C_22 
ROOT
HETATM    1  C   UNL     1      -5.639   2.113 -32.594  1.00  0.00     0.719 A 
HETATM    2  N   UNL     1      -5.476   0.791 -32.991  1.00  0.00    -0.154 N 
HETATM    3  C   UNL     1      -6.758   0.233 -32.965  1.00  0.00     0.083 A 
HETATM    4  C   UNL     1      -6.911  -1.126 -33.363  1.00  0.00     0.033 A 
HETATM    5  C   UNL     1      -5.824  -1.845 -33.700  1.00  0.00     0.004 A 
HETATM    6  C   UNL     1      -4.495  -1.268 -33.655  1.00  0.00     0.018 A 
HETATM    7  C   UNL     1      -4.350   0.020 -33.305  1.00  0.00     0.115 A 
HETATM    8  C   UNL     1      -7.598   1.206 -32.471  1.00  0.00     0.099 A 
HETATM    9  N   UNL     1      -6.895   2.382 -32.245  1.00  0.00    -0.064 NA
ENDROOT
BRANCH   1  10
HETATM   10  N   UNL     1      -4.640   3.094 -32.521  1.00  0.00    -0.147 N 
HETATM   11  C   UNL     1      -4.456   4.088 -33.461  1.00  0.00     0.233 A 
HETATM   12  N   UNL     1      -3.471   4.903 -33.166  1.00  0.00    -0.236 NA
HETATM   13  C   UNL     1      -2.954   4.437 -31.977  1.00  0.00     0.142 A 
HETATM   14  C   UNL     1      -3.643   3.295 -31.599  1.00  0.00     0.153 A 
BRANCH  13  15
HETATM   15  C   UNL     1      -1.815   5.008 -31.238  1.00  0.00     0.273 C 
HETATM   16  N   UNL     1      -1.920   6.287 -30.662  1.00  0.00    -0.345 N 
HETATM   17  C   UNL     1      -0.680   6.891 -30.168  1.00  0.00     0.154 C 
HETATM   18  C   UNL     1      -3.183   6.987 -30.451  1.00  0.00     0.128 C 
HETATM   19  C   UNL     1      -0.403   6.516 -28.707  1.00  0.00     0.254 C 
HETATM   20  N   UNL     1      -1.283   7.293 -27.730  1.00  0.00    -0.073 N 
HETATM   21  C   UNL     1      -0.920   6.927 -26.308  1.00  0.00     0.269 C 
HETATM   22  H   UNL     1      -1.043   8.289 -27.829  1.00  0.00     0.279 HD
HETATM   23  C   UNL     1      -2.776   7.160 -27.951  1.00  0.00     0.236 C 
HETATM   24  C   UNL     1      -3.216   7.888 -29.217  1.00  0.00     0.048 C 
HETATM   25  O   UNL     1      -0.777   4.360 -31.098  1.00  0.00    -0.266 OA
ENDBRANCH  13  15
ENDBRANCH   1  10
BRANCH   8  26
HETATM   26  C   UNL     1      -9.065   1.125 -32.163  1.00  0.00     0.183 C 
BRANCH  26  27
HETATM   27  N   UNL     1      -9.934   0.546 -33.183  1.00  0.00    -0.371 N 
HETATM   28  H   UNL     1      -9.502  -0.214 -33.706  1.00  0.00     0.161 HD
BRANCH  27  29
HETATM   29  C   UNL     1     -10.835   1.284 -33.928  1.00  0.00     0.101 A 
HETATM   30  N   UNL     1     -10.472   2.389 -34.599  1.00  0.00    -0.353 N 
HETATM   31  H   UNL     1      -9.473   2.613 -34.635  1.00  0.00     0.166 HD
HETATM   32  C   UNL     1     -11.332   3.159 -35.278  1.00  0.00     0.089 A 
HETATM   33  C   UNL     1     -12.679   2.837 -35.314  1.00  0.00     0.017 A 
HETATM   34  C   UNL     1     -13.111   1.700 -34.645  1.00  0.00     0.005 A 
HETATM   35  C   UNL     1     -12.187   0.922 -33.950  1.00  0.00     0.048 A 
ENDBRANCH  27  29
ENDBRANCH  26  27
ENDBRANCH   8  26
TORSDOF 5
ENDMDL
MODEL 9
REMARK VINA RESULT:      -8.5      3.098      4.767
REMARK  5 active torsions:
REMARK  status: ('A' for Active; 'I' for Inactive)
REMARK       I    between atoms: N_6  and  C_7 
REMARK    1  A    between atoms: C_7  and  C_8 
REMARK    2  A    between atoms: N_11  and  C_12 
REMARK    3  A    between atoms: C_19  and  C_20 
REMARK    4  A    between atoms: C_20  and  N_21 
REMARK    5  A    between atoms: N_21  and  C_22 
ROOT
HETATM    1  C   UNL     1      -6.586   4.021 -33.491  1.00  0.00     0.719 A 
HETATM    2  N   UNL     1      -7.066   2.913 -32.802  1.00  0.00    -0.154 N 
HETATM    3  C   UNL     1      -8.422   2.828 -33.129  1.00  0.00     0.083 A 
HETATM    4  C   UNL     1      -9.181   1.751 -32.587  1.00  0.00     0.033 A 
HETATM    5  C   UNL     1      -8.592   0.883 -31.744  1.00  0.00     0.004 A 
HETATM    6  C   UNL     1      -7.202   1.028 -31.363  1.00  0.00     0.018 A 
HETATM    7  C   UNL     1      -6.477   2.027 -31.892  1.00  0.00     0.115 A 
HETATM    8  C   UNL     1      -8.706   3.926 -33.909  1.00  0.00     0.099 A 
HETATM    9  N   UNL     1      -7.554   4.667 -34.138  1.00  0.00    -0.064 NA
ENDROOT
BRANCH   1  10
HETATM   10  N   UNL     1      -5.261   4.477 -33.525  1.00  0.00    -0.147 N 
HETATM   11  C   UNL     1      -4.617   4.909 -34.667  1.00  0.00     0.233 A 
HETATM   12  N   UNL     1      -3.386   5.309 -34.447  1.00  0.00    -0.236 NA
HETATM   13  C   UNL     1      -3.180   5.131 -33.096  1.00  0.00     0.142 A 
HETATM   14  C   UNL     1      -4.319   4.577 -32.532  1.00  0.00     0.153 A 
BRANCH  13  15
HETATM   15  C   UNL     1      -1.940   5.423 -32.358  1.00  0.00     0.273 C 
HETATM   16  N   UNL     1      -1.603   6.751 -32.041  1.00  0.00    -0.345 N 
HETATM   17  C   UNL     1      -0.248   6.986 -31.539  1.00  0.00     0.154 C 
HETATM   18  C   UNL     1      -2.541   7.867 -32.099  1.00  0.00     0.128 C 
HETATM   19  C   UNL     1      -0.173   6.855 -30.012  1.00  0.00     0.254 C 
HETATM   20  N   UNL     1      -0.753   8.071 -29.295  1.00  0.00    -0.073 N 
HETATM   21  C   UNL     1      -0.594   7.911 -27.799  1.00  0.00     0.269 C 
HETATM   22  H   UNL     1      -0.171   8.882 -29.550  1.00  0.00     0.279 HD
HETATM   23  C   UNL     1      -2.188   8.412 -29.645  1.00  0.00     0.236 C 
HETATM   24  C   UNL     1      -2.296   8.963 -31.063  1.00  0.00     0.048 C 
HETATM   25  O   UNL     1      -1.204   4.504 -31.991  1.00  0.00    -0.266 OA
ENDBRANCH  13  15
ENDBRANCH   1  10
BRANCH   8  26
HETATM   26  C   UNL     1     -10.023   4.374 -34.475  1.00  0.00     0.183 C 
BRANCH  26  27
HETATM   27  N   UNL     1     -10.825   3.378 -35.178  1.00  0.00    -0.371 N 
HETATM   28  H   UNL     1     -10.923   3.561 -36.175  1.00  0.00     0.161 HD
BRANCH  27  29
HETATM   29  C   UNL     1     -11.924   2.750 -34.622  1.00  0.00     0.101 A 
HETATM   30  N   UNL     1     -12.556   3.239 -33.543  1.00  0.00    -0.353 N 
HETATM   31  H   UNL     1     -12.266   4.161 -33.203  1.00  0.00     0.166 HD
HETATM   32  C   UNL     1     -13.584   2.623 -32.944  1.00  0.00     0.089 A 
HETATM   33  C   UNL     1     -14.050   1.412 -33.430  1.00  0.00     0.017 A 
HETATM   34  C   UNL     1     -13.440   0.863 -34.548  1.00  0.00     0.005 A 
HETATM   35  C   UNL     1     -12.374   1.533 -35.146  1.00  0.00     0.048 A 
ENDBRANCH  27  29
ENDBRANCH  26  27
ENDBRANCH   8  26
TORSDOF 5
ENDMDL
MODEL 10
REMARK VINA RESULT:      -8.4      1.905      2.171
REMARK  5 active torsions:
REMARK  status: ('A' for Active; 'I' for Inactive)
REMARK       I    between atoms: N_6  and  C_7 
REMARK    1  A    between atoms: C_7  and  C_8 
REMARK    2  A    between atoms: N_11  and  C_12 
REMARK    3  A    between atoms: C_19  and  C_20 
REMARK    4  A    between atoms: C_20  and  N_21 
REMARK    5  A    between atoms: N_21  and  C_22 
ROOT
HETATM    1  C   UNL     1      -6.805   3.201 -32.761  1.00  0.00     0.719 A 
HETATM    2  N   UNL     1      -7.869   3.847 -33.380  1.00  0.00    -0.154 N 
HETATM    3  C   UNL     1      -8.700   2.829 -33.854  1.00  0.00     0.083 A 
HETATM    4  C   UNL     1      -9.908   3.195 -34.515  1.00  0.00     0.033 A 
HETATM    5  C   UNL     1     -10.188   4.497 -34.709  1.00  0.00     0.004 A 
HETATM    6  C   UNL     1      -9.280   5.538 -34.271  1.00  0.00     0.018 A 
HETATM    7  C   UNL     1      -8.153   5.196 -33.625  1.00  0.00     0.115 A 
HETATM    8  C   UNL     1      -8.058   1.641 -33.584  1.00  0.00     0.099 A 
HETATM    9  N   UNL     1      -6.875   1.878 -32.895  1.00  0.00    -0.064 NA
ENDROOT
BRANCH   1  10
HETATM   10  N   UNL     1      -5.738   3.805 -32.082  1.00  0.00    -0.147 N 
HETATM   11  C   UNL     1      -5.846   4.409 -30.846  1.00  0.00     0.233 A 
HETATM   12  N   UNL     1      -4.707   4.886 -30.401  1.00  0.00    -0.236 NA
HETATM   13  C   UNL     1      -3.784   4.602 -31.385  1.00  0.00     0.142 A 
HETATM   14  C   UNL     1      -4.425   3.976 -32.442  1.00  0.00     0.153 A 
BRANCH  13  15
HETATM   15  C   UNL     1      -2.353   4.951 -31.363  1.00  0.00     0.273 C 
HETATM   16  N   UNL     1      -1.956   6.300 -31.380  1.00  0.00    -0.345 N 
HETATM   17  C   UNL     1      -0.535   6.566 -31.614  1.00  0.00     0.154 C 
HETATM   18  C   UNL     1      -2.849   7.418 -31.092  1.00  0.00     0.128 C 
HETATM   19  C   UNL     1       0.265   6.595 -30.304  1.00  0.00     0.254 C 
HETATM   20  N   UNL     1       0.052   7.888 -29.522  1.00  0.00    -0.073 N 
HETATM   21  C   UNL     1       0.912   7.884 -28.277  1.00  0.00     0.269 C 
HETATM   22  H   UNL     1       0.411   8.659 -30.103  1.00  0.00     0.279 HD
HETATM   23  C   UNL     1      -1.387   8.212 -29.175  1.00  0.00     0.236 C 
HETATM   24  C   UNL     1      -2.179   8.613 -30.414  1.00  0.00     0.048 C 
HETATM   25  O   UNL     1      -1.498   4.065 -31.304  1.00  0.00    -0.266 OA
ENDBRANCH  13  15
ENDBRANCH   1  10
BRANCH   8  26
HETATM   26  C   UNL     1      -8.463   0.240 -33.941  1.00  0.00     0.183 C 
BRANCH  26  27
HETATM   27  N   UNL     1      -7.651  -0.460 -34.932  1.00  0.00    -0.371 N 
HETATM   28  H   UNL     1      -8.178  -0.771 -35.747  1.00  0.00     0.161 HD
BRANCH  27  29
HETATM   29  C   UNL     1      -6.598  -1.293 -34.606  1.00  0.00     0.101 A 
HETATM   30  N   UNL     1      -5.464  -0.829 -34.056  1.00  0.00    -0.353 N 
HETATM   31  H   UNL     1      -5.442   0.157 -33.780  1.00  0.00     0.166 HD
HETATM   32  C   UNL     1      -4.402  -1.600 -33.786  1.00  0.00     0.089 A 
HETATM   33  C   UNL     1      -4.431  -2.955 -34.076  1.00  0.00     0.017 A 
HETATM   34  C   UNL     1      -5.581  -3.491 -34.638  1.00  0.00     0.005 A 
HETATM   35  C   UNL     1      -6.667  -2.659 -34.904  1.00  0.00     0.048 A 
ENDBRANCH  27  29
ENDBRANCH  26  27
ENDBRANCH   8  26
TORSDOF 5
ENDMDL
