MODEL 1
REMARK VINA RESULT:      -8.3      0.000      0.000
REMARK  8 active torsions:
REMARK  status: ('A' for Active; 'I' for Inactive)
REMARK    1  A    between atoms: C_5  and  C_6 
REMARK       I    between atoms: C_6  and  N_7 
REMARK    2  A    between atoms: N_7  and  N_8 
REMARK       I    between atoms: N_8  and  C_9 
REMARK    3  A    between atoms: C_9  and  C_10 
REMARK    4  A    between atoms: C_10  and  C_11 
REMARK    5  A    between atoms: C_11  and  N_12 
REMARK    6  A    between atoms: N_12  and  C_13 
REMARK    7  A    between atoms: C_14  and  N_15 
REMARK    8  A    between atoms: C_19  and  C_20 
ROOT
HETATM    1  C   UNL     1      -6.538   1.899 -32.576  1.00  0.00     0.102 C 
ENDROOT
BRANCH   1   2
HETATM    2  C   UNL     1      -6.170   1.636 -31.122  1.00  0.00     0.119 C 
BRANCH   2   3
HETATM    3  C   UNL     1      -5.170   2.675 -30.690  1.00  0.00     0.237 C 
HETATM    4  N   UNL     1      -3.988   2.656 -31.395  1.00  0.00    -0.267 N 
HETATM    5  H   UNL     1      -3.816   2.094 -32.228  1.00  0.00     0.190 HD
HETATM    6  O   UNL     1      -5.365   3.428 -29.738  1.00  0.00    -0.272 OA
BRANCH   4   7
HETATM    7  N   UNL     1      -2.987   3.559 -31.031  1.00  0.00    -0.262 N 
HETATM    8  C   UNL     1      -2.293   4.228 -32.016  1.00  0.00     0.286 C 
HETATM    9  O   UNL     1      -2.552   4.068 -33.209  1.00  0.00    -0.264 OA
HETATM   10  H   UNL     1      -2.810   3.676 -30.037  1.00  0.00     0.190 HD
BRANCH   8  11
HETATM   11  C   UNL     1      -1.253   5.119 -31.553  1.00  0.00     0.102 A 
HETATM   12  N   UNL     1      -0.727   5.010 -30.282  1.00  0.00    -0.361 N 
HETATM   13  C   UNL     1       0.233   5.963 -30.080  1.00  0.00     0.088 A 
HETATM   14  H   UNL     1      -1.027   4.315 -29.608  1.00  0.00     0.165 HD
HETATM   15  C   UNL     1       0.338   6.705 -31.232  1.00  0.00     0.019 A 
HETATM   16  C   UNL     1      -0.594   6.177 -32.160  1.00  0.00     0.036 A 
ENDBRANCH   8  11
ENDBRANCH   4   7
ENDBRANCH   2   3
ENDBRANCH   1   2
BRANCH   1  17
HETATM   17  N   UNL     1      -5.581   1.238 -33.465  1.00  0.00    -0.290 NA
HETATM   18  H   UNL     1      -4.607   1.475 -33.239  1.00  0.00     0.127 HD
BRANCH  17  19
HETATM   19  C   UNL     1      -5.716  -0.132 -33.749  1.00  0.00     0.041 A 
HETATM   20  C   UNL     1      -4.731  -1.081 -33.383  1.00  0.00     0.124 A 
HETATM   21  C   UNL     1      -4.822  -2.439 -33.751  1.00  0.00     0.054 A 
HETATM   22  C   UNL     1      -5.897  -2.891 -34.525  1.00  0.00     0.050 A 
HETATM   23  C   UNL     1      -6.861  -1.960 -34.927  1.00  0.00     0.018 A 
HETATM   24  C   UNL     1      -6.762  -0.610 -34.557  1.00  0.00     0.027 A 
BRANCH  20  25
HETATM   25  N   UNL     1      -3.574  -0.685 -32.573  1.00  0.00    -0.114 N 
HETATM   26  O   UNL     1      -3.235  -1.432 -31.641  1.00  0.00    -0.532 OA
HETATM   27  O   UNL     1      -2.986   0.359 -32.888  1.00  0.00    -0.532 OA
ENDBRANCH  20  25
BRANCH  22  28
HETATM   28  C   UNL     1      -6.026  -4.339 -34.934  1.00  0.00     0.417 C 
HETATM   29  F   UNL     1      -6.066  -4.519 -36.282  1.00  0.00    -0.166 F 
HETATM   30  F   UNL     1      -4.986  -5.094 -34.486  1.00  0.00    -0.166 F 
HETATM   31  F   UNL     1      -7.154  -4.920 -34.443  1.00  0.00    -0.166 F 
ENDBRANCH  22  28
ENDBRANCH  17  19
ENDBRANCH   1  17
TORSDOF 8
ENDMDL
MODEL 2
REMARK VINA RESULT:      -8.1      2.977      4.487
REMARK  8 active torsions:
REMARK  status: ('A' for Active; 'I' for Inactive)
REMARK    1  A    between atoms: C_5  and  C_6 
REMARK       I    between atoms: C_6  and  N_7 
REMARK    2  A    between atoms: N_7  and  N_8 
REMARK       I    between atoms: N_8  and  C_9 
REMARK    3  A    between atoms: C_9  and  C_10 
REMARK    4  A    between atoms: C_10  and  C_11 
REMARK    5  A    between atoms: C_11  and  N_12 
REMARK    6  A    between atoms: N_12  and  C_13 
REMARK    7  A    between atoms: C_14  and  N_15 
REMARK    8  A    between atoms: C_19  and  C_20 
ROOT
HETATM    1  C   UNL     1      -3.743   5.179 -35.150  1.00  0.00     0.102 C 
ENDROOT
BRANCH   1   2
HETATM    2  C   UNL     1      -2.232   5.188 -34.956  1.00  0.00     0.119 C 
BRANCH   2   3
HETATM    3  C   UNL     1      -1.916   5.992 -33.723  1.00  0.00     0.237 C 
HETATM    4  N   UNL     1      -1.312   5.275 -32.715  1.00  0.00    -0.267 N 
HETATM    5  H   UNL     1      -0.974   4.318 -32.804  1.00  0.00     0.190 HD
HETATM    6  O   UNL     1      -2.237   7.172 -33.600  1.00  0.00    -0.272 OA
BRANCH   4   7
HETATM    7  N   UNL     1      -1.023   5.933 -31.518  1.00  0.00    -0.262 N 
HETATM    8  C   UNL     1       0.040   5.503 -30.753  1.00  0.00     0.286 C 
HETATM    9  O   UNL     1       0.756   4.569 -31.112  1.00  0.00    -0.264 OA
HETATM   10  H   UNL     1      -1.627   6.709 -31.260  1.00  0.00     0.190 HD
BRANCH   8  11
HETATM   11  C   UNL     1       0.249   6.219 -29.515  1.00  0.00     0.102 A 
HETATM   12  N   UNL     1      -0.052   5.647 -28.295  1.00  0.00    -0.361 N 
HETATM   13  C   UNL     1       0.226   6.520 -27.279  1.00  0.00     0.088 A 
HETATM   14  H   UNL     1      -0.428   4.712 -28.191  1.00  0.00     0.165 HD
HETATM   15  C   UNL     1       0.714   7.676 -27.838  1.00  0.00     0.019 A 
HETATM   16  C   UNL     1       0.730   7.490 -29.243  1.00  0.00     0.036 A 
ENDBRANCH   8  11
ENDBRANCH   4   7
ENDBRANCH   2   3
ENDBRANCH   1   2
BRANCH   1  17
HETATM   17  N   UNL     1      -4.416   5.099 -33.853  1.00  0.00    -0.290 NA
HETATM   18  H   UNL     1      -5.022   5.910 -33.674  1.00  0.00     0.127 HD
BRANCH  17  19
HETATM   19  C   UNL     1      -5.042   3.903 -33.458  1.00  0.00     0.041 A 
HETATM   20  C   UNL     1      -4.628   3.173 -32.318  1.00  0.00     0.124 A 
HETATM   21  C   UNL     1      -5.193   1.927 -31.977  1.00  0.00     0.054 A 
HETATM   22  C   UNL     1      -6.180   1.354 -32.787  1.00  0.00     0.050 A 
HETATM   23  C   UNL     1      -6.576   2.045 -33.938  1.00  0.00     0.018 A 
HETATM   24  C   UNL     1      -6.007   3.284 -34.270  1.00  0.00     0.027 A 
BRANCH  20  25
HETATM   25  N   UNL     1      -3.598   3.706 -31.420  1.00  0.00    -0.114 N 
HETATM   26  O   UNL     1      -2.562   3.039 -31.263  1.00  0.00    -0.532 OA
HETATM   27  O   UNL     1      -3.813   4.807 -30.892  1.00  0.00    -0.532 OA
ENDBRANCH  20  25
BRANCH  22  28
HETATM   28  C   UNL     1      -6.808   0.023 -32.450  1.00  0.00     0.417 C 
HETATM   29  F   UNL     1      -5.980  -1.036 -32.662  1.00  0.00    -0.166 F 
HETATM   30  F   UNL     1      -7.185  -0.052 -31.145  1.00  0.00    -0.166 F 
HETATM   31  F   UNL     1      -7.929  -0.224 -33.181  1.00  0.00    -0.166 F 
ENDBRANCH  22  28
ENDBRANCH  17  19
ENDBRANCH   1  17
TORSDOF 8
ENDMDL
MODEL 3
REMARK VINA RESULT:      -8.1      4.731      7.584
REMARK  8 active torsions:
REMARK  status: ('A' for Active; 'I' for Inactive)
REMARK    1  A    between atoms: C_5  and  C_6 
REMARK       I    between atoms: C_6  and  N_7 
REMARK    2  A    between atoms: N_7  and  N_8 
REMARK       I    between atoms: N_8  and  C_9 
REMARK    3  A    between atoms: C_9  and  C_10 
REMARK    4  A    between atoms: C_10  and  C_11 
REMARK    5  A    between atoms: C_11  and  N_12 
REMARK    6  A    between atoms: N_12  and  C_13 
REMARK    7  A    between atoms: C_14  and  N_15 
REMARK    8  A    between atoms: C_19  and  C_20 
ROOT
HETATM    1  C   UNL     1      -6.639   2.751 -32.135  1.00  0.00     0.102 C 
ENDROOT
BRANCH   1   2
HETATM    2  C   UNL     1      -7.605   3.747 -31.507  1.00  0.00     0.119 C 
BRANCH   2   3
HETATM    3  C   UNL     1      -8.960   3.098 -31.408  1.00  0.00     0.237 C 
HETATM    4  N   UNL     1      -9.652   3.040 -32.598  1.00  0.00    -0.267 N 
HETATM    5  H   UNL     1      -9.265   3.284 -33.508  1.00  0.00     0.190 HD
HETATM    6  O   UNL     1      -9.437   2.718 -30.342  1.00  0.00    -0.272 OA
BRANCH   4   7
HETATM    7  N   UNL     1     -10.936   2.492 -32.588  1.00  0.00    -0.262 N 
HETATM    8  C   UNL     1     -11.795   2.772 -33.629  1.00  0.00     0.286 C 
HETATM    9  O   UNL     1     -11.448   3.472 -34.580  1.00  0.00    -0.264 OA
HETATM   10  H   UNL     1     -11.183   1.907 -31.794  1.00  0.00     0.190 HD
BRANCH   8  11
HETATM   11  C   UNL     1     -13.114   2.191 -33.524  1.00  0.00     0.102 A 
HETATM   12  N   UNL     1     -13.906   2.401 -32.413  1.00  0.00    -0.361 N 
HETATM   13  C   UNL     1     -15.099   1.747 -32.547  1.00  0.00     0.088 A 
HETATM   14  H   UNL     1     -13.621   2.964 -31.619  1.00  0.00     0.165 HD
HETATM   15  C   UNL     1     -15.090   1.100 -33.759  1.00  0.00     0.019 A 
HETATM   16  C   UNL     1     -13.845   1.378 -34.376  1.00  0.00     0.036 A 
ENDBRANCH   8  11
ENDBRANCH   4   7
ENDBRANCH   2   3
ENDBRANCH   1   2
BRANCH   1  17
HETATM   17  N   UNL     1      -6.989   1.388 -31.730  1.00  0.00    -0.290 NA
HETATM   18  H   UNL     1      -7.973   1.303 -31.448  1.00  0.00     0.127 HD
BRANCH  17  19
HETATM   19  C   UNL     1      -6.594   0.297 -32.524  1.00  0.00     0.041 A 
HETATM   20  C   UNL     1      -7.503  -0.408 -33.349  1.00  0.00     0.124 A 
HETATM   21  C   UNL     1      -7.126  -1.559 -34.071  1.00  0.00     0.054 A 
HETATM   22  C   UNL     1      -5.825  -2.063 -33.969  1.00  0.00     0.050 A 
HETATM   23  C   UNL     1      -4.922  -1.400 -33.130  1.00  0.00     0.018 A 
HETATM   24  C   UNL     1      -5.306  -0.256 -32.414  1.00  0.00     0.027 A 
BRANCH  20  25
HETATM   25  N   UNL     1      -8.885   0.057 -33.508  1.00  0.00    -0.114 N 
HETATM   26  O   UNL     1      -9.685  -0.176 -32.586  1.00  0.00    -0.532 OA
HETATM   27  O   UNL     1      -9.165   0.679 -34.542  1.00  0.00    -0.532 OA
ENDBRANCH  20  25
BRANCH  22  28
HETATM   28  C   UNL     1      -5.388  -3.292 -34.730  1.00  0.00     0.417 C 
HETATM   29  F   UNL     1      -5.292  -3.092 -36.072  1.00  0.00    -0.166 F 
HETATM   30  F   UNL     1      -4.167  -3.738 -34.328  1.00  0.00    -0.166 F 
HETATM   31  F   UNL     1      -6.244  -4.337 -34.565  1.00  0.00    -0.166 F 
ENDBRANCH  22  28
ENDBRANCH  17  19
ENDBRANCH   1  17
TORSDOF 8
ENDMDL
MODEL 4
REMARK VINA RESULT:      -8.0      2.193      2.893
REMARK  8 active torsions:
REMARK  status: ('A' for Active; 'I' for Inactive)
REMARK    1  A    between atoms: C_5  and  C_6 
REMARK       I    between atoms: C_6  and  N_7 
REMARK    2  A    between atoms: N_7  and  N_8 
REMARK       I    between atoms: N_8  and  C_9 
REMARK    3  A    between atoms: C_9  and  C_10 
REMARK    4  A    between atoms: C_10  and  C_11 
REMARK    5  A    between atoms: C_11  and  N_12 
REMARK    6  A    between atoms: N_12  and  C_13 
REMARK    7  A    between atoms: C_14  and  N_15 
REMARK    8  A    between atoms: C_19  and  C_20 
ROOT
HETATM    1  C   UNL     1      -4.121   1.535 -32.215  1.00  0.00     0.102 C 
ENDROOT
BRANCH   1   2
HETATM    2  C   UNL     1      -3.520   2.800 -32.812  1.00  0.00     0.119 C 
BRANCH   2   3
HETATM    3  C   UNL     1      -3.215   3.756 -31.690  1.00  0.00     0.237 C 
HETATM    4  N   UNL     1      -1.915   4.209 -31.665  1.00  0.00    -0.267 N 
HETATM    5  H   UNL     1      -1.226   4.039 -32.396  1.00  0.00     0.190 HD
HETATM    6  O   UNL     1      -4.039   4.051 -30.827  1.00  0.00    -0.272 OA
BRANCH   4   7
HETATM    7  N   UNL     1      -1.534   5.067 -30.631  1.00  0.00    -0.262 N 
HETATM    8  C   UNL     1      -0.194   5.237 -30.357  1.00  0.00     0.286 C 
HETATM    9  O   UNL     1       0.676   4.672 -31.019  1.00  0.00    -0.264 OA
HETATM   10  H   UNL     1      -2.279   5.528 -30.115  1.00  0.00     0.190 HD
BRANCH   8  11
HETATM   11  C   UNL     1       0.111   6.116 -29.251  1.00  0.00     0.102 A 
HETATM   12  N   UNL     1      -0.074   5.716 -27.943  1.00  0.00    -0.361 N 
HETATM   13  C   UNL     1       0.279   6.720 -27.084  1.00  0.00     0.088 A 
HETATM   14  H   UNL     1      -0.425   4.802 -27.680  1.00  0.00     0.165 HD
HETATM   15  C   UNL     1       0.698   7.791 -27.836  1.00  0.00     0.019 A 
HETATM   16  C   UNL     1       0.595   7.415 -29.199  1.00  0.00     0.036 A 
ENDBRANCH   8  11
ENDBRANCH   4   7
ENDBRANCH   2   3
ENDBRANCH   1   2
BRANCH   1  17
HETATM   17  N   UNL     1      -5.372   1.200 -32.898  1.00  0.00    -0.290 NA
HETATM   18  H   UNL     1      -5.664   1.928 -33.561  1.00  0.00     0.127 HD
BRANCH  17  19
HETATM   19  C   UNL     1      -5.552  -0.083 -33.444  1.00  0.00     0.041 A 
HETATM   20  C   UNL     1      -6.836  -0.613 -33.723  1.00  0.00     0.124 A 
HETATM   21  C   UNL     1      -7.020  -1.933 -34.183  1.00  0.00     0.054 A 
HETATM   22  C   UNL     1      -5.920  -2.782 -34.353  1.00  0.00     0.050 A 
HETATM   23  C   UNL     1      -4.648  -2.287 -34.048  1.00  0.00     0.018 A 
HETATM   24  C   UNL     1      -4.474  -0.972 -33.590  1.00  0.00     0.027 A 
BRANCH  20  25
HETATM   25  N   UNL     1      -8.037   0.213 -33.568  1.00  0.00    -0.114 N 
HETATM   26  O   UNL     1      -8.693   0.482 -34.588  1.00  0.00    -0.532 OA
HETATM   27  O   UNL     1      -8.342   0.570 -32.421  1.00  0.00    -0.532 OA
ENDBRANCH  20  25
BRANCH  22  28
HETATM   28  C   UNL     1      -6.082  -4.200 -34.845  1.00  0.00     0.417 C 
HETATM   29  F   UNL     1      -6.030  -4.313 -36.199  1.00  0.00    -0.166 F 
HETATM   30  F   UNL     1      -5.113  -5.026 -34.362  1.00  0.00    -0.166 F 
HETATM   31  F   UNL     1      -7.268  -4.750 -34.467  1.00  0.00    -0.166 F 
ENDBRANCH  22  28
ENDBRANCH  17  19
ENDBRANCH   1  17
TORSDOF 8
ENDMDL
MODEL 5
REMARK VINA RESULT:      -7.9      1.643      2.156
REMARK  8 active torsions:
REMARK  status: ('A' for Active; 'I' for Inactive)
REMARK    1  A    between atoms: C_5  and  C_6 
REMARK       I    between atoms: C_6  and  N_7 
REMARK    2  A    between atoms: N_7  and  N_8 
REMARK       I    between atoms: N_8  and  C_9 
REMARK    3  A    between atoms: C_9  and  C_10 
REMARK    4  A    between atoms: C_10  and  C_11 
REMARK    5  A    between atoms: C_11  and  N_12 
REMARK    6  A    between atoms: N_12  and  C_13 
REMARK    7  A    between atoms: C_14  and  N_15 
REMARK    8  A    between atoms: C_19  and  C_20 
ROOT
HETATM    1  C   UNL     1      -6.311   3.480 -33.866  1.00  0.00     0.102 C 
ENDROOT
BRANCH   1   2
HETATM    2  C   UNL     1      -5.202   4.409 -34.341  1.00  0.00     0.119 C 
BRANCH   2   3
HETATM    3  C   UNL     1      -4.422   4.871 -33.139  1.00  0.00     0.237 C 
HETATM    4  N   UNL     1      -3.147   4.358 -33.055  1.00  0.00    -0.267 N 
HETATM    5  H   UNL     1      -2.689   3.817 -33.787  1.00  0.00     0.190 HD
HETATM    6  O   UNL     1      -4.909   5.588 -32.267  1.00  0.00    -0.272 OA
BRANCH   4   7
HETATM    7  N   UNL     1      -2.369   4.701 -31.947  1.00  0.00    -0.262 N 
HETATM    8  C   UNL     1      -1.359   5.628 -32.096  1.00  0.00     0.286 C 
HETATM    9  O   UNL     1      -1.144   6.180 -33.175  1.00  0.00    -0.264 OA
HETATM   10  H   UNL     1      -2.584   4.236 -31.069  1.00  0.00     0.190 HD
BRANCH   8  11
HETATM   11  C   UNL     1      -0.582   5.901 -30.908  1.00  0.00     0.102 A 
HETATM   12  N   UNL     1      -0.318   4.914 -29.979  1.00  0.00    -0.361 N 
HETATM   13  C   UNL     1       0.426   5.417 -28.948  1.00  0.00     0.088 A 
HETATM   14  H   UNL     1      -0.642   3.958 -30.069  1.00  0.00     0.165 HD
HETATM   15  C   UNL     1       0.652   6.749 -29.203  1.00  0.00     0.019 A 
HETATM   16  C   UNL     1       0.021   7.056 -30.434  1.00  0.00     0.036 A 
ENDBRANCH   8  11
ENDBRANCH   4   7
ENDBRANCH   2   3
ENDBRANCH   1   2
BRANCH   1  17
HETATM   17  N   UNL     1      -5.772   2.487 -32.934  1.00  0.00    -0.290 NA
HETATM   18  H   UNL     1      -6.111   2.626 -31.974  1.00  0.00     0.127 HD
BRANCH  17  19
HETATM   19  C   UNL     1      -5.775   1.124 -33.280  1.00  0.00     0.041 A 
HETATM   20  C   UNL     1      -4.776   0.227 -32.829  1.00  0.00     0.124 A 
HETATM   21  C   UNL     1      -4.728  -1.117 -33.253  1.00  0.00     0.054 A 
HETATM   22  C   UNL     1      -5.667  -1.604 -34.169  1.00  0.00     0.050 A 
HETATM   23  C   UNL     1      -6.639  -0.722 -34.652  1.00  0.00     0.018 A 
HETATM   24  C   UNL     1      -6.680   0.614 -34.226  1.00  0.00     0.027 A 
BRANCH  20  25
HETATM   25  N   UNL     1      -3.756   0.662 -31.870  1.00  0.00    -0.114 N 
HETATM   26  O   UNL     1      -3.075   1.661 -32.159  1.00  0.00    -0.532 OA
HETATM   27  O   UNL     1      -3.653   0.022 -30.814  1.00  0.00    -0.532 OA
ENDBRANCH  20  25
BRANCH  22  28
HETATM   28  C   UNL     1      -5.644  -3.038 -34.641  1.00  0.00     0.417 C 
HETATM   29  F   UNL     1      -6.838  -3.675 -34.496  1.00  0.00    -0.166 F 
HETATM   30  F   UNL     1      -5.322  -3.140 -35.959  1.00  0.00    -0.166 F 
HETATM   31  F   UNL     1      -4.731  -3.792 -33.970  1.00  0.00    -0.166 F 
ENDBRANCH  22  28
ENDBRANCH  17  19
ENDBRANCH   1  17
TORSDOF 8
ENDMDL
MODEL 6
REMARK VINA RESULT:      -7.9      1.762      2.437
REMARK  8 active torsions:
REMARK  status: ('A' for Active; 'I' for Inactive)
REMARK    1  A    between atoms: C_5  and  C_6 
REMARK       I    between atoms: C_6  and  N_7 
REMARK    2  A    between atoms: N_7  and  N_8 
REMARK       I    between atoms: N_8  and  C_9 
REMARK    3  A    between atoms: C_9  and  C_10 
REMARK    4  A    between atoms: C_10  and  C_11 
REMARK    5  A    between atoms: C_11  and  N_12 
REMARK    6  A    between atoms: N_12  and  C_13 
REMARK    7  A    between atoms: C_14  and  N_15 
REMARK    8  A    between atoms: C_19  and  C_20 
ROOT
HETATM    1  C   UNL     1      -5.002   2.847 -32.823  1.00  0.00     0.102 C 
ENDROOT
BRANCH   1   2
HETATM    2  C   UNL     1      -3.492   3.013 -32.720  1.00  0.00     0.119 C 
BRANCH   2   3
HETATM    3  C   UNL     1      -3.194   3.965 -31.592  1.00  0.00     0.237 C 
HETATM    4  N   UNL     1      -1.858   4.263 -31.436  1.00  0.00    -0.267 N 
HETATM    5  H   UNL     1      -1.122   3.989 -32.086  1.00  0.00     0.190 HD
HETATM    6  O   UNL     1      -4.062   4.382 -30.829  1.00  0.00    -0.272 OA
BRANCH   4   7
HETATM    7  N   UNL     1      -1.488   5.105 -30.386  1.00  0.00    -0.262 N 
HETATM    8  C   UNL     1      -0.150   5.329 -30.142  1.00  0.00     0.286 C 
HETATM    9  O   UNL     1       0.726   4.826 -30.845  1.00  0.00    -0.264 OA
HETATM   10  H   UNL     1      -2.239   5.515 -29.836  1.00  0.00     0.190 HD
BRANCH   8  11
HETATM   11  C   UNL     1       0.145   6.187 -29.018  1.00  0.00     0.102 A 
HETATM   12  N   UNL     1      -0.160   5.808 -27.725  1.00  0.00    -0.361 N 
HETATM   13  C   UNL     1       0.210   6.785 -26.843  1.00  0.00     0.088 A 
HETATM   14  H   UNL     1      -0.597   4.925 -27.488  1.00  0.00     0.165 HD
HETATM   15  C   UNL     1       0.762   7.817 -27.564  1.00  0.00     0.019 A 
HETATM   16  C   UNL     1       0.724   7.444 -28.930  1.00  0.00     0.036 A 
ENDBRANCH   8  11
ENDBRANCH   4   7
ENDBRANCH   2   3
ENDBRANCH   1   2
BRANCH   1  17
HETATM   17  N   UNL     1      -5.434   1.681 -32.051  1.00  0.00    -0.290 NA
HETATM   18  H   UNL     1      -6.251   1.881 -31.460  1.00  0.00     0.127 HD
BRANCH  17  19
HETATM   19  C   UNL     1      -5.560   0.429 -32.679  1.00  0.00     0.041 A 
HETATM   20  C   UNL     1      -4.614  -0.609 -32.496  1.00  0.00     0.124 A 
HETATM   21  C   UNL     1      -4.691  -1.828 -33.199  1.00  0.00     0.054 A 
HETATM   22  C   UNL     1      -5.708  -2.041 -34.136  1.00  0.00     0.050 A 
HETATM   23  C   UNL     1      -6.631  -1.012 -34.357  1.00  0.00     0.018 A 
HETATM   24  C   UNL     1      -6.547   0.199 -33.653  1.00  0.00     0.027 A 
BRANCH  20  25
HETATM   25  N   UNL     1      -3.518  -0.462 -31.533  1.00  0.00    -0.114 N 
HETATM   26  O   UNL     1      -2.382  -0.819 -31.886  1.00  0.00    -0.532 OA
HETATM   27  O   UNL     1      -3.787   0.038 -30.431  1.00  0.00    -0.532 OA
ENDBRANCH  20  25
BRANCH  22  28
HETATM   28  C   UNL     1      -5.820  -3.336 -34.905  1.00  0.00     0.417 C 
HETATM   29  F   UNL     1      -5.218  -4.387 -34.286  1.00  0.00    -0.166 F 
HETATM   30  F   UNL     1      -7.116  -3.707 -35.100  1.00  0.00    -0.166 F 
HETATM   31  F   UNL     1      -5.260  -3.256 -36.142  1.00  0.00    -0.166 F 
ENDBRANCH  22  28
ENDBRANCH  17  19
ENDBRANCH   1  17
TORSDOF 8
ENDMDL
MODEL 7
REMARK VINA RESULT:      -7.9      3.798      7.002
REMARK  8 active torsions:
REMARK  status: ('A' for Active; 'I' for Inactive)
REMARK    1  A    between atoms: C_5  and  C_6 
REMARK       I    between atoms: C_6  and  N_7 
REMARK    2  A    between atoms: N_7  and  N_8 
REMARK       I    between atoms: N_8  and  C_9 
REMARK    3  A    between atoms: C_9  and  C_10 
REMARK    4  A    between atoms: C_10  and  C_11 
REMARK    5  A    between atoms: C_11  and  N_12 
REMARK    6  A    between atoms: N_12  and  C_13 
REMARK    7  A    between atoms: C_14  and  N_15 
REMARK    8  A    between atoms: C_19  and  C_20 
ROOT
HETATM    1  C   UNL     1      -6.403   2.248 -32.741  1.00  0.00     0.102 C 
ENDROOT
BRANCH   1   2
HETATM    2  C   UNL     1      -6.956   1.963 -31.352  1.00  0.00     0.119 C 
BRANCH   2   3
HETATM    3  C   UNL     1      -8.451   1.821 -31.456  1.00  0.00     0.237 C 
HETATM    4  N   UNL     1      -8.872   0.893 -32.383  1.00  0.00    -0.267 N 
HETATM    5  H   UNL     1      -8.259   0.247 -32.878  1.00  0.00     0.190 HD
HETATM    6  O   UNL     1      -9.231   2.526 -30.819  1.00  0.00    -0.272 OA
BRANCH   4   7
HETATM    7  N   UNL     1     -10.245   0.728 -32.575  1.00  0.00    -0.262 N 
HETATM    8  C   UNL     1     -10.818   1.168 -33.749  1.00  0.00     0.286 C 
HETATM    9  O   UNL     1     -10.144   1.679 -34.643  1.00  0.00    -0.264 OA
HETATM   10  H   UNL     1     -10.768   0.289 -31.822  1.00  0.00     0.190 HD
BRANCH   8  11
HETATM   11  C   UNL     1     -12.248   0.988 -33.852  1.00  0.00     0.102 A 
HETATM   12  N   UNL     1     -12.880  -0.096 -33.276  1.00  0.00    -0.361 N 
HETATM   13  C   UNL     1     -14.225  -0.046 -33.516  1.00  0.00     0.088 A 
HETATM   14  H   UNL     1     -12.394  -0.816 -32.754  1.00  0.00     0.165 HD
HETATM   15  C   UNL     1     -14.479   1.082 -34.258  1.00  0.00     0.019 A 
HETATM   16  C   UNL     1     -13.239   1.735 -34.471  1.00  0.00     0.036 A 
ENDBRANCH   8  11
ENDBRANCH   4   7
ENDBRANCH   2   3
ENDBRANCH   1   2
BRANCH   1  17
HETATM   17  N   UNL     1      -5.255   1.381 -33.014  1.00  0.00    -0.290 NA
HETATM   18  H   UNL     1      -4.524   1.461 -32.296  1.00  0.00     0.127 HD
BRANCH  17  19
HETATM   19  C   UNL     1      -5.459   0.039 -33.380  1.00  0.00     0.041 A 
HETATM   20  C   UNL     1      -4.652  -1.013 -32.882  1.00  0.00     0.124 A 
HETATM   21  C   UNL     1      -4.797  -2.345 -33.322  1.00  0.00     0.054 A 
HETATM   22  C   UNL     1      -5.743  -2.666 -34.303  1.00  0.00     0.050 A 
HETATM   23  C   UNL     1      -6.524  -1.633 -34.833  1.00  0.00     0.018 A 
HETATM   24  C   UNL     1      -6.372  -0.311 -34.389  1.00  0.00     0.027 A 
BRANCH  20  25
HETATM   25  N   UNL     1      -3.638  -0.757 -31.854  1.00  0.00    -0.114 N 
HETATM   26  O   UNL     1      -3.970  -0.082 -30.865  1.00  0.00    -0.532 OA
HETATM   27  O   UNL     1      -2.515  -1.254 -32.022  1.00  0.00    -0.532 OA
ENDBRANCH  20  25
BRANCH  22  28
HETATM   28  C   UNL     1      -5.925  -4.082 -34.795  1.00  0.00     0.417 C 
HETATM   29  F   UNL     1      -4.994  -4.947 -34.311  1.00  0.00    -0.166 F 
HETATM   30  F   UNL     1      -7.135  -4.596 -34.443  1.00  0.00    -0.166 F 
HETATM   31  F   UNL     1      -5.856  -4.174 -36.151  1.00  0.00    -0.166 F 
ENDBRANCH  22  28
ENDBRANCH  17  19
ENDBRANCH   1  17
TORSDOF 8
ENDMDL
MODEL 8
REMARK VINA RESULT:      -7.5      3.612      6.404
REMARK  8 active torsions:
REMARK  status: ('A' for Active; 'I' for Inactive)
REMARK    1  A    between atoms: C_5  and  C_6 
REMARK       I    between atoms: C_6  and  N_7 
REMARK    2  A    between atoms: N_7  and  N_8 
REMARK       I    between atoms: N_8  and  C_9 
REMARK    3  A    between atoms: C_9  and  C_10 
REMARK    4  A    between atoms: C_10  and  C_11 
REMARK    5  A    between atoms: C_11  and  N_12 
REMARK    6  A    between atoms: N_12  and  C_13 
REMARK    7  A    between atoms: C_14  and  N_15 
REMARK    8  A    between atoms: C_19  and  C_20 
ROOT
HETATM    1  C   UNL     1      -4.724   1.072 -31.462  1.00  0.00     0.102 C 
ENDROOT
BRANCH   1   2
HETATM    2  C   UNL     1      -5.695   2.108 -30.910  1.00  0.00     0.119 C 
BRANCH   2   3
HETATM    3  C   UNL     1      -7.067   1.809 -31.452  1.00  0.00     0.237 C 
HETATM    4  N   UNL     1      -7.620   2.828 -32.196  1.00  0.00    -0.267 N 
HETATM    5  H   UNL     1      -7.125   3.670 -32.487  1.00  0.00     0.190 HD
HETATM    6  O   UNL     1      -7.673   0.772 -31.190  1.00  0.00    -0.272 OA
BRANCH   4   7
HETATM    7  N   UNL     1      -8.910   2.651 -32.701  1.00  0.00    -0.262 N 
HETATM    8  C   UNL     1      -9.967   3.283 -32.081  1.00  0.00     0.286 C 
HETATM    9  O   UNL     1      -9.798   4.019 -31.109  1.00  0.00    -0.264 OA
HETATM   10  H   UNL     1      -9.010   2.048 -33.513  1.00  0.00     0.190 HD
BRANCH   8  11
HETATM   11  C   UNL     1     -11.270   3.021 -32.648  1.00  0.00     0.102 A 
HETATM   12  N   UNL     1     -11.625   1.759 -33.081  1.00  0.00    -0.361 N 
HETATM   13  C   UNL     1     -12.899   1.767 -33.579  1.00  0.00     0.088 A 
HETATM   14  H   UNL     1     -11.011   0.954 -33.030  1.00  0.00     0.165 HD
HETATM   15  C   UNL     1     -13.385   3.048 -33.472  1.00  0.00     0.019 A 
HETATM   16  C   UNL     1     -12.365   3.838 -32.886  1.00  0.00     0.036 A 
ENDBRANCH   8  11
ENDBRANCH   4   7
ENDBRANCH   2   3
ENDBRANCH   1   2
BRANCH   1  17
HETATM   17  N   UNL     1      -4.892   0.948 -32.911  1.00  0.00    -0.290 NA
HETATM   18  H   UNL     1      -4.181   1.474 -33.435  1.00  0.00     0.127 HD
BRANCH  17  19
HETATM   19  C   UNL     1      -5.111  -0.316 -33.487  1.00  0.00     0.041 A 
HETATM   20  C   UNL     1      -6.257  -0.603 -34.268  1.00  0.00     0.124 A 
HETATM   21  C   UNL     1      -6.522  -1.895 -34.766  1.00  0.00     0.054 A 
HETATM   22  C   UNL     1      -5.657  -2.957 -34.474  1.00  0.00     0.050 A 
HETATM   23  C   UNL     1      -4.539  -2.699 -33.674  1.00  0.00     0.018 A 
HETATM   24  C   UNL     1      -4.283  -1.410 -33.182  1.00  0.00     0.027 A 
BRANCH  20  25
HETATM   25  N   UNL     1      -7.211   0.455 -34.615  1.00  0.00    -0.114 N 
HETATM   26  O   UNL     1      -8.423   0.186 -34.558  1.00  0.00    -0.532 OA
HETATM   27  O   UNL     1      -6.750   1.564 -34.918  1.00  0.00    -0.532 OA
ENDBRANCH  20  25
BRANCH  22  28
HETATM   28  C   UNL     1      -5.911  -4.351 -34.993  1.00  0.00     0.417 C 
HETATM   29  F   UNL     1      -7.051  -4.911 -34.507  1.00  0.00    -0.166 F 
HETATM   30  F   UNL     1      -6.027  -4.382 -36.349  1.00  0.00    -0.166 F 
HETATM   31  F   UNL     1      -4.905  -5.214 -34.682  1.00  0.00    -0.166 F 
ENDBRANCH  22  28
ENDBRANCH  17  19
ENDBRANCH   1  17
TORSDOF 8
ENDMDL
MODEL 9
REMARK VINA RESULT:      -7.5      2.143      2.716
REMARK  8 active torsions:
REMARK  status: ('A' for Active; 'I' for Inactive)
REMARK    1  A    between atoms: C_5  and  C_6 
REMARK       I    between atoms: C_6  and  N_7 
REMARK    2  A    between atoms: N_7  and  N_8 
REMARK       I    between atoms: N_8  and  C_9 
REMARK    3  A    between atoms: C_9  and  C_10 
REMARK    4  A    between atoms: C_10  and  C_11 
REMARK    5  A    between atoms: C_11  and  N_12 
REMARK    6  A    between atoms: N_12  and  C_13 
REMARK    7  A    between atoms: C_14  and  N_15 
REMARK    8  A    between atoms: C_19  and  C_20 
ROOT
HETATM    1  C   UNL     1      -6.742   1.518 -30.672  1.00  0.00     0.102 C 
ENDROOT
BRANCH   1   2
HETATM    2  C   UNL     1      -7.239   2.860 -30.150  1.00  0.00     0.119 C 
BRANCH   2   3
HETATM    3  C   UNL     1      -6.190   3.900 -30.440  1.00  0.00     0.237 C 
HETATM    4  N   UNL     1      -4.894   3.455 -30.305  1.00  0.00    -0.267 N 
HETATM    5  H   UNL     1      -4.625   2.484 -30.154  1.00  0.00     0.190 HD
HETATM    6  O   UNL     1      -6.468   5.068 -30.703  1.00  0.00    -0.272 OA
BRANCH   4   7
HETATM    7  N   UNL     1      -3.857   4.367 -30.513  1.00  0.00    -0.262 N 
HETATM    8  C   UNL     1      -2.799   4.010 -31.320  1.00  0.00     0.286 C 
HETATM    9  O   UNL     1      -2.758   2.916 -31.883  1.00  0.00    -0.264 OA
HETATM   10  H   UNL     1      -3.932   5.266 -30.044  1.00  0.00     0.190 HD
BRANCH   8  11
HETATM   11  C   UNL     1      -1.754   5.000 -31.456  1.00  0.00     0.102 A 
HETATM   12  N   UNL     1      -0.732   5.097 -30.533  1.00  0.00    -0.361 N 
HETATM   13  C   UNL     1       0.124   6.108 -30.875  1.00  0.00     0.088 A 
HETATM   14  H   UNL     1      -0.649   4.495 -29.722  1.00  0.00     0.165 HD
HETATM   15  C   UNL     1      -0.343   6.680 -32.034  1.00  0.00     0.019 A 
HETATM   16  C   UNL     1      -1.522   5.986 -32.403  1.00  0.00     0.036 A 
ENDBRANCH   8  11
ENDBRANCH   4   7
ENDBRANCH   2   3
ENDBRANCH   1   2
BRANCH   1  17
HETATM   17  N   UNL     1      -6.489   1.601 -32.112  1.00  0.00    -0.290 NA
HETATM   18  H   UNL     1      -5.762   2.289 -32.344  1.00  0.00     0.127 HD
BRANCH  17  19
HETATM   19  C   UNL     1      -6.331   0.425 -32.866  1.00  0.00     0.041 A 
HETATM   20  C   UNL     1      -7.426  -0.240 -33.470  1.00  0.00     0.124 A 
HETATM   21  C   UNL     1      -7.279  -1.468 -34.146  1.00  0.00     0.054 A 
HETATM   22  C   UNL     1      -6.028  -2.091 -34.217  1.00  0.00     0.050 A 
HETATM   23  C   UNL     1      -4.941  -1.467 -33.594  1.00  0.00     0.018 A 
HETATM   24  C   UNL     1      -5.097  -0.244 -32.923  1.00  0.00     0.027 A 
BRANCH  20  25
HETATM   25  N   UNL     1      -8.769   0.348 -33.438  1.00  0.00    -0.114 N 
HETATM   26  O   UNL     1      -9.082   1.133 -34.349  1.00  0.00    -0.532 OA
HETATM   27  O   UNL     1      -9.523   0.002 -32.517  1.00  0.00    -0.532 OA
ENDBRANCH  20  25
BRANCH  22  28
HETATM   28  C   UNL     1      -5.836  -3.405 -34.934  1.00  0.00     0.417 C 
HETATM   29  F   UNL     1      -5.199  -4.344 -34.184  1.00  0.00    -0.166 F 
HETATM   30  F   UNL     1      -7.019  -3.964 -35.309  1.00  0.00    -0.166 F 
HETATM   31  F   UNL     1      -5.104  -3.274 -36.074  1.00  0.00    -0.166 F 
ENDBRANCH  22  28
ENDBRANCH  17  19
ENDBRANCH   1  17
TORSDOF 8
ENDMDL
MODEL 10
REMARK VINA RESULT:      -7.4      3.314      5.277
REMARK  8 active torsions:
REMARK  status: ('A' for Active; 'I' for Inactive)
REMARK    1  A    between atoms: C_5  and  C_6 
REMARK       I    between atoms: C_6  and  N_7 
REMARK    2  A    between atoms: N_7  and  N_8 
REMARK       I    between atoms: N_8  and  C_9 
REMARK    3  A    between atoms: C_9  and  C_10 
REMARK    4  A    between atoms: C_10  and  C_11 
REMARK    5  A    between atoms: C_11  and  N_12 
REMARK    6  A    between atoms: N_12  and  C_13 
REMARK    7  A    between atoms: C_14  and  N_15 
REMARK    8  A    between atoms: C_19  and  C_20 
ROOT
HETATM    1  C   UNL     1      -4.659   0.860 -31.169  1.00  0.00     0.102 C 
ENDROOT
BRANCH   1   2
HETATM    2  C   UNL     1      -4.842   2.308 -30.736  1.00  0.00     0.119 C 
BRANCH   2   3
HETATM    3  C   UNL     1      -6.226   2.751 -31.132  1.00  0.00     0.237 C 
HETATM    4  N   UNL     1      -6.349   3.120 -32.453  1.00  0.00    -0.267 N 
HETATM    5  H   UNL     1      -5.628   2.995 -33.161  1.00  0.00     0.190 HD
HETATM    6  O   UNL     1      -7.149   2.845 -30.325  1.00  0.00    -0.272 OA
BRANCH   4   7
HETATM    7  N   UNL     1      -7.589   3.586 -32.895  1.00  0.00    -0.262 N 
HETATM    8  C   UNL     1      -7.634   4.628 -33.796  1.00  0.00     0.286 C 
HETATM    9  O   UNL     1      -6.607   5.140 -34.240  1.00  0.00    -0.264 OA
HETATM   10  H   UNL     1      -8.415   3.129 -32.518  1.00  0.00     0.190 HD
BRANCH   8  11
HETATM   11  C   UNL     1      -8.957   5.068 -34.176  1.00  0.00     0.102 A 
HETATM   12  N   UNL     1      -9.266   6.410 -34.276  1.00  0.00    -0.361 N 
HETATM   13  C   UNL     1     -10.574   6.571 -34.643  1.00  0.00     0.088 A 
HETATM   14  H   UNL     1      -8.602   7.154 -34.097  1.00  0.00     0.165 HD
HETATM   15  C   UNL     1     -11.129   5.322 -34.784  1.00  0.00     0.019 A 
HETATM   16  C   UNL     1     -10.116   4.375 -34.492  1.00  0.00     0.036 A 
ENDBRANCH   8  11
ENDBRANCH   4   7
ENDBRANCH   2   3
ENDBRANCH   1   2
BRANCH   1  17
HETATM   17  N   UNL     1      -4.605   0.774 -32.629  1.00  0.00    -0.290 NA
HETATM   18  H   UNL     1      -3.743   1.178 -33.015  1.00  0.00     0.127 HD
BRANCH  17  19
HETATM   19  C   UNL     1      -4.931  -0.432 -33.275  1.00  0.00     0.041 A 
HETATM   20  C   UNL     1      -6.219  -0.682 -33.808  1.00  0.00     0.124 A 
HETATM   21  C   UNL     1      -6.571  -1.926 -34.370  1.00  0.00     0.054 A 
HETATM   22  C   UNL     1      -5.649  -2.977 -34.394  1.00  0.00     0.050 A 
HETATM   23  C   UNL     1      -4.383  -2.760 -33.840  1.00  0.00     0.018 A 
HETATM   24  C   UNL     1      -4.041  -1.519 -33.281  1.00  0.00     0.027 A 
BRANCH  20  25
HETATM   25  N   UNL     1      -7.242   0.369 -33.818  1.00  0.00    -0.114 N 
HETATM   26  O   UNL     1      -7.271   1.142 -34.790  1.00  0.00    -0.532 OA
HETATM   27  O   UNL     1      -8.035   0.405 -32.867  1.00  0.00    -0.532 OA
ENDBRANCH  20  25
BRANCH  22  28
HETATM   28  C   UNL     1      -5.993  -4.321 -34.991  1.00  0.00     0.417 C 
HETATM   29  F   UNL     1      -7.208  -4.791 -34.600  1.00  0.00    -0.166 F 
HETATM   30  F   UNL     1      -6.024  -4.286 -36.351  1.00  0.00    -0.166 F 
HETATM   31  F   UNL     1      -5.092  -5.285 -34.659  1.00  0.00    -0.166 F 
ENDBRANCH  22  28
ENDBRANCH  17  19
ENDBRANCH   1  17
TORSDOF 8
ENDMDL
