MODEL 1
REMARK VINA RESULT:      -9.1      0.000      0.000
REMARK  5 active torsions:
REMARK  status: ('A' for Active; 'I' for Inactive)
REMARK    1  A    between atoms: C_2  and  N_3 
REMARK    2  A    between atoms: C_2  and  C_14 
REMARK       I    between atoms: N_3  and  C_4 
REMARK       I    between atoms: C_4  and  N_5 
REMARK    3  A    between atoms: N_5  and  C_6 
REMARK    4  A    between atoms: C_6  and  C_7 
REMARK    5  A    between atoms: C_16  and  C_17 
ROOT
HETATM    1  C   UNL     1      -5.173   4.350 -31.460  1.00  0.00     0.041 C 
HETATM    2  C   UNL     1      -3.876   3.696 -31.922  1.00  0.00     0.153 C 
ENDROOT
BRANCH   2   3
HETATM    3  N   UNL     1      -2.793   4.044 -31.007  1.00  0.00    -0.332 N 
HETATM    4  C   UNL     1      -1.911   5.052 -31.294  1.00  0.00     0.317 C 
HETATM    5  N   UNL     1      -0.964   5.198 -30.325  1.00  0.00    -0.339 N 
HETATM    6  O   UNL     1      -1.966   5.711 -32.325  1.00  0.00    -0.247 OA
HETATM    7  H   UNL     1      -1.165   4.816 -29.414  1.00  0.00     0.164 HD
HETATM    8  H   UNL     1      -2.459   3.313 -30.397  1.00  0.00     0.165 HD
BRANCH   5   9
HETATM    9  C   UNL     1       0.043   6.235 -30.388  1.00  0.00     0.162 C 
BRANCH   9  10
HETATM   10  C   UNL     1       0.362   6.768 -29.014  1.00  0.00    -0.040 A 
HETATM   11  C   UNL     1      -0.049   6.079 -27.863  1.00  0.00     0.009 A 
HETATM   12  C   UNL     1       0.249   6.579 -26.594  1.00  0.00     0.001 A 
HETATM   13  C   UNL     1       0.957   7.772 -26.461  1.00  0.00     0.000 A 
HETATM   14  C   UNL     1       1.365   8.468 -27.598  1.00  0.00     0.001 A 
HETATM   15  C   UNL     1       1.069   7.971 -28.867  1.00  0.00     0.009 A 
ENDBRANCH   9  10
ENDBRANCH   5   9
ENDBRANCH   2   3
BRANCH   2  16
HETATM   16  C   UNL     1      -4.011   2.209 -32.026  1.00  0.00     0.145 A 
HETATM   17  N   UNL     1      -4.751   1.489 -32.844  1.00  0.00    -0.210 NA
HETATM   18  C   UNL     1      -4.393   0.186 -32.562  1.00  0.00     0.181 A 
HETATM   19  N   UNL     1      -3.486   0.077 -31.578  1.00  0.00    -0.152 NA
HETATM   20  N   UNL     1      -3.262   1.361 -31.258  1.00  0.00    -0.261 N 
HETATM   21  H   UNL     1      -2.613   1.605 -30.512  1.00  0.00     0.190 HD
BRANCH  18  22
HETATM   22  C   UNL     1      -4.940  -0.953 -33.296  1.00  0.00     0.014 A 
HETATM   23  C   UNL     1      -4.150  -2.088 -33.537  1.00  0.00     0.017 A 
HETATM   24  C   UNL     1      -4.672  -3.187 -34.227  1.00  0.00     0.025 A 
HETATM   25  C   UNL     1      -5.990  -3.160 -34.679  1.00  0.00     0.034 A 
HETATM   26 CL   UNL     1      -6.632  -4.513 -35.526  1.00  0.00    -0.084 Cl
HETATM   27  C   UNL     1      -6.790  -2.044 -34.448  1.00  0.00     0.025 A 
HETATM   28  C   UNL     1      -6.266  -0.944 -33.760  1.00  0.00     0.017 A 
ENDBRANCH  18  22
ENDBRANCH   2  16
TORSDOF 5
ENDMDL
MODEL 2
REMARK VINA RESULT:      -8.5      3.961     10.181
REMARK  5 active torsions:
REMARK  status: ('A' for Active; 'I' for Inactive)
REMARK    1  A    between atoms: C_2  and  N_3 
REMARK    2  A    between atoms: C_2  and  C_14 
REMARK       I    between atoms: N_3  and  C_4 
REMARK       I    between atoms: C_4  and  N_5 
REMARK    3  A    between atoms: N_5  and  C_6 
REMARK    4  A    between atoms: C_6  and  C_7 
REMARK    5  A    between atoms: C_16  and  C_17 
ROOT
HETATM    1  C   UNL     1      -3.179   5.658 -33.583  1.00  0.00     0.041 C 
HETATM    2  C   UNL     1      -3.050   4.876 -32.281  1.00  0.00     0.153 C 
ENDROOT
BRANCH   2   3
HETATM    3  N   UNL     1      -3.014   3.445 -32.563  1.00  0.00    -0.332 N 
HETATM    4  C   UNL     1      -3.712   2.548 -31.799  1.00  0.00     0.317 C 
HETATM    5  N   UNL     1      -3.523   1.263 -32.213  1.00  0.00    -0.339 N 
HETATM    6  O   UNL     1      -4.394   2.882 -30.838  1.00  0.00    -0.247 OA
HETATM    7  H   UNL     1      -3.189   1.120 -33.153  1.00  0.00     0.164 HD
HETATM    8  H   UNL     1      -2.193   3.093 -33.034  1.00  0.00     0.165 HD
BRANCH   5   9
HETATM    9  C   UNL     1      -4.203   0.150 -31.587  1.00  0.00     0.162 C 
BRANCH   9  10
HETATM   10  C   UNL     1      -4.907  -0.703 -32.612  1.00  0.00    -0.040 A 
HETATM   11  C   UNL     1      -4.198  -1.645 -33.373  1.00  0.00     0.009 A 
HETATM   12  C   UNL     1      -4.857  -2.431 -34.320  1.00  0.00     0.001 A 
HETATM   13  C   UNL     1      -6.228  -2.282 -34.521  1.00  0.00     0.000 A 
HETATM   14  C   UNL     1      -6.942  -1.345 -33.775  1.00  0.00     0.001 A 
HETATM   15  C   UNL     1      -6.286  -0.559 -32.827  1.00  0.00     0.009 A 
ENDBRANCH   9  10
ENDBRANCH   5   9
ENDBRANCH   2   3
BRANCH   2  16
HETATM   16  C   UNL     1      -1.834   5.285 -31.508  1.00  0.00     0.145 A 
HETATM   17  N   UNL     1      -1.739   6.033 -30.428  1.00  0.00    -0.210 NA
HETATM   18  C   UNL     1      -0.399   5.979 -30.100  1.00  0.00     0.181 A 
HETATM   19  N   UNL     1       0.337   5.253 -30.956  1.00  0.00    -0.152 NA
HETATM   20  N   UNL     1      -0.586   4.829 -31.832  1.00  0.00    -0.261 N 
HETATM   21  H   UNL     1      -0.321   4.252 -32.629  1.00  0.00     0.190 HD
BRANCH  18  22
HETATM   22  C   UNL     1       0.143   6.633 -28.910  1.00  0.00     0.014 A 
HETATM   23  C   UNL     1       0.915   7.799 -29.032  1.00  0.00     0.017 A 
HETATM   24  C   UNL     1       1.426   8.438 -27.898  1.00  0.00     0.025 A 
HETATM   25  C   UNL     1       1.165   7.917 -26.632  1.00  0.00     0.034 A 
HETATM   26 CL   UNL     1       1.791   8.705 -25.236  1.00  0.00    -0.084 Cl
HETATM   27  C   UNL     1       0.399   6.763 -26.491  1.00  0.00     0.025 A 
HETATM   28  C   UNL     1      -0.109   6.123 -27.627  1.00  0.00     0.017 A 
ENDBRANCH  18  22
ENDBRANCH   2  16
TORSDOF 5
ENDMDL
MODEL 3
REMARK VINA RESULT:      -8.5      2.714      3.500
REMARK  5 active torsions:
REMARK  status: ('A' for Active; 'I' for Inactive)
REMARK    1  A    between atoms: C_2  and  N_3 
REMARK    2  A    between atoms: C_2  and  C_14 
REMARK       I    between atoms: N_3  and  C_4 
REMARK       I    between atoms: C_4  and  N_5 
REMARK    3  A    between atoms: N_5  and  C_6 
REMARK    4  A    between atoms: C_6  and  C_7 
REMARK    5  A    between atoms: C_16  and  C_17 
ROOT
HETATM    1  C   UNL     1      -8.359   4.772 -33.597  1.00  0.00     0.041 C 
HETATM    2  C   UNL     1      -6.990   4.198 -33.943  1.00  0.00     0.153 C 
ENDROOT
BRANCH   2   3
HETATM    3  N   UNL     1      -5.945   4.981 -33.292  1.00  0.00    -0.332 N 
HETATM    4  C   UNL     1      -4.769   5.273 -33.930  1.00  0.00     0.317 C 
HETATM    5  N   UNL     1      -3.921   5.991 -33.141  1.00  0.00    -0.339 N 
HETATM    6  O   UNL     1      -4.517   4.894 -35.066  1.00  0.00    -0.247 OA
HETATM    7  H   UNL     1      -4.317   6.483 -32.355  1.00  0.00     0.164 HD
HETATM    8  H   UNL     1      -5.917   4.955 -32.283  1.00  0.00     0.165 HD
BRANCH   5   9
HETATM    9  C   UNL     1      -2.638   6.458 -33.621  1.00  0.00     0.162 C 
BRANCH   9  10
HETATM   10  C   UNL     1      -1.554   6.217 -32.602  1.00  0.00    -0.040 A 
HETATM   11  C   UNL     1      -0.575   7.189 -32.351  1.00  0.00     0.009 A 
HETATM   12  C   UNL     1       0.427   6.959 -31.406  1.00  0.00     0.001 A 
HETATM   13  C   UNL     1       0.463   5.754 -30.705  1.00  0.00     0.000 A 
HETATM   14  C   UNL     1      -0.501   4.778 -30.951  1.00  0.00     0.001 A 
HETATM   15  C   UNL     1      -1.503   5.006 -31.895  1.00  0.00     0.009 A 
ENDBRANCH   9  10
ENDBRANCH   5   9
ENDBRANCH   2   3
BRANCH   2  16
HETATM   16  C   UNL     1      -6.880   2.756 -33.551  1.00  0.00     0.145 A 
HETATM   17  N   UNL     1      -6.596   1.705 -34.293  1.00  0.00    -0.210 NA
HETATM   18  C   UNL     1      -6.524   0.666 -33.387  1.00  0.00     0.181 A 
HETATM   19  N   UNL     1      -6.787   1.033 -32.123  1.00  0.00    -0.152 NA
HETATM   20  N   UNL     1      -7.007   2.350 -32.252  1.00  0.00    -0.261 N 
HETATM   21  H   UNL     1      -7.252   2.918 -31.442  1.00  0.00     0.190 HD
BRANCH  18  22
HETATM   22  C   UNL     1      -6.167  -0.695 -33.784  1.00  0.00     0.014 A 
HETATM   23  C   UNL     1      -4.834  -1.127 -33.715  1.00  0.00     0.017 A 
HETATM   24  C   UNL     1      -4.487  -2.432 -34.080  1.00  0.00     0.025 A 
HETATM   25  C   UNL     1      -5.473  -3.316 -34.515  1.00  0.00     0.034 A 
HETATM   26 CL   UNL     1      -5.046  -4.922 -34.962  1.00  0.00    -0.084 Cl
HETATM   27  C   UNL     1      -6.802  -2.906 -34.588  1.00  0.00     0.025 A 
HETATM   28  C   UNL     1      -7.147  -1.600 -34.225  1.00  0.00     0.017 A 
ENDBRANCH  18  22
ENDBRANCH   2  16
TORSDOF 5
ENDMDL
MODEL 4
REMARK VINA RESULT:      -8.5      1.437      2.191
REMARK  5 active torsions:
REMARK  status: ('A' for Active; 'I' for Inactive)
REMARK    1  A    between atoms: C_2  and  N_3 
REMARK    2  A    between atoms: C_2  and  C_14 
REMARK       I    between atoms: N_3  and  C_4 
REMARK       I    between atoms: C_4  and  N_5 
REMARK    3  A    between atoms: N_5  and  C_6 
REMARK    4  A    between atoms: C_6  and  C_7 
REMARK    5  A    between atoms: C_16  and  C_17 
ROOT
HETATM    1  C   UNL     1      -2.290   5.755 -33.033  1.00  0.00     0.041 C 
HETATM    2  C   UNL     1      -1.898   4.633 -32.079  1.00  0.00     0.153 C 
ENDROOT
BRANCH   2   3
HETATM    3  N   UNL     1      -1.636   5.179 -30.751  1.00  0.00    -0.332 N 
HETATM    4  C   UNL     1      -0.391   5.116 -30.185  1.00  0.00     0.317 C 
HETATM    5  N   UNL     1      -0.366   5.659 -28.935  1.00  0.00    -0.339 N 
HETATM    6  O   UNL     1       0.568   4.596 -30.743  1.00  0.00    -0.247 OA
HETATM    7  H   UNL     1      -1.107   6.296 -28.688  1.00  0.00     0.164 HD
HETATM    8  H   UNL     1      -2.418   5.228 -30.115  1.00  0.00     0.165 HD
BRANCH   5   9
HETATM    9  C   UNL     1       0.855   5.751 -28.165  1.00  0.00     0.162 C 
BRANCH   9  10
HETATM   10  C   UNL     1       0.990   7.107 -27.518  1.00  0.00    -0.040 A 
HETATM   11  C   UNL     1       1.260   8.247 -28.290  1.00  0.00     0.009 A 
HETATM   12  C   UNL     1       1.384   9.498 -27.685  1.00  0.00     0.001 A 
HETATM   13  C   UNL     1       1.244   9.625 -26.303  1.00  0.00     0.000 A 
HETATM   14  C   UNL     1       0.983   8.497 -25.526  1.00  0.00     0.001 A 
HETATM   15  C   UNL     1       0.857   7.245 -26.128  1.00  0.00     0.009 A 
ENDBRANCH   9  10
ENDBRANCH   5   9
ENDBRANCH   2   3
BRANCH   2  16
HETATM   16  C   UNL     1      -2.954   3.574 -32.006  1.00  0.00     0.145 A 
HETATM   17  N   UNL     1      -3.270   2.641 -32.883  1.00  0.00    -0.210 NA
HETATM   18  C   UNL     1      -4.233   1.891 -32.241  1.00  0.00     0.181 A 
HETATM   19  N   UNL     1      -4.546   2.346 -31.017  1.00  0.00    -0.152 NA
HETATM   20  N   UNL     1      -3.730   3.404 -30.893  1.00  0.00    -0.261 N 
HETATM   21  H   UNL     1      -3.747   3.978 -30.052  1.00  0.00     0.190 HD
BRANCH  18  22
HETATM   22  C   UNL     1      -4.826   0.697 -32.843  1.00  0.00     0.014 A 
HETATM   23  C   UNL     1      -4.135  -0.524 -32.825  1.00  0.00     0.017 A 
HETATM   24  C   UNL     1      -4.701  -1.672 -33.388  1.00  0.00     0.025 A 
HETATM   25  C   UNL     1      -5.966  -1.608 -33.970  1.00  0.00     0.034 A 
HETATM   26 CL   UNL     1      -6.663  -3.021 -34.660  1.00  0.00    -0.084 Cl
HETATM   27  C   UNL     1      -6.668  -0.405 -33.995  1.00  0.00     0.025 A 
HETATM   28  C   UNL     1      -6.099   0.743 -33.434  1.00  0.00     0.017 A 
ENDBRANCH  18  22
ENDBRANCH   2  16
TORSDOF 5
ENDMDL
MODEL 5
REMARK VINA RESULT:      -8.3      3.978     10.015
REMARK  5 active torsions:
REMARK  status: ('A' for Active; 'I' for Inactive)
REMARK    1  A    between atoms: C_2  and  N_3 
REMARK    2  A    between atoms: C_2  and  C_14 
REMARK       I    between atoms: N_3  and  C_4 
REMARK       I    between atoms: C_4  and  N_5 
REMARK    3  A    between atoms: N_5  and  C_6 
REMARK    4  A    between atoms: C_6  and  C_7 
REMARK    5  A    between atoms: C_16  and  C_17 
ROOT
HETATM    1  C   UNL     1      -6.400   5.046 -33.703  1.00  0.00     0.041 C 
HETATM    2  C   UNL     1      -5.823   3.893 -32.889  1.00  0.00     0.153 C 
ENDROOT
BRANCH   2   3
HETATM    3  N   UNL     1      -5.895   2.657 -33.662  1.00  0.00    -0.332 N 
HETATM    4  C   UNL     1      -6.619   1.581 -33.222  1.00  0.00     0.317 C 
HETATM    5  N   UNL     1      -6.534   0.522 -34.076  1.00  0.00    -0.339 N 
HETATM    6  O   UNL     1      -7.237   1.582 -32.165  1.00  0.00    -0.247 OA
HETATM    7  H   UNL     1      -6.249   0.708 -35.025  1.00  0.00     0.164 HD
HETATM    8  H   UNL     1      -5.120   2.458 -34.277  1.00  0.00     0.165 HD
BRANCH   5   9
HETATM    9  C   UNL     1      -7.260  -0.708 -33.844  1.00  0.00     0.162 C 
BRANCH   9  10
HETATM   10  C   UNL     1      -6.389  -1.912 -34.103  1.00  0.00    -0.040 A 
HETATM   11  C   UNL     1      -5.026  -1.895 -33.775  1.00  0.00     0.009 A 
HETATM   12  C   UNL     1      -4.225  -3.013 -34.018  1.00  0.00     0.001 A 
HETATM   13  C   UNL     1      -4.777  -4.156 -34.595  1.00  0.00     0.000 A 
HETATM   14  C   UNL     1      -6.129  -4.181 -34.931  1.00  0.00     0.001 A 
HETATM   15  C   UNL     1      -6.932  -3.065 -34.689  1.00  0.00     0.009 A 
ENDBRANCH   9  10
ENDBRANCH   5   9
ENDBRANCH   2   3
BRANCH   2  16
HETATM   16  C   UNL     1      -4.412   4.164 -32.469  1.00  0.00     0.145 A 
HETATM   17  N   UNL     1      -3.920   5.172 -31.778  1.00  0.00    -0.210 NA
HETATM   18  C   UNL     1      -2.592   4.840 -31.600  1.00  0.00     0.181 A 
HETATM   19  N   UNL     1      -2.242   3.684 -32.184  1.00  0.00    -0.152 NA
HETATM   20  N   UNL     1      -3.402   3.278 -32.723  1.00  0.00    -0.261 N 
HETATM   21  H   UNL     1      -3.451   2.413 -33.259  1.00  0.00     0.190 HD
BRANCH  18  22
HETATM   22  C   UNL     1      -1.676   5.671 -30.821  1.00  0.00     0.014 A 
HETATM   23  C   UNL     1      -2.170   6.707 -30.013  1.00  0.00     0.017 A 
HETATM   24  C   UNL     1      -1.300   7.498 -29.255  1.00  0.00     0.025 A 
HETATM   25  C   UNL     1       0.072   7.255 -29.297  1.00  0.00     0.034 A 
HETATM   26 CL   UNL     1       1.141   8.226 -28.362  1.00  0.00    -0.084 Cl
HETATM   27  C   UNL     1       0.580   6.230 -30.091  1.00  0.00     0.025 A 
HETATM   28  C   UNL     1      -0.291   5.442 -30.850  1.00  0.00     0.017 A 
ENDBRANCH  18  22
ENDBRANCH   2  16
TORSDOF 5
ENDMDL
MODEL 6
REMARK VINA RESULT:      -8.2      1.900      2.567
REMARK  5 active torsions:
REMARK  status: ('A' for Active; 'I' for Inactive)
REMARK    1  A    between atoms: C_2  and  N_3 
REMARK    2  A    between atoms: C_2  and  C_14 
REMARK       I    between atoms: N_3  and  C_4 
REMARK       I    between atoms: C_4  and  N_5 
REMARK    3  A    between atoms: N_5  and  C_6 
REMARK    4  A    between atoms: C_6  and  C_7 
REMARK    5  A    between atoms: C_16  and  C_17 
ROOT
HETATM    1  C   UNL     1      -7.792   3.498 -30.433  1.00  0.00     0.041 C 
HETATM    2  C   UNL     1      -6.423   3.605 -31.096  1.00  0.00     0.153 C 
ENDROOT
BRANCH   2   3
HETATM    3  N   UNL     1      -5.489   4.277 -30.199  1.00  0.00    -0.332 N 
HETATM    4  C   UNL     1      -4.940   5.491 -30.517  1.00  0.00     0.317 C 
HETATM    5  N   UNL     1      -4.076   5.931 -29.559  1.00  0.00    -0.339 N 
HETATM    6  O   UNL     1      -5.185   6.078 -31.564  1.00  0.00    -0.247 OA
HETATM    7  H   UNL     1      -4.157   5.531 -28.637  1.00  0.00     0.164 HD
HETATM    8  H   UNL     1      -4.956   3.691 -29.573  1.00  0.00     0.165 HD
BRANCH   5   9
HETATM    9  C   UNL     1      -3.416   7.215 -29.656  1.00  0.00     0.162 C 
BRANCH   9  10
HETATM   10  C   UNL     1      -1.998   7.063 -30.144  1.00  0.00    -0.040 A 
HETATM   11  C   UNL     1      -0.941   6.887 -29.238  1.00  0.00     0.009 A 
HETATM   12  C   UNL     1       0.369   6.747 -29.697  1.00  0.00     0.001 A 
HETATM   13  C   UNL     1       0.639   6.786 -31.064  1.00  0.00     0.000 A 
HETATM   14  C   UNL     1      -0.402   6.968 -31.973  1.00  0.00     0.001 A 
HETATM   15  C   UNL     1      -1.713   7.107 -31.517  1.00  0.00     0.009 A 
ENDBRANCH   9  10
ENDBRANCH   5   9
ENDBRANCH   2   3
BRANCH   2  16
HETATM   16  C   UNL     1      -5.892   2.261 -31.489  1.00  0.00     0.145 A 
HETATM   17  N   UNL     1      -6.440   1.329 -32.242  1.00  0.00    -0.210 NA
HETATM   18  C   UNL     1      -5.459   0.365 -32.349  1.00  0.00     0.181 A 
HETATM   19  N   UNL     1      -4.342   0.652 -31.662  1.00  0.00    -0.152 NA
HETATM   20  N   UNL     1      -4.638   1.848 -31.131  1.00  0.00    -0.261 N 
HETATM   21  H   UNL     1      -3.972   2.329 -30.529  1.00  0.00     0.190 HD
BRANCH  18  22
HETATM   22  C   UNL     1      -5.630  -0.839 -33.162  1.00  0.00     0.014 A 
HETATM   23  C   UNL     1      -4.524  -1.644 -33.477  1.00  0.00     0.017 A 
HETATM   24  C   UNL     1      -4.682  -2.803 -34.243  1.00  0.00     0.025 A 
HETATM   25  C   UNL     1      -5.948  -3.169 -34.696  1.00  0.00     0.034 A 
HETATM   26 CL   UNL     1      -6.142  -4.596 -35.636  1.00  0.00    -0.084 Cl
HETATM   27  C   UNL     1      -7.057  -2.383 -34.391  1.00  0.00     0.025 A 
HETATM   28  C   UNL     1      -6.897  -1.222 -33.627  1.00  0.00     0.017 A 
ENDBRANCH  18  22
ENDBRANCH   2  16
TORSDOF 5
ENDMDL
MODEL 7
REMARK VINA RESULT:      -8.0      5.189      9.291
REMARK  5 active torsions:
REMARK  status: ('A' for Active; 'I' for Inactive)
REMARK    1  A    between atoms: C_2  and  N_3 
REMARK    2  A    between atoms: C_2  and  C_14 
REMARK       I    between atoms: N_3  and  C_4 
REMARK       I    between atoms: C_4  and  N_5 
REMARK    3  A    between atoms: N_5  and  C_6 
REMARK    4  A    between atoms: C_6  and  C_7 
REMARK    5  A    between atoms: C_16  and  C_17 
ROOT
HETATM    1  C   UNL     1      -6.549   4.893 -31.931  1.00  0.00     0.041 C 
HETATM    2  C   UNL     1      -7.339   3.607 -31.716  1.00  0.00     0.153 C 
ENDROOT
BRANCH   2   3
HETATM    3  N   UNL     1      -8.602   3.673 -32.445  1.00  0.00    -0.332 N 
HETATM    4  C   UNL     1      -9.806   3.631 -31.793  1.00  0.00     0.317 C 
HETATM    5  N   UNL     1     -10.859   3.680 -32.656  1.00  0.00    -0.339 N 
HETATM    6  O   UNL     1      -9.900   3.526 -30.576  1.00  0.00    -0.247 OA
HETATM    7  H   UNL     1     -10.689   4.043 -33.581  1.00  0.00     0.164 HD
HETATM    8  H   UNL     1      -8.595   3.349 -33.400  1.00  0.00     0.165 HD
BRANCH   5   9
HETATM    9  C   UNL     1     -12.229   3.701 -32.191  1.00  0.00     0.162 C 
BRANCH   9  10
HETATM   10  C   UNL     1     -13.062   2.666 -32.905  1.00  0.00    -0.040 A 
HETATM   11  C   UNL     1     -14.399   2.446 -32.542  1.00  0.00     0.009 A 
HETATM   12  C   UNL     1     -15.164   1.485 -33.206  1.00  0.00     0.001 A 
HETATM   13  C   UNL     1     -14.601   0.733 -34.236  1.00  0.00     0.000 A 
HETATM   14  C   UNL     1     -13.272   0.939 -34.601  1.00  0.00     0.001 A 
HETATM   15  C   UNL     1     -12.505   1.899 -33.939  1.00  0.00     0.009 A 
ENDBRANCH   9  10
ENDBRANCH   5   9
ENDBRANCH   2   3
BRANCH   2  16
HETATM   16  C   UNL     1      -6.558   2.401 -32.137  1.00  0.00     0.145 A 
HETATM   17  N   UNL     1      -6.985   1.249 -32.615  1.00  0.00    -0.210 NA
HETATM   18  C   UNL     1      -5.827   0.566 -32.928  1.00  0.00     0.181 A 
HETATM   19  N   UNL     1      -4.705   1.240 -32.629  1.00  0.00    -0.152 NA
HETATM   20  N   UNL     1      -5.191   2.389 -32.134  1.00  0.00    -0.261 N 
HETATM   21  H   UNL     1      -4.562   3.117 -31.798  1.00  0.00     0.190 HD
BRANCH  18  22
HETATM   22  C   UNL     1      -5.842  -0.756 -33.552  1.00  0.00     0.014 A 
HETATM   23  C   UNL     1      -4.645  -1.464 -33.742  1.00  0.00     0.017 A 
HETATM   24  C   UNL     1      -4.654  -2.735 -34.326  1.00  0.00     0.025 A 
HETATM   25  C   UNL     1      -5.861  -3.309 -34.721  1.00  0.00     0.034 A 
HETATM   26 CL   UNL     1      -5.871  -4.873 -35.437  1.00  0.00    -0.084 Cl
HETATM   27  C   UNL     1      -7.059  -2.622 -34.538  1.00  0.00     0.025 A 
HETATM   28  C   UNL     1      -7.048  -1.350 -33.956  1.00  0.00     0.017 A 
ENDBRANCH  18  22
ENDBRANCH   2  16
TORSDOF 5
ENDMDL
MODEL 8
REMARK VINA RESULT:      -7.7      4.314      9.796
REMARK  5 active torsions:
REMARK  status: ('A' for Active; 'I' for Inactive)
REMARK    1  A    between atoms: C_2  and  N_3 
REMARK    2  A    between atoms: C_2  and  C_14 
REMARK       I    between atoms: N_3  and  C_4 
REMARK       I    between atoms: C_4  and  N_5 
REMARK    3  A    between atoms: N_5  and  C_6 
REMARK    4  A    between atoms: C_6  and  C_7 
REMARK    5  A    between atoms: C_16  and  C_17 
ROOT
HETATM    1  C   UNL     1      -8.320   5.253 -33.971  1.00  0.00     0.041 C 
HETATM    2  C   UNL     1      -7.304   4.358 -33.271  1.00  0.00     0.153 C 
ENDROOT
BRANCH   2   3
HETATM    3  N   UNL     1      -7.253   3.057 -33.932  1.00  0.00    -0.332 N 
HETATM    4  C   UNL     1      -7.536   1.900 -33.255  1.00  0.00     0.317 C 
HETATM    5  N   UNL     1      -7.405   0.798 -34.045  1.00  0.00    -0.339 N 
HETATM    6  O   UNL     1      -7.836   1.881 -32.068  1.00  0.00    -0.247 OA
HETATM    7  H   UNL     1      -7.434   0.932 -35.044  1.00  0.00     0.164 HD
HETATM    8  H   UNL     1      -6.640   2.974 -34.729  1.00  0.00     0.165 HD
BRANCH   5   9
HETATM    9  C   UNL     1      -7.704  -0.532 -33.559  1.00  0.00     0.162 C 
BRANCH   9  10
HETATM   10  C   UNL     1      -6.578  -1.488 -33.863  1.00  0.00    -0.040 A 
HETATM   11  C   UNL     1      -5.292  -1.271 -33.348  1.00  0.00     0.009 A 
HETATM   12  C   UNL     1      -4.254  -2.160 -33.634  1.00  0.00     0.001 A 
HETATM   13  C   UNL     1      -4.489  -3.273 -34.439  1.00  0.00     0.000 A 
HETATM   14  C   UNL     1      -5.762  -3.496 -34.962  1.00  0.00     0.001 A 
HETATM   15  C   UNL     1      -6.801  -2.609 -34.678  1.00  0.00     0.009 A 
ENDBRANCH   9  10
ENDBRANCH   5   9
ENDBRANCH   2   3
BRANCH   2  16
HETATM   16  C   UNL     1      -5.943   4.981 -33.244  1.00  0.00     0.145 A 
HETATM   17  N   UNL     1      -5.225   5.383 -32.215  1.00  0.00    -0.210 NA
HETATM   18  C   UNL     1      -4.024   5.768 -32.775  1.00  0.00     0.181 A 
HETATM   19  N   UNL     1      -3.988   5.649 -34.111  1.00  0.00    -0.152 NA
HETATM   20  N   UNL     1      -5.206   5.154 -34.382  1.00  0.00    -0.261 N 
HETATM   21  H   UNL     1      -5.489   4.966 -35.343  1.00  0.00     0.190 HD
BRANCH  18  22
HETATM   22  C   UNL     1      -2.897   6.232 -31.967  1.00  0.00     0.014 A 
HETATM   23  C   UNL     1      -3.033   6.380 -30.578  1.00  0.00     0.017 A 
HETATM   24  C   UNL     1      -1.955   6.811 -29.798  1.00  0.00     0.025 A 
HETATM   25  C   UNL     1      -0.731   7.094 -30.401  1.00  0.00     0.034 A 
HETATM   26 CL   UNL     1       0.595   7.622 -29.441  1.00  0.00    -0.084 Cl
HETATM   27  C   UNL     1      -0.577   6.952 -31.778  1.00  0.00     0.025 A 
HETATM   28  C   UNL     1      -1.656   6.523 -32.558  1.00  0.00     0.017 A 
ENDBRANCH  18  22
ENDBRANCH   2  16
TORSDOF 5
ENDMDL
MODEL 9
REMARK VINA RESULT:      -7.7      6.172      9.749
REMARK  5 active torsions:
REMARK  status: ('A' for Active; 'I' for Inactive)
REMARK    1  A    between atoms: C_2  and  N_3 
REMARK    2  A    between atoms: C_2  and  C_14 
REMARK       I    between atoms: N_3  and  C_4 
REMARK       I    between atoms: C_4  and  N_5 
REMARK    3  A    between atoms: N_5  and  C_6 
REMARK    4  A    between atoms: C_6  and  C_7 
REMARK    5  A    between atoms: C_16  and  C_17 
ROOT
HETATM    1  C   UNL     1      -8.175   3.571 -30.463  1.00  0.00     0.041 C 
HETATM    2  C   UNL     1      -8.607   2.504 -31.462  1.00  0.00     0.153 C 
ENDROOT
BRANCH   2   3
HETATM    3  N   UNL     1      -9.424   3.108 -32.509  1.00  0.00    -0.332 N 
HETATM    4  C   UNL     1     -10.323   2.368 -33.230  1.00  0.00     0.317 C 
HETATM    5  N   UNL     1     -10.964   3.114 -34.174  1.00  0.00    -0.339 N 
HETATM    6  O   UNL     1     -10.490   1.167 -33.053  1.00  0.00    -0.247 OA
HETATM    7  H   UNL     1     -10.968   4.115 -34.054  1.00  0.00     0.164 HD
HETATM    8  H   UNL     1      -9.053   3.931 -32.961  1.00  0.00     0.165 HD
BRANCH   5   9
HETATM    9  C   UNL     1     -11.996   2.555 -35.020  1.00  0.00     0.162 C 
BRANCH   9  10
HETATM   10  C   UNL     1     -13.261   2.300 -34.240  1.00  0.00    -0.040 A 
HETATM   11  C   UNL     1     -14.089   1.211 -34.550  1.00  0.00     0.009 A 
HETATM   12  C   UNL     1     -15.259   0.982 -33.824  1.00  0.00     0.001 A 
HETATM   13  C   UNL     1     -15.616   1.839 -32.784  1.00  0.00     0.000 A 
HETATM   14  C   UNL     1     -14.805   2.928 -32.472  1.00  0.00     0.001 A 
HETATM   15  C   UNL     1     -13.634   3.160 -33.196  1.00  0.00     0.009 A 
ENDBRANCH   9  10
ENDBRANCH   5   9
ENDBRANCH   2   3
BRANCH   2  16
HETATM   16  C   UNL     1      -7.430   1.799 -32.062  1.00  0.00     0.145 A 
HETATM   17  N   UNL     1      -7.123   0.517 -32.049  1.00  0.00    -0.210 NA
HETATM   18  C   UNL     1      -5.999   0.434 -32.845  1.00  0.00     0.181 A 
HETATM   19  N   UNL     1      -5.584   1.619 -33.319  1.00  0.00    -0.152 NA
HETATM   20  N   UNL     1      -6.499   2.461 -32.813  1.00  0.00    -0.261 N 
HETATM   21  H   UNL     1      -6.439   3.462 -32.992  1.00  0.00     0.190 HD
BRANCH  18  22
HETATM   22  C   UNL     1      -5.352  -0.840 -33.154  1.00  0.00     0.014 A 
HETATM   23  C   UNL     1      -4.253  -1.279 -32.399  1.00  0.00     0.017 A 
HETATM   24  C   UNL     1      -3.637  -2.503 -32.681  1.00  0.00     0.025 A 
HETATM   25  C   UNL     1      -4.119  -3.299 -33.719  1.00  0.00     0.034 A 
HETATM   26 CL   UNL     1      -3.362  -4.805 -34.064  1.00  0.00    -0.084 Cl
HETATM   27  C   UNL     1      -5.209  -2.880 -34.478  1.00  0.00     0.025 A 
HETATM   28  C   UNL     1      -5.822  -1.655 -34.196  1.00  0.00     0.017 A 
ENDBRANCH  18  22
ENDBRANCH   2  16
TORSDOF 5
ENDMDL
MODEL 10
REMARK VINA RESULT:      -7.6      4.404     10.624
REMARK  5 active torsions:
REMARK  status: ('A' for Active; 'I' for Inactive)
REMARK    1  A    between atoms: C_2  and  N_3 
REMARK    2  A    between atoms: C_2  and  C_14 
REMARK       I    between atoms: N_3  and  C_4 
REMARK       I    between atoms: C_4  and  N_5 
REMARK    3  A    between atoms: N_5  and  C_6 
REMARK    4  A    between atoms: C_6  and  C_7 
REMARK    5  A    between atoms: C_16  and  C_17 
ROOT
HETATM    1  C   UNL     1      -1.483   5.560 -32.846  1.00  0.00     0.041 C 
HETATM    2  C   UNL     1      -2.119   5.400 -31.470  1.00  0.00     0.153 C 
ENDROOT
BRANCH   2   3
HETATM    3  N   UNL     1      -2.459   3.999 -31.241  1.00  0.00    -0.332 N 
HETATM    4  C   UNL     1      -3.755   3.601 -31.048  1.00  0.00     0.317 C 
HETATM    5  N   UNL     1      -3.853   2.259 -30.827  1.00  0.00    -0.339 N 
HETATM    6  O   UNL     1      -4.698   4.382 -31.046  1.00  0.00    -0.247 OA
HETATM    7  H   UNL     1      -3.083   1.679 -31.124  1.00  0.00     0.164 HD
HETATM    8  H   UNL     1      -1.743   3.417 -30.834  1.00  0.00     0.165 HD
BRANCH   5   9
HETATM    9  C   UNL     1      -5.130   1.604 -30.649  1.00  0.00     0.162 C 
BRANCH   9  10
HETATM   10  C   UNL     1      -5.412   0.646 -31.779  1.00  0.00    -0.040 A 
HETATM   11  C   UNL     1      -4.397   0.266 -32.669  1.00  0.00     0.009 A 
HETATM   12  C   UNL     1      -4.666  -0.621 -33.713  1.00  0.00     0.001 A 
HETATM   13  C   UNL     1      -5.951  -1.134 -33.882  1.00  0.00     0.000 A 
HETATM   14  C   UNL     1      -6.969  -0.758 -33.007  1.00  0.00     0.001 A 
HETATM   15  C   UNL     1      -6.703   0.128 -31.962  1.00  0.00     0.009 A 
ENDBRANCH   9  10
ENDBRANCH   5   9
ENDBRANCH   2   3
BRANCH   2  16
HETATM   16  C   UNL     1      -1.220   5.901 -30.383  1.00  0.00     0.145 A 
HETATM   17  N   UNL     1      -1.085   7.120 -29.901  1.00  0.00    -0.210 NA
HETATM   18  C   UNL     1      -0.204   6.969 -28.850  1.00  0.00     0.181 A 
HETATM   19  N   UNL     1       0.234   5.710 -28.689  1.00  0.00    -0.152 NA
HETATM   20  N   UNL     1      -0.418   5.058 -29.664  1.00  0.00    -0.261 N 
HETATM   21  H   UNL     1      -0.276   4.060 -29.807  1.00  0.00     0.190 HD
BRANCH  18  22
HETATM   22  C   UNL     1       0.183   8.083 -27.986  1.00  0.00     0.014 A 
HETATM   23  C   UNL     1       1.444   8.098 -27.370  1.00  0.00     0.017 A 
HETATM   24  C   UNL     1       1.826   9.167 -26.553  1.00  0.00     0.025 A 
HETATM   25  C   UNL     1       0.950  10.232 -26.349  1.00  0.00     0.034 A 
HETATM   26 CL   UNL     1       1.421  11.548 -25.346  1.00  0.00    -0.084 Cl
HETATM   27  C   UNL     1      -0.305  10.235 -26.953  1.00  0.00     0.025 A 
HETATM   28  C   UNL     1      -0.686   9.164 -27.768  1.00  0.00     0.017 A 
ENDBRANCH  18  22
ENDBRANCH   2  16
TORSDOF 5
ENDMDL
