MODEL 1
REMARK VINA RESULT:      -8.4      0.000      0.000
REMARK  4 active torsions:
REMARK  status: ('A' for Active; 'I' for Inactive)
REMARK    1  A    between atoms: C_3  and  N_4 
REMARK       I    between atoms: N_4  and  C_5 
REMARK    2  A    between atoms: C_5  and  C_6 
REMARK    3  A    between atoms: C_7  and  C_8 
REMARK    4  A    between atoms: C_16  and  C_17 
ROOT
HETATM    1  C   UNL     1      -7.559   0.232 -35.225  1.00  0.00     0.003 A 
HETATM    2  C   UNL     1      -6.975   1.118 -34.319  1.00  0.00     0.029 A 
HETATM    3  C   UNL     1      -5.936   0.692 -33.491  1.00  0.00     0.035 A 
HETATM    4  C   UNL     1      -5.487  -0.634 -33.584  1.00  0.00     0.042 A 
HETATM    5  C   UNL     1      -6.091  -1.549 -34.464  1.00  0.00    -0.021 A 
HETATM    6  C   UNL     1      -7.123  -1.092 -35.295  1.00  0.00     0.012 A 
ENDROOT
BRANCH   3   7
HETATM    7  N   UNL     1      -5.293   1.538 -32.565  1.00  0.00    -0.327 N 
HETATM    8  C   UNL     1      -3.951   1.525 -32.234  1.00  0.00     0.227 C 
HETATM    9  O   UNL     1      -3.075   0.854 -32.760  1.00  0.00    -0.273 OA
HETATM   10  H   UNL     1      -5.849   2.290 -32.181  1.00  0.00     0.169 HD
BRANCH   8  11
HETATM   11  C   UNL     1      -3.606   2.538 -31.193  1.00  0.00     0.089 A 
HETATM   12  C   UNL     1      -3.091   3.926 -31.544  1.00  0.00     0.057 A 
HETATM   13  C   UNL     1      -4.473   3.736 -30.952  1.00  0.00     0.027 A 
BRANCH  12  14
HETATM   14  C   UNL     1      -3.037   4.437 -32.973  1.00  0.00     0.057 A 
HETATM   15  O   UNL     1      -4.119   4.781 -33.724  1.00  0.00    -0.327 OA
HETATM   16  C   UNL     1      -3.657   5.231 -34.916  1.00  0.00     0.142 A 
HETATM   17  C   UNL     1      -2.284   5.184 -34.947  1.00  0.00     0.027 A 
HETATM   18  C   UNL     1      -1.881   4.668 -33.690  1.00  0.00     0.035 A 
ENDBRANCH  12  14
ENDBRANCH   8  11
ENDBRANCH   3   7
BRANCH   5  19
HETATM   19  C   UNL     1      -5.661  -2.941 -34.488  1.00  0.00     0.010 A 
HETATM   20  C   UNL     1      -6.326  -4.114 -34.924  1.00  0.00     0.152 A 
HETATM   21  N   UNL     1      -5.572  -5.212 -34.819  1.00  0.00    -0.187 NA
HETATM   22  N   UNL     1      -4.416  -4.750 -34.318  1.00  0.00    -0.289 N 
HETATM   23  H   UNL     1      -3.664  -5.411 -34.153  1.00  0.00     0.188 HD
HETATM   24  C   UNL     1      -4.417  -3.401 -34.105  1.00  0.00     0.123 A 
ENDBRANCH   5  19
TORSDOF 4
ENDMDL
MODEL 2
REMARK VINA RESULT:      -7.9      1.809      2.761
REMARK  4 active torsions:
REMARK  status: ('A' for Active; 'I' for Inactive)
REMARK    1  A    between atoms: C_3  and  N_4 
REMARK       I    between atoms: N_4  and  C_5 
REMARK    2  A    between atoms: C_5  and  C_6 
REMARK    3  A    between atoms: C_7  and  C_8 
REMARK    4  A    between atoms: C_16  and  C_17 
ROOT
HETATM    1  C   UNL     1      -3.069  -1.285 -32.038  1.00  0.00     0.003 A 
HETATM    2  C   UNL     1      -3.572   0.008 -32.185  1.00  0.00     0.029 A 
HETATM    3  C   UNL     1      -4.701   0.237 -32.972  1.00  0.00     0.035 A 
HETATM    4  C   UNL     1      -5.322  -0.849 -33.609  1.00  0.00     0.042 A 
HETATM    5  C   UNL     1      -4.803  -2.151 -33.502  1.00  0.00    -0.021 A 
HETATM    6  C   UNL     1      -3.677  -2.356 -32.695  1.00  0.00     0.012 A 
ENDROOT
BRANCH   3   7
HETATM    7  N   UNL     1      -5.270   1.514 -33.150  1.00  0.00    -0.327 N 
HETATM    8  C   UNL     1      -5.880   2.286 -32.179  1.00  0.00     0.227 C 
HETATM    9  O   UNL     1      -5.938   2.042 -30.982  1.00  0.00    -0.273 OA
HETATM   10  H   UNL     1      -5.128   1.946 -34.053  1.00  0.00     0.169 HD
BRANCH   8  11
HETATM   11  C   UNL     1      -6.402   3.578 -32.716  1.00  0.00     0.089 A 
HETATM   12  C   UNL     1      -5.531   4.819 -32.841  1.00  0.00     0.057 A 
HETATM   13  C   UNL     1      -6.007   4.075 -34.072  1.00  0.00     0.027 A 
BRANCH  12  14
HETATM   14  C   UNL     1      -4.036   4.795 -32.578  1.00  0.00     0.057 A 
HETATM   15  O   UNL     1      -3.456   4.801 -31.346  1.00  0.00    -0.327 OA
HETATM   16  C   UNL     1      -2.116   4.725 -31.530  1.00  0.00     0.142 A 
HETATM   17  C   UNL     1      -1.817   4.670 -32.870  1.00  0.00     0.027 A 
HETATM   18  C   UNL     1      -3.060   4.717 -33.550  1.00  0.00     0.035 A 
ENDBRANCH  12  14
ENDBRANCH   8  11
ENDBRANCH   3   7
BRANCH   5  19
HETATM   19  C   UNL     1      -5.418  -3.250 -34.236  1.00  0.00     0.010 A 
HETATM   20  C   UNL     1      -4.932  -4.541 -34.558  1.00  0.00     0.152 A 
HETATM   21  N   UNL     1      -5.824  -5.285 -35.220  1.00  0.00    -0.187 NA
HETATM   22  N   UNL     1      -6.889  -4.476 -35.324  1.00  0.00    -0.289 N 
HETATM   23  H   UNL     1      -7.717  -4.829 -35.792  1.00  0.00     0.188 HD
HETATM   24  C   UNL     1      -6.699  -3.252 -34.751  1.00  0.00     0.123 A 
ENDBRANCH   5  19
TORSDOF 4
ENDMDL
MODEL 3
REMARK VINA RESULT:      -7.9      4.513      6.999
REMARK  4 active torsions:
REMARK  status: ('A' for Active; 'I' for Inactive)
REMARK    1  A    between atoms: C_3  and  N_4 
REMARK       I    between atoms: N_4  and  C_5 
REMARK    2  A    between atoms: C_5  and  C_6 
REMARK    3  A    between atoms: C_7  and  C_8 
REMARK    4  A    between atoms: C_16  and  C_17 
ROOT
HETATM    1  C   UNL     1      -9.546   3.036 -32.582  1.00  0.00     0.003 A 
HETATM    2  C   UNL     1      -8.658   2.013 -32.917  1.00  0.00     0.029 A 
HETATM    3  C   UNL     1      -9.123   0.858 -33.544  1.00  0.00     0.035 A 
HETATM    4  C   UNL     1     -10.491   0.741 -33.836  1.00  0.00     0.042 A 
HETATM    5  C   UNL     1     -11.403   1.746 -33.469  1.00  0.00    -0.021 A 
HETATM    6  C   UNL     1     -10.909   2.902 -32.852  1.00  0.00     0.012 A 
ENDROOT
BRANCH   3   7
HETATM    7  N   UNL     1      -8.279  -0.206 -33.923  1.00  0.00    -0.327 N 
HETATM    8  C   UNL     1      -7.394  -0.216 -34.985  1.00  0.00     0.227 C 
HETATM    9  O   UNL     1      -7.115   0.727 -35.712  1.00  0.00    -0.273 OA
HETATM   10  H   UNL     1      -8.249  -0.999 -33.297  1.00  0.00     0.169 HD
BRANCH   8  11
HETATM   11  C   UNL     1      -6.675  -1.517 -35.121  1.00  0.00     0.089 A 
HETATM   12  C   UNL     1      -5.512  -1.903 -34.220  1.00  0.00     0.057 A 
HETATM   13  C   UNL     1      -6.847  -2.612 -34.114  1.00  0.00     0.027 A 
BRANCH  12  14
HETATM   14  C   UNL     1      -5.098  -1.068 -33.022  1.00  0.00     0.057 A 
HETATM   15  O   UNL     1      -5.888  -0.789 -31.950  1.00  0.00    -0.327 OA
HETATM   16  C   UNL     1      -5.146  -0.063 -31.078  1.00  0.00     0.142 A 
HETATM   17  C   UNL     1      -3.879   0.131 -31.573  1.00  0.00     0.027 A 
HETATM   18  C   UNL     1      -3.846  -0.517 -32.833  1.00  0.00     0.035 A 
ENDBRANCH  12  14
ENDBRANCH   8  11
ENDBRANCH   3   7
BRANCH   5  19
HETATM   19  C   UNL     1     -12.829   1.567 -33.711  1.00  0.00     0.010 A 
HETATM   20  C   UNL     1     -13.523   0.705 -34.596  1.00  0.00     0.152 A 
HETATM   21  N   UNL     1     -14.852   0.811 -34.494  1.00  0.00    -0.187 NA
HETATM   22  N   UNL     1     -15.018   1.740 -33.540  1.00  0.00    -0.289 N 
HETATM   23  H   UNL     1     -15.965   1.992 -33.274  1.00  0.00     0.188 HD
HETATM   24  C   UNL     1     -13.843   2.221 -33.039  1.00  0.00     0.123 A 
ENDBRANCH   5  19
TORSDOF 4
ENDMDL
MODEL 4
REMARK VINA RESULT:      -7.8      2.774      4.928
REMARK  4 active torsions:
REMARK  status: ('A' for Active; 'I' for Inactive)
REMARK    1  A    between atoms: C_3  and  N_4 
REMARK       I    between atoms: N_4  and  C_5 
REMARK    2  A    between atoms: C_5  and  C_6 
REMARK    3  A    between atoms: C_7  and  C_8 
REMARK    4  A    between atoms: C_16  and  C_17 
ROOT
HETATM    1  C   UNL     1      -3.142  -0.428 -32.723  1.00  0.00     0.003 A 
HETATM    2  C   UNL     1      -3.974   0.630 -32.354  1.00  0.00     0.029 A 
HETATM    3  C   UNL     1      -5.351   0.541 -32.550  1.00  0.00     0.035 A 
HETATM    4  C   UNL     1      -5.888  -0.625 -33.119  1.00  0.00     0.042 A 
HETATM    5  C   UNL     1      -5.059  -1.683 -33.531  1.00  0.00    -0.021 A 
HETATM    6  C   UNL     1      -3.680  -1.575 -33.310  1.00  0.00     0.012 A 
ENDROOT
BRANCH   3   7
HETATM    7  N   UNL     1      -6.249   1.566 -32.188  1.00  0.00    -0.327 N 
HETATM    8  C   UNL     1      -6.663   2.616 -32.985  1.00  0.00     0.227 C 
HETATM    9  O   UNL     1      -6.407   2.780 -34.170  1.00  0.00    -0.273 OA
HETATM   10  H   UNL     1      -6.708   1.464 -31.293  1.00  0.00     0.169 HD
BRANCH   8  11
HETATM   11  C   UNL     1      -7.598   3.541 -32.278  1.00  0.00     0.089 A 
HETATM   12  C   UNL     1      -9.082   3.240 -32.126  1.00  0.00     0.057 A 
HETATM   13  C   UNL     1      -8.155   3.205 -30.929  1.00  0.00     0.027 A 
BRANCH  12  14
HETATM   14  C   UNL     1      -9.691   1.913 -32.543  1.00  0.00     0.057 A 
HETATM   15  O   UNL     1      -9.265   0.689 -32.126  1.00  0.00    -0.327 OA
HETATM   16  C   UNL     1     -10.089  -0.235 -32.678  1.00  0.00     0.142 A 
HETATM   17  C   UNL     1     -11.047   0.376 -33.450  1.00  0.00     0.027 A 
HETATM   18  C   UNL     1     -10.789   1.767 -33.366  1.00  0.00     0.035 A 
ENDBRANCH  12  14
ENDBRANCH   8  11
ENDBRANCH   3   7
BRANCH   5  19
HETATM   19  C   UNL     1      -5.631  -2.850 -34.191  1.00  0.00     0.010 A 
HETATM   20  C   UNL     1      -5.045  -4.082 -34.575  1.00  0.00     0.152 A 
HETATM   21  N   UNL     1      -5.920  -4.927 -35.128  1.00  0.00    -0.187 NA
HETATM   22  N   UNL     1      -7.075  -4.243 -35.099  1.00  0.00    -0.289 N 
HETATM   23  H   UNL     1      -7.908  -4.691 -35.466  1.00  0.00     0.188 HD
HETATM   24  C   UNL     1      -6.956  -3.000 -34.547  1.00  0.00     0.123 A 
ENDBRANCH   5  19
TORSDOF 4
ENDMDL
MODEL 5
REMARK VINA RESULT:      -7.7      3.356      4.913
REMARK  4 active torsions:
REMARK  status: ('A' for Active; 'I' for Inactive)
REMARK    1  A    between atoms: C_3  and  N_4 
REMARK       I    between atoms: N_4  and  C_5 
REMARK    2  A    between atoms: C_5  and  C_6 
REMARK    3  A    between atoms: C_7  and  C_8 
REMARK    4  A    between atoms: C_16  and  C_17 
ROOT
HETATM    1  C   UNL     1      -5.000   0.318 -33.266  1.00  0.00     0.003 A 
HETATM    2  C   UNL     1      -6.292   0.835 -33.356  1.00  0.00     0.029 A 
HETATM    3  C   UNL     1      -7.351   0.014 -33.743  1.00  0.00     0.035 A 
HETATM    4  C   UNL     1      -7.099  -1.335 -34.037  1.00  0.00     0.042 A 
HETATM    5  C   UNL     1      -5.797  -1.861 -33.989  1.00  0.00    -0.021 A 
HETATM    6  C   UNL     1      -4.752  -1.018 -33.584  1.00  0.00     0.012 A 
ENDROOT
BRANCH   3   7
HETATM    7  N   UNL     1      -8.683   0.468 -33.839  1.00  0.00    -0.327 N 
HETATM    8  C   UNL     1      -9.596   0.562 -32.806  1.00  0.00     0.227 C 
HETATM    9  O   UNL     1      -9.379   0.369 -31.619  1.00  0.00    -0.273 OA
HETATM   10  H   UNL     1      -8.961   0.855 -34.731  1.00  0.00     0.169 HD
BRANCH   8  11
HETATM   11  C   UNL     1     -10.930   1.055 -33.262  1.00  0.00     0.089 A 
HETATM   12  C   UNL     1     -11.223   2.533 -33.472  1.00  0.00     0.057 A 
HETATM   13  C   UNL     1     -11.134   1.583 -34.649  1.00  0.00     0.027 A 
BRANCH  12  14
HETATM   14  C   UNL     1     -10.145   3.598 -33.386  1.00  0.00     0.057 A 
HETATM   15  O   UNL     1      -9.048   3.671 -34.188  1.00  0.00    -0.327 OA
HETATM   16  C   UNL     1      -8.358   4.781 -33.831  1.00  0.00     0.142 A 
HETATM   17  C   UNL     1      -8.997   5.433 -32.803  1.00  0.00     0.027 A 
HETATM   18  C   UNL     1     -10.153   4.667 -32.513  1.00  0.00     0.035 A 
ENDBRANCH  12  14
ENDBRANCH   8  11
ENDBRANCH   3   7
BRANCH   5  19
HETATM   19  C   UNL     1      -5.547  -3.244 -34.375  1.00  0.00     0.010 A 
HETATM   20  C   UNL     1      -6.344  -4.167 -35.096  1.00  0.00     0.152 A 
HETATM   21  N   UNL     1      -5.740  -5.344 -35.284  1.00  0.00    -0.187 NA
HETATM   22  N   UNL     1      -4.549  -5.182 -34.686  1.00  0.00    -0.289 N 
HETATM   23  H   UNL     1      -3.893  -5.956 -34.702  1.00  0.00     0.188 HD
HETATM   24  C   UNL     1      -4.384  -3.946 -34.131  1.00  0.00     0.123 A 
ENDBRANCH   5  19
TORSDOF 4
ENDMDL
MODEL 6
REMARK VINA RESULT:      -7.5      4.884      6.921
REMARK  4 active torsions:
REMARK  status: ('A' for Active; 'I' for Inactive)
REMARK    1  A    between atoms: C_3  and  N_4 
REMARK       I    between atoms: N_4  and  C_5 
REMARK    2  A    between atoms: C_5  and  C_6 
REMARK    3  A    between atoms: C_7  and  C_8 
REMARK    4  A    between atoms: C_16  and  C_17 
ROOT
HETATM    1  C   UNL     1      -7.436   0.938 -31.341  1.00  0.00     0.003 A 
HETATM    2  C   UNL     1      -8.580   1.441 -31.961  1.00  0.00     0.029 A 
HETATM    3  C   UNL     1      -9.007   0.914 -33.179  1.00  0.00     0.035 A 
HETATM    4  C   UNL     1      -8.274  -0.127 -33.770  1.00  0.00     0.042 A 
HETATM    5  C   UNL     1      -7.097  -0.617 -33.176  1.00  0.00    -0.021 A 
HETATM    6  C   UNL     1      -6.698  -0.080 -31.945  1.00  0.00     0.012 A 
ENDROOT
BRANCH   3   7
HETATM    7  N   UNL     1     -10.162   1.365 -33.852  1.00  0.00    -0.327 N 
HETATM    8  C   UNL     1     -11.405   0.760 -33.847  1.00  0.00     0.227 C 
HETATM    9  O   UNL     1     -11.745  -0.206 -33.180  1.00  0.00    -0.273 OA
HETATM   10  H   UNL     1     -10.097   2.270 -34.298  1.00  0.00     0.169 HD
BRANCH   8  11
HETATM   11  C   UNL     1     -12.400   1.487 -34.691  1.00  0.00     0.089 A 
HETATM   12  C   UNL     1     -13.230   2.644 -34.156  1.00  0.00     0.057 A 
HETATM   13  C   UNL     1     -12.139   2.878 -35.181  1.00  0.00     0.027 A 
BRANCH  12  14
HETATM   14  C   UNL     1     -12.999   3.245 -32.781  1.00  0.00     0.057 A 
HETATM   15  O   UNL     1     -11.824   3.775 -32.344  1.00  0.00    -0.327 OA
HETATM   16  C   UNL     1     -12.035   4.248 -31.091  1.00  0.00     0.142 A 
HETATM   17  C   UNL     1     -13.338   4.031 -30.710  1.00  0.00     0.027 A 
HETATM   18  C   UNL     1     -13.963   3.380 -31.802  1.00  0.00     0.035 A 
ENDBRANCH  12  14
ENDBRANCH   8  11
ENDBRANCH   3   7
BRANCH   5  19
HETATM   19  C   UNL     1      -6.309  -1.644 -33.846  1.00  0.00     0.010 A 
HETATM   20  C   UNL     1      -6.701  -2.742 -34.651  1.00  0.00     0.152 A 
HETATM   21  N   UNL     1      -5.665  -3.441 -35.122  1.00  0.00    -0.187 NA
HETATM   22  N   UNL     1      -4.600  -2.794 -34.624  1.00  0.00    -0.289 N 
HETATM   23  H   UNL     1      -3.675  -3.141 -34.856  1.00  0.00     0.188 HD
HETATM   24  C   UNL     1      -4.930  -1.713 -33.859  1.00  0.00     0.123 A 
ENDBRANCH   5  19
TORSDOF 4
ENDMDL
MODEL 7
REMARK VINA RESULT:      -7.5      2.065      2.457
REMARK  4 active torsions:
REMARK  status: ('A' for Active; 'I' for Inactive)
REMARK    1  A    between atoms: C_3  and  N_4 
REMARK       I    between atoms: N_4  and  C_5 
REMARK    2  A    between atoms: C_5  and  C_6 
REMARK    3  A    between atoms: C_7  and  C_8 
REMARK    4  A    between atoms: C_16  and  C_17 
ROOT
HETATM    1  C   UNL     1      -7.493  -0.281 -35.177  1.00  0.00     0.003 A 
HETATM    2  C   UNL     1      -6.949   0.691 -34.337  1.00  0.00     0.029 A 
HETATM    3  C   UNL     1      -5.848   0.390 -33.536  1.00  0.00     0.035 A 
HETATM    4  C   UNL     1      -5.296  -0.899 -33.588  1.00  0.00     0.042 A 
HETATM    5  C   UNL     1      -5.857  -1.900 -34.401  1.00  0.00    -0.021 A 
HETATM    6  C   UNL     1      -6.954  -1.568 -35.206  1.00  0.00     0.012 A 
ENDROOT
BRANCH   3   7
HETATM    7  N   UNL     1      -5.241   1.328 -32.676  1.00  0.00    -0.327 N 
HETATM    8  C   UNL     1      -5.649   1.656 -31.397  1.00  0.00     0.227 C 
HETATM    9  O   UNL     1      -6.538   1.118 -30.753  1.00  0.00    -0.273 OA
HETATM   10  H   UNL     1      -4.366   1.724 -32.991  1.00  0.00     0.169 HD
BRANCH   8  11
HETATM   11  C   UNL     1      -4.796   2.713 -30.775  1.00  0.00     0.089 A 
HETATM   12  C   UNL     1      -4.959   4.189 -31.104  1.00  0.00     0.057 A 
HETATM   13  C   UNL     1      -5.344   3.648 -29.742  1.00  0.00     0.027 A 
BRANCH  12  14
HETATM   14  C   UNL     1      -6.096   4.711 -31.965  1.00  0.00     0.057 A 
HETATM   15  O   UNL     1      -6.126   4.683 -33.325  1.00  0.00    -0.327 OA
HETATM   16  C   UNL     1      -7.320   5.193 -33.714  1.00  0.00     0.142 A 
HETATM   17  C   UNL     1      -8.067   5.553 -32.618  1.00  0.00     0.027 A 
HETATM   18  C   UNL     1      -7.275   5.244 -31.485  1.00  0.00     0.035 A 
ENDBRANCH  12  14
ENDBRANCH   8  11
ENDBRANCH   3   7
BRANCH   5  19
HETATM   19  C   UNL     1      -5.315  -3.253 -34.380  1.00  0.00     0.010 A 
HETATM   20  C   UNL     1      -5.847  -4.476 -34.859  1.00  0.00     0.152 A 
HETATM   21  N   UNL     1      -5.018  -5.509 -34.687  1.00  0.00    -0.187 NA
HETATM   22  N   UNL     1      -3.946  -4.955 -34.099  1.00  0.00    -0.289 N 
HETATM   23  H   UNL     1      -3.159  -5.554 -33.871  1.00  0.00     0.188 HD
HETATM   24  C   UNL     1      -4.073  -3.611 -33.897  1.00  0.00     0.123 A 
ENDBRANCH   5  19
TORSDOF 4
ENDMDL
MODEL 8
REMARK VINA RESULT:      -7.4      2.237      2.890
REMARK  4 active torsions:
REMARK  status: ('A' for Active; 'I' for Inactive)
REMARK    1  A    between atoms: C_3  and  N_4 
REMARK       I    between atoms: N_4  and  C_5 
REMARK    2  A    between atoms: C_5  and  C_6 
REMARK    3  A    between atoms: C_7  and  C_8 
REMARK    4  A    between atoms: C_16  and  C_17 
ROOT
HETATM    1  C   UNL     1      -7.105  -0.964 -35.122  1.00  0.00     0.003 A 
HETATM    2  C   UNL     1      -7.311   0.393 -34.868  1.00  0.00     0.029 A 
HETATM    3  C   UNL     1      -6.480   1.074 -33.978  1.00  0.00     0.035 A 
HETATM    4  C   UNL     1      -5.436   0.378 -33.347  1.00  0.00     0.042 A 
HETATM    5  C   UNL     1      -5.241  -0.997 -33.563  1.00  0.00    -0.021 A 
HETATM    6  C   UNL     1      -6.082  -1.655 -34.472  1.00  0.00     0.012 A 
ENDROOT
BRANCH   3   7
HETATM    7  N   UNL     1      -6.622   2.446 -33.688  1.00  0.00    -0.327 N 
HETATM    8  C   UNL     1      -6.997   2.995 -32.476  1.00  0.00     0.227 C 
HETATM    9  O   UNL     1      -7.167   2.396 -31.424  1.00  0.00    -0.273 OA
HETATM   10  H   UNL     1      -6.325   3.090 -34.408  1.00  0.00     0.169 HD
BRANCH   8  11
HETATM   11  C   UNL     1      -7.078   4.485 -32.521  1.00  0.00     0.089 A 
HETATM   12  C   UNL     1      -5.851   5.373 -32.375  1.00  0.00     0.057 A 
HETATM   13  C   UNL     1      -6.574   5.258 -33.701  1.00  0.00     0.027 A 
BRANCH  12  14
HETATM   14  C   UNL     1      -4.441   4.812 -32.328  1.00  0.00     0.057 A 
HETATM   15  O   UNL     1      -3.837   4.300 -31.221  1.00  0.00    -0.327 OA
HETATM   16  C   UNL     1      -2.610   3.862 -31.595  1.00  0.00     0.142 A 
HETATM   17  C   UNL     1      -2.410   4.084 -32.937  1.00  0.00     0.027 A 
HETATM   18  C   UNL     1      -3.594   4.701 -33.412  1.00  0.00     0.035 A 
ENDBRANCH  12  14
ENDBRANCH   8  11
ENDBRANCH   3   7
BRANCH   5  19
HETATM   19  C   UNL     1      -4.202  -1.715 -32.837  1.00  0.00     0.010 A 
HETATM   20  C   UNL     1      -3.897  -3.098 -32.773  1.00  0.00     0.152 A 
HETATM   21  N   UNL     1      -2.827  -3.362 -32.018  1.00  0.00    -0.187 NA
HETATM   22  N   UNL     1      -2.436  -2.150 -31.595  1.00  0.00    -0.289 N 
HETATM   23  H   UNL     1      -1.618  -2.089 -30.998  1.00  0.00     0.188 HD
HETATM   24  C   UNL     1      -3.222  -1.134 -32.059  1.00  0.00     0.123 A 
ENDBRANCH   5  19
TORSDOF 4
ENDMDL
MODEL 9
REMARK VINA RESULT:      -7.4      4.177      6.384
REMARK  4 active torsions:
REMARK  status: ('A' for Active; 'I' for Inactive)
REMARK    1  A    between atoms: C_3  and  N_4 
REMARK       I    between atoms: N_4  and  C_5 
REMARK    2  A    between atoms: C_5  and  C_6 
REMARK    3  A    between atoms: C_7  and  C_8 
REMARK    4  A    between atoms: C_16  and  C_17 
ROOT
HETATM    1  C   UNL     1      -7.114  -0.881 -34.960  1.00  0.00     0.003 A 
HETATM    2  C   UNL     1      -7.926   0.230 -34.730  1.00  0.00     0.029 A 
HETATM    3  C   UNL     1      -7.544   1.199 -33.802  1.00  0.00     0.035 A 
HETATM    4  C   UNL     1      -6.333   1.042 -33.108  1.00  0.00     0.042 A 
HETATM    5  C   UNL     1      -5.524  -0.091 -33.301  1.00  0.00    -0.021 A 
HETATM    6  C   UNL     1      -5.924  -1.043 -34.249  1.00  0.00     0.012 A 
ENDROOT
BRANCH   3   7
HETATM    7  N   UNL     1      -8.309   2.352 -33.532  1.00  0.00    -0.327 N 
HETATM    8  C   UNL     1      -9.108   2.568 -32.425  1.00  0.00     0.227 C 
HETATM    9  O   UNL     1      -9.208   1.845 -31.444  1.00  0.00    -0.273 OA
HETATM   10  H   UNL     1      -8.180   3.133 -34.160  1.00  0.00     0.169 HD
BRANCH   8  11
HETATM   11  C   UNL     1      -9.804   3.888 -32.468  1.00  0.00     0.089 A 
HETATM   12  C   UNL     1     -11.159   4.074 -33.134  1.00  0.00     0.057 A 
HETATM   13  C   UNL     1     -11.014   4.159 -31.628  1.00  0.00     0.027 A 
BRANCH  12  14
HETATM   14  C   UNL     1     -11.972   2.907 -33.665  1.00  0.00     0.057 A 
HETATM   15  O   UNL     1     -12.947   2.252 -32.977  1.00  0.00    -0.327 OA
HETATM   16  C   UNL     1     -13.465   1.312 -33.804  1.00  0.00     0.142 A 
HETATM   17  C   UNL     1     -12.837   1.350 -35.026  1.00  0.00     0.027 A 
HETATM   18  C   UNL     1     -11.869   2.381 -34.937  1.00  0.00     0.035 A 
ENDBRANCH  12  14
ENDBRANCH   8  11
ENDBRANCH   3   7
BRANCH   5  19
HETATM   19  C   UNL     1      -4.312  -0.272 -32.512  1.00  0.00     0.010 A 
HETATM   20  C   UNL     1      -3.563   0.645 -31.734  1.00  0.00     0.152 A 
HETATM   21  N   UNL     1      -2.519   0.079 -31.120  1.00  0.00    -0.187 NA
HETATM   22  N   UNL     1      -2.595  -1.207 -31.498  1.00  0.00    -0.289 N 
HETATM   23  H   UNL     1      -1.898  -1.854 -31.145  1.00  0.00     0.188 HD
HETATM   24  C   UNL     1      -3.648  -1.468 -32.326  1.00  0.00     0.123 A 
ENDBRANCH   5  19
TORSDOF 4
ENDMDL
MODEL 10
REMARK VINA RESULT:      -7.2      3.171      7.533
REMARK  4 active torsions:
REMARK  status: ('A' for Active; 'I' for Inactive)
REMARK    1  A    between atoms: C_3  and  N_4 
REMARK       I    between atoms: N_4  and  C_5 
REMARK    2  A    between atoms: C_5  and  C_6 
REMARK    3  A    between atoms: C_7  and  C_8 
REMARK    4  A    between atoms: C_16  and  C_17 
ROOT
HETATM    1  C   UNL     1      -4.272   5.348 -33.720  1.00  0.00     0.003 A 
HETATM    2  C   UNL     1      -4.637   4.030 -33.450  1.00  0.00     0.029 A 
HETATM    3  C   UNL     1      -3.891   3.263 -32.556  1.00  0.00     0.035 A 
HETATM    4  C   UNL     1      -2.771   3.836 -31.932  1.00  0.00     0.042 A 
HETATM    5  C   UNL     1      -2.368   5.151 -32.223  1.00  0.00    -0.021 A 
HETATM    6  C   UNL     1      -3.144   5.904 -33.115  1.00  0.00     0.012 A 
ENDROOT
BRANCH   3   7
HETATM    7  N   UNL     1      -4.213   1.930 -32.227  1.00  0.00    -0.327 N 
HETATM    8  C   UNL     1      -5.169   1.516 -31.318  1.00  0.00     0.227 C 
HETATM    9  O   UNL     1      -5.967   2.225 -30.723  1.00  0.00    -0.273 OA
HETATM   10  H   UNL     1      -3.771   1.211 -32.783  1.00  0.00     0.169 HD
BRANCH   8  11
HETATM   11  C   UNL     1      -5.232   0.030 -31.189  1.00  0.00     0.089 A 
HETATM   12  C   UNL     1      -6.118  -0.828 -32.079  1.00  0.00     0.057 A 
HETATM   13  C   UNL     1      -4.610  -0.869 -32.212  1.00  0.00     0.027 A 
BRANCH  12  14
HETATM   14  C   UNL     1      -6.882  -0.258 -33.260  1.00  0.00     0.057 A 
HETATM   15  O   UNL     1      -8.016   0.490 -33.174  1.00  0.00    -0.327 OA
HETATM   16  C   UNL     1      -8.362   0.847 -34.435  1.00  0.00     0.142 A 
HETATM   17  C   UNL     1      -7.463   0.338 -35.341  1.00  0.00     0.027 A 
HETATM   18  C   UNL     1      -6.505  -0.379 -34.582  1.00  0.00     0.035 A 
ENDBRANCH  12  14
ENDBRANCH   8  11
ENDBRANCH   3   7
BRANCH   5  19
HETATM   19  C   UNL     1      -1.158   5.699 -31.624  1.00  0.00     0.010 A 
HETATM   20  C   UNL     1      -0.363   5.238 -30.545  1.00  0.00     0.152 A 
HETATM   21  N   UNL     1       0.706   6.007 -30.318  1.00  0.00    -0.187 NA
HETATM   22  N   UNL     1       0.605   6.965 -31.252  1.00  0.00    -0.289 N 
HETATM   23  H   UNL     1       1.324   7.680 -31.288  1.00  0.00     0.188 HD
HETATM   24  C   UNL     1      -0.488   6.824 -32.058  1.00  0.00     0.123 A 
ENDBRANCH   5  19
TORSDOF 4
ENDMDL
