MODEL 1
REMARK VINA RESULT:      -9.2      0.000      0.000
REMARK  9 active torsions:
REMARK  status: ('A' for Active; 'I' for Inactive)
REMARK    1  A    between atoms: O_2  and  C_3 
REMARK    2  A    between atoms: C_4  and  O_5 
REMARK    3  A    between atoms: C_6  and  C_7 
REMARK    4  A    between atoms: N_8  and  N_9 
REMARK       I    between atoms: N_9  and  C_10 
REMARK    5  A    between atoms: C_10  and  C_11 
REMARK    6  A    between atoms: C_11  and  N_12 
REMARK       I    between atoms: N_12  and  C_13 
REMARK    7  A    between atoms: C_13  and  C_14 
REMARK    8  A    between atoms: C_15  and  C_16 
REMARK    9  A    between atoms: C_15  and  C_22 
ROOT
HETATM    1  N   UNL     1      -8.095   2.005 -33.762  1.00  0.00    -0.352 N 
HETATM    2  C   UNL     1      -7.370   1.294 -34.686  1.00  0.00     0.223 C 
HETATM    3  O   UNL     1      -6.649   1.826 -35.522  1.00  0.00    -0.273 OA
HETATM    4  H   UNL     1      -8.558   1.524 -33.003  1.00  0.00     0.162 HD
ENDROOT
BRANCH   1   5
HETATM    5  C   UNL     1      -8.113   3.455 -33.771  1.00  0.00     0.227 C 
BRANCH   5   6
HETATM    6  C   UNL     1      -7.071   4.071 -32.837  1.00  0.00     0.255 C 
HETATM    7  N   UNL     1      -5.777   3.701 -33.175  1.00  0.00    -0.246 N 
HETATM    8  H   UNL     1      -5.634   2.956 -33.862  1.00  0.00     0.192 HD
HETATM    9  O   UNL     1      -7.396   4.811 -31.911  1.00  0.00    -0.270 OA
BRANCH   7  10
HETATM   10  N   UNL     1      -4.710   4.268 -32.548  1.00  0.00    -0.184 NA
HETATM   11  C   UNL     1      -3.762   4.663 -33.341  1.00  0.00     0.153 C 
BRANCH  11  12
HETATM   12  C   UNL     1      -2.552   5.335 -32.824  1.00  0.00     0.019 A 
HETATM   13  C   UNL     1      -1.812   4.756 -31.792  1.00  0.00     0.110 A 
HETATM   14  C   UNL     1      -0.648   5.372 -31.307  1.00  0.00     0.102 A 
HETATM   15  C   UNL     1      -0.232   6.582 -31.865  1.00  0.00     0.040 A 
HETATM   16  C   UNL     1      -0.972   7.167 -32.898  1.00  0.00     0.004 A 
HETATM   17  C   UNL     1      -2.128   6.547 -33.378  1.00  0.00     0.016 A 
BRANCH  13  18
HETATM   18  O   UNL     1      -2.205   3.563 -31.237  1.00  0.00    -0.357 OA
HETATM   19  H   UNL     1      -2.629   3.069 -31.967  1.00  0.00     0.218 HD
ENDBRANCH  13  18
BRANCH  14  20
HETATM   20  O   UNL     1      -0.014   4.690 -30.298  1.00  0.00    -0.353 OA
HETATM   21  C   UNL     1       0.463   5.465 -29.204  1.00  0.00     0.210 C 
ENDBRANCH  14  20
ENDBRANCH  11  12
ENDBRANCH   7  10
ENDBRANCH   5   6
ENDBRANCH   1   5
BRANCH   2  22
HETATM   22  C   UNL     1      -7.514  -0.176 -34.563  1.00  0.00     0.097 A 
HETATM   23  C   UNL     1      -6.690  -1.000 -33.563  1.00  0.00     0.027 A 
HETATM   24  C   UNL     1      -8.194  -0.794 -33.380  1.00  0.00     0.035 A 
BRANCH  23  25
HETATM   25  C   UNL     1      -6.180  -2.351 -34.083  1.00  0.00    -0.044 A 
HETATM   26  C   UNL     1      -4.812  -2.674 -34.029  1.00  0.00     0.008 A 
HETATM   27  C   UNL     1      -4.331  -3.906 -34.480  1.00  0.00     0.001 A 
HETATM   28  C   UNL     1      -5.213  -4.847 -35.002  1.00  0.00     0.000 A 
HETATM   29  C   UNL     1      -6.573  -4.558 -35.065  1.00  0.00     0.001 A 
HETATM   30  C   UNL     1      -7.050  -3.326 -34.605  1.00  0.00     0.008 A 
ENDBRANCH  23  25
BRANCH  23  31
HETATM   31  C   UNL     1      -5.790  -0.351 -32.505  1.00  0.00    -0.044 A 
HETATM   32  C   UNL     1      -6.224  -0.234 -31.170  1.00  0.00     0.008 A 
HETATM   33  C   UNL     1      -5.412   0.322 -30.179  1.00  0.00     0.001 A 
HETATM   34  C   UNL     1      -4.136   0.774 -30.501  1.00  0.00     0.000 A 
HETATM   35  C   UNL     1      -3.675   0.664 -31.809  1.00  0.00     0.001 A 
HETATM   36  C   UNL     1      -4.490   0.101 -32.795  1.00  0.00     0.008 A 
ENDBRANCH  23  31
ENDBRANCH   2  22
TORSDOF 9
ENDMDL
MODEL 2
REMARK VINA RESULT:      -8.9      3.556      6.984
REMARK  9 active torsions:
REMARK  status: ('A' for Active; 'I' for Inactive)
REMARK    1  A    between atoms: O_2  and  C_3 
REMARK    2  A    between atoms: C_4  and  O_5 
REMARK    3  A    between atoms: C_6  and  C_7 
REMARK    4  A    between atoms: N_8  and  N_9 
REMARK       I    between atoms: N_9  and  C_10 
REMARK    5  A    between atoms: C_10  and  C_11 
REMARK    6  A    between atoms: C_11  and  N_12 
REMARK       I    between atoms: N_12  and  C_13 
REMARK    7  A    between atoms: C_13  and  C_14 
REMARK    8  A    between atoms: C_15  and  C_16 
REMARK    9  A    between atoms: C_15  and  C_22 
ROOT
HETATM    1  N   UNL     1      -4.894   2.303 -30.852  1.00  0.00    -0.352 N 
HETATM    2  C   UNL     1      -4.956   0.971 -30.526  1.00  0.00     0.223 C 
HETATM    3  O   UNL     1      -5.660   0.537 -29.622  1.00  0.00    -0.273 OA
HETATM    4  H   UNL     1      -4.416   2.596 -31.694  1.00  0.00     0.162 HD
ENDROOT
BRANCH   1   5
HETATM    5  C   UNL     1      -5.609   3.302 -30.083  1.00  0.00     0.227 C 
BRANCH   5   6
HETATM    6  C   UNL     1      -7.112   3.308 -30.363  1.00  0.00     0.255 C 
HETATM    7  N   UNL     1      -7.397   3.139 -31.711  1.00  0.00    -0.246 N 
HETATM    8  H   UNL     1      -6.636   3.197 -32.394  1.00  0.00     0.192 HD
HETATM    9  O   UNL     1      -7.934   3.443 -29.459  1.00  0.00    -0.270 OA
BRANCH   7  10
HETATM   10  N   UNL     1      -8.681   2.971 -32.130  1.00  0.00    -0.184 NA
HETATM   11  C   UNL     1      -9.050   3.771 -33.083  1.00  0.00     0.153 C 
BRANCH  11  12
HETATM   12  C   UNL     1     -10.399   3.692 -33.679  1.00  0.00     0.019 A 
HETATM   13  C   UNL     1     -11.518   3.508 -32.865  1.00  0.00     0.110 A 
HETATM   14  C   UNL     1     -12.808   3.454 -33.416  1.00  0.00     0.102 A 
HETATM   15  C   UNL     1     -12.968   3.583 -34.797  1.00  0.00     0.040 A 
HETATM   16  C   UNL     1     -11.849   3.765 -35.616  1.00  0.00     0.004 A 
HETATM   17  C   UNL     1     -10.568   3.821 -35.061  1.00  0.00     0.016 A 
BRANCH  13  18
HETATM   18  O   UNL     1     -11.378   3.387 -31.505  1.00  0.00    -0.357 OA
HETATM   19  H   UNL     1     -10.525   3.816 -31.296  1.00  0.00     0.218 HD
ENDBRANCH  13  18
BRANCH  14  20
HETATM   20  O   UNL     1     -13.817   3.279 -32.501  1.00  0.00    -0.353 OA
HETATM   21  C   UNL     1     -14.599   2.097 -32.631  1.00  0.00     0.210 C 
ENDBRANCH  14  20
ENDBRANCH  11  12
ENDBRANCH   7  10
ENDBRANCH   5   6
ENDBRANCH   1   5
BRANCH   2  22
HETATM   22  C   UNL     1      -4.118   0.100 -31.384  1.00  0.00     0.097 A 
HETATM   23  C   UNL     1      -4.650  -0.532 -32.679  1.00  0.00     0.027 A 
HETATM   24  C   UNL     1      -3.599   0.579 -32.706  1.00  0.00     0.035 A 
BRANCH  23  25
HETATM   25  C   UNL     1      -4.210  -1.980 -32.935  1.00  0.00    -0.044 A 
HETATM   26  C   UNL     1      -3.381  -2.654 -32.018  1.00  0.00     0.008 A 
HETATM   27  C   UNL     1      -2.984  -3.977 -32.225  1.00  0.00     0.001 A 
HETATM   28  C   UNL     1      -3.408  -4.660 -33.361  1.00  0.00     0.000 A 
HETATM   29  C   UNL     1      -4.232  -4.022 -34.283  1.00  0.00     0.001 A 
HETATM   30  C   UNL     1      -4.632  -2.699 -34.068  1.00  0.00     0.008 A 
ENDBRANCH  23  25
BRANCH  23  31
HETATM   31  C   UNL     1      -6.019  -0.175 -33.267  1.00  0.00    -0.044 A 
HETATM   32  C   UNL     1      -6.117   0.655 -34.401  1.00  0.00     0.008 A 
HETATM   33  C   UNL     1      -7.350   0.968 -34.979  1.00  0.00     0.001 A 
HETATM   34  C   UNL     1      -8.522   0.454 -34.434  1.00  0.00     0.000 A 
HETATM   35  C   UNL     1      -8.457  -0.376 -33.320  1.00  0.00     0.001 A 
HETATM   36  C   UNL     1      -7.220  -0.692 -32.750  1.00  0.00     0.008 A 
ENDBRANCH  23  31
ENDBRANCH   2  22
TORSDOF 9
ENDMDL
MODEL 3
REMARK VINA RESULT:      -8.8      1.539      2.148
REMARK  9 active torsions:
REMARK  status: ('A' for Active; 'I' for Inactive)
REMARK    1  A    between atoms: O_2  and  C_3 
REMARK    2  A    between atoms: C_4  and  O_5 
REMARK    3  A    between atoms: C_6  and  C_7 
REMARK    4  A    between atoms: N_8  and  N_9 
REMARK       I    between atoms: N_9  and  C_10 
REMARK    5  A    between atoms: C_10  and  C_11 
REMARK    6  A    between atoms: C_11  and  N_12 
REMARK       I    between atoms: N_12  and  C_13 
REMARK    7  A    between atoms: C_13  and  C_14 
REMARK    8  A    between atoms: C_15  and  C_16 
REMARK    9  A    between atoms: C_15  and  C_22 
ROOT
HETATM    1  N   UNL     1      -6.335   2.309 -34.362  1.00  0.00    -0.352 N 
HETATM    2  C   UNL     1      -7.614   1.851 -34.164  1.00  0.00     0.223 C 
HETATM    3  O   UNL     1      -8.561   2.594 -33.938  1.00  0.00    -0.273 OA
HETATM    4  H   UNL     1      -5.615   1.678 -34.689  1.00  0.00     0.162 HD
ENDROOT
BRANCH   1   5
HETATM    5  C   UNL     1      -6.009   3.716 -34.233  1.00  0.00     0.227 C 
BRANCH   5   6
HETATM    6  C   UNL     1      -5.191   4.027 -32.979  1.00  0.00     0.255 C 
HETATM    7  N   UNL     1      -3.825   3.948 -33.209  1.00  0.00    -0.246 N 
HETATM    8  H   UNL     1      -3.488   3.543 -34.088  1.00  0.00     0.192 HD
HETATM    9  O   UNL     1      -5.732   4.317 -31.914  1.00  0.00    -0.270 OA
BRANCH   7  10
HETATM   10  N   UNL     1      -2.939   4.335 -32.251  1.00  0.00    -0.184 NA
HETATM   11  C   UNL     1      -2.443   5.522 -32.418  1.00  0.00     0.153 C 
BRANCH  11  12
HETATM   12  C   UNL     1      -1.498   6.108 -31.446  1.00  0.00     0.019 A 
HETATM   13  C   UNL     1      -1.904   6.362 -30.135  1.00  0.00     0.110 A 
HETATM   14  C   UNL     1      -1.010   6.898 -29.195  1.00  0.00     0.102 A 
HETATM   15  C   UNL     1       0.301   7.182 -29.583  1.00  0.00     0.040 A 
HETATM   16  C   UNL     1       0.711   6.931 -30.896  1.00  0.00     0.004 A 
HETATM   17  C   UNL     1      -0.183   6.395 -31.826  1.00  0.00     0.016 A 
BRANCH  13  18
HETATM   18  O   UNL     1      -3.187   6.082 -29.737  1.00  0.00    -0.357 OA
HETATM   19  H   UNL     1      -3.756   6.394 -30.469  1.00  0.00     0.218 HD
ENDBRANCH  13  18
BRANCH  14  20
HETATM   20  O   UNL     1      -1.538   7.088 -27.942  1.00  0.00    -0.353 OA
HETATM   21  C   UNL     1      -0.828   6.507 -26.854  1.00  0.00     0.210 C 
ENDBRANCH  14  20
ENDBRANCH  11  12
ENDBRANCH   7  10
ENDBRANCH   5   6
ENDBRANCH   1   5
BRANCH   2  22
HETATM   22  C   UNL     1      -7.751   0.380 -34.279  1.00  0.00     0.097 A 
HETATM   23  C   UNL     1      -7.037  -0.588 -33.324  1.00  0.00     0.027 A 
HETATM   24  C   UNL     1      -8.555  -0.406 -33.287  1.00  0.00     0.035 A 
BRANCH  23  25
HETATM   25  C   UNL     1      -6.453  -1.849 -33.978  1.00  0.00    -0.044 A 
HETATM   26  C   UNL     1      -7.285  -2.928 -34.330  1.00  0.00     0.008 A 
HETATM   27  C   UNL     1      -6.775  -4.076 -34.942  1.00  0.00     0.001 A 
HETATM   28  C   UNL     1      -5.414  -4.172 -35.214  1.00  0.00     0.000 A 
HETATM   29  C   UNL     1      -4.567  -3.119 -34.881  1.00  0.00     0.001 A 
HETATM   30  C   UNL     1      -5.084  -1.969 -34.275  1.00  0.00     0.008 A 
ENDBRANCH  23  25
BRANCH  23  31
HETATM   31  C   UNL     1      -6.274  -0.108 -32.084  1.00  0.00    -0.044 A 
HETATM   32  C   UNL     1      -4.898   0.183 -32.159  1.00  0.00     0.008 A 
HETATM   33  C   UNL     1      -4.185   0.655 -31.053  1.00  0.00     0.001 A 
HETATM   34  C   UNL     1      -4.837   0.849 -29.840  1.00  0.00     0.000 A 
HETATM   35  C   UNL     1      -6.198   0.579 -29.737  1.00  0.00     0.001 A 
HETATM   36  C   UNL     1      -6.907   0.114 -30.849  1.00  0.00     0.008 A 
ENDBRANCH  23  31
ENDBRANCH   2  22
TORSDOF 9
ENDMDL
MODEL 4
REMARK VINA RESULT:      -8.7      2.488      4.622
REMARK  9 active torsions:
REMARK  status: ('A' for Active; 'I' for Inactive)
REMARK    1  A    between atoms: O_2  and  C_3 
REMARK    2  A    between atoms: C_4  and  O_5 
REMARK    3  A    between atoms: C_6  and  C_7 
REMARK    4  A    between atoms: N_8  and  N_9 
REMARK       I    between atoms: N_9  and  C_10 
REMARK    5  A    between atoms: C_10  and  C_11 
REMARK    6  A    between atoms: C_11  and  N_12 
REMARK       I    between atoms: N_12  and  C_13 
REMARK    7  A    between atoms: C_13  and  C_14 
REMARK    8  A    between atoms: C_15  and  C_16 
REMARK    9  A    between atoms: C_15  and  C_22 
ROOT
HETATM    1  N   UNL     1      -5.224  -0.310 -33.107  1.00  0.00    -0.352 N 
HETATM    2  C   UNL     1      -6.474  -0.200 -32.550  1.00  0.00     0.223 C 
HETATM    3  O   UNL     1      -6.678  -0.295 -31.345  1.00  0.00    -0.273 OA
HETATM    4  H   UNL     1      -5.083  -0.081 -34.082  1.00  0.00     0.162 HD
ENDROOT
BRANCH   1   5
HETATM    5  C   UNL     1      -4.063  -0.630 -32.300  1.00  0.00     0.227 C 
BRANCH   5   6
HETATM    6  C   UNL     1      -3.317   0.611 -31.811  1.00  0.00     0.255 C 
HETATM    7  N   UNL     1      -3.671   1.752 -32.517  1.00  0.00    -0.246 N 
HETATM    8  H   UNL     1      -4.232   1.658 -33.369  1.00  0.00     0.192 HD
HETATM    9  O   UNL     1      -2.509   0.553 -30.885  1.00  0.00    -0.270 OA
BRANCH   7  10
HETATM   10  N   UNL     1      -3.221   2.976 -32.126  1.00  0.00    -0.184 NA
HETATM   11  C   UNL     1      -2.641   3.664 -33.060  1.00  0.00     0.153 C 
BRANCH  11  12
HETATM   12  C   UNL     1      -2.132   5.029 -32.811  1.00  0.00     0.019 A 
HETATM   13  C   UNL     1      -1.356   5.295 -31.682  1.00  0.00     0.110 A 
HETATM   14  C   UNL     1      -0.847   6.581 -31.445  1.00  0.00     0.102 A 
HETATM   15  C   UNL     1      -1.126   7.605 -32.352  1.00  0.00     0.040 A 
HETATM   16  C   UNL     1      -1.905   7.342 -33.484  1.00  0.00     0.004 A 
HETATM   17  C   UNL     1      -2.406   6.059 -33.715  1.00  0.00     0.016 A 
BRANCH  13  18
HETATM   18  O   UNL     1      -1.068   4.298 -30.784  1.00  0.00    -0.357 OA
HETATM   19  H   UNL     1      -0.360   4.662 -30.215  1.00  0.00     0.218 HD
ENDBRANCH  13  18
BRANCH  14  20
HETATM   20  O   UNL     1      -0.093   6.700 -30.303  1.00  0.00    -0.353 OA
HETATM   21  C   UNL     1      -0.610   7.546 -29.282  1.00  0.00     0.210 C 
ENDBRANCH  14  20
ENDBRANCH  11  12
ENDBRANCH   7  10
ENDBRANCH   5   6
ENDBRANCH   1   5
BRANCH   2  22
HETATM   22  C   UNL     1      -7.550   0.074 -33.531  1.00  0.00     0.097 A 
HETATM   23  C   UNL     1      -8.056   1.496 -33.818  1.00  0.00     0.027 A 
HETATM   24  C   UNL     1      -7.251   0.710 -34.855  1.00  0.00     0.035 A 
BRANCH  23  25
HETATM   25  C   UNL     1      -9.574   1.632 -34.000  1.00  0.00    -0.044 A 
HETATM   26  C   UNL     1     -10.452   0.669 -33.468  1.00  0.00     0.008 A 
HETATM   27  C   UNL     1     -11.837   0.784 -33.607  1.00  0.00     0.001 A 
HETATM   28  C   UNL     1     -12.379   1.871 -34.287  1.00  0.00     0.000 A 
HETATM   29  C   UNL     1     -11.536   2.842 -34.821  1.00  0.00     0.001 A 
HETATM   30  C   UNL     1     -10.150   2.724 -34.672  1.00  0.00     0.008 A 
ENDBRANCH  23  25
BRANCH  23  31
HETATM   31  C   UNL     1      -7.374   2.744 -33.246  1.00  0.00    -0.044 A 
HETATM   32  C   UNL     1      -6.574   3.562 -34.066  1.00  0.00     0.008 A 
HETATM   33  C   UNL     1      -5.969   4.724 -33.579  1.00  0.00     0.001 A 
HETATM   34  C   UNL     1      -6.154   5.098 -32.253  1.00  0.00     0.000 A 
HETATM   35  C   UNL     1      -6.946   4.315 -31.420  1.00  0.00     0.001 A 
HETATM   36  C   UNL     1      -7.554   3.157 -31.914  1.00  0.00     0.008 A 
ENDBRANCH  23  31
ENDBRANCH   2  22
TORSDOF 9
ENDMDL
MODEL 5
REMARK VINA RESULT:      -8.7      2.817      9.432
REMARK  9 active torsions:
REMARK  status: ('A' for Active; 'I' for Inactive)
REMARK    1  A    between atoms: O_2  and  C_3 
REMARK    2  A    between atoms: C_4  and  O_5 
REMARK    3  A    between atoms: C_6  and  C_7 
REMARK    4  A    between atoms: N_8  and  N_9 
REMARK       I    between atoms: N_9  and  C_10 
REMARK    5  A    between atoms: C_10  and  C_11 
REMARK    6  A    between atoms: C_11  and  N_12 
REMARK       I    between atoms: N_12  and  C_13 
REMARK    7  A    between atoms: C_13  and  C_14 
REMARK    8  A    between atoms: C_15  and  C_16 
REMARK    9  A    between atoms: C_15  and  C_22 
ROOT
HETATM    1  N   UNL     1      -4.573   5.668 -29.104  1.00  0.00    -0.352 N 
HETATM    2  C   UNL     1      -4.488   6.981 -29.496  1.00  0.00     0.223 C 
HETATM    3  O   UNL     1      -5.307   7.511 -30.238  1.00  0.00    -0.273 OA
HETATM    4  H   UNL     1      -3.962   5.315 -28.379  1.00  0.00     0.162 HD
ENDROOT
BRANCH   1   5
HETATM    5  C   UNL     1      -5.609   4.794 -29.616  1.00  0.00     0.227 C 
BRANCH   5   6
HETATM    6  C   UNL     1      -5.130   3.913 -30.771  1.00  0.00     0.255 C 
HETATM    7  N   UNL     1      -5.239   2.560 -30.481  1.00  0.00    -0.246 N 
HETATM    8  H   UNL     1      -5.449   2.270 -29.522  1.00  0.00     0.192 HD
HETATM    9  O   UNL     1      -4.711   4.399 -31.820  1.00  0.00    -0.270 OA
BRANCH   7  10
HETATM   10  N   UNL     1      -5.000   1.626 -31.442  1.00  0.00    -0.184 NA
HETATM   11  C   UNL     1      -5.990   0.821 -31.675  1.00  0.00     0.153 C 
BRANCH  11  12
HETATM   12  C   UNL     1      -5.907  -0.225 -32.715  1.00  0.00     0.019 A 
HETATM   13  C   UNL     1      -4.873  -1.162 -32.690  1.00  0.00     0.110 A 
HETATM   14  C   UNL     1      -4.795  -2.175 -33.659  1.00  0.00     0.102 A 
HETATM   15  C   UNL     1      -5.765  -2.238 -34.661  1.00  0.00     0.040 A 
HETATM   16  C   UNL     1      -6.801  -1.299 -34.691  1.00  0.00     0.004 A 
HETATM   17  C   UNL     1      -6.874  -0.296 -33.722  1.00  0.00     0.016 A 
BRANCH  13  18
HETATM   18  O   UNL     1      -3.916  -1.117 -31.707  1.00  0.00    -0.357 OA
HETATM   19  H   UNL     1      -3.075  -1.332 -32.159  1.00  0.00     0.218 HD
ENDBRANCH  13  18
BRANCH  14  20
HETATM   20  O   UNL     1      -3.734  -3.033 -33.509  1.00  0.00    -0.353 OA
HETATM   21  C   UNL     1      -3.940  -4.380 -33.921  1.00  0.00     0.210 C 
ENDBRANCH  14  20
ENDBRANCH  11  12
ENDBRANCH   7  10
ENDBRANCH   5   6
ENDBRANCH   1   5
BRANCH   2  22
HETATM   22  C   UNL     1      -3.334   7.709 -28.918  1.00  0.00     0.097 A 
HETATM   23  C   UNL     1      -1.932   7.653 -29.542  1.00  0.00     0.027 A 
HETATM   24  C   UNL     1      -2.772   8.930 -29.582  1.00  0.00     0.035 A 
BRANCH  23  25
HETATM   25  C   UNL     1      -0.769   7.557 -28.544  1.00  0.00    -0.044 A 
HETATM   26  C   UNL     1       0.397   8.324 -28.723  1.00  0.00     0.008 A 
HETATM   27  C   UNL     1       1.459   8.264 -27.816  1.00  0.00     0.001 A 
HETATM   28  C   UNL     1       1.378   7.430 -26.706  1.00  0.00     0.000 A 
HETATM   29  C   UNL     1       0.235   6.662 -26.500  1.00  0.00     0.001 A 
HETATM   30  C   UNL     1      -0.827   6.732 -27.407  1.00  0.00     0.008 A 
ENDBRANCH  23  25
BRANCH  23  31
HETATM   31  C   UNL     1      -1.659   6.987 -30.895  1.00  0.00    -0.044 A 
HETATM   32  C   UNL     1      -1.586   7.758 -32.071  1.00  0.00     0.008 A 
HETATM   33  C   UNL     1      -1.304   7.182 -33.312  1.00  0.00     0.001 A 
HETATM   34  C   UNL     1      -1.086   5.812 -33.407  1.00  0.00     0.000 A 
HETATM   35  C   UNL     1      -1.142   5.024 -32.262  1.00  0.00     0.001 A 
HETATM   36  C   UNL     1      -1.417   5.607 -31.022  1.00  0.00     0.008 A 
ENDBRANCH  23  31
ENDBRANCH   2  22
TORSDOF 9
ENDMDL
MODEL 6
REMARK VINA RESULT:      -8.5      2.540      9.553
REMARK  9 active torsions:
REMARK  status: ('A' for Active; 'I' for Inactive)
REMARK    1  A    between atoms: O_2  and  C_3 
REMARK    2  A    between atoms: C_4  and  O_5 
REMARK    3  A    between atoms: C_6  and  C_7 
REMARK    4  A    between atoms: N_8  and  N_9 
REMARK       I    between atoms: N_9  and  C_10 
REMARK    5  A    between atoms: C_10  and  C_11 
REMARK    6  A    between atoms: C_11  and  N_12 
REMARK       I    between atoms: N_12  and  C_13 
REMARK    7  A    between atoms: C_13  and  C_14 
REMARK    8  A    between atoms: C_15  and  C_16 
REMARK    9  A    between atoms: C_15  and  C_22 
ROOT
HETATM    1  N   UNL     1      -4.446   5.259 -29.758  1.00  0.00    -0.352 N 
HETATM    2  C   UNL     1      -4.558   6.621 -29.894  1.00  0.00     0.223 C 
HETATM    3  O   UNL     1      -5.464   7.157 -30.521  1.00  0.00    -0.273 OA
HETATM    4  H   UNL     1      -3.770   4.869 -29.114  1.00  0.00     0.162 HD
ENDROOT
BRANCH   1   5
HETATM    5  C   UNL     1      -5.362   4.356 -30.425  1.00  0.00     0.227 C 
BRANCH   5   6
HETATM    6  C   UNL     1      -4.660   3.158 -31.063  1.00  0.00     0.255 C 
HETATM    7  N   UNL     1      -5.558   2.239 -31.587  1.00  0.00    -0.246 N 
HETATM    8  H   UNL     1      -6.554   2.333 -31.368  1.00  0.00     0.192 HD
HETATM    9  O   UNL     1      -3.434   3.071 -31.091  1.00  0.00    -0.270 OA
BRANCH   7  10
HETATM   10  N   UNL     1      -5.116   1.182 -32.323  1.00  0.00    -0.184 NA
HETATM   11  C   UNL     1      -5.087   0.052 -31.687  1.00  0.00     0.153 C 
BRANCH  11  12
HETATM   12  C   UNL     1      -4.671  -1.199 -32.353  1.00  0.00     0.019 A 
HETATM   13  C   UNL     1      -5.318  -1.627 -33.513  1.00  0.00     0.110 A 
HETATM   14  C   UNL     1      -4.919  -2.802 -34.170  1.00  0.00     0.102 A 
HETATM   15  C   UNL     1      -3.862  -3.550 -33.649  1.00  0.00     0.040 A 
HETATM   16  C   UNL     1      -3.212  -3.126 -32.485  1.00  0.00     0.004 A 
HETATM   17  C   UNL     1      -3.613  -1.954 -31.839  1.00  0.00     0.016 A 
BRANCH  13  18
HETATM   18  O   UNL     1      -6.355  -0.899 -34.042  1.00  0.00    -0.357 OA
HETATM   19  H   UNL     1      -5.967  -0.408 -34.793  1.00  0.00     0.218 HD
ENDBRANCH  13  18
BRANCH  14  20
HETATM   20  O   UNL     1      -5.635  -3.100 -35.303  1.00  0.00    -0.353 OA
HETATM   21  C   UNL     1      -6.341  -4.335 -35.306  1.00  0.00     0.210 C 
ENDBRANCH  14  20
ENDBRANCH  11  12
ENDBRANCH   7  10
ENDBRANCH   5   6
ENDBRANCH   1   5
BRANCH   2  22
HETATM   22  C   UNL     1      -3.502   7.386 -29.190  1.00  0.00     0.097 A 
HETATM   23  C   UNL     1      -2.088   7.555 -29.766  1.00  0.00     0.027 A 
HETATM   24  C   UNL     1      -3.060   8.732 -29.678  1.00  0.00     0.035 A 
BRANCH  23  25
HETATM   25  C   UNL     1      -0.944   7.455 -28.747  1.00  0.00    -0.044 A 
HETATM   26  C   UNL     1      -1.038   6.590 -27.641  1.00  0.00     0.008 A 
HETATM   27  C   UNL     1      -0.001   6.472 -26.713  1.00  0.00     0.001 A 
HETATM   28  C   UNL     1       1.160   7.223 -26.870  1.00  0.00     0.000 A 
HETATM   29  C   UNL     1       1.284   8.084 -27.956  1.00  0.00     0.001 A 
HETATM   30  C   UNL     1       0.245   8.193 -28.886  1.00  0.00     0.008 A 
ENDBRANCH  23  25
BRANCH  23  31
HETATM   31  C   UNL     1      -1.716   7.097 -31.180  1.00  0.00    -0.044 A 
HETATM   32  C   UNL     1      -1.181   5.812 -31.400  1.00  0.00     0.008 A 
HETATM   33  C   UNL     1      -0.865   5.357 -32.682  1.00  0.00     0.001 A 
HETATM   34  C   UNL     1      -1.080   6.180 -33.783  1.00  0.00     0.000 A 
HETATM   35  C   UNL     1      -1.615   7.451 -33.599  1.00  0.00     0.001 A 
HETATM   36  C   UNL     1      -1.936   7.899 -32.314  1.00  0.00     0.008 A 
ENDBRANCH  23  31
ENDBRANCH   2  22
TORSDOF 9
ENDMDL
MODEL 7
REMARK VINA RESULT:      -8.3      2.353      8.818
REMARK  9 active torsions:
REMARK  status: ('A' for Active; 'I' for Inactive)
REMARK    1  A    between atoms: O_2  and  C_3 
REMARK    2  A    between atoms: C_4  and  O_5 
REMARK    3  A    between atoms: C_6  and  C_7 
REMARK    4  A    between atoms: N_8  and  N_9 
REMARK       I    between atoms: N_9  and  C_10 
REMARK    5  A    between atoms: C_10  and  C_11 
REMARK    6  A    between atoms: C_11  and  N_12 
REMARK       I    between atoms: N_12  and  C_13 
REMARK    7  A    between atoms: C_13  and  C_14 
REMARK    8  A    between atoms: C_15  and  C_16 
REMARK    9  A    between atoms: C_15  and  C_22 
ROOT
HETATM    1  N   UNL     1      -5.452   7.112 -31.654  1.00  0.00    -0.352 N 
HETATM    2  C   UNL     1      -4.865   6.520 -30.564  1.00  0.00     0.223 C 
HETATM    3  O   UNL     1      -5.224   5.436 -30.119  1.00  0.00    -0.273 OA
HETATM    4  H   UNL     1      -5.032   7.931 -32.074  1.00  0.00     0.162 HD
ENDROOT
BRANCH   1   5
HETATM    5  C   UNL     1      -6.603   6.520 -32.306  1.00  0.00     0.227 C 
BRANCH   5   6
HETATM    6  C   UNL     1      -6.237   5.340 -33.208  1.00  0.00     0.255 C 
HETATM    7  N   UNL     1      -6.723   4.135 -32.722  1.00  0.00    -0.246 N 
HETATM    8  H   UNL     1      -7.109   4.097 -31.774  1.00  0.00     0.192 HD
HETATM    9  O   UNL     1      -5.590   5.498 -34.242  1.00  0.00    -0.270 OA
BRANCH   7  10
HETATM   10  N   UNL     1      -6.623   2.999 -33.465  1.00  0.00    -0.184 NA
HETATM   11  C   UNL     1      -6.282   1.941 -32.795  1.00  0.00     0.153 C 
BRANCH  11  12
HETATM   12  C   UNL     1      -6.169   0.619 -33.445  1.00  0.00     0.019 A 
HETATM   13  C   UNL     1      -5.178  -0.279 -33.043  1.00  0.00     0.110 A 
HETATM   14  C   UNL     1      -5.073  -1.548 -33.636  1.00  0.00     0.102 A 
HETATM   15  C   UNL     1      -5.970  -1.908 -34.642  1.00  0.00     0.040 A 
HETATM   16  C   UNL     1      -6.963  -1.010 -35.049  1.00  0.00     0.004 A 
HETATM   17  C   UNL     1      -7.064   0.249 -34.453  1.00  0.00     0.016 A 
BRANCH  13  18
HETATM   18  O   UNL     1      -4.292   0.059 -32.051  1.00  0.00    -0.357 OA
HETATM   19  H   UNL     1      -3.655  -0.683 -32.013  1.00  0.00     0.218 HD
ENDBRANCH  13  18
BRANCH  14  20
HETATM   20  O   UNL     1      -4.061  -2.332 -33.139  1.00  0.00    -0.353 OA
HETATM   21  C   UNL     1      -3.900  -3.616 -33.731  1.00  0.00     0.210 C 
ENDBRANCH  14  20
ENDBRANCH  11  12
ENDBRANCH   7  10
ENDBRANCH   5   6
ENDBRANCH   1   5
BRANCH   2  22
HETATM   22  C   UNL     1      -3.738   7.294 -29.992  1.00  0.00     0.097 A 
HETATM   23  C   UNL     1      -2.330   7.269 -30.606  1.00  0.00     0.027 A 
HETATM   24  C   UNL     1      -3.209   8.519 -30.676  1.00  0.00     0.035 A 
BRANCH  23  25
HETATM   25  C   UNL     1      -1.172   7.228 -29.600  1.00  0.00    -0.044 A 
HETATM   26  C   UNL     1      -0.424   6.051 -29.411  1.00  0.00     0.008 A 
HETATM   27  C   UNL     1       0.646   5.999 -28.513  1.00  0.00     0.001 A 
HETATM   28  C   UNL     1       0.991   7.128 -27.778  1.00  0.00     0.000 A 
HETATM   29  C   UNL     1       0.272   8.309 -27.946  1.00  0.00     0.001 A 
HETATM   30  C   UNL     1      -0.793   8.357 -28.851  1.00  0.00     0.008 A 
ENDBRANCH  23  25
BRANCH  23  31
HETATM   31  C   UNL     1      -2.028   6.587 -31.945  1.00  0.00    -0.044 A 
HETATM   32  C   UNL     1      -1.435   7.309 -32.999  1.00  0.00     0.008 A 
HETATM   33  C   UNL     1      -1.118   6.704 -34.217  1.00  0.00     0.001 A 
HETATM   34  C   UNL     1      -1.384   5.353 -34.411  1.00  0.00     0.000 A 
HETATM   35  C   UNL     1      -1.961   4.610 -33.385  1.00  0.00     0.001 A 
HETATM   36  C   UNL     1      -2.270   5.220 -32.166  1.00  0.00     0.008 A 
ENDBRANCH  23  31
ENDBRANCH   2  22
TORSDOF 9
ENDMDL
MODEL 8
REMARK VINA RESULT:      -8.1      2.266      3.685
REMARK  9 active torsions:
REMARK  status: ('A' for Active; 'I' for Inactive)
REMARK    1  A    between atoms: O_2  and  C_3 
REMARK    2  A    between atoms: C_4  and  O_5 
REMARK    3  A    between atoms: C_6  and  C_7 
REMARK    4  A    between atoms: N_8  and  N_9 
REMARK       I    between atoms: N_9  and  C_10 
REMARK    5  A    between atoms: C_10  and  C_11 
REMARK    6  A    between atoms: C_11  and  N_12 
REMARK       I    between atoms: N_12  and  C_13 
REMARK    7  A    between atoms: C_13  and  C_14 
REMARK    8  A    between atoms: C_15  and  C_16 
REMARK    9  A    between atoms: C_15  and  C_22 
ROOT
HETATM    1  N   UNL     1      -6.878   4.079 -32.645  1.00  0.00    -0.352 N 
HETATM    2  C   UNL     1      -6.699   2.805 -32.167  1.00  0.00     0.223 C 
HETATM    3  O   UNL     1      -7.025   2.465 -31.035  1.00  0.00    -0.273 OA
HETATM    4  H   UNL     1      -6.731   4.277 -33.626  1.00  0.00     0.162 HD
ENDROOT
BRANCH   1   5
HETATM    5  C   UNL     1      -7.399   5.136 -31.801  1.00  0.00     0.227 C 
BRANCH   5   6
HETATM    6  C   UNL     1      -6.318   5.809 -30.954  1.00  0.00     0.255 C 
HETATM    7  N   UNL     1      -5.082   5.814 -31.585  1.00  0.00    -0.246 N 
HETATM    8  H   UNL     1      -4.950   5.251 -32.430  1.00  0.00     0.192 HD
HETATM    9  O   UNL     1      -6.570   6.285 -29.849  1.00  0.00    -0.270 OA
BRANCH   7  10
HETATM   10  N   UNL     1      -4.035   6.499 -31.049  1.00  0.00    -0.184 NA
HETATM   11  C   UNL     1      -2.938   5.814 -30.938  1.00  0.00     0.153 C 
BRANCH  11  12
HETATM   12  C   UNL     1      -1.698   6.422 -30.414  1.00  0.00     0.019 A 
HETATM   13  C   UNL     1      -1.648   6.899 -29.103  1.00  0.00     0.110 A 
HETATM   14  C   UNL     1      -0.469   7.457 -28.584  1.00  0.00     0.102 A 
HETATM   15  C   UNL     1       0.664   7.538 -29.395  1.00  0.00     0.040 A 
HETATM   16  C   UNL     1       0.617   7.063 -30.710  1.00  0.00     0.004 A 
HETATM   17  C   UNL     1      -0.558   6.506 -31.219  1.00  0.00     0.016 A 
BRANCH  13  18
HETATM   18  O   UNL     1      -2.752   6.821 -28.291  1.00  0.00    -0.357 OA
HETATM   19  H   UNL     1      -3.485   6.552 -28.879  1.00  0.00     0.218 HD
ENDBRANCH  13  18
BRANCH  14  20
HETATM   20  O   UNL     1      -0.557   7.877 -27.279  1.00  0.00    -0.353 OA
HETATM   21  C   UNL     1       0.304   7.238 -26.344  1.00  0.00     0.210 C 
ENDBRANCH  14  20
ENDBRANCH  11  12
ENDBRANCH   7  10
ENDBRANCH   5   6
ENDBRANCH   1   5
BRANCH   2  22
HETATM   22  C   UNL     1      -6.104   1.870 -33.151  1.00  0.00     0.097 A 
HETATM   23  C   UNL     1      -6.933   0.790 -33.861  1.00  0.00     0.027 A 
HETATM   24  C   UNL     1      -6.385   2.001 -34.617  1.00  0.00     0.035 A 
BRANCH  23  25
HETATM   25  C   UNL     1      -6.240  -0.570 -34.030  1.00  0.00    -0.044 A 
HETATM   26  C   UNL     1      -6.792  -1.560 -34.863  1.00  0.00     0.008 A 
HETATM   27  C   UNL     1      -6.167  -2.797 -35.044  1.00  0.00     0.001 A 
HETATM   28  C   UNL     1      -4.970  -3.072 -34.389  1.00  0.00     0.000 A 
HETATM   29  C   UNL     1      -4.398  -2.111 -33.562  1.00  0.00     0.001 A 
HETATM   30  C   UNL     1      -5.024  -0.872 -33.390  1.00  0.00     0.008 A 
ENDBRANCH  23  25
BRANCH  23  31
HETATM   31  C   UNL     1      -8.459   0.709 -33.739  1.00  0.00    -0.044 A 
HETATM   32  C   UNL     1      -9.059  -0.199 -32.844  1.00  0.00     0.008 A 
HETATM   33  C   UNL     1     -10.446  -0.268 -32.688  1.00  0.00     0.001 A 
HETATM   34  C   UNL     1     -11.270   0.575 -33.424  1.00  0.00     0.000 A 
HETATM   35  C   UNL     1     -10.707   1.489 -34.309  1.00  0.00     0.001 A 
HETATM   36  C   UNL     1      -9.318   1.560 -34.457  1.00  0.00     0.008 A 
ENDBRANCH  23  31
ENDBRANCH   2  22
TORSDOF 9
ENDMDL
MODEL 9
REMARK VINA RESULT:      -8.0      3.921      6.844
REMARK  9 active torsions:
REMARK  status: ('A' for Active; 'I' for Inactive)
REMARK    1  A    between atoms: O_2  and  C_3 
REMARK    2  A    between atoms: C_4  and  O_5 
REMARK    3  A    between atoms: C_6  and  C_7 
REMARK    4  A    between atoms: N_8  and  N_9 
REMARK       I    between atoms: N_9  and  C_10 
REMARK    5  A    between atoms: C_10  and  C_11 
REMARK    6  A    between atoms: C_11  and  N_12 
REMARK       I    between atoms: N_12  and  C_13 
REMARK    7  A    between atoms: C_13  and  C_14 
REMARK    8  A    between atoms: C_15  and  C_16 
REMARK    9  A    between atoms: C_15  and  C_22 
ROOT
HETATM    1  N   UNL     1      -6.043   2.087 -31.131  1.00  0.00    -0.352 N 
HETATM    2  C   UNL     1      -6.029   0.725 -30.960  1.00  0.00     0.223 C 
HETATM    3  O   UNL     1      -6.480   0.173 -29.963  1.00  0.00    -0.273 OA
HETATM    4  H   UNL     1      -5.796   2.488 -32.026  1.00  0.00     0.162 HD
ENDROOT
BRANCH   1   5
HETATM    5  C   UNL     1      -6.527   2.973 -30.091  1.00  0.00     0.227 C 
BRANCH   5   6
HETATM    6  C   UNL     1      -7.787   3.739 -30.498  1.00  0.00     0.255 C 
HETATM    7  N   UNL     1      -8.274   3.333 -31.732  1.00  0.00    -0.246 N 
HETATM    8  H   UNL     1      -7.698   2.723 -32.321  1.00  0.00     0.192 HD
HETATM    9  O   UNL     1      -8.279   4.601 -29.772  1.00  0.00    -0.270 OA
BRANCH   7  10
HETATM   10  N   UNL     1      -9.469   3.797 -32.191  1.00  0.00    -0.184 NA
HETATM   11  C   UNL     1      -9.402   4.459 -33.304  1.00  0.00     0.153 C 
BRANCH  11  12
HETATM   12  C   UNL     1     -10.614   4.995 -33.958  1.00  0.00     0.019 A 
HETATM   13  C   UNL     1     -10.606   6.277 -34.510  1.00  0.00     0.110 A 
HETATM   14  C   UNL     1     -11.743   6.791 -35.154  1.00  0.00     0.102 A 
HETATM   15  C   UNL     1     -12.895   6.006 -35.237  1.00  0.00     0.040 A 
HETATM   16  C   UNL     1     -12.907   4.722 -34.682  1.00  0.00     0.004 A 
HETATM   17  C   UNL     1     -11.771   4.216 -34.046  1.00  0.00     0.016 A 
BRANCH  13  18
HETATM   18  O   UNL     1      -9.480   7.059 -34.442  1.00  0.00    -0.357 OA
HETATM   19  H   UNL     1      -8.730   6.431 -34.476  1.00  0.00     0.218 HD
ENDBRANCH  13  18
BRANCH  14  20
HETATM   20  O   UNL     1     -11.595   8.059 -35.660  1.00  0.00    -0.353 OA
HETATM   21  C   UNL     1     -12.368   8.383 -36.810  1.00  0.00     0.210 C 
ENDBRANCH  14  20
ENDBRANCH  11  12
ENDBRANCH   7  10
ENDBRANCH   5   6
ENDBRANCH   1   5
BRANCH   2  22
HETATM   22  C   UNL     1      -5.448  -0.020 -32.101  1.00  0.00     0.097 A 
HETATM   23  C   UNL     1      -6.291  -0.464 -33.306  1.00  0.00     0.027 A 
HETATM   24  C   UNL     1      -5.236   0.637 -33.431  1.00  0.00     0.035 A 
BRANCH  23  25
HETATM   25  C   UNL     1      -5.976  -1.863 -33.852  1.00  0.00    -0.044 A 
HETATM   26  C   UNL     1      -6.997  -2.679 -34.372  1.00  0.00     0.008 A 
HETATM   27  C   UNL     1      -6.728  -3.949 -34.890  1.00  0.00     0.001 A 
HETATM   28  C   UNL     1      -5.424  -4.434 -34.898  1.00  0.00     0.000 A 
HETATM   29  C   UNL     1      -4.392  -3.648 -34.393  1.00  0.00     0.001 A 
HETATM   30  C   UNL     1      -4.666  -2.375 -33.882  1.00  0.00     0.008 A 
ENDBRANCH  23  25
BRANCH  23  31
HETATM   31  C   UNL     1      -7.746  -0.023 -33.500  1.00  0.00    -0.044 A 
HETATM   32  C   UNL     1      -8.744  -0.428 -32.592  1.00  0.00     0.008 A 
HETATM   33  C   UNL     1     -10.071  -0.012 -32.725  1.00  0.00     0.001 A 
HETATM   34  C   UNL     1     -10.434   0.825 -33.775  1.00  0.00     0.000 A 
HETATM   35  C   UNL     1      -9.469   1.249 -34.683  1.00  0.00     0.001 A 
HETATM   36  C   UNL     1      -8.141   0.836 -34.540  1.00  0.00     0.008 A 
ENDBRANCH  23  31
ENDBRANCH   2  22
TORSDOF 9
ENDMDL
MODEL 10
REMARK VINA RESULT:      -8.0      2.796      7.814
REMARK  9 active torsions:
REMARK  status: ('A' for Active; 'I' for Inactive)
REMARK    1  A    between atoms: O_2  and  C_3 
REMARK    2  A    between atoms: C_4  and  O_5 
REMARK    3  A    between atoms: C_6  and  C_7 
REMARK    4  A    between atoms: N_8  and  N_9 
REMARK       I    between atoms: N_9  and  C_10 
REMARK    5  A    between atoms: C_10  and  C_11 
REMARK    6  A    between atoms: C_11  and  N_12 
REMARK       I    between atoms: N_12  and  C_13 
REMARK    7  A    between atoms: C_13  and  C_14 
REMARK    8  A    between atoms: C_15  and  C_16 
REMARK    9  A    between atoms: C_15  and  C_22 
ROOT
HETATM    1  N   UNL     1      -8.047   3.916 -33.156  1.00  0.00    -0.352 N 
HETATM    2  C   UNL     1      -6.719   4.021 -33.487  1.00  0.00     0.223 C 
HETATM    3  O   UNL     1      -6.222   3.440 -34.445  1.00  0.00    -0.273 OA
HETATM    4  H   UNL     1      -8.443   4.523 -32.450  1.00  0.00     0.162 HD
ENDROOT
BRANCH   1   5
HETATM    5  C   UNL     1      -8.939   3.034 -33.883  1.00  0.00     0.227 C 
BRANCH   5   6
HETATM    6  C   UNL     1      -8.779   1.565 -33.488  1.00  0.00     0.255 C 
HETATM    7  N   UNL     1      -8.088   0.835 -34.444  1.00  0.00    -0.246 N 
HETATM    8  H   UNL     1      -7.905   1.257 -35.359  1.00  0.00     0.192 HD
HETATM    9  O   UNL     1      -9.223   1.134 -32.426  1.00  0.00    -0.270 OA
BRANCH   7  10
HETATM   10  N   UNL     1      -7.722  -0.453 -34.199  1.00  0.00    -0.184 NA
HETATM   11  C   UNL     1      -6.701  -0.866 -34.885  1.00  0.00     0.153 C 
BRANCH  11  12
HETATM   12  C   UNL     1      -6.152  -2.226 -34.708  1.00  0.00     0.019 A 
HETATM   13  C   UNL     1      -4.893  -2.407 -34.132  1.00  0.00     0.110 A 
HETATM   14  C   UNL     1      -4.368  -3.694 -33.937  1.00  0.00     0.102 A 
HETATM   15  C   UNL     1      -5.117  -4.805 -34.331  1.00  0.00     0.040 A 
HETATM   16  C   UNL     1      -6.378  -4.627 -34.911  1.00  0.00     0.004 A 
HETATM   17  C   UNL     1      -6.895  -3.344 -35.099  1.00  0.00     0.016 A 
BRANCH  13  18
HETATM   18  O   UNL     1      -4.147  -1.326 -33.734  1.00  0.00    -0.357 OA
HETATM   19  H   UNL     1      -4.776  -0.577 -33.707  1.00  0.00     0.218 HD
ENDBRANCH  13  18
BRANCH  14  20
HETATM   20  O   UNL     1      -3.126  -3.727 -33.351  1.00  0.00    -0.353 OA
HETATM   21  C   UNL     1      -3.091  -3.872 -31.936  1.00  0.00     0.210 C 
ENDBRANCH  14  20
ENDBRANCH  11  12
ENDBRANCH   7  10
ENDBRANCH   5   6
ENDBRANCH   1   5
BRANCH   2  22
HETATM   22  C   UNL     1      -5.946   4.923 -32.601  1.00  0.00     0.097 A 
HETATM   23  C   UNL     1      -5.101   4.398 -31.432  1.00  0.00     0.027 A 
HETATM   24  C   UNL     1      -4.451   4.998 -32.680  1.00  0.00     0.035 A 
BRANCH  23  25
HETATM   25  C   UNL     1      -5.159   5.236 -30.147  1.00  0.00    -0.044 A 
HETATM   26  C   UNL     1      -6.110   4.957 -29.148  1.00  0.00     0.008 A 
HETATM   27  C   UNL     1      -6.168   5.697 -27.964  1.00  0.00     0.001 A 
HETATM   28  C   UNL     1      -5.271   6.740 -27.752  1.00  0.00     0.000 A 
HETATM   29  C   UNL     1      -4.316   7.037 -28.721  1.00  0.00     0.001 A 
HETATM   30  C   UNL     1      -4.259   6.289 -29.901  1.00  0.00     0.008 A 
ENDBRANCH  23  25
BRANCH  23  31
HETATM   31  C   UNL     1      -4.854   2.903 -31.200  1.00  0.00    -0.044 A 
HETATM   32  C   UNL     1      -3.569   2.354 -31.375  1.00  0.00     0.008 A 
HETATM   33  C   UNL     1      -3.308   1.002 -31.137  1.00  0.00     0.001 A 
HETATM   34  C   UNL     1      -4.333   0.163 -30.713  1.00  0.00     0.000 A 
HETATM   35  C   UNL     1      -5.612   0.678 -30.523  1.00  0.00     0.001 A 
HETATM   36  C   UNL     1      -5.865   2.033 -30.756  1.00  0.00     0.008 A 
ENDBRANCH  23  31
ENDBRANCH   2  22
TORSDOF 9
ENDMDL
