MODEL 1
REMARK VINA RESULT:      -8.9      0.000      0.000
REMARK  7 active torsions:
REMARK  status: ('A' for Active; 'I' for Inactive)
REMARK    1  A    between atoms: C_7  and  C_8 
REMARK    2  A    between atoms: C_8  and  C_9 
REMARK    3  A    between atoms: C_9  and  C_10 
REMARK    4  A    between atoms: C_10  and  O_11 
REMARK    5  A    between atoms: C_13  and  C_14 
REMARK    6  A    between atoms: C_22  and  C_23 
REMARK       I    between atoms: C_23  and  N_24 
REMARK    7  A    between atoms: N_24  and  C_25 
ROOT
HETATM    1  C   UNL     1      -9.539   1.603 -33.534  1.00  0.00     0.070 C 
HETATM    2  C   UNL     1      -8.474   2.334 -32.752  1.00  0.00     0.037 C 
HETATM    3  N   UNL     1      -8.929   3.343 -31.907  1.00  0.00    -0.192 N 
HETATM    4  C   UNL     1      -8.142   3.953 -31.001  1.00  0.00     0.726 A 
HETATM    5  N   UNL     1      -6.795   3.732 -31.036  1.00  0.00    -0.083 N 
HETATM    6  N   UNL     1      -6.174   4.291 -29.978  1.00  0.00    -0.140 NA
HETATM    7  C   UNL     1      -7.211   4.882 -29.365  1.00  0.00     0.166 A 
HETATM    8  N   UNL     1      -8.432   4.711 -29.978  1.00  0.00    -0.046 NA
HETATM    9  C   UNL     1      -6.134   2.822 -31.981  1.00  0.00     0.204 C 
HETATM   10  C   UNL     1      -7.149   2.033 -32.800  1.00  0.00     0.062 C 
HETATM   11  H   UNL     1      -9.937   3.459 -31.820  1.00  0.00     0.184 HD
ENDROOT
BRANCH  10  12
HETATM   12  C   UNL     1      -6.652   0.945 -33.694  1.00  0.00     0.256 C 
HETATM   13  N   UNL     1      -6.348  -0.231 -33.040  1.00  0.00    -0.323 N 
HETATM   14  H   UNL     1      -6.377  -0.256 -32.031  1.00  0.00     0.169 HD
HETATM   15  O   UNL     1      -6.538   1.155 -34.897  1.00  0.00    -0.267 OA
BRANCH  13  16
HETATM   16  C   UNL     1      -6.012  -1.469 -33.632  1.00  0.00     0.035 A 
HETATM   17  C   UNL     1      -4.702  -1.934 -33.777  1.00  0.00     0.032 A 
HETATM   18  C   UNL     1      -4.450  -3.145 -34.428  1.00  0.00     0.044 A 
HETATM   19  C   UNL     1      -5.509  -3.895 -34.923  1.00  0.00     0.116 A 
HETATM   20  F   UNL     1      -5.265  -5.053 -35.549  1.00  0.00    -0.206 F 
HETATM   21  C   UNL     1      -6.818  -3.455 -34.781  1.00  0.00     0.044 A 
HETATM   22  C   UNL     1      -7.069  -2.239 -34.142  1.00  0.00     0.032 A 
ENDBRANCH  13  16
ENDBRANCH  10  12
BRANCH   9  23
HETATM   23  C   UNL     1      -5.146   3.606 -32.843  1.00  0.00    -0.005 A 
HETATM   24  C   UNL     1      -3.774   3.704 -32.526  1.00  0.00     0.064 A 
HETATM   25 CL   UNL     1      -3.132   2.874 -31.140  1.00  0.00    -0.082 Cl
HETATM   26  C   UNL     1      -2.916   4.465 -33.341  1.00  0.00     0.056 A 
HETATM   27 CL   UNL     1      -1.226   4.638 -33.009  1.00  0.00    -0.083 Cl
HETATM   28  C   UNL     1      -3.410   5.119 -34.472  1.00  0.00     0.026 A 
HETATM   29  C   UNL     1      -4.758   5.020 -34.801  1.00  0.00     0.002 A 
HETATM   30  C   UNL     1      -5.616   4.273 -33.996  1.00  0.00     0.011 A 
ENDBRANCH   9  23
BRANCH   7  31
HETATM   31  C   UNL     1      -7.073   5.570 -28.057  1.00  0.00     0.085 C 
BRANCH  31  32
HETATM   32  C   UNL     1      -5.951   6.610 -28.054  1.00  0.00     0.034 C 
BRANCH  32  33
HETATM   33  C   UNL     1      -4.916   6.373 -26.959  1.00  0.00     0.164 C 
BRANCH  33  34
HETATM   34  O   UNL     1      -4.838   4.982 -26.665  1.00  0.00    -0.401 OA
HETATM   35  H   UNL     1      -3.912   4.709 -26.782  1.00  0.00     0.209 HD
ENDBRANCH  33  34
ENDBRANCH  32  33
ENDBRANCH  31  32
ENDBRANCH   7  31
TORSDOF 7
ENDMDL
MODEL 2
REMARK VINA RESULT:      -8.7      3.068      4.953
REMARK  7 active torsions:
REMARK  status: ('A' for Active; 'I' for Inactive)
REMARK    1  A    between atoms: C_7  and  C_8 
REMARK    2  A    between atoms: C_8  and  C_9 
REMARK    3  A    between atoms: C_9  and  C_10 
REMARK    4  A    between atoms: C_10  and  O_11 
REMARK    5  A    between atoms: C_13  and  C_14 
REMARK    6  A    between atoms: C_22  and  C_23 
REMARK       I    between atoms: C_23  and  N_24 
REMARK    7  A    between atoms: N_24  and  C_25 
ROOT
HETATM    1  C   UNL     1      -2.815   0.090 -30.931  1.00  0.00     0.070 C 
HETATM    2  C   UNL     1      -3.535   1.344 -31.364  1.00  0.00     0.037 C 
HETATM    3  N   UNL     1      -2.898   2.544 -31.059  1.00  0.00    -0.192 N 
HETATM    4  C   UNL     1      -3.301   3.733 -31.543  1.00  0.00     0.726 A 
HETATM    5  N   UNL     1      -4.499   3.814 -32.194  1.00  0.00    -0.083 N 
HETATM    6  N   UNL     1      -4.682   5.031 -32.744  1.00  0.00    -0.140 NA
HETATM    7  C   UNL     1      -3.567   5.658 -32.339  1.00  0.00     0.166 A 
HETATM    8  N   UNL     1      -2.706   4.896 -31.583  1.00  0.00    -0.046 NA
HETATM    9  C   UNL     1      -5.376   2.664 -32.450  1.00  0.00     0.204 C 
HETATM   10  C   UNL     1      -4.708   1.352 -32.051  1.00  0.00     0.062 C 
HETATM   11  H   UNL     1      -1.970   2.486 -30.644  1.00  0.00     0.184 HD
ENDROOT
BRANCH  10  12
HETATM   12  C   UNL     1      -5.394   0.072 -32.393  1.00  0.00     0.256 C 
HETATM   13  N   UNL     1      -4.911  -0.543 -33.531  1.00  0.00    -0.323 N 
HETATM   14  H   UNL     1      -4.227  -0.063 -34.098  1.00  0.00     0.169 HD
HETATM   15  O   UNL     1      -6.309  -0.334 -31.685  1.00  0.00    -0.267 OA
BRANCH  13  16
HETATM   16  C   UNL     1      -5.250  -1.829 -34.009  1.00  0.00     0.035 A 
HETATM   17  C   UNL     1      -4.371  -2.917 -34.009  1.00  0.00     0.032 A 
HETATM   18  C   UNL     1      -4.765  -4.142 -34.554  1.00  0.00     0.044 A 
HETATM   19  C   UNL     1      -6.041  -4.282 -35.087  1.00  0.00     0.116 A 
HETATM   20  F   UNL     1      -6.414  -5.456 -35.611  1.00  0.00    -0.206 F 
HETATM   21  C   UNL     1      -6.930  -3.217 -35.087  1.00  0.00     0.044 A 
HETATM   22  C   UNL     1      -6.532  -1.989 -34.555  1.00  0.00     0.032 A 
ENDBRANCH  13  16
ENDBRANCH  10  12
BRANCH   9  23
HETATM   23  C   UNL     1      -6.724   2.884 -31.767  1.00  0.00    -0.005 A 
HETATM   24  C   UNL     1      -7.953   2.720 -32.443  1.00  0.00     0.064 A 
HETATM   25 CL   UNL     1      -7.980   2.198 -34.100  1.00  0.00    -0.082 Cl
HETATM   26  C   UNL     1      -9.164   2.965 -31.770  1.00  0.00     0.056 A 
HETATM   27 CL   UNL     1     -10.707   2.795 -32.536  1.00  0.00    -0.083 Cl
HETATM   28  C   UNL     1      -9.162   3.363 -30.431  1.00  0.00     0.026 A 
HETATM   29  C   UNL     1      -7.957   3.517 -29.751  1.00  0.00     0.002 A 
HETATM   30  C   UNL     1      -6.753   3.280 -30.411  1.00  0.00     0.011 A 
ENDBRANCH   9  23
BRANCH   7  31
HETATM   31  C   UNL     1      -3.228   7.036 -32.775  1.00  0.00     0.085 C 
BRANCH  31  32
HETATM   32  C   UNL     1      -2.017   7.079 -33.707  1.00  0.00     0.034 C 
BRANCH  32  33
HETATM   33  C   UNL     1      -1.979   5.919 -34.696  1.00  0.00     0.164 C 
BRANCH  33  34
HETATM   34  O   UNL     1      -3.196   5.876 -35.433  1.00  0.00    -0.401 OA
HETATM   35  H   UNL     1      -3.170   6.599 -36.083  1.00  0.00     0.209 HD
ENDBRANCH  33  34
ENDBRANCH  32  33
ENDBRANCH  31  32
ENDBRANCH   7  31
TORSDOF 7
ENDMDL
MODEL 3
REMARK VINA RESULT:      -8.7      3.872      7.355
REMARK  7 active torsions:
REMARK  status: ('A' for Active; 'I' for Inactive)
REMARK    1  A    between atoms: C_7  and  C_8 
REMARK    2  A    between atoms: C_8  and  C_9 
REMARK    3  A    between atoms: C_9  and  C_10 
REMARK    4  A    between atoms: C_10  and  O_11 
REMARK    5  A    between atoms: C_13  and  C_14 
REMARK    6  A    between atoms: C_22  and  C_23 
REMARK       I    between atoms: C_23  and  N_24 
REMARK    7  A    between atoms: N_24  and  C_25 
ROOT
HETATM    1  C   UNL     1      -8.839   5.947 -31.646  1.00  0.00     0.070 C 
HETATM    2  C   UNL     1      -9.080   4.609 -32.301  1.00  0.00     0.037 C 
HETATM    3  N   UNL     1     -10.370   4.098 -32.180  1.00  0.00    -0.192 N 
HETATM    4  C   UNL     1     -10.801   3.024 -32.866  1.00  0.00     0.726 A 
HETATM    5  N   UNL     1      -9.897   2.269 -33.555  1.00  0.00    -0.083 N 
HETATM    6  N   UNL     1     -10.507   1.328 -34.304  1.00  0.00    -0.140 NA
HETATM    7  C   UNL     1     -11.790   1.542 -33.976  1.00  0.00     0.166 A 
HETATM    8  N   UNL     1     -12.005   2.563 -33.079  1.00  0.00    -0.046 NA
HETATM    9  C   UNL     1      -8.463   2.577 -33.643  1.00  0.00     0.204 C 
HETATM   10  C   UNL     1      -8.143   3.928 -33.014  1.00  0.00     0.062 C 
HETATM   11  H   UNL     1     -11.065   4.693 -31.734  1.00  0.00     0.184 HD
ENDROOT
BRANCH  10  12
HETATM   12  C   UNL     1      -6.761   4.472 -33.159  1.00  0.00     0.256 C 
HETATM   13  N   UNL     1      -5.944   4.245 -32.070  1.00  0.00    -0.323 N 
HETATM   14  H   UNL     1      -6.339   3.836 -31.235  1.00  0.00     0.169 HD
HETATM   15  O   UNL     1      -6.450   5.070 -34.184  1.00  0.00    -0.267 OA
BRANCH  13  16
HETATM   16  C   UNL     1      -4.557   4.498 -31.982  1.00  0.00     0.035 A 
HETATM   17  C   UNL     1      -3.990   5.437 -31.115  1.00  0.00     0.032 A 
HETATM   18  C   UNL     1      -2.611   5.669 -31.131  1.00  0.00     0.044 A 
HETATM   19  C   UNL     1      -1.801   4.954 -32.004  1.00  0.00     0.116 A 
HETATM   20  F   UNL     1      -0.482   5.181 -32.018  1.00  0.00    -0.206 F 
HETATM   21  C   UNL     1      -2.344   4.011 -32.865  1.00  0.00     0.044 A 
HETATM   22  C   UNL     1      -3.722   3.788 -32.859  1.00  0.00     0.032 A 
ENDBRANCH  13  16
ENDBRANCH  10  12
BRANCH   9  23
HETATM   23  C   UNL     1      -7.653   1.429 -33.046  1.00  0.00    -0.005 A 
HETATM   24  C   UNL     1      -7.002   0.464 -33.844  1.00  0.00     0.064 A 
HETATM   25 CL   UNL     1      -7.054   0.579 -35.577  1.00  0.00    -0.082 Cl
HETATM   26  C   UNL     1      -6.294  -0.590 -33.237  1.00  0.00     0.056 A 
HETATM   27 CL   UNL     1      -5.479  -1.814 -34.151  1.00  0.00    -0.083 Cl
HETATM   28  C   UNL     1      -6.222  -0.685 -31.845  1.00  0.00     0.026 A 
HETATM   29  C   UNL     1      -6.850   0.267 -31.048  1.00  0.00     0.002 A 
HETATM   30  C   UNL     1      -7.558   1.311 -31.641  1.00  0.00     0.011 A 
ENDBRANCH   9  23
BRANCH   7  31
HETATM   31  C   UNL     1     -12.907   0.809 -34.623  1.00  0.00     0.085 C 
BRANCH  31  32
HETATM   32  C   UNL     1     -14.005   0.414 -33.634  1.00  0.00     0.034 C 
BRANCH  32  33
HETATM   33  C   UNL     1     -15.366   1.007 -33.980  1.00  0.00     0.164 C 
BRANCH  33  34
HETATM   34  O   UNL     1     -15.997   0.211 -34.978  1.00  0.00    -0.401 OA
HETATM   35  H   UNL     1     -16.576   0.795 -35.497  1.00  0.00     0.209 HD
ENDBRANCH  33  34
ENDBRANCH  32  33
ENDBRANCH  31  32
ENDBRANCH   7  31
TORSDOF 7
ENDMDL
MODEL 4
REMARK VINA RESULT:      -8.3      3.763      5.984
REMARK  7 active torsions:
REMARK  status: ('A' for Active; 'I' for Inactive)
REMARK    1  A    between atoms: C_7  and  C_8 
REMARK    2  A    between atoms: C_8  and  C_9 
REMARK    3  A    between atoms: C_9  and  C_10 
REMARK    4  A    between atoms: C_10  and  O_11 
REMARK    5  A    between atoms: C_13  and  C_14 
REMARK    6  A    between atoms: C_22  and  C_23 
REMARK       I    between atoms: C_23  and  N_24 
REMARK    7  A    between atoms: N_24  and  C_25 
ROOT
HETATM    1  C   UNL     1      -6.085  -1.063 -33.094  1.00  0.00     0.070 C 
HETATM    2  C   UNL     1      -5.840   0.416 -32.916  1.00  0.00     0.037 C 
HETATM    3  N   UNL     1      -4.622   0.762 -32.337  1.00  0.00    -0.192 N 
HETATM    4  C   UNL     1      -4.166   2.028 -32.289  1.00  0.00     0.726 A 
HETATM    5  N   UNL     1      -5.004   3.049 -32.630  1.00  0.00    -0.083 N 
HETATM    6  N   UNL     1      -4.353   4.230 -32.674  1.00  0.00    -0.140 NA
HETATM    7  C   UNL     1      -3.123   3.850 -32.295  1.00  0.00     0.166 A 
HETATM    8  N   UNL     1      -2.978   2.507 -32.031  1.00  0.00    -0.046 NA
HETATM    9  C   UNL     1      -6.382   2.861 -33.102  1.00  0.00     0.204 C 
HETATM   10  C   UNL     1      -6.702   1.387 -33.322  1.00  0.00     0.062 C 
HETATM   11  H   UNL     1      -3.964   0.008 -32.152  1.00  0.00     0.184 HD
ENDROOT
BRANCH  10  12
HETATM   12  C   UNL     1      -8.004   1.027 -33.955  1.00  0.00     0.256 C 
HETATM   13  N   UNL     1      -9.092   1.131 -33.112  1.00  0.00    -0.323 N 
HETATM   14  H   UNL     1      -8.940   1.333 -32.134  1.00  0.00     0.169 HD
HETATM   15  O   UNL     1      -8.029   0.665 -35.126  1.00  0.00    -0.267 OA
BRANCH  13  16
HETATM   16  C   UNL     1     -10.455   1.011 -33.466  1.00  0.00     0.035 A 
HETATM   17  C   UNL     1     -11.253  -0.087 -33.133  1.00  0.00     0.032 A 
HETATM   18  C   UNL     1     -12.579  -0.155 -33.572  1.00  0.00     0.044 A 
HETATM   19  C   UNL     1     -13.107   0.880 -34.333  1.00  0.00     0.116 A 
HETATM   20  F   UNL     1     -14.376   0.810 -34.755  1.00  0.00    -0.206 F 
HETATM   21  C   UNL     1     -12.333   1.983 -34.666  1.00  0.00     0.044 A 
HETATM   22  C   UNL     1     -11.006   2.045 -34.239  1.00  0.00     0.032 A 
ENDBRANCH  13  16
ENDBRANCH  10  12
BRANCH   9  23
HETATM   23  C   UNL     1      -7.352   3.550 -32.144  1.00  0.00    -0.005 A 
HETATM   24  C   UNL     1      -8.322   4.477 -32.581  1.00  0.00     0.064 A 
HETATM   25 CL   UNL     1      -8.489   4.840 -34.273  1.00  0.00    -0.082 Cl
HETATM   26  C   UNL     1      -9.169   5.103 -31.648  1.00  0.00     0.056 A 
HETATM   27 CL   UNL     1     -10.374   6.257 -32.110  1.00  0.00    -0.083 Cl
HETATM   28  C   UNL     1      -9.064   4.806 -30.287  1.00  0.00     0.026 A 
HETATM   29  C   UNL     1      -8.120   3.885 -29.845  1.00  0.00     0.002 A 
HETATM   30  C   UNL     1      -7.273   3.264 -30.762  1.00  0.00     0.011 A 
ENDBRANCH   9  23
BRANCH   7  31
HETATM   31  C   UNL     1      -1.974   4.788 -32.276  1.00  0.00     0.085 C 
BRANCH  31  32
HETATM   32  C   UNL     1      -1.505   5.176 -33.679  1.00  0.00     0.034 C 
BRANCH  32  33
HETATM   33  C   UNL     1      -2.151   6.457 -34.195  1.00  0.00     0.164 C 
BRANCH  33  34
HETATM   34  O   UNL     1      -3.287   6.136 -34.991  1.00  0.00    -0.401 OA
HETATM   35  H   UNL     1      -3.209   5.202 -35.250  1.00  0.00     0.209 HD
ENDBRANCH  33  34
ENDBRANCH  32  33
ENDBRANCH  31  32
ENDBRANCH   7  31
TORSDOF 7
ENDMDL
MODEL 5
REMARK VINA RESULT:      -8.2      3.832      6.087
REMARK  7 active torsions:
REMARK  status: ('A' for Active; 'I' for Inactive)
REMARK    1  A    between atoms: C_7  and  C_8 
REMARK    2  A    between atoms: C_8  and  C_9 
REMARK    3  A    between atoms: C_9  and  C_10 
REMARK    4  A    between atoms: C_10  and  O_11 
REMARK    5  A    between atoms: C_13  and  C_14 
REMARK    6  A    between atoms: C_22  and  C_23 
REMARK       I    between atoms: C_23  and  N_24 
REMARK    7  A    between atoms: N_24  and  C_25 
ROOT
HETATM    1  C   UNL     1      -9.084   5.671 -33.876  1.00  0.00     0.070 C 
HETATM    2  C   UNL     1      -7.879   4.813 -33.576  1.00  0.00     0.037 C 
HETATM    3  N   UNL     1      -6.646   5.361 -33.921  1.00  0.00    -0.192 N 
HETATM    4  C   UNL     1      -5.472   4.820 -33.546  1.00  0.00     0.726 A 
HETATM    5  N   UNL     1      -5.464   3.578 -32.980  1.00  0.00    -0.083 N 
HETATM    6  N   UNL     1      -4.238   3.248 -32.527  1.00  0.00    -0.140 NA
HETATM    7  C   UNL     1      -3.535   4.329 -32.901  1.00  0.00     0.166 A 
HETATM    8  N   UNL     1      -4.259   5.305 -33.547  1.00  0.00    -0.046 NA
HETATM    9  C   UNL     1      -6.673   2.791 -32.703  1.00  0.00     0.204 C 
HETATM   10  C   UNL     1      -7.938   3.599 -32.968  1.00  0.00     0.062 C 
HETATM   11  H   UNL     1      -6.642   6.316 -34.272  1.00  0.00     0.184 HD
ENDROOT
BRANCH  10  12
HETATM   12  C   UNL     1      -9.254   3.009 -32.584  1.00  0.00     0.256 C 
HETATM   13  N   UNL     1     -10.176   2.963 -33.609  1.00  0.00    -0.323 N 
HETATM   14  H   UNL     1      -9.956   3.405 -34.490  1.00  0.00     0.169 HD
HETATM   15  O   UNL     1      -9.434   2.628 -31.432  1.00  0.00    -0.267 OA
BRANCH  13  16
HETATM   16  C   UNL     1     -11.436   2.323 -33.590  1.00  0.00     0.035 A 
HETATM   17  C   UNL     1     -12.650   2.996 -33.426  1.00  0.00     0.032 A 
HETATM   18  C   UNL     1     -13.850   2.281 -33.360  1.00  0.00     0.044 A 
HETATM   19  C   UNL     1     -13.835   0.897 -33.470  1.00  0.00     0.116 A 
HETATM   20  F   UNL     1     -14.985   0.215 -33.403  1.00  0.00    -0.206 F 
HETATM   21  C   UNL     1     -12.641   0.211 -33.643  1.00  0.00     0.044 A 
HETATM   22  C   UNL     1     -11.441   0.923 -33.695  1.00  0.00     0.032 A 
ENDBRANCH  13  16
ENDBRANCH  10  12
BRANCH   9  23
HETATM   23  C   UNL     1      -6.623   1.479 -33.484  1.00  0.00    -0.005 A 
HETATM   24  C   UNL     1      -5.968   0.329 -32.994  1.00  0.00     0.064 A 
HETATM   25 CL   UNL     1      -5.222   0.345 -31.424  1.00  0.00    -0.082 Cl
HETATM   26  C   UNL     1      -5.930  -0.843 -33.771  1.00  0.00     0.056 A 
HETATM   27 CL   UNL     1      -5.137  -2.288 -33.240  1.00  0.00    -0.083 Cl
HETATM   28  C   UNL     1      -6.544  -0.881 -35.025  1.00  0.00     0.026 A 
HETATM   29  C   UNL     1      -7.202   0.243 -35.513  1.00  0.00     0.002 A 
HETATM   30  C   UNL     1      -7.241   1.409 -34.752  1.00  0.00     0.011 A 
ENDBRANCH   9  23
BRANCH   7  31
HETATM   31  C   UNL     1      -2.108   4.512 -32.540  1.00  0.00     0.085 C 
BRANCH  31  32
HETATM   32  C   UNL     1      -1.662   5.973 -32.615  1.00  0.00     0.034 C 
BRANCH  32  33
HETATM   33  C   UNL     1      -1.182   6.383 -34.004  1.00  0.00     0.164 C 
BRANCH  33  34
HETATM   34  O   UNL     1      -2.132   7.258 -34.601  1.00  0.00    -0.401 OA
HETATM   35  H   UNL     1      -1.727   8.141 -34.651  1.00  0.00     0.209 HD
ENDBRANCH  33  34
ENDBRANCH  32  33
ENDBRANCH  31  32
ENDBRANCH   7  31
TORSDOF 7
ENDMDL
MODEL 6
REMARK VINA RESULT:      -8.1      2.041      2.422
REMARK  7 active torsions:
REMARK  status: ('A' for Active; 'I' for Inactive)
REMARK    1  A    between atoms: C_7  and  C_8 
REMARK    2  A    between atoms: C_8  and  C_9 
REMARK    3  A    between atoms: C_9  and  C_10 
REMARK    4  A    between atoms: C_10  and  O_11 
REMARK    5  A    between atoms: C_13  and  C_14 
REMARK    6  A    between atoms: C_22  and  C_23 
REMARK       I    between atoms: C_23  and  N_24 
REMARK    7  A    between atoms: N_24  and  C_25 
ROOT
HETATM    1  C   UNL     1     -10.399   0.208 -33.015  1.00  0.00     0.070 C 
HETATM    2  C   UNL     1      -9.794   1.469 -32.446  1.00  0.00     0.037 C 
HETATM    3  N   UNL     1     -10.622   2.588 -32.441  1.00  0.00    -0.192 N 
HETATM    4  C   UNL     1     -10.312   3.728 -31.795  1.00  0.00     0.726 A 
HETATM    5  N   UNL     1      -9.053   3.885 -31.294  1.00  0.00    -0.083 N 
HETATM    6  N   UNL     1      -8.952   5.007 -30.552  1.00  0.00    -0.140 NA
HETATM    7  C   UNL     1     -10.188   5.510 -30.692  1.00  0.00     0.166 A 
HETATM    8  N   UNL     1     -11.043   4.760 -31.466  1.00  0.00    -0.046 NA
HETATM    9  C   UNL     1      -8.003   2.860 -31.367  1.00  0.00     0.204 C 
HETATM   10  C   UNL     1      -8.543   1.546 -31.919  1.00  0.00     0.062 C 
HETATM   11  H   UNL     1     -11.585   2.456 -32.743  1.00  0.00     0.184 HD
ENDROOT
BRANCH  10  12
HETATM   12  C   UNL     1      -7.651   0.349 -31.909  1.00  0.00     0.256 C 
HETATM   13  N   UNL     1      -7.291  -0.100 -33.163  1.00  0.00    -0.323 N 
HETATM   14  H   UNL     1      -7.715   0.320 -33.978  1.00  0.00     0.169 HD
HETATM   15  O   UNL     1      -7.316  -0.148 -30.839  1.00  0.00    -0.267 OA
BRANCH  13  16
HETATM   16  C   UNL     1      -6.342  -1.102 -33.466  1.00  0.00     0.035 A 
HETATM   17  C   UNL     1      -5.023  -1.090 -33.003  1.00  0.00     0.032 A 
HETATM   18  C   UNL     1      -4.128  -2.090 -33.397  1.00  0.00     0.044 A 
HETATM   19  C   UNL     1      -4.557  -3.106 -34.242  1.00  0.00     0.116 A 
HETATM   20  F   UNL     1      -3.697  -4.060 -34.619  1.00  0.00    -0.206 F 
HETATM   21  C   UNL     1      -5.865  -3.140 -34.703  1.00  0.00     0.044 A 
HETATM   22  C   UNL     1      -6.755  -2.135 -34.321  1.00  0.00     0.032 A 
ENDBRANCH  13  16
ENDBRANCH  10  12
BRANCH   9  23
HETATM   23  C   UNL     1      -6.812   3.399 -32.156  1.00  0.00    -0.005 A 
HETATM   24  C   UNL     1      -5.481   3.279 -31.700  1.00  0.00     0.064 A 
HETATM   25 CL   UNL     1      -5.135   2.447 -30.214  1.00  0.00    -0.082 Cl
HETATM   26  C   UNL     1      -4.427   3.822 -32.457  1.00  0.00     0.056 A 
HETATM   27 CL   UNL     1      -2.772   3.722 -31.956  1.00  0.00    -0.083 Cl
HETATM   28  C   UNL     1      -4.685   4.474 -33.665  1.00  0.00     0.026 A 
HETATM   29  C   UNL     1      -5.991   4.589 -34.130  1.00  0.00     0.002 A 
HETATM   30  C   UNL     1      -7.042   4.058 -33.385  1.00  0.00     0.011 A 
ENDBRANCH   9  23
BRANCH   7  31
HETATM   31  C   UNL     1     -10.637   6.725 -29.968  1.00  0.00     0.085 C 
BRANCH  31  32
HETATM   32  C   UNL     1      -9.473   7.619 -29.538  1.00  0.00     0.034 C 
BRANCH  32  33
HETATM   33  C   UNL     1      -9.218   7.590 -28.035  1.00  0.00     0.164 C 
BRANCH  33  34
HETATM   34  O   UNL     1      -8.162   6.680 -27.744  1.00  0.00    -0.401 OA
HETATM   35  H   UNL     1      -7.421   7.195 -27.383  1.00  0.00     0.209 HD
ENDBRANCH  33  34
ENDBRANCH  32  33
ENDBRANCH  31  32
ENDBRANCH   7  31
TORSDOF 7
ENDMDL
MODEL 7
REMARK VINA RESULT:      -7.9      3.788      6.073
REMARK  7 active torsions:
REMARK  status: ('A' for Active; 'I' for Inactive)
REMARK    1  A    between atoms: C_7  and  C_8 
REMARK    2  A    between atoms: C_8  and  C_9 
REMARK    3  A    between atoms: C_9  and  C_10 
REMARK    4  A    between atoms: C_10  and  O_11 
REMARK    5  A    between atoms: C_13  and  C_14 
REMARK    6  A    between atoms: C_22  and  C_23 
REMARK       I    between atoms: C_23  and  N_24 
REMARK    7  A    between atoms: N_24  and  C_25 
ROOT
HETATM    1  C   UNL     1      -6.440   0.090 -31.152  1.00  0.00     0.070 C 
HETATM    2  C   UNL     1      -5.911   1.498 -31.275  1.00  0.00     0.037 C 
HETATM    3  N   UNL     1      -4.533   1.642 -31.131  1.00  0.00    -0.192 N 
HETATM    4  C   UNL     1      -3.882   2.787 -31.406  1.00  0.00     0.726 A 
HETATM    5  N   UNL     1      -4.604   3.922 -31.639  1.00  0.00    -0.083 N 
HETATM    6  N   UNL     1      -3.814   4.936 -32.045  1.00  0.00    -0.140 NA
HETATM    7  C   UNL     1      -2.607   4.351 -31.986  1.00  0.00     0.166 A 
HETATM    8  N   UNL     1      -2.611   3.037 -31.578  1.00  0.00    -0.046 NA
HETATM    9  C   UNL     1      -6.072   3.975 -31.658  1.00  0.00     0.204 C 
HETATM   10  C   UNL     1      -6.683   2.582 -31.553  1.00  0.00     0.062 C 
HETATM   11  H   UNL     1      -3.984   0.790 -31.035  1.00  0.00     0.184 HD
ENDROOT
BRANCH  10  12
HETATM   12  C   UNL     1      -8.159   2.438 -31.720  1.00  0.00     0.256 C 
HETATM   13  N   UNL     1      -8.565   2.236 -33.024  1.00  0.00    -0.323 N 
HETATM   14  H   UNL     1      -7.884   2.300 -33.767  1.00  0.00     0.169 HD
HETATM   15  O   UNL     1      -8.890   2.515 -30.739  1.00  0.00    -0.267 OA
BRANCH  13  16
HETATM   16  C   UNL     1      -9.867   1.911 -33.466  1.00  0.00     0.035 A 
HETATM   17  C   UNL     1     -10.529   0.725 -33.136  1.00  0.00     0.032 A 
HETATM   18  C   UNL     1     -11.794   0.453 -33.664  1.00  0.00     0.044 A 
HETATM   19  C   UNL     1     -12.401   1.372 -34.510  1.00  0.00     0.116 A 
HETATM   20  F   UNL     1     -13.612   1.107 -35.016  1.00  0.00    -0.206 F 
HETATM   21  C   UNL     1     -11.764   2.560 -34.842  1.00  0.00     0.044 A 
HETATM   22  C   UNL     1     -10.495   2.826 -34.326  1.00  0.00     0.032 A 
ENDBRANCH  13  16
ENDBRANCH  10  12
BRANCH   9  23
HETATM   23  C   UNL     1      -6.565   4.931 -30.573  1.00  0.00    -0.005 A 
HETATM   24  C   UNL     1      -7.428   6.013 -30.850  1.00  0.00     0.064 A 
HETATM   25 CL   UNL     1      -8.018   6.274 -32.464  1.00  0.00    -0.082 Cl
HETATM   26  C   UNL     1      -7.826   6.878 -29.814  1.00  0.00     0.056 A 
HETATM   27 CL   UNL     1      -8.874   8.231 -30.081  1.00  0.00    -0.083 Cl
HETATM   28  C   UNL     1      -7.380   6.670 -28.507  1.00  0.00     0.026 A 
HETATM   29  C   UNL     1      -6.538   5.600 -28.220  1.00  0.00     0.002 A 
HETATM   30  C   UNL     1      -6.135   4.741 -29.240  1.00  0.00     0.011 A 
ENDBRANCH   9  23
BRANCH   7  31
HETATM   31  C   UNL     1      -1.371   5.034 -32.440  1.00  0.00     0.085 C 
BRANCH  31  32
HETATM   32  C   UNL     1      -1.620   5.986 -33.612  1.00  0.00     0.034 C 
BRANCH  32  33
HETATM   33  C   UNL     1      -2.088   5.273 -34.875  1.00  0.00     0.164 C 
BRANCH  33  34
HETATM   34  O   UNL     1      -3.397   5.714 -35.219  1.00  0.00    -0.401 OA
HETATM   35  H   UNL     1      -4.009   4.979 -35.046  1.00  0.00     0.209 HD
ENDBRANCH  33  34
ENDBRANCH  32  33
ENDBRANCH  31  32
ENDBRANCH   7  31
TORSDOF 7
ENDMDL
MODEL 8
REMARK VINA RESULT:      -7.9      3.031      4.550
REMARK  7 active torsions:
REMARK  status: ('A' for Active; 'I' for Inactive)
REMARK    1  A    between atoms: C_7  and  C_8 
REMARK    2  A    between atoms: C_8  and  C_9 
REMARK    3  A    between atoms: C_9  and  C_10 
REMARK    4  A    between atoms: C_10  and  O_11 
REMARK    5  A    between atoms: C_13  and  C_14 
REMARK    6  A    between atoms: C_22  and  C_23 
REMARK       I    between atoms: C_23  and  N_24 
REMARK    7  A    between atoms: N_24  and  C_25 
ROOT
HETATM    1  C   UNL     1      -5.205   0.705 -29.403  1.00  0.00     0.070 C 
HETATM    2  C   UNL     1      -5.714   1.928 -30.126  1.00  0.00     0.037 C 
HETATM    3  N   UNL     1      -5.385   3.153 -29.549  1.00  0.00    -0.192 N 
HETATM    4  C   UNL     1      -5.589   4.332 -30.165  1.00  0.00     0.726 A 
HETATM    5  N   UNL     1      -6.331   4.364 -31.310  1.00  0.00    -0.083 N 
HETATM    6  N   UNL     1      -6.312   5.587 -31.878  1.00  0.00    -0.140 NA
HETATM    7  C   UNL     1      -5.572   6.264 -30.986  1.00  0.00     0.166 A 
HETATM    8  N   UNL     1      -5.129   5.528 -29.911  1.00  0.00    -0.046 NA
HETATM    9  C   UNL     1      -6.896   3.174 -31.959  1.00  0.00     0.204 C 
HETATM   10  C   UNL     1      -6.413   1.891 -31.292  1.00  0.00     0.062 C 
HETATM   11  H   UNL     1      -4.769   3.135 -28.740  1.00  0.00     0.184 HD
ENDROOT
BRANCH  10  12
HETATM   12  C   UNL     1      -6.761   0.585 -31.924  1.00  0.00     0.256 C 
HETATM   13  N   UNL     1      -5.887   0.184 -32.915  1.00  0.00    -0.323 N 
HETATM   14  H   UNL     1      -5.158   0.816 -33.214  1.00  0.00     0.169 HD
HETATM   15  O   UNL     1      -7.760  -0.021 -31.553  1.00  0.00    -0.267 OA
BRANCH  13  16
HETATM   16  C   UNL     1      -5.868  -1.065 -33.574  1.00  0.00     0.035 A 
HETATM   17  C   UNL     1      -6.991  -1.653 -34.164  1.00  0.00     0.032 A 
HETATM   18  C   UNL     1      -6.900  -2.920 -34.747  1.00  0.00     0.044 A 
HETATM   19  C   UNL     1      -5.684  -3.593 -34.750  1.00  0.00     0.116 A 
HETATM   20  F   UNL     1      -5.601  -4.807 -35.307  1.00  0.00    -0.206 F 
HETATM   21  C   UNL     1      -4.556  -3.021 -34.179  1.00  0.00     0.044 A 
HETATM   22  C   UNL     1      -4.650  -1.762 -33.585  1.00  0.00     0.032 A 
ENDBRANCH  13  16
ENDBRANCH  10  12
BRANCH   9  23
HETATM   23  C   UNL     1      -8.419   3.289 -32.007  1.00  0.00    -0.005 A 
HETATM   24  C   UNL     1      -9.175   2.892 -33.130  1.00  0.00     0.064 A 
HETATM   25 CL   UNL     1      -8.390   2.190 -34.513  1.00  0.00    -0.082 Cl
HETATM   26  C   UNL     1     -10.574   3.050 -33.128  1.00  0.00     0.056 A 
HETATM   27 CL   UNL     1     -11.565   2.594 -34.473  1.00  0.00    -0.083 Cl
HETATM   28  C   UNL     1     -11.223   3.590 -32.016  1.00  0.00     0.026 A 
HETATM   29  C   UNL     1     -10.490   3.975 -30.899  1.00  0.00     0.002 A 
HETATM   30  C   UNL     1      -9.104   3.827 -30.894  1.00  0.00     0.011 A 
ENDBRANCH   9  23
BRANCH   7  31
HETATM   31  C   UNL     1      -5.163   7.674 -31.202  1.00  0.00     0.085 C 
BRANCH  31  32
HETATM   32  C   UNL     1      -3.687   7.916 -30.879  1.00  0.00     0.034 C 
BRANCH  32  33
HETATM   33  C   UNL     1      -2.755   7.561 -32.033  1.00  0.00     0.164 C 
BRANCH  33  34
HETATM   34  O   UNL     1      -2.011   8.712 -32.420  1.00  0.00    -0.401 OA
HETATM   35  H   UNL     1      -1.124   8.412 -32.683  1.00  0.00     0.209 HD
ENDBRANCH  33  34
ENDBRANCH  32  33
ENDBRANCH  31  32
ENDBRANCH   7  31
TORSDOF 7
ENDMDL
MODEL 9
REMARK VINA RESULT:      -7.8      3.460      5.498
REMARK  7 active torsions:
REMARK  status: ('A' for Active; 'I' for Inactive)
REMARK    1  A    between atoms: C_7  and  C_8 
REMARK    2  A    between atoms: C_8  and  C_9 
REMARK    3  A    between atoms: C_9  and  C_10 
REMARK    4  A    between atoms: C_10  and  O_11 
REMARK    5  A    between atoms: C_13  and  C_14 
REMARK    6  A    between atoms: C_22  and  C_23 
REMARK       I    between atoms: C_23  and  N_24 
REMARK    7  A    between atoms: N_24  and  C_25 
ROOT
HETATM    1  C   UNL     1      -4.491   0.108 -32.479  1.00  0.00     0.070 C 
HETATM    2  C   UNL     1      -4.430   1.601 -32.271  1.00  0.00     0.037 C 
HETATM    3  N   UNL     1      -3.276   2.080 -31.655  1.00  0.00    -0.192 N 
HETATM    4  C   UNL     1      -2.976   3.390 -31.575  1.00  0.00     0.726 A 
HETATM    5  N   UNL     1      -3.922   4.310 -31.922  1.00  0.00    -0.083 N 
HETATM    6  N   UNL     1      -3.417   5.560 -31.931  1.00  0.00    -0.140 NA
HETATM    7  C   UNL     1      -2.160   5.323 -31.526  1.00  0.00     0.166 A 
HETATM    8  N   UNL     1      -1.861   4.002 -31.279  1.00  0.00    -0.046 NA
HETATM    9  C   UNL     1      -5.257   3.967 -32.433  1.00  0.00     0.204 C 
HETATM   10  C   UNL     1      -5.392   2.470 -32.683  1.00  0.00     0.062 C 
HETATM   11  H   UNL     1      -2.537   1.407 -31.465  1.00  0.00     0.184 HD
ENDROOT
BRANCH  10  12
HETATM   12  C   UNL     1      -6.626   1.969 -33.355  1.00  0.00     0.256 C 
HETATM   13  N   UNL     1      -7.670   1.699 -32.494  1.00  0.00    -0.323 N 
HETATM   14  H   UNL     1      -7.514   1.752 -31.498  1.00  0.00     0.169 HD
HETATM   15  O   UNL     1      -6.637   1.822 -34.573  1.00  0.00    -0.267 OA
BRANCH  13  16
HETATM   16  C   UNL     1      -8.998   1.368 -32.848  1.00  0.00     0.035 A 
HETATM   17  C   UNL     1      -9.920   2.285 -33.360  1.00  0.00     0.032 A 
HETATM   18  C   UNL     1     -11.233   1.889 -33.630  1.00  0.00     0.044 A 
HETATM   19  C   UNL     1     -11.619   0.575 -33.400  1.00  0.00     0.116 A 
HETATM   20  F   UNL     1     -12.878   0.200 -33.656  1.00  0.00    -0.206 F 
HETATM   21  C   UNL     1     -10.716  -0.353 -32.901  1.00  0.00     0.044 A 
HETATM   22  C   UNL     1      -9.408   0.045 -32.619  1.00  0.00     0.032 A 
ENDBRANCH  13  16
ENDBRANCH  10  12
BRANCH   9  23
HETATM   23  C   UNL     1      -6.325   4.517 -31.489  1.00  0.00    -0.005 A 
HETATM   24  C   UNL     1      -7.436   5.257 -31.948  1.00  0.00     0.064 A 
HETATM   25 CL   UNL     1      -7.665   5.532 -33.648  1.00  0.00    -0.082 Cl
HETATM   26  C   UNL     1      -8.372   5.764 -31.028  1.00  0.00     0.056 A 
HETATM   27 CL   UNL     1      -9.753   6.687 -31.517  1.00  0.00    -0.083 Cl
HETATM   28  C   UNL     1      -8.216   5.533 -29.659  1.00  0.00     0.026 A 
HETATM   29  C   UNL     1      -7.131   4.795 -29.196  1.00  0.00     0.002 A 
HETATM   30  C   UNL     1      -6.196   4.294 -30.099  1.00  0.00     0.011 A 
ENDBRANCH   9  23
BRANCH   7  31
HETATM   31  C   UNL     1      -1.132   6.391 -31.462  1.00  0.00     0.085 C 
BRANCH  31  32
HETATM   32  C   UNL     1       0.159   5.928 -30.786  1.00  0.00     0.034 C 
BRANCH  32  33
HETATM   33  C   UNL     1       0.260   6.357 -29.326  1.00  0.00     0.164 C 
BRANCH  33  34
HETATM   34  O   UNL     1       0.302   5.207 -28.489  1.00  0.00    -0.401 OA
HETATM   35  H   UNL     1      -0.555   5.142 -28.036  1.00  0.00     0.209 HD
ENDBRANCH  33  34
ENDBRANCH  32  33
ENDBRANCH  31  32
ENDBRANCH   7  31
TORSDOF 7
ENDMDL
MODEL 10
REMARK VINA RESULT:      -7.8      3.804      5.879
REMARK  7 active torsions:
REMARK  status: ('A' for Active; 'I' for Inactive)
REMARK    1  A    between atoms: C_7  and  C_8 
REMARK    2  A    between atoms: C_8  and  C_9 
REMARK    3  A    between atoms: C_9  and  C_10 
REMARK    4  A    between atoms: C_10  and  O_11 
REMARK    5  A    between atoms: C_13  and  C_14 
REMARK    6  A    between atoms: C_22  and  C_23 
REMARK       I    between atoms: C_23  and  N_24 
REMARK    7  A    between atoms: N_24  and  C_25 
ROOT
HETATM    1  C   UNL     1      -6.014   0.304 -31.193  1.00  0.00     0.070 C 
HETATM    2  C   UNL     1      -5.559   1.741 -31.274  1.00  0.00     0.037 C 
HETATM    3  N   UNL     1      -4.189   1.951 -31.140  1.00  0.00    -0.192 N 
HETATM    4  C   UNL     1      -3.601   3.137 -31.383  1.00  0.00     0.726 A 
HETATM    5  N   UNL     1      -4.383   4.240 -31.569  1.00  0.00    -0.083 N 
HETATM    6  N   UNL     1      -3.651   5.307 -31.948  1.00  0.00    -0.140 NA
HETATM    7  C   UNL     1      -2.416   4.783 -31.922  1.00  0.00     0.166 A 
HETATM    8  N   UNL     1      -2.347   3.458 -31.559  1.00  0.00    -0.046 NA
HETATM    9  C   UNL     1      -5.852   4.217 -31.570  1.00  0.00     0.204 C 
HETATM   10  C   UNL     1      -6.389   2.792 -31.507  1.00  0.00     0.062 C 
HETATM   11  H   UNL     1      -3.596   1.126 -31.079  1.00  0.00     0.184 HD
ENDROOT
BRANCH  10  12
HETATM   12  C   UNL     1      -7.858   2.577 -31.663  1.00  0.00     0.256 C 
HETATM   13  N   UNL     1      -8.273   2.429 -32.971  1.00  0.00    -0.323 N 
HETATM   14  H   UNL     1      -7.609   2.572 -33.718  1.00  0.00     0.169 HD
HETATM   15  O   UNL     1      -8.576   2.558 -30.670  1.00  0.00    -0.267 OA
BRANCH  13  16
HETATM   16  C   UNL     1      -9.562   2.059 -33.415  1.00  0.00     0.035 A 
HETATM   17  C   UNL     1     -10.184   0.851 -33.084  1.00  0.00     0.032 A 
HETATM   18  C   UNL     1     -11.439   0.536 -33.613  1.00  0.00     0.044 A 
HETATM   19  C   UNL     1     -12.075   1.432 -34.462  1.00  0.00     0.116 A 
HETATM   20  F   UNL     1     -13.276   1.126 -34.969  1.00  0.00    -0.206 F 
HETATM   21  C   UNL     1     -11.479   2.640 -34.794  1.00  0.00     0.044 A 
HETATM   22  C   UNL     1     -10.220   2.950 -34.277  1.00  0.00     0.032 A 
ENDBRANCH  13  16
ENDBRANCH  10  12
BRANCH   9  23
HETATM   23  C   UNL     1      -6.380   5.110 -30.448  1.00  0.00    -0.005 A 
HETATM   24  C   UNL     1      -7.293   6.161 -30.681  1.00  0.00     0.064 A 
HETATM   25 CL   UNL     1      -7.906   6.454 -32.281  1.00  0.00    -0.082 Cl
HETATM   26  C   UNL     1      -7.722   6.969 -29.612  1.00  0.00     0.056 A 
HETATM   27 CL   UNL     1      -8.832   8.281 -29.823  1.00  0.00    -0.083 Cl
HETATM   28  C   UNL     1      -7.258   6.733 -28.316  1.00  0.00     0.026 A 
HETATM   29  C   UNL     1      -6.367   5.693 -28.073  1.00  0.00     0.002 A 
HETATM   30  C   UNL     1      -5.933   4.890 -29.126  1.00  0.00     0.011 A 
ENDBRANCH   9  23
BRANCH   7  31
HETATM   31  C   UNL     1      -1.222   5.545 -32.366  1.00  0.00     0.085 C 
BRANCH  31  32
HETATM   32  C   UNL     1      -0.431   6.136 -31.198  1.00  0.00     0.034 C 
BRANCH  32  33
HETATM   33  C   UNL     1       0.688   5.223 -30.708  1.00  0.00     0.164 C 
BRANCH  33  34
HETATM   34  O   UNL     1       0.160   4.258 -29.805  1.00  0.00    -0.401 OA
HETATM   35  H   UNL     1       0.578   4.407 -28.940  1.00  0.00     0.209 HD
ENDBRANCH  33  34
ENDBRANCH  32  33
ENDBRANCH  31  32
ENDBRANCH   7  31
TORSDOF 7
ENDMDL
