MODEL 1
REMARK VINA RESULT:      -9.3      0.000      0.000
REMARK  9 active torsions:
REMARK  status: ('A' for Active; 'I' for Inactive)
REMARK    1  A    between atoms: C_4  and  O_5 
REMARK    2  A    between atoms: O_5  and  C_6 
REMARK    3  A    between atoms: C_6  and  C_7 
REMARK       I    between atoms: C_7  and  N_8 
REMARK    4  A    between atoms: N_8  and  C_9 
REMARK    5  A    between atoms: C_9  and  N_10 
REMARK    6  A    between atoms: N_10  and  C_11 
REMARK    7  A    between atoms: C_14  and  N_15 
REMARK    8  A    between atoms: N_18  and  C_20 
REMARK    9  A    between atoms: C_20  and  C_21 
ROOT
HETATM    1  C   UNL     1      -6.371   5.640 -30.367  1.00  0.00     0.034 A 
HETATM    2  C   UNL     1      -7.421   5.124 -31.119  1.00  0.00     0.032 A 
HETATM    3  C   UNL     1      -7.609   3.739 -31.234  1.00  0.00     0.031 A 
HETATM    4  C   UNL     1      -6.779   2.829 -30.574  1.00  0.00     0.030 A 
HETATM    5  C   UNL     1      -5.697   3.366 -29.859  1.00  0.00     0.031 A 
HETATM    6  C   UNL     1      -5.480   4.747 -29.774  1.00  0.00     0.032 A 
ENDROOT
BRANCH   1   7
HETATM    7  N   UNL     1      -6.106   7.015 -30.229  1.00  0.00    -0.333 N 
HETATM    8  H   UNL     1      -6.462   7.605 -30.984  1.00  0.00     0.168 HD
BRANCH   7   9
HETATM    9  C   UNL     1      -5.336   7.700 -29.315  1.00  0.00     0.178 C 
HETATM   10  S   UNL     1      -5.640   7.964 -27.692  1.00  0.00    -0.040 SA
BRANCH   9  11
HETATM   11  N   UNL     1      -4.145   8.195 -29.814  1.00  0.00    -0.302 N 
HETATM   12  C   UNL     1      -3.938   9.208 -30.743  1.00  0.00     0.248 C 
HETATM   13  O   UNL     1      -4.840   9.736 -31.392  1.00  0.00    -0.271 OA
HETATM   14  H   UNL     1      -3.313   7.760 -29.428  1.00  0.00     0.171 HD
BRANCH  12  15
HETATM   15  C   UNL     1      -2.475   9.618 -30.862  1.00  0.00     0.278 C 
BRANCH  15  16
HETATM   16  O   UNL     1      -1.906   9.193 -32.093  1.00  0.00    -0.342 OA
BRANCH  16  17
HETATM   17  C   UNL     1      -1.482   7.893 -32.176  1.00  0.00     0.070 A 
HETATM   18  C   UNL     1      -0.755   7.201 -31.205  1.00  0.00     0.043 A 
HETATM   19  C   UNL     1      -0.394   5.861 -31.404  1.00  0.00    -0.059 A 
HETATM   20  C   UNL     1       0.404   5.126 -30.367  1.00  0.00     0.048 C 
HETATM   21  C   UNL     1      -0.740   5.229 -32.604  1.00  0.00     0.013 A 
HETATM   22  C   UNL     1      -1.465   5.910 -33.587  1.00  0.00    -0.059 A 
HETATM   23  C   UNL     1      -1.822   7.246 -33.367  1.00  0.00     0.043 A 
HETATM   24  C   UNL     1      -1.813   5.222 -34.875  1.00  0.00     0.048 C 
ENDBRANCH  16  17
ENDBRANCH  15  16
ENDBRANCH  12  15
ENDBRANCH   9  11
ENDBRANCH   7   9
ENDBRANCH   1   7
BRANCH   4  25
HETATM   25  N   UNL     1      -6.960   1.444 -30.607  1.00  0.00    -0.378 N 
HETATM   26  C   UNL     1      -5.945   0.548 -30.025  1.00  0.00     0.150 C 
HETATM   27  C   UNL     1      -4.888   0.104 -31.060  1.00  0.00     0.255 C 
HETATM   28  N   UNL     1      -5.548  -0.435 -32.327  1.00  0.00    -0.064 N 
HETATM   29  H   UNL     1      -6.082  -1.273 -32.061  1.00  0.00     0.280 HD
HETATM   30  C   UNL     1      -6.557   0.564 -32.895  1.00  0.00     0.255 C 
HETATM   31  C   UNL     1      -7.611   0.925 -31.827  1.00  0.00     0.150 C 
BRANCH  28  32
HETATM   32  C   UNL     1      -4.546  -0.872 -33.369  1.00  0.00     0.275 C 
BRANCH  32  33
HETATM   33  C   UNL     1      -4.646  -2.330 -33.731  1.00  0.00    -0.011 A 
HETATM   34  C   UNL     1      -3.872  -3.312 -33.087  1.00  0.00     0.042 A 
HETATM   35 CL   UNL     1      -2.738  -2.886 -31.853  1.00  0.00    -0.084 Cl
HETATM   36  C   UNL     1      -3.976  -4.657 -33.447  1.00  0.00     0.024 A 
HETATM   37  C   UNL     1      -4.856  -5.040 -34.457  1.00  0.00     0.002 A 
HETATM   38  C   UNL     1      -5.631  -4.081 -35.105  1.00  0.00     0.001 A 
HETATM   39  C   UNL     1      -5.531  -2.736 -34.745  1.00  0.00     0.010 A 
ENDBRANCH  32  33
ENDBRANCH  28  32
ENDBRANCH   4  25
TORSDOF 9
ENDMDL
MODEL 2
REMARK VINA RESULT:      -9.2      1.565      2.014
REMARK  9 active torsions:
REMARK  status: ('A' for Active; 'I' for Inactive)
REMARK    1  A    between atoms: C_4  and  O_5 
REMARK    2  A    between atoms: O_5  and  C_6 
REMARK    3  A    between atoms: C_6  and  C_7 
REMARK       I    between atoms: C_7  and  N_8 
REMARK    4  A    between atoms: N_8  and  C_9 
REMARK    5  A    between atoms: C_9  and  N_10 
REMARK    6  A    between atoms: N_10  and  C_11 
REMARK    7  A    between atoms: C_14  and  N_15 
REMARK    8  A    between atoms: N_18  and  C_20 
REMARK    9  A    between atoms: C_20  and  C_21 
ROOT
HETATM    1  C   UNL     1      -5.704   6.810 -30.204  1.00  0.00     0.034 A 
HETATM    2  C   UNL     1      -6.389   6.792 -31.414  1.00  0.00     0.032 A 
HETATM    3  C   UNL     1      -6.053   5.869 -32.416  1.00  0.00     0.031 A 
HETATM    4  C   UNL     1      -5.050   4.914 -32.227  1.00  0.00     0.030 A 
HETATM    5  C   UNL     1      -4.337   4.979 -31.019  1.00  0.00     0.031 A 
HETATM    6  C   UNL     1      -4.642   5.924 -30.031  1.00  0.00     0.032 A 
ENDROOT
BRANCH   1   7
HETATM    7  N   UNL     1      -5.969   7.723 -29.166  1.00  0.00    -0.333 N 
HETATM    8  H   UNL     1      -6.930   7.722 -28.820  1.00  0.00     0.168 HD
BRANCH   7   9
HETATM    9  C   UNL     1      -5.189   8.715 -28.615  1.00  0.00     0.178 C 
HETATM   10  S   UNL     1      -5.473   9.612 -27.232  1.00  0.00    -0.040 SA
BRANCH   9  11
HETATM   11  N   UNL     1      -4.006   8.964 -29.286  1.00  0.00    -0.302 N 
HETATM   12  C   UNL     1      -3.805   9.625 -30.492  1.00  0.00     0.248 C 
HETATM   13  O   UNL     1      -4.715   9.974 -31.241  1.00  0.00    -0.271 OA
HETATM   14  H   UNL     1      -3.174   8.625 -28.813  1.00  0.00     0.171 HD
BRANCH  12  15
HETATM   15  C   UNL     1      -2.333   9.895 -30.785  1.00  0.00     0.278 C 
BRANCH  15  16
HETATM   16  O   UNL     1      -1.941   9.370 -32.046  1.00  0.00    -0.342 OA
BRANCH  16  17
HETATM   17  C   UNL     1      -1.581   8.050 -32.094  1.00  0.00     0.070 A 
HETATM   18  C   UNL     1      -0.964   7.327 -31.071  1.00  0.00     0.043 A 
HETATM   19  C   UNL     1      -0.661   5.968 -31.239  1.00  0.00    -0.059 A 
HETATM   20  C   UNL     1       0.020   5.199 -30.144  1.00  0.00     0.048 C 
HETATM   21  C   UNL     1      -0.951   5.347 -32.460  1.00  0.00     0.013 A 
HETATM   22  C   UNL     1      -1.565   6.059 -33.495  1.00  0.00    -0.059 A 
HETATM   23  C   UNL     1      -1.867   7.413 -33.305  1.00  0.00     0.043 A 
HETATM   24  C   UNL     1      -1.854   5.382 -34.803  1.00  0.00     0.048 C 
ENDBRANCH  16  17
ENDBRANCH  15  16
ENDBRANCH  12  15
ENDBRANCH   9  11
ENDBRANCH   7   9
ENDBRANCH   1   7
BRANCH   4  25
HETATM   25  N   UNL     1      -4.718   3.936 -33.167  1.00  0.00    -0.378 N 
HETATM   26  C   UNL     1      -5.752   3.378 -34.055  1.00  0.00     0.150 C 
HETATM   27  C   UNL     1      -6.418   2.116 -33.465  1.00  0.00     0.255 C 
HETATM   28  N   UNL     1      -5.371   1.103 -33.007  1.00  0.00    -0.064 N 
HETATM   29  H   UNL     1      -4.846   0.806 -33.841  1.00  0.00     0.280 HD
HETATM   30  C   UNL     1      -4.357   1.743 -32.057  1.00  0.00     0.255 C 
HETATM   31  C   UNL     1      -3.695   2.965 -32.728  1.00  0.00     0.150 C 
BRANCH  28  32
HETATM   32  C   UNL     1      -5.983  -0.145 -32.414  1.00  0.00     0.275 C 
BRANCH  32  33
HETATM   33  C   UNL     1      -5.812  -1.370 -33.273  1.00  0.00    -0.011 A 
HETATM   34  C   UNL     1      -4.604  -2.088 -33.313  1.00  0.00     0.042 A 
HETATM   35 CL   UNL     1      -3.234  -1.582 -32.388  1.00  0.00    -0.084 Cl
HETATM   36  C   UNL     1      -4.468  -3.215 -34.125  1.00  0.00     0.024 A 
HETATM   37  C   UNL     1      -5.538  -3.641 -34.910  1.00  0.00     0.002 A 
HETATM   38  C   UNL     1      -6.742  -2.942 -34.882  1.00  0.00     0.001 A 
HETATM   39  C   UNL     1      -6.882  -1.816 -34.068  1.00  0.00     0.010 A 
ENDBRANCH  32  33
ENDBRANCH  28  32
ENDBRANCH   4  25
TORSDOF 9
ENDMDL
MODEL 3
REMARK VINA RESULT:      -9.1      3.882      8.722
REMARK  9 active torsions:
REMARK  status: ('A' for Active; 'I' for Inactive)
REMARK    1  A    between atoms: C_4  and  O_5 
REMARK    2  A    between atoms: O_5  and  C_6 
REMARK    3  A    between atoms: C_6  and  C_7 
REMARK       I    between atoms: C_7  and  N_8 
REMARK    4  A    between atoms: N_8  and  C_9 
REMARK    5  A    between atoms: C_9  and  N_10 
REMARK    6  A    between atoms: N_10  and  C_11 
REMARK    7  A    between atoms: C_14  and  N_15 
REMARK    8  A    between atoms: N_18  and  C_20 
REMARK    9  A    between atoms: C_20  and  C_21 
ROOT
HETATM    1  C   UNL     1     -10.055   3.240 -32.030  1.00  0.00     0.034 A 
HETATM    2  C   UNL     1     -10.011   4.614 -32.244  1.00  0.00     0.032 A 
HETATM    3  C   UNL     1      -9.104   5.422 -31.542  1.00  0.00     0.031 A 
HETATM    4  C   UNL     1      -8.191   4.880 -30.634  1.00  0.00     0.030 A 
HETATM    5  C   UNL     1      -8.282   3.500 -30.394  1.00  0.00     0.031 A 
HETATM    6  C   UNL     1      -9.213   2.695 -31.062  1.00  0.00     0.032 A 
ENDROOT
BRANCH   1   7
HETATM    7  N   UNL     1     -10.955   2.373 -32.677  1.00  0.00    -0.333 N 
HETATM    8  H   UNL     1     -11.615   1.894 -32.062  1.00  0.00     0.168 HD
BRANCH   7   9
HETATM    9  C   UNL     1     -11.023   1.955 -33.986  1.00  0.00     0.178 C 
HETATM   10  S   UNL     1     -12.360   1.894 -34.990  1.00  0.00    -0.040 SA
BRANCH   9  11
HETATM   11  N   UNL     1      -9.814   1.573 -34.539  1.00  0.00    -0.302 N 
HETATM   12  C   UNL     1      -8.971   0.533 -34.167  1.00  0.00     0.248 C 
HETATM   13  O   UNL     1      -9.123  -0.141 -33.149  1.00  0.00    -0.271 OA
HETATM   14  H   UNL     1      -9.520   2.129 -35.335  1.00  0.00     0.171 HD
BRANCH  12  15
HETATM   15  C   UNL     1      -7.843   0.294 -35.164  1.00  0.00     0.278 C 
BRANCH  15  16
HETATM   16  O   UNL     1      -6.565   0.476 -34.570  1.00  0.00    -0.342 OA
BRANCH  16  17
HETATM   17  C   UNL     1      -5.866  -0.649 -34.223  1.00  0.00     0.070 A 
HETATM   18  C   UNL     1      -4.806  -0.713 -33.315  1.00  0.00     0.043 A 
HETATM   19  C   UNL     1      -4.181  -1.936 -33.032  1.00  0.00    -0.059 A 
HETATM   20  C   UNL     1      -3.029  -1.996 -32.071  1.00  0.00     0.048 C 
HETATM   21  C   UNL     1      -4.605  -3.093 -33.696  1.00  0.00     0.013 A 
HETATM   22  C   UNL     1      -5.663  -3.044 -34.611  1.00  0.00    -0.059 A 
HETATM   23  C   UNL     1      -6.279  -1.815 -34.875  1.00  0.00     0.043 A 
HETATM   24  C   UNL     1      -6.094  -4.291 -35.325  1.00  0.00     0.048 C 
ENDBRANCH  16  17
ENDBRANCH  15  16
ENDBRANCH  12  15
ENDBRANCH   9  11
ENDBRANCH   7   9
ENDBRANCH   1   7
BRANCH   4  25
HETATM   25  N   UNL     1      -7.228   5.632 -29.955  1.00  0.00    -0.378 N 
HETATM   26  C   UNL     1      -7.063   7.066 -30.248  1.00  0.00     0.150 C 
HETATM   27  C   UNL     1      -6.013   7.325 -31.349  1.00  0.00     0.255 C 
HETATM   28  N   UNL     1      -4.707   6.592 -31.052  1.00  0.00    -0.064 N 
HETATM   29  H   UNL     1      -4.330   6.981 -30.176  1.00  0.00     0.280 HD
HETATM   30  C   UNL     1      -4.952   5.104 -30.798  1.00  0.00     0.255 C 
HETATM   31  C   UNL     1      -5.971   4.917 -29.655  1.00  0.00     0.150 C 
BRANCH  28  32
HETATM   32  C   UNL     1      -3.655   6.814 -32.112  1.00  0.00     0.275 C 
BRANCH  32  33
HETATM   33  C   UNL     1      -2.248   6.587 -31.625  1.00  0.00    -0.011 A 
HETATM   34  C   UNL     1      -1.488   5.478 -32.035  1.00  0.00     0.042 A 
HETATM   35 CL   UNL     1      -2.145   4.294 -33.110  1.00  0.00    -0.084 Cl
HETATM   36  C   UNL     1      -0.189   5.285 -31.561  1.00  0.00     0.024 A 
HETATM   37  C   UNL     1       0.369   6.200 -30.670  1.00  0.00     0.002 A 
HETATM   38  C   UNL     1      -0.368   7.305 -30.254  1.00  0.00     0.001 A 
HETATM   39  C   UNL     1      -1.667   7.501 -30.729  1.00  0.00     0.010 A 
ENDBRANCH  32  33
ENDBRANCH  28  32
ENDBRANCH   4  25
TORSDOF 9
ENDMDL
MODEL 4
REMARK VINA RESULT:      -9.0      1.473      2.381
REMARK  9 active torsions:
REMARK  status: ('A' for Active; 'I' for Inactive)
REMARK    1  A    between atoms: C_4  and  O_5 
REMARK    2  A    between atoms: O_5  and  C_6 
REMARK    3  A    between atoms: C_6  and  C_7 
REMARK       I    between atoms: C_7  and  N_8 
REMARK    4  A    between atoms: N_8  and  C_9 
REMARK    5  A    between atoms: C_9  and  N_10 
REMARK    6  A    between atoms: N_10  and  C_11 
REMARK    7  A    between atoms: C_14  and  N_15 
REMARK    8  A    between atoms: N_18  and  C_20 
REMARK    9  A    between atoms: C_20  and  C_21 
ROOT
HETATM    1  C   UNL     1      -6.080   5.451 -30.211  1.00  0.00     0.034 A 
HETATM    2  C   UNL     1      -6.384   4.357 -29.408  1.00  0.00     0.032 A 
HETATM    3  C   UNL     1      -6.888   3.173 -29.969  1.00  0.00     0.031 A 
HETATM    4  C   UNL     1      -7.068   3.033 -31.347  1.00  0.00     0.030 A 
HETATM    5  C   UNL     1      -6.802   4.164 -32.136  1.00  0.00     0.031 A 
HETATM    6  C   UNL     1      -6.337   5.361 -31.578  1.00  0.00     0.032 A 
ENDROOT
BRANCH   1   7
HETATM    7  N   UNL     1      -5.597   6.677 -29.716  1.00  0.00    -0.333 N 
HETATM    8  H   UNL     1      -5.995   7.510 -30.155  1.00  0.00     0.168 HD
BRANCH   7   9
HETATM    9  C   UNL     1      -4.584   6.956 -28.828  1.00  0.00     0.178 C 
HETATM   10  S   UNL     1      -4.690   7.688 -27.327  1.00  0.00    -0.040 SA
BRANCH   9  11
HETATM   11  N   UNL     1      -3.328   6.540 -29.228  1.00  0.00    -0.302 N 
HETATM   12  C   UNL     1      -2.283   7.291 -29.754  1.00  0.00     0.248 C 
HETATM   13  O   UNL     1      -2.387   8.471 -30.086  1.00  0.00    -0.271 OA
HETATM   14  H   UNL     1      -3.152   5.549 -29.102  1.00  0.00     0.171 HD
BRANCH  12  15
HETATM   15  C   UNL     1      -0.979   6.507 -29.859  1.00  0.00     0.278 C 
BRANCH  15  16
HETATM   16  O   UNL     1      -0.647   6.213 -31.208  1.00  0.00    -0.342 OA
BRANCH  16  17
HETATM   17  C   UNL     1      -1.543   5.472 -31.931  1.00  0.00     0.070 A 
HETATM   18  C   UNL     1      -2.051   5.795 -33.192  1.00  0.00     0.043 A 
HETATM   19  C   UNL     1      -2.955   4.939 -33.838  1.00  0.00    -0.059 A 
HETATM   20  C   UNL     1      -3.513   5.299 -35.184  1.00  0.00     0.048 C 
HETATM   21  C   UNL     1      -3.375   3.771 -33.191  1.00  0.00     0.013 A 
HETATM   22  C   UNL     1      -2.879   3.436 -31.927  1.00  0.00    -0.059 A 
HETATM   23  C   UNL     1      -1.971   4.300 -31.301  1.00  0.00     0.043 A 
HETATM   24  C   UNL     1      -3.352   2.188 -31.241  1.00  0.00     0.048 C 
ENDBRANCH  16  17
ENDBRANCH  15  16
ENDBRANCH  12  15
ENDBRANCH   9  11
ENDBRANCH   7   9
ENDBRANCH   1   7
BRANCH   4  25
HETATM   25  N   UNL     1      -7.509   1.858 -31.960  1.00  0.00    -0.378 N 
HETATM   26  C   UNL     1      -7.413   0.570 -31.252  1.00  0.00     0.150 C 
HETATM   27  C   UNL     1      -6.088  -0.165 -31.543  1.00  0.00     0.255 C 
HETATM   28  N   UNL     1      -5.822  -0.254 -33.044  1.00  0.00    -0.064 N 
HETATM   29  H   UNL     1      -6.578  -0.819 -33.456  1.00  0.00     0.280 HD
HETATM   30  C   UNL     1      -5.898   1.124 -33.703  1.00  0.00     0.255 C 
HETATM   31  C   UNL     1      -7.265   1.780 -33.415  1.00  0.00     0.150 C 
BRANCH  28  32
HETATM   32  C   UNL     1      -4.528  -0.960 -33.371  1.00  0.00     0.275 C 
BRANCH  32  33
HETATM   33  C   UNL     1      -4.712  -2.385 -33.822  1.00  0.00    -0.011 A 
HETATM   34  C   UNL     1      -3.993  -3.447 -33.248  1.00  0.00     0.042 A 
HETATM   35 CL   UNL     1      -2.831  -3.166 -31.999  1.00  0.00    -0.084 Cl
HETATM   36  C   UNL     1      -4.175  -4.759 -33.692  1.00  0.00     0.024 A 
HETATM   37  C   UNL     1      -5.080  -5.026 -34.716  1.00  0.00     0.002 A 
HETATM   38  C   UNL     1      -5.802  -3.987 -35.296  1.00  0.00     0.001 A 
HETATM   39  C   UNL     1      -5.624  -2.675 -34.853  1.00  0.00     0.010 A 
ENDBRANCH  32  33
ENDBRANCH  28  32
ENDBRANCH   4  25
TORSDOF 9
ENDMDL
MODEL 5
REMARK VINA RESULT:      -9.0      3.911      9.516
REMARK  9 active torsions:
REMARK  status: ('A' for Active; 'I' for Inactive)
REMARK    1  A    between atoms: C_4  and  O_5 
REMARK    2  A    between atoms: O_5  and  C_6 
REMARK    3  A    between atoms: C_6  and  C_7 
REMARK       I    between atoms: C_7  and  N_8 
REMARK    4  A    between atoms: N_8  and  C_9 
REMARK    5  A    between atoms: C_9  and  N_10 
REMARK    6  A    between atoms: N_10  and  C_11 
REMARK    7  A    between atoms: C_14  and  N_15 
REMARK    8  A    between atoms: N_18  and  C_20 
REMARK    9  A    between atoms: C_20  and  C_21 
ROOT
HETATM    1  C   UNL     1      -6.740   3.718 -30.351  1.00  0.00     0.034 A 
HETATM    2  C   UNL     1      -6.623   5.037 -29.925  1.00  0.00     0.032 A 
HETATM    3  C   UNL     1      -5.480   5.791 -30.229  1.00  0.00     0.031 A 
HETATM    4  C   UNL     1      -4.437   5.266 -30.996  1.00  0.00     0.030 A 
HETATM    5  C   UNL     1      -4.550   3.919 -31.376  1.00  0.00     0.031 A 
HETATM    6  C   UNL     1      -5.671   3.149 -31.042  1.00  0.00     0.032 A 
ENDROOT
BRANCH   1   7
HETATM    7  N   UNL     1      -7.843   2.894 -30.062  1.00  0.00    -0.333 N 
HETATM    8  H   UNL     1      -7.684   2.192 -29.337  1.00  0.00     0.168 HD
BRANCH   7   9
HETATM    9  C   UNL     1      -9.071   2.781 -30.674  1.00  0.00     0.178 C 
HETATM   10  S   UNL     1     -10.394   3.797 -30.546  1.00  0.00    -0.040 SA
BRANCH   9  11
HETATM   11  N   UNL     1      -9.197   1.701 -31.529  1.00  0.00    -0.302 N 
HETATM   12  C   UNL     1      -8.891   1.614 -32.881  1.00  0.00     0.248 C 
HETATM   13  O   UNL     1      -8.580   2.580 -33.577  1.00  0.00    -0.271 OA
HETATM   14  H   UNL     1      -9.551   0.856 -31.091  1.00  0.00     0.171 HD
BRANCH  12  15
HETATM   15  C   UNL     1      -8.956   0.188 -33.417  1.00  0.00     0.278 C 
BRANCH  15  16
HETATM   16  O   UNL     1      -8.107   0.007 -34.542  1.00  0.00    -0.342 OA
BRANCH  16  17
HETATM   17  C   UNL     1      -7.049  -0.850 -34.401  1.00  0.00     0.070 A 
HETATM   18  C   UNL     1      -7.033  -2.203 -34.750  1.00  0.00     0.043 A 
HETATM   19  C   UNL     1      -5.874  -2.972 -34.571  1.00  0.00    -0.059 A 
HETATM   20  C   UNL     1      -5.867  -4.430 -34.929  1.00  0.00     0.048 C 
HETATM   21  C   UNL     1      -4.739  -2.381 -34.005  1.00  0.00     0.013 A 
HETATM   22  C   UNL     1      -4.741  -1.029 -33.648  1.00  0.00    -0.059 A 
HETATM   23  C   UNL     1      -5.905  -0.275 -33.840  1.00  0.00     0.043 A 
HETATM   24  C   UNL     1      -3.520  -0.415 -33.027  1.00  0.00     0.048 C 
ENDBRANCH  16  17
ENDBRANCH  15  16
ENDBRANCH  12  15
ENDBRANCH   9  11
ENDBRANCH   7   9
ENDBRANCH   1   7
BRANCH   4  25
HETATM   25  N   UNL     1      -3.306   5.993 -31.376  1.00  0.00    -0.378 N 
HETATM   26  C   UNL     1      -2.128   5.301 -31.925  1.00  0.00     0.150 C 
HETATM   27  C   UNL     1      -1.108   4.917 -30.832  1.00  0.00     0.255 C 
HETATM   28  N   UNL     1      -0.775   6.112 -29.942  1.00  0.00    -0.064 N 
HETATM   29  H   UNL     1      -0.327   6.822 -30.538  1.00  0.00     0.280 HD
HETATM   30  C   UNL     1      -2.043   6.753 -29.377  1.00  0.00     0.255 C 
HETATM   31  C   UNL     1      -2.994   7.158 -30.523  1.00  0.00     0.150 C 
BRANCH  28  32
HETATM   32  C   UNL     1       0.215   5.775 -28.852  1.00  0.00     0.275 C 
BRANCH  32  33
HETATM   33  C   UNL     1       0.545   6.936 -27.953  1.00  0.00    -0.011 A 
HETATM   34  C   UNL     1       0.134   6.977 -26.609  1.00  0.00     0.042 A 
HETATM   35 CL   UNL     1      -0.800   5.695 -25.922  1.00  0.00    -0.084 Cl
HETATM   36  C   UNL     1       0.443   8.071 -25.798  1.00  0.00     0.024 A 
HETATM   37  C   UNL     1       1.169   9.140 -26.320  1.00  0.00     0.002 A 
HETATM   38  C   UNL     1       1.586   9.116 -27.648  1.00  0.00     0.001 A 
HETATM   39  C   UNL     1       1.279   8.022 -28.461  1.00  0.00     0.010 A 
ENDBRANCH  32  33
ENDBRANCH  28  32
ENDBRANCH   4  25
TORSDOF 9
ENDMDL
MODEL 6
REMARK VINA RESULT:      -9.0      4.115      9.760
REMARK  9 active torsions:
REMARK  status: ('A' for Active; 'I' for Inactive)
REMARK    1  A    between atoms: C_4  and  O_5 
REMARK    2  A    between atoms: O_5  and  C_6 
REMARK    3  A    between atoms: C_6  and  C_7 
REMARK       I    between atoms: C_7  and  N_8 
REMARK    4  A    between atoms: N_8  and  C_9 
REMARK    5  A    between atoms: C_9  and  N_10 
REMARK    6  A    between atoms: N_10  and  C_11 
REMARK    7  A    between atoms: C_14  and  N_15 
REMARK    8  A    between atoms: N_18  and  C_20 
REMARK    9  A    between atoms: C_20  and  C_21 
ROOT
HETATM    1  C   UNL     1      -4.978   4.142 -33.972  1.00  0.00     0.034 A 
HETATM    2  C   UNL     1      -4.286   3.517 -32.940  1.00  0.00     0.032 A 
HETATM    3  C   UNL     1      -3.021   3.977 -32.542  1.00  0.00     0.031 A 
HETATM    4  C   UNL     1      -2.427   5.094 -33.135  1.00  0.00     0.030 A 
HETATM    5  C   UNL     1      -3.118   5.681 -34.207  1.00  0.00     0.031 A 
HETATM    6  C   UNL     1      -4.363   5.202 -34.635  1.00  0.00     0.032 A 
ENDROOT
BRANCH   1   7
HETATM    7  N   UNL     1      -6.236   3.720 -34.441  1.00  0.00    -0.333 N 
HETATM    8  H   UNL     1      -6.299   3.583 -35.452  1.00  0.00     0.168 HD
BRANCH   7   9
HETATM    9  C   UNL     1      -7.442   3.580 -33.792  1.00  0.00     0.178 C 
HETATM   10  S   UNL     1      -8.574   4.759 -33.438  1.00  0.00    -0.040 SA
BRANCH   9  11
HETATM   11  N   UNL     1      -7.757   2.285 -33.424  1.00  0.00    -0.302 N 
HETATM   12  C   UNL     1      -7.679   1.687 -32.171  1.00  0.00     0.248 C 
HETATM   13  O   UNL     1      -7.154   2.216 -31.192  1.00  0.00    -0.271 OA
HETATM   14  H   UNL     1      -8.107   1.705 -34.179  1.00  0.00     0.171 HD
BRANCH  12  15
HETATM   15  C   UNL     1      -8.331   0.310 -32.127  1.00  0.00     0.278 C 
BRANCH  15  16
HETATM   16  O   UNL     1      -8.172  -0.390 -33.353  1.00  0.00    -0.342 OA
BRANCH  16  17
HETATM   17  C   UNL     1      -7.007  -1.086 -33.535  1.00  0.00     0.070 A 
HETATM   18  C   UNL     1      -5.750  -0.732 -33.037  1.00  0.00     0.043 A 
HETATM   19  C   UNL     1      -4.632  -1.543 -33.280  1.00  0.00    -0.059 A 
HETATM   20  C   UNL     1      -3.280  -1.150 -32.760  1.00  0.00     0.048 C 
HETATM   21  C   UNL     1      -4.779  -2.697 -34.059  1.00  0.00     0.013 A 
HETATM   22  C   UNL     1      -6.030  -3.062 -34.567  1.00  0.00    -0.059 A 
HETATM   23  C   UNL     1      -7.136  -2.243 -34.307  1.00  0.00     0.043 A 
HETATM   24  C   UNL     1      -6.166  -4.295 -35.413  1.00  0.00     0.048 C 
ENDBRANCH  16  17
ENDBRANCH  15  16
ENDBRANCH  12  15
ENDBRANCH   9  11
ENDBRANCH   7   9
ENDBRANCH   1   7
BRANCH   4  25
HETATM   25  N   UNL     1      -1.199   5.627 -32.736  1.00  0.00    -0.378 N 
HETATM   26  C   UNL     1      -0.546   5.148 -31.506  1.00  0.00     0.150 C 
HETATM   27  C   UNL     1      -0.938   5.981 -30.267  1.00  0.00     0.255 C 
HETATM   28  N   UNL     1      -0.763   7.475 -30.528  1.00  0.00    -0.064 N 
HETATM   29  H   UNL     1       0.238   7.641 -30.700  1.00  0.00     0.280 HD
HETATM   30  C   UNL     1      -1.501   7.907 -31.796  1.00  0.00     0.255 C 
HETATM   31  C   UNL     1      -1.026   7.070 -33.003  1.00  0.00     0.150 C 
BRANCH  28  32
HETATM   32  C   UNL     1      -1.145   8.327 -29.341  1.00  0.00     0.275 C 
BRANCH  32  33
HETATM   33  C   UNL     1      -0.245   8.141 -28.148  1.00  0.00    -0.011 A 
HETATM   34  C   UNL     1      -0.697   7.536 -26.962  1.00  0.00     0.042 A 
HETATM   35 CL   UNL     1      -2.330   6.991 -26.804  1.00  0.00    -0.084 Cl
HETATM   36  C   UNL     1       0.154   7.384 -25.866  1.00  0.00     0.024 A 
HETATM   37  C   UNL     1       1.470   7.836 -25.940  1.00  0.00     0.002 A 
HETATM   38  C   UNL     1       1.935   8.437 -27.107  1.00  0.00     0.001 A 
HETATM   39  C   UNL     1       1.086   8.588 -28.205  1.00  0.00     0.010 A 
ENDBRANCH  32  33
ENDBRANCH  28  32
ENDBRANCH   4  25
TORSDOF 9
ENDMDL
MODEL 7
REMARK VINA RESULT:      -8.8      4.653      7.369
REMARK  9 active torsions:
REMARK  status: ('A' for Active; 'I' for Inactive)
REMARK    1  A    between atoms: C_4  and  O_5 
REMARK    2  A    between atoms: O_5  and  C_6 
REMARK    3  A    between atoms: C_6  and  C_7 
REMARK       I    between atoms: C_7  and  N_8 
REMARK    4  A    between atoms: N_8  and  C_9 
REMARK    5  A    between atoms: C_9  and  N_10 
REMARK    6  A    between atoms: N_10  and  C_11 
REMARK    7  A    between atoms: C_14  and  N_15 
REMARK    8  A    between atoms: N_18  and  C_20 
REMARK    9  A    between atoms: C_20  and  C_21 
ROOT
HETATM    1  C   UNL     1      -8.947   4.478 -30.941  1.00  0.00     0.034 A 
HETATM    2  C   UNL     1      -7.601   4.783 -30.768  1.00  0.00     0.032 A 
HETATM    3  C   UNL     1      -6.662   3.772 -30.512  1.00  0.00     0.031 A 
HETATM    4  C   UNL     1      -7.032   2.426 -30.457  1.00  0.00     0.030 A 
HETATM    5  C   UNL     1      -8.400   2.141 -30.585  1.00  0.00     0.031 A 
HETATM    6  C   UNL     1      -9.347   3.150 -30.801  1.00  0.00     0.032 A 
ENDROOT
BRANCH   1   7
HETATM    7  N   UNL     1      -9.946   5.441 -31.174  1.00  0.00    -0.333 N 
HETATM    8  H   UNL     1     -10.740   5.408 -30.532  1.00  0.00     0.168 HD
BRANCH   7   9
HETATM    9  C   UNL     1     -10.107   6.346 -32.199  1.00  0.00     0.178 C 
HETATM   10  S   UNL     1      -9.732   7.976 -32.215  1.00  0.00    -0.040 SA
BRANCH   9  11
HETATM   11  N   UNL     1     -10.613   5.813 -33.370  1.00  0.00    -0.302 N 
HETATM   12  C   UNL     1     -11.854   5.232 -33.604  1.00  0.00     0.248 C 
HETATM   13  O   UNL     1     -12.664   4.968 -32.717  1.00  0.00    -0.271 OA
HETATM   14  H   UNL     1      -9.987   5.875 -34.167  1.00  0.00     0.171 HD
BRANCH  12  15
HETATM   15  C   UNL     1     -12.121   4.972 -35.082  1.00  0.00     0.278 C 
BRANCH  15  16
HETATM   16  O   UNL     1     -11.471   3.794 -35.538  1.00  0.00    -0.342 OA
BRANCH  16  17
HETATM   17  C   UNL     1     -11.742   2.628 -34.874  1.00  0.00     0.070 A 
HETATM   18  C   UNL     1     -10.816   1.831 -34.198  1.00  0.00     0.043 A 
HETATM   19  C   UNL     1     -11.226   0.662 -33.540  1.00  0.00    -0.059 A 
HETATM   20  C   UNL     1     -10.224  -0.202 -32.830  1.00  0.00     0.048 C 
HETATM   21  C   UNL     1     -12.571   0.279 -33.596  1.00  0.00     0.013 A 
HETATM   22  C   UNL     1     -13.510   1.065 -34.273  1.00  0.00    -0.059 A 
HETATM   23  C   UNL     1     -13.082   2.232 -34.918  1.00  0.00     0.043 A 
HETATM   24  C   UNL     1     -14.945   0.631 -34.337  1.00  0.00     0.048 C 
ENDBRANCH  16  17
ENDBRANCH  15  16
ENDBRANCH  12  15
ENDBRANCH   9  11
ENDBRANCH   7   9
ENDBRANCH   1   7
BRANCH   4  25
HETATM   25  N   UNL     1      -6.129   1.377 -30.265  1.00  0.00    -0.378 N 
HETATM   26  C   UNL     1      -4.697   1.566 -30.560  1.00  0.00     0.150 C 
HETATM   27  C   UNL     1      -4.338   1.174 -32.009  1.00  0.00     0.255 C 
HETATM   28  N   UNL     1      -4.871  -0.214 -32.355  1.00  0.00    -0.064 N 
HETATM   29  H   UNL     1      -4.400  -0.887 -31.734  1.00  0.00     0.280 HD
HETATM   30  C   UNL     1      -6.368  -0.322 -32.062  1.00  0.00     0.255 C 
HETATM   31  C   UNL     1      -6.651   0.033 -30.587  1.00  0.00     0.150 C 
BRANCH  28  32
HETATM   32  C   UNL     1      -4.546  -0.632 -33.770  1.00  0.00     0.275 C 
BRANCH  32  33
HETATM   33  C   UNL     1      -4.968  -2.039 -34.097  1.00  0.00    -0.011 A 
HETATM   34  C   UNL     1      -6.192  -2.322 -34.728  1.00  0.00     0.042 A 
HETATM   35 CL   UNL     1      -7.296  -1.057 -35.141  1.00  0.00    -0.084 Cl
HETATM   36  C   UNL     1      -6.565  -3.637 -35.012  1.00  0.00     0.024 A 
HETATM   37  C   UNL     1      -5.719  -4.690 -34.669  1.00  0.00     0.002 A 
HETATM   38  C   UNL     1      -4.502  -4.428 -34.045  1.00  0.00     0.001 A 
HETATM   39  C   UNL     1      -4.125  -3.114 -33.762  1.00  0.00     0.010 A 
ENDBRANCH  32  33
ENDBRANCH  28  32
ENDBRANCH   4  25
TORSDOF 9
ENDMDL
MODEL 8
REMARK VINA RESULT:      -8.8      1.489      2.307
REMARK  9 active torsions:
REMARK  status: ('A' for Active; 'I' for Inactive)
REMARK    1  A    between atoms: C_4  and  O_5 
REMARK    2  A    between atoms: O_5  and  C_6 
REMARK    3  A    between atoms: C_6  and  C_7 
REMARK       I    between atoms: C_7  and  N_8 
REMARK    4  A    between atoms: N_8  and  C_9 
REMARK    5  A    between atoms: C_9  and  N_10 
REMARK    6  A    between atoms: N_10  and  C_11 
REMARK    7  A    between atoms: C_14  and  N_15 
REMARK    8  A    between atoms: N_18  and  C_20 
REMARK    9  A    between atoms: C_20  and  C_21 
ROOT
HETATM    1  C   UNL     1      -6.434   6.823 -29.864  1.00  0.00     0.034 A 
HETATM    2  C   UNL     1      -5.376   5.948 -30.084  1.00  0.00     0.032 A 
HETATM    3  C   UNL     1      -5.590   4.562 -30.144  1.00  0.00     0.031 A 
HETATM    4  C   UNL     1      -6.868   4.012 -30.022  1.00  0.00     0.030 A 
HETATM    5  C   UNL     1      -7.916   4.906 -29.751  1.00  0.00     0.031 A 
HETATM    6  C   UNL     1      -7.703   6.286 -29.651  1.00  0.00     0.032 A 
ENDROOT
BRANCH   1   7
HETATM    7  N   UNL     1      -6.290   8.219 -29.765  1.00  0.00    -0.333 N 
HETATM    8  H   UNL     1      -6.503   8.615 -28.848  1.00  0.00     0.168 HD
BRANCH   7   9
HETATM    9  C   UNL     1      -6.035   9.171 -30.727  1.00  0.00     0.178 C 
HETATM   10  S   UNL     1      -7.130  10.046 -31.639  1.00  0.00    -0.040 SA
BRANCH   9  11
HETATM   11  N   UNL     1      -4.696   9.452 -30.926  1.00  0.00    -0.302 N 
HETATM   12  C   UNL     1      -3.675   9.560 -29.989  1.00  0.00     0.248 C 
HETATM   13  O   UNL     1      -3.859   9.561 -28.772  1.00  0.00    -0.271 OA
HETATM   14  H   UNL     1      -4.432   9.580 -31.897  1.00  0.00     0.171 HD
BRANCH  12  15
HETATM   15  C   UNL     1      -2.292   9.656 -30.623  1.00  0.00     0.278 C 
BRANCH  15  16
HETATM   16  O   UNL     1      -2.300   9.225 -31.977  1.00  0.00    -0.342 OA
BRANCH  16  17
HETATM   17  C   UNL     1      -1.835   7.965 -32.240  1.00  0.00     0.070 A 
HETATM   18  C   UNL     1      -2.036   7.243 -33.419  1.00  0.00     0.043 A 
HETATM   19  C   UNL     1      -1.489   5.960 -33.572  1.00  0.00    -0.059 A 
HETATM   20  C   UNL     1      -1.723   5.180 -34.833  1.00  0.00     0.048 C 
HETATM   21  C   UNL     1      -0.768   5.392 -32.516  1.00  0.00     0.013 A 
HETATM   22  C   UNL     1      -0.562   6.101 -31.328  1.00  0.00    -0.059 A 
HETATM   23  C   UNL     1      -1.109   7.383 -31.197  1.00  0.00     0.043 A 
HETATM   24  C   UNL     1       0.201   5.470 -30.200  1.00  0.00     0.048 C 
ENDBRANCH  16  17
ENDBRANCH  15  16
ENDBRANCH  12  15
ENDBRANCH   9  11
ENDBRANCH   7   9
ENDBRANCH   1   7
BRANCH   4  25
HETATM   25  N   UNL     1      -7.143   2.647 -30.133  1.00  0.00    -0.378 N 
HETATM   26  C   UNL     1      -6.051   1.661 -30.060  1.00  0.00     0.150 C 
HETATM   27  C   UNL     1      -5.468   1.322 -31.449  1.00  0.00     0.255 C 
HETATM   28  N   UNL     1      -6.574   0.960 -32.438  1.00  0.00    -0.064 N 
HETATM   29  H   UNL     1      -7.033   0.109 -32.087  1.00  0.00     0.280 HD
HETATM   30  C   UNL     1      -7.649   2.047 -32.490  1.00  0.00     0.255 C 
HETATM   31  C   UNL     1      -8.223   2.299 -31.080  1.00  0.00     0.150 C 
BRANCH  28  32
HETATM   32  C   UNL     1      -6.045   0.630 -33.814  1.00  0.00     0.275 C 
BRANCH  32  33
HETATM   33  C   UNL     1      -5.844  -0.844 -34.048  1.00  0.00    -0.011 A 
HETATM   34  C   UNL     1      -4.608  -1.472 -33.821  1.00  0.00     0.042 A 
HETATM   35 CL   UNL     1      -3.235  -0.571 -33.280  1.00  0.00    -0.084 Cl
HETATM   36  C   UNL     1      -4.445  -2.839 -34.055  1.00  0.00     0.024 A 
HETATM   37  C   UNL     1      -5.517  -3.598 -34.520  1.00  0.00     0.002 A 
HETATM   38  C   UNL     1      -6.750  -2.992 -34.749  1.00  0.00     0.001 A 
HETATM   39  C   UNL     1      -6.916  -1.626 -34.514  1.00  0.00     0.010 A 
ENDBRANCH  32  33
ENDBRANCH  28  32
ENDBRANCH   4  25
TORSDOF 9
ENDMDL
MODEL 9
REMARK VINA RESULT:      -8.7      2.170      3.100
REMARK  9 active torsions:
REMARK  status: ('A' for Active; 'I' for Inactive)
REMARK    1  A    between atoms: C_4  and  O_5 
REMARK    2  A    between atoms: O_5  and  C_6 
REMARK    3  A    between atoms: C_6  and  C_7 
REMARK       I    between atoms: C_7  and  N_8 
REMARK    4  A    between atoms: N_8  and  C_9 
REMARK    5  A    between atoms: C_9  and  N_10 
REMARK    6  A    between atoms: N_10  and  C_11 
REMARK    7  A    between atoms: C_14  and  N_15 
REMARK    8  A    between atoms: N_18  and  C_20 
REMARK    9  A    between atoms: C_20  and  C_21 
ROOT
HETATM    1  C   UNL     1      -5.810   7.333 -30.366  1.00  0.00     0.034 A 
HETATM    2  C   UNL     1      -6.316   7.219 -31.656  1.00  0.00     0.032 A 
HETATM    3  C   UNL     1      -5.817   6.250 -32.541  1.00  0.00     0.031 A 
HETATM    4  C   UNL     1      -4.825   5.345 -32.153  1.00  0.00     0.030 A 
HETATM    5  C   UNL     1      -4.292   5.507 -30.865  1.00  0.00     0.031 A 
HETATM    6  C   UNL     1      -4.759   6.497 -29.991  1.00  0.00     0.032 A 
ENDROOT
BRANCH   1   7
HETATM    7  N   UNL     1      -6.243   8.296 -29.435  1.00  0.00    -0.333 N 
HETATM    8  H   UNL     1      -6.981   7.985 -28.800  1.00  0.00     0.168 HD
BRANCH   7   9
HETATM    9  C   UNL     1      -5.938   9.632 -29.310  1.00  0.00     0.178 C 
HETATM   10  S   UNL     1      -6.843  10.842 -28.592  1.00  0.00    -0.040 SA
BRANCH   9  11
HETATM   11  N   UNL     1      -4.704   9.997 -29.817  1.00  0.00    -0.302 N 
HETATM   12  C   UNL     1      -3.440   9.796 -29.276  1.00  0.00     0.248 C 
HETATM   13  O   UNL     1      -3.242   9.369 -28.139  1.00  0.00    -0.271 OA
HETATM   14  H   UNL     1      -4.740  10.462 -30.719  1.00  0.00     0.171 HD
BRANCH  12  15
HETATM   15  C   UNL     1      -2.315  10.141 -30.245  1.00  0.00     0.278 C 
BRANCH  15  16
HETATM   16  O   UNL     1      -2.533   9.575 -31.530  1.00  0.00    -0.342 OA
BRANCH  16  17
HETATM   17  C   UNL     1      -1.930   8.376 -31.802  1.00  0.00     0.070 A 
HETATM   18  C   UNL     1      -1.967   7.694 -33.020  1.00  0.00     0.043 A 
HETATM   19  C   UNL     1      -1.290   6.476 -33.176  1.00  0.00    -0.059 A 
HETATM   20  C   UNL     1      -1.348   5.736 -34.481  1.00  0.00     0.048 C 
HETATM   21  C   UNL     1      -0.603   5.928 -32.086  1.00  0.00     0.013 A 
HETATM   22  C   UNL     1      -0.561   6.598 -30.859  1.00  0.00    -0.059 A 
HETATM   23  C   UNL     1      -1.237   7.817 -30.725  1.00  0.00     0.043 A 
HETATM   24  C   UNL     1       0.166   5.988 -29.696  1.00  0.00     0.048 C 
ENDBRANCH  16  17
ENDBRANCH  15  16
ENDBRANCH  12  15
ENDBRANCH   9  11
ENDBRANCH   7   9
ENDBRANCH   1   7
BRANCH   4  25
HETATM   25  N   UNL     1      -4.337   4.326 -32.974  1.00  0.00    -0.378 N 
HETATM   26  C   UNL     1      -5.220   3.678 -33.959  1.00  0.00     0.150 C 
HETATM   27  C   UNL     1      -5.926   2.430 -33.387  1.00  0.00     0.255 C 
HETATM   28  N   UNL     1      -4.926   1.485 -32.724  1.00  0.00    -0.064 N 
HETATM   29  H   UNL     1      -4.281   1.158 -33.457  1.00  0.00     0.280 HD
HETATM   30  C   UNL     1      -4.074   2.218 -31.687  1.00  0.00     0.255 C 
HETATM   31  C   UNL     1      -3.358   3.421 -32.336  1.00  0.00     0.150 C 
BRANCH  28  32
HETATM   32  C   UNL     1      -5.579   0.253 -32.143  1.00  0.00     0.275 C 
BRANCH  32  33
HETATM   33  C   UNL     1      -5.638  -0.909 -33.098  1.00  0.00    -0.011 A 
HETATM   34  C   UNL     1      -6.833  -1.296 -33.727  1.00  0.00     0.042 A 
HETATM   35 CL   UNL     1      -8.316  -0.465 -33.413  1.00  0.00    -0.084 Cl
HETATM   36  C   UNL     1      -6.864  -2.385 -34.601  1.00  0.00     0.024 A 
HETATM   37  C   UNL     1      -5.697  -3.102 -34.859  1.00  0.00     0.002 A 
HETATM   38  C   UNL     1      -4.503  -2.732 -34.246  1.00  0.00     0.001 A 
HETATM   39  C   UNL     1      -4.470  -1.642 -33.373  1.00  0.00     0.010 A 
ENDBRANCH  32  33
ENDBRANCH  28  32
ENDBRANCH   4  25
TORSDOF 9
ENDMDL
MODEL 10
REMARK VINA RESULT:      -8.7      4.540      9.950
REMARK  9 active torsions:
REMARK  status: ('A' for Active; 'I' for Inactive)
REMARK    1  A    between atoms: C_4  and  O_5 
REMARK    2  A    between atoms: O_5  and  C_6 
REMARK    3  A    between atoms: C_6  and  C_7 
REMARK       I    between atoms: C_7  and  N_8 
REMARK    4  A    between atoms: N_8  and  C_9 
REMARK    5  A    between atoms: C_9  and  N_10 
REMARK    6  A    between atoms: N_10  and  C_11 
REMARK    7  A    between atoms: C_14  and  N_15 
REMARK    8  A    between atoms: N_18  and  C_20 
REMARK    9  A    between atoms: C_20  and  C_21 
ROOT
HETATM    1  C   UNL     1      -4.775   4.126 -33.773  1.00  0.00     0.034 A 
HETATM    2  C   UNL     1      -4.085   3.459 -32.766  1.00  0.00     0.032 A 
HETATM    3  C   UNL     1      -2.841   3.926 -32.318  1.00  0.00     0.031 A 
HETATM    4  C   UNL     1      -2.265   5.091 -32.833  1.00  0.00     0.030 A 
HETATM    5  C   UNL     1      -2.952   5.723 -33.881  1.00  0.00     0.031 A 
HETATM    6  C   UNL     1      -4.176   5.239 -34.361  1.00  0.00     0.032 A 
ENDROOT
BRANCH   1   7
HETATM    7  N   UNL     1      -6.013   3.701 -34.291  1.00  0.00    -0.333 N 
HETATM    8  H   UNL     1      -5.977   3.303 -35.231  1.00  0.00     0.168 HD
BRANCH   7   9
HETATM    9  C   UNL     1      -7.292   3.844 -33.803  1.00  0.00     0.178 C 
HETATM   10  S   UNL     1      -8.169   5.252 -33.582  1.00  0.00    -0.040 SA
BRANCH   9  11
HETATM   11  N   UNL     1      -7.933   2.658 -33.496  1.00  0.00    -0.302 N 
HETATM   12  C   UNL     1      -7.938   1.457 -34.196  1.00  0.00     0.248 C 
HETATM   13  O   UNL     1      -7.462   1.320 -35.321  1.00  0.00    -0.271 OA
HETATM   14  H   UNL     1      -8.459   2.676 -32.627  1.00  0.00     0.171 HD
BRANCH  12  15
HETATM   15  C   UNL     1      -8.577   0.315 -33.415  1.00  0.00     0.278 C 
BRANCH  15  16
HETATM   16  O   UNL     1      -7.770  -0.092 -32.319  1.00  0.00    -0.342 OA
BRANCH  16  17
HETATM   17  C   UNL     1      -6.523  -0.582 -32.602  1.00  0.00     0.070 A 
HETATM   18  C   UNL     1      -6.218  -1.555 -33.557  1.00  0.00     0.043 A 
HETATM   19  C   UNL     1      -4.892  -1.961 -33.764  1.00  0.00    -0.059 A 
HETATM   20  C   UNL     1      -4.571  -3.021 -34.777  1.00  0.00     0.048 C 
HETATM   21  C   UNL     1      -3.875  -1.407 -32.978  1.00  0.00     0.013 A 
HETATM   22  C   UNL     1      -4.165  -0.435 -32.015  1.00  0.00    -0.059 A 
HETATM   23  C   UNL     1      -5.495  -0.037 -31.828  1.00  0.00     0.043 A 
HETATM   24  C   UNL     1      -3.064   0.137 -31.170  1.00  0.00     0.048 C 
ENDBRANCH  16  17
ENDBRANCH  15  16
ENDBRANCH  12  15
ENDBRANCH   9  11
ENDBRANCH   7   9
ENDBRANCH   1   7
BRANCH   4  25
HETATM   25  N   UNL     1      -1.059   5.630 -32.379  1.00  0.00    -0.378 N 
HETATM   26  C   UNL     1      -0.461   5.157 -31.119  1.00  0.00     0.150 C 
HETATM   27  C   UNL     1      -0.913   5.993 -29.902  1.00  0.00     0.255 C 
HETATM   28  N   UNL     1      -0.732   7.487 -30.160  1.00  0.00    -0.064 N 
HETATM   29  H   UNL     1       0.276   7.656 -30.286  1.00  0.00     0.280 HD
HETATM   30  C   UNL     1      -1.413   7.912 -31.462  1.00  0.00     0.255 C 
HETATM   31  C   UNL     1      -0.879   7.073 -32.642  1.00  0.00     0.150 C 
BRANCH  28  32
HETATM   32  C   UNL     1      -1.171   8.341 -28.994  1.00  0.00     0.275 C 
BRANCH  32  33
HETATM   33  C   UNL     1      -0.103   8.538 -27.951  1.00  0.00    -0.011 A 
HETATM   34  C   UNL     1       0.028   9.743 -27.239  1.00  0.00     0.042 A 
HETATM   35 CL   UNL     1      -1.025  11.080 -27.544  1.00  0.00    -0.084 Cl
HETATM   36  C   UNL     1       1.034   9.905 -26.284  1.00  0.00     0.024 A 
HETATM   37  C   UNL     1       1.923   8.863 -26.027  1.00  0.00     0.002 A 
HETATM   38  C   UNL     1       1.807   7.662 -26.723  1.00  0.00     0.001 A 
HETATM   39  C   UNL     1       0.801   7.497 -27.677  1.00  0.00     0.010 A 
ENDBRANCH  32  33
ENDBRANCH  28  32
ENDBRANCH   4  25
TORSDOF 9
ENDMDL
