MODEL 1
REMARK VINA RESULT:      -9.5      0.000      0.000
REMARK  6 active torsions:
REMARK  status: ('A' for Active; 'I' for Inactive)
REMARK    1  A    between atoms: O_2  and  C_3 
REMARK    2  A    between atoms: C_6  and  C_7 
REMARK    3  A    between atoms: N_9  and  C_10 
REMARK    4  A    between atoms: C_17  and  C_18 
REMARK       I    between atoms: C_18  and  N_19 
REMARK    5  A    between atoms: N_19  and  N_20 
REMARK       I    between atoms: N_20  and  C_21 
REMARK    6  A    between atoms: C_21  and  C_22 
ROOT
HETATM    1  C   UNL     1      -7.561   0.319 -33.548  1.00  0.00     0.105 A 
HETATM    2  N   UNL     1      -8.840   0.091 -33.908  1.00  0.00    -0.166 NA
HETATM    3  N   UNL     1      -9.518   1.234 -33.692  1.00  0.00    -0.244 N 
HETATM    4  C   UNL     1      -8.693   2.209 -33.196  1.00  0.00     0.138 A 
HETATM    5  C   UNL     1      -7.424   1.664 -33.081  1.00  0.00     0.082 A 
ENDROOT
BRANCH   5   6
HETATM    6  C   UNL     1      -6.281   2.398 -32.568  1.00  0.00     0.274 C 
HETATM    7  N   UNL     1      -5.607   3.108 -33.541  1.00  0.00    -0.263 N 
HETATM    8  H   UNL     1      -5.829   3.042 -34.534  1.00  0.00     0.190 HD
HETATM    9  O   UNL     1      -5.938   2.406 -31.391  1.00  0.00    -0.266 OA
BRANCH   7  10
HETATM   10  N   UNL     1      -4.446   3.812 -33.209  1.00  0.00    -0.262 N 
HETATM   11  C   UNL     1      -4.051   4.846 -34.031  1.00  0.00     0.286 C 
HETATM   12  O   UNL     1      -4.682   5.135 -35.048  1.00  0.00    -0.264 OA
HETATM   13  H   UNL     1      -3.984   3.570 -32.337  1.00  0.00     0.190 HD
BRANCH  11  14
HETATM   14  C   UNL     1      -2.864   5.561 -33.622  1.00  0.00     0.102 A 
HETATM   15  N   UNL     1      -2.427   6.674 -34.311  1.00  0.00    -0.361 N 
HETATM   16  H   UNL     1      -2.897   7.050 -35.126  1.00  0.00     0.165 HD
HETATM   17  C   UNL     1      -1.291   7.175 -33.735  1.00  0.00     0.088 A 
HETATM   18  C   UNL     1      -0.979   6.378 -32.660  1.00  0.00     0.019 A 
HETATM   19  C   UNL     1      -1.964   5.362 -32.586  1.00  0.00     0.036 A 
ENDBRANCH  11  14
ENDBRANCH   7  10
ENDBRANCH   5   6
BRANCH   1  20
HETATM   20  C   UNL     1      -6.575  -0.767 -33.739  1.00  0.00    -0.004 A 
HETATM   21  C   UNL     1      -6.890  -1.850 -34.583  1.00  0.00     0.016 A 
HETATM   22  C   UNL     1      -5.977  -2.881 -34.842  1.00  0.00     0.037 A 
HETATM   23  C   UNL     1      -4.717  -2.858 -34.253  1.00  0.00     0.068 A 
HETATM   24  C   UNL     1      -4.395  -1.806 -33.399  1.00  0.00     0.037 A 
HETATM   25  C   UNL     1      -5.304  -0.765 -33.156  1.00  0.00     0.016 A 
BRANCH  23  26
HETATM   26  O   UNL     1      -3.732  -3.790 -34.423  1.00  0.00    -0.356 OA
HETATM   27  C   UNL     1      -3.696  -4.854 -33.481  1.00  0.00     0.210 C 
ENDBRANCH  23  26
ENDBRANCH   1  20
BRANCH   3  28
HETATM   28  C   UNL     1     -10.906   1.330 -33.989  1.00  0.00     0.058 A 
HETATM   29  C   UNL     1     -11.784   0.350 -33.501  1.00  0.00     0.031 A 
HETATM   30  C   UNL     1     -13.149   0.419 -33.790  1.00  0.00     0.002 A 
HETATM   31  C   UNL     1     -13.647   1.464 -34.565  1.00  0.00     0.000 A 
HETATM   32  C   UNL     1     -12.783   2.443 -35.051  1.00  0.00     0.002 A 
HETATM   33  C   UNL     1     -11.415   2.381 -34.766  1.00  0.00     0.031 A 
ENDBRANCH   3  28
TORSDOF 6
ENDMDL
MODEL 2
REMARK VINA RESULT:      -9.3      1.391      1.683
REMARK  6 active torsions:
REMARK  status: ('A' for Active; 'I' for Inactive)
REMARK    1  A    between atoms: O_2  and  C_3 
REMARK    2  A    between atoms: C_6  and  C_7 
REMARK    3  A    between atoms: N_9  and  C_10 
REMARK    4  A    between atoms: C_17  and  C_18 
REMARK       I    between atoms: C_18  and  N_19 
REMARK    5  A    between atoms: N_19  and  N_20 
REMARK       I    between atoms: N_20  and  C_21 
REMARK    6  A    between atoms: C_21  and  C_22 
ROOT
HETATM    1  C   UNL     1      -7.769   0.569 -33.669  1.00  0.00     0.105 A 
HETATM    2  N   UNL     1      -9.075   0.240 -33.630  1.00  0.00    -0.166 NA
HETATM    3  N   UNL     1      -9.768   1.393 -33.564  1.00  0.00    -0.244 N 
HETATM    4  C   UNL     1      -8.927   2.473 -33.561  1.00  0.00     0.138 A 
HETATM    5  C   UNL     1      -7.629   1.992 -33.621  1.00  0.00     0.082 A 
ENDROOT
BRANCH   5   6
HETATM    6  C   UNL     1      -6.456   2.848 -33.616  1.00  0.00     0.274 C 
HETATM    7  N   UNL     1      -5.872   2.968 -32.370  1.00  0.00    -0.263 N 
HETATM    8  H   UNL     1      -6.283   2.578 -31.523  1.00  0.00     0.190 HD
HETATM    9  O   UNL     1      -6.008   3.411 -34.610  1.00  0.00    -0.266 OA
BRANCH   7  10
HETATM   10  N   UNL     1      -4.772   3.813 -32.197  1.00  0.00    -0.262 N 
HETATM   11  C   UNL     1      -3.513   3.249 -32.176  1.00  0.00     0.286 C 
HETATM   12  O   UNL     1      -3.352   2.033 -32.283  1.00  0.00    -0.264 OA
HETATM   13  H   UNL     1      -4.949   4.812 -32.161  1.00  0.00     0.190 HD
BRANCH  11  14
HETATM   14  C   UNL     1      -2.411   4.171 -32.030  1.00  0.00     0.102 A 
HETATM   15  N   UNL     1      -1.890   4.470 -30.787  1.00  0.00    -0.361 N 
HETATM   16  H   UNL     1      -2.238   4.073 -29.922  1.00  0.00     0.165 HD
HETATM   17  C   UNL     1      -0.857   5.361 -30.906  1.00  0.00     0.088 A 
HETATM   18  C   UNL     1      -0.705   5.653 -32.240  1.00  0.00     0.019 A 
HETATM   19  C   UNL     1      -1.680   4.908 -32.950  1.00  0.00     0.036 A 
ENDBRANCH  11  14
ENDBRANCH   7  10
ENDBRANCH   5   6
BRANCH   1  20
HETATM   20  C   UNL     1      -6.775  -0.519 -33.802  1.00  0.00    -0.004 A 
HETATM   21  C   UNL     1      -6.993  -1.546 -34.740  1.00  0.00     0.016 A 
HETATM   22  C   UNL     1      -6.063  -2.575 -34.946  1.00  0.00     0.037 A 
HETATM   23  C   UNL     1      -4.884  -2.604 -34.209  1.00  0.00     0.068 A 
HETATM   24  C   UNL     1      -4.660  -1.607 -33.262  1.00  0.00     0.037 A 
HETATM   25  C   UNL     1      -5.584  -0.568 -33.070  1.00  0.00     0.016 A 
BRANCH  23  26
HETATM   26  O   UNL     1      -3.893  -3.539 -34.314  1.00  0.00    -0.356 OA
HETATM   27  C   UNL     1      -3.522  -4.206 -33.114  1.00  0.00     0.210 C 
ENDBRANCH  23  26
ENDBRANCH   1  20
BRANCH   3  28
HETATM   28  C   UNL     1     -11.191   1.391 -33.526  1.00  0.00     0.058 A 
HETATM   29  C   UNL     1     -11.880   0.172 -33.604  1.00  0.00     0.031 A 
HETATM   30  C   UNL     1     -13.277   0.148 -33.579  1.00  0.00     0.002 A 
HETATM   31  C   UNL     1     -13.994   1.338 -33.476  1.00  0.00     0.000 A 
HETATM   32  C   UNL     1     -13.317   2.554 -33.396  1.00  0.00     0.002 A 
HETATM   33  C   UNL     1     -11.919   2.585 -33.420  1.00  0.00     0.031 A 
ENDBRANCH   3  28
TORSDOF 6
ENDMDL
MODEL 3
REMARK VINA RESULT:      -9.3      2.828      6.123
REMARK  6 active torsions:
REMARK  status: ('A' for Active; 'I' for Inactive)
REMARK    1  A    between atoms: O_2  and  C_3 
REMARK    2  A    between atoms: C_6  and  C_7 
REMARK    3  A    between atoms: N_9  and  C_10 
REMARK    4  A    between atoms: C_17  and  C_18 
REMARK       I    between atoms: C_18  and  N_19 
REMARK    5  A    between atoms: N_19  and  N_20 
REMARK       I    between atoms: N_20  and  C_21 
REMARK    6  A    between atoms: C_21  and  C_22 
ROOT
HETATM    1  C   UNL     1      -6.298   1.456 -33.277  1.00  0.00     0.105 A 
HETATM    2  N   UNL     1      -6.519   0.289 -33.914  1.00  0.00    -0.166 NA
HETATM    3  N   UNL     1      -5.596  -0.584 -33.466  1.00  0.00    -0.244 N 
HETATM    4  C   UNL     1      -4.774   0.002 -32.541  1.00  0.00     0.138 A 
HETATM    5  C   UNL     1      -5.183   1.317 -32.390  1.00  0.00     0.082 A 
ENDROOT
BRANCH   5   6
HETATM    6  C   UNL     1      -4.532   2.262 -31.501  1.00  0.00     0.274 C 
HETATM    7  N   UNL     1      -3.370   2.793 -32.024  1.00  0.00    -0.263 N 
HETATM    8  H   UNL     1      -2.959   2.477 -32.901  1.00  0.00     0.190 HD
HETATM    9  O   UNL     1      -4.960   2.577 -30.395  1.00  0.00    -0.266 OA
BRANCH   7  10
HETATM   10  N   UNL     1      -2.599   3.669 -31.256  1.00  0.00    -0.262 N 
HETATM   11  C   UNL     1      -1.857   4.632 -31.909  1.00  0.00     0.286 C 
HETATM   12  O   UNL     1      -1.848   4.711 -33.138  1.00  0.00    -0.264 OA
HETATM   13  H   UNL     1      -2.674   3.597 -30.245  1.00  0.00     0.190 HD
BRANCH  11  14
HETATM   14  C   UNL     1      -1.107   5.532 -31.065  1.00  0.00     0.102 A 
HETATM   15  N   UNL     1      -1.676   6.101 -29.944  1.00  0.00    -0.361 N 
HETATM   16  H   UNL     1      -2.630   5.928 -29.648  1.00  0.00     0.165 HD
HETATM   17  C   UNL     1      -0.772   6.911 -29.310  1.00  0.00     0.088 A 
HETATM   18  C   UNL     1       0.399   6.876 -30.028  1.00  0.00     0.019 A 
HETATM   19  C   UNL     1       0.192   6.012 -31.132  1.00  0.00     0.036 A 
ENDBRANCH  11  14
ENDBRANCH   7  10
ENDBRANCH   5   6
BRANCH   1  20
HETATM   20  C   UNL     1      -7.216   2.585 -33.542  1.00  0.00    -0.004 A 
HETATM   21  C   UNL     1      -8.597   2.340 -33.672  1.00  0.00     0.016 A 
HETATM   22  C   UNL     1      -9.520   3.376 -33.873  1.00  0.00     0.037 A 
HETATM   23  C   UNL     1      -9.080   4.692 -33.956  1.00  0.00     0.068 A 
HETATM   24  C   UNL     1      -7.715   4.952 -33.850  1.00  0.00     0.037 A 
HETATM   25  C   UNL     1      -6.795   3.916 -33.631  1.00  0.00     0.016 A 
BRANCH  23  26
HETATM   26  O   UNL     1      -9.867   5.794 -34.141  1.00  0.00    -0.356 OA
HETATM   27  C   UNL     1     -10.169   6.138 -35.487  1.00  0.00     0.210 C 
ENDBRANCH  23  26
ENDBRANCH   1  20
BRANCH   3  28
HETATM   28  C   UNL     1      -5.568  -1.926 -33.938  1.00  0.00     0.058 A 
HETATM   29  C   UNL     1      -6.734  -2.492 -34.476  1.00  0.00     0.031 A 
HETATM   30  C   UNL     1      -6.730  -3.812 -34.934  1.00  0.00     0.002 A 
HETATM   31  C   UNL     1      -5.567  -4.575 -34.859  1.00  0.00     0.000 A 
HETATM   32  C   UNL     1      -4.405  -4.020 -34.328  1.00  0.00     0.002 A 
HETATM   33  C   UNL     1      -4.400  -2.699 -33.867  1.00  0.00     0.031 A 
ENDBRANCH   3  28
TORSDOF 6
ENDMDL
MODEL 4
REMARK VINA RESULT:      -9.2      2.643      8.292
REMARK  6 active torsions:
REMARK  status: ('A' for Active; 'I' for Inactive)
REMARK    1  A    between atoms: O_2  and  C_3 
REMARK    2  A    between atoms: C_6  and  C_7 
REMARK    3  A    between atoms: N_9  and  C_10 
REMARK    4  A    between atoms: C_17  and  C_18 
REMARK       I    between atoms: C_18  and  N_19 
REMARK    5  A    between atoms: N_19  and  N_20 
REMARK       I    between atoms: N_20  and  C_21 
REMARK    6  A    between atoms: C_21  and  C_22 
ROOT
HETATM    1  C   UNL     1      -6.378   1.258 -33.312  1.00  0.00     0.105 A 
HETATM    2  N   UNL     1      -5.677   0.191 -33.744  1.00  0.00    -0.166 NA
HETATM    3  N   UNL     1      -6.495  -0.876 -33.658  1.00  0.00    -0.244 N 
HETATM    4  C   UNL     1      -7.725  -0.516 -33.176  1.00  0.00     0.138 A 
HETATM    5  C   UNL     1      -7.696   0.848 -32.933  1.00  0.00     0.082 A 
ENDROOT
BRANCH   5   6
HETATM    6  C   UNL     1      -8.821   1.589 -32.394  1.00  0.00     0.274 C 
HETATM    7  N   UNL     1     -10.010   1.331 -33.048  1.00  0.00    -0.263 N 
HETATM    8  H   UNL     1     -10.070   0.757 -33.888  1.00  0.00     0.190 HD
HETATM    9  O   UNL     1      -8.747   2.366 -31.448  1.00  0.00    -0.266 OA
BRANCH   7  10
HETATM   10  N   UNL     1     -11.169   2.021 -32.683  1.00  0.00    -0.262 N 
HETATM   11  C   UNL     1     -12.361   1.656 -33.273  1.00  0.00     0.286 C 
HETATM   12  O   UNL     1     -12.411   0.763 -34.119  1.00  0.00    -0.264 OA
HETATM   13  H   UNL     1     -11.088   2.717 -31.947  1.00  0.00     0.190 HD
BRANCH  11  14
HETATM   14  C   UNL     1     -13.531   2.378 -32.832  1.00  0.00     0.102 A 
HETATM   15  N   UNL     1     -14.643   1.714 -32.354  1.00  0.00    -0.361 N 
HETATM   16  H   UNL     1     -14.707   0.705 -32.283  1.00  0.00     0.165 HD
HETATM   17  C   UNL     1     -15.616   2.609 -31.999  1.00  0.00     0.088 A 
HETATM   18  C   UNL     1     -15.138   3.872 -32.254  1.00  0.00     0.019 A 
HETATM   19  C   UNL     1     -13.829   3.731 -32.778  1.00  0.00     0.036 A 
ENDBRANCH  11  14
ENDBRANCH   7  10
ENDBRANCH   5   6
BRANCH   1  20
HETATM   20  C   UNL     1      -5.730   2.587 -33.354  1.00  0.00    -0.004 A 
HETATM   21  C   UNL     1      -4.528   2.794 -32.650  1.00  0.00     0.016 A 
HETATM   22  C   UNL     1      -3.842   4.016 -32.694  1.00  0.00     0.037 A 
HETATM   23  C   UNL     1      -4.349   5.071 -33.445  1.00  0.00     0.068 A 
HETATM   24  C   UNL     1      -5.548   4.891 -34.132  1.00  0.00     0.037 A 
HETATM   25  C   UNL     1      -6.223   3.661 -34.101  1.00  0.00     0.016 A 
BRANCH  23  26
HETATM   26  O   UNL     1      -3.782   6.307 -33.582  1.00  0.00    -0.356 OA
HETATM   27  C   UNL     1      -2.506   6.354 -34.207  1.00  0.00     0.210 C 
ENDBRANCH  23  26
ENDBRANCH   1  20
BRANCH   3  28
HETATM   28  C   UNL     1      -6.056  -2.169 -34.059  1.00  0.00     0.058 A 
HETATM   29  C   UNL     1      -4.699  -2.506 -33.933  1.00  0.00     0.031 A 
HETATM   30  C   UNL     1      -4.245  -3.766 -34.330  1.00  0.00     0.002 A 
HETATM   31  C   UNL     1      -5.139  -4.697 -34.854  1.00  0.00     0.000 A 
HETATM   32  C   UNL     1      -6.488  -4.372 -34.980  1.00  0.00     0.002 A 
HETATM   33  C   UNL     1      -6.951  -3.113 -34.584  1.00  0.00     0.031 A 
ENDBRANCH   3  28
TORSDOF 6
ENDMDL
MODEL 5
REMARK VINA RESULT:      -9.2      1.836      7.725
REMARK  6 active torsions:
REMARK  status: ('A' for Active; 'I' for Inactive)
REMARK    1  A    between atoms: O_2  and  C_3 
REMARK    2  A    between atoms: C_6  and  C_7 
REMARK    3  A    between atoms: N_9  and  C_10 
REMARK    4  A    between atoms: C_17  and  C_18 
REMARK       I    between atoms: C_18  and  N_19 
REMARK    5  A    between atoms: N_19  and  N_20 
REMARK       I    between atoms: N_20  and  C_21 
REMARK    6  A    between atoms: C_21  and  C_22 
ROOT
HETATM    1  C   UNL     1      -3.985   1.803 -32.362  1.00  0.00     0.105 A 
HETATM    2  N   UNL     1      -2.862   2.547 -32.377  1.00  0.00    -0.166 NA
HETATM    3  N   UNL     1      -3.243   3.834 -32.261  1.00  0.00    -0.244 N 
HETATM    4  C   UNL     1      -4.605   3.937 -32.170  1.00  0.00     0.138 A 
HETATM    5  C   UNL     1      -5.128   2.655 -32.237  1.00  0.00     0.082 A 
ENDROOT
BRANCH   5   6
HETATM    6  C   UNL     1      -6.549   2.366 -32.192  1.00  0.00     0.274 C 
HETATM    7  N   UNL     1      -7.198   2.628 -33.383  1.00  0.00    -0.263 N 
HETATM    8  H   UNL     1      -6.744   3.074 -34.178  1.00  0.00     0.190 HD
HETATM    9  O   UNL     1      -7.133   1.925 -31.208  1.00  0.00    -0.266 OA
BRANCH   7  10
HETATM   10  N   UNL     1      -8.583   2.459 -33.471  1.00  0.00    -0.262 N 
HETATM   11  C   UNL     1      -9.065   1.395 -34.204  1.00  0.00     0.286 C 
HETATM   12  O   UNL     1      -8.307   0.622 -34.790  1.00  0.00    -0.264 OA
HETATM   13  H   UNL     1      -9.168   3.092 -32.934  1.00  0.00     0.190 HD
BRANCH  11  14
HETATM   14  C   UNL     1     -10.502   1.247 -34.234  1.00  0.00     0.102 A 
HETATM   15  N   UNL     1     -11.261   1.839 -35.223  1.00  0.00    -0.361 N 
HETATM   16  H   UNL     1     -10.870   2.399 -35.971  1.00  0.00     0.165 HD
HETATM   17  C   UNL     1     -12.587   1.556 -35.039  1.00  0.00     0.088 A 
HETATM   18  C   UNL     1     -12.698   0.775 -33.913  1.00  0.00     0.019 A 
HETATM   19  C   UNL     1     -11.390   0.580 -33.403  1.00  0.00     0.036 A 
ENDBRANCH  11  14
ENDBRANCH   7  10
ENDBRANCH   5   6
BRANCH   1  20
HETATM   20  C   UNL     1      -3.852   0.330 -32.418  1.00  0.00    -0.004 A 
HETATM   21  C   UNL     1      -4.615  -0.400 -33.350  1.00  0.00     0.016 A 
HETATM   22  C   UNL     1      -4.494  -1.790 -33.484  1.00  0.00     0.037 A 
HETATM   23  C   UNL     1      -3.603  -2.491 -32.678  1.00  0.00     0.068 A 
HETATM   24  C   UNL     1      -2.855  -1.788 -31.736  1.00  0.00     0.037 A 
HETATM   25  C   UNL     1      -2.964  -0.394 -31.617  1.00  0.00     0.016 A 
BRANCH  23  26
HETATM   26  O   UNL     1      -3.380  -3.839 -32.707  1.00  0.00    -0.356 OA
HETATM   27  C   UNL     1      -3.735  -4.514 -33.906  1.00  0.00     0.210 C 
ENDBRANCH  23  26
ENDBRANCH   1  20
BRANCH   3  28
HETATM   28  C   UNL     1      -2.281   4.882 -32.228  1.00  0.00     0.058 A 
HETATM   29  C   UNL     1      -1.294   4.880 -31.232  1.00  0.00     0.031 A 
HETATM   30  C   UNL     1      -0.347   5.906 -31.175  1.00  0.00     0.002 A 
HETATM   31  C   UNL     1      -0.378   6.938 -32.110  1.00  0.00     0.000 A 
HETATM   32  C   UNL     1      -1.354   6.947 -33.104  1.00  0.00     0.002 A 
HETATM   33  C   UNL     1      -2.305   5.924 -33.168  1.00  0.00     0.031 A 
ENDBRANCH   3  28
TORSDOF 6
ENDMDL
MODEL 6
REMARK VINA RESULT:      -9.1      2.041      7.684
REMARK  6 active torsions:
REMARK  status: ('A' for Active; 'I' for Inactive)
REMARK    1  A    between atoms: O_2  and  C_3 
REMARK    2  A    between atoms: C_6  and  C_7 
REMARK    3  A    between atoms: N_9  and  C_10 
REMARK    4  A    between atoms: C_17  and  C_18 
REMARK       I    between atoms: C_18  and  N_19 
REMARK    5  A    between atoms: N_19  and  N_20 
REMARK       I    between atoms: N_20  and  C_21 
REMARK    6  A    between atoms: C_21  and  C_22 
ROOT
HETATM    1  C   UNL     1      -5.456   1.481 -32.826  1.00  0.00     0.105 A 
HETATM    2  N   UNL     1      -4.287   2.152 -32.785  1.00  0.00    -0.166 NA
HETATM    3  N   UNL     1      -4.544   3.354 -32.237  1.00  0.00    -0.244 N 
HETATM    4  C   UNL     1      -5.870   3.476 -31.917  1.00  0.00     0.138 A 
HETATM    5  C   UNL     1      -6.499   2.297 -32.284  1.00  0.00     0.082 A 
ENDROOT
BRANCH   5   6
HETATM    6  C   UNL     1      -7.921   2.061 -32.116  1.00  0.00     0.274 C 
HETATM    7  N   UNL     1      -8.693   2.656 -33.094  1.00  0.00    -0.263 N 
HETATM    8  H   UNL     1      -8.310   3.281 -33.802  1.00  0.00     0.190 HD
HETATM    9  O   UNL     1      -8.409   1.396 -31.208  1.00  0.00    -0.266 OA
BRANCH   7  10
HETATM   10  N   UNL     1     -10.087   2.571 -33.028  1.00  0.00    -0.262 N 
HETATM   11  C   UNL     1     -10.722   1.634 -33.816  1.00  0.00     0.286 C 
HETATM   12  O   UNL     1     -10.090   0.902 -34.579  1.00  0.00    -0.264 OA
HETATM   13  H   UNL     1     -10.561   3.160 -32.351  1.00  0.00     0.190 HD
BRANCH  11  14
HETATM   14  C   UNL     1     -12.158   1.565 -33.682  1.00  0.00     0.102 A 
HETATM   15  N   UNL     1     -12.829   2.354 -32.770  1.00  0.00    -0.361 N 
HETATM   16  H   UNL     1     -12.370   3.014 -32.153  1.00  0.00     0.165 HD
HETATM   17  C   UNL     1     -14.175   2.112 -32.831  1.00  0.00     0.088 A 
HETATM   18  C   UNL     1     -14.386   1.150 -33.789  1.00  0.00     0.019 A 
HETATM   19  C   UNL     1     -13.121   0.802 -34.325  1.00  0.00     0.036 A 
ENDBRANCH  11  14
ENDBRANCH   7  10
ENDBRANCH   5   6
BRANCH   1  20
HETATM   20  C   UNL     1      -5.450   0.092 -33.337  1.00  0.00    -0.004 A 
HETATM   21  C   UNL     1      -6.478  -0.331 -34.202  1.00  0.00     0.016 A 
HETATM   22  C   UNL     1      -6.498  -1.618 -34.758  1.00  0.00     0.037 A 
HETATM   23  C   UNL     1      -5.486  -2.522 -34.455  1.00  0.00     0.068 A 
HETATM   24  C   UNL     1      -4.472  -2.127 -33.584  1.00  0.00     0.037 A 
HETATM   25  C   UNL     1      -4.444  -0.833 -33.044  1.00  0.00     0.016 A 
BRANCH  23  26
HETATM   26  O   UNL     1      -5.378  -3.799 -34.929  1.00  0.00    -0.356 OA
HETATM   27  C   UNL     1      -6.594  -4.456 -35.264  1.00  0.00     0.210 C 
ENDBRANCH  23  26
ENDBRANCH   1  20
BRANCH   3  28
HETATM   28  C   UNL     1      -3.505   4.305 -32.036  1.00  0.00     0.058 A 
HETATM   29  C   UNL     1      -2.338   4.225 -32.812  1.00  0.00     0.031 A 
HETATM   30  C   UNL     1      -1.301   5.142 -32.624  1.00  0.00     0.002 A 
HETATM   31  C   UNL     1      -1.420   6.143 -31.663  1.00  0.00     0.000 A 
HETATM   32  C   UNL     1      -2.576   6.232 -30.890  1.00  0.00     0.002 A 
HETATM   33  C   UNL     1      -3.619   5.318 -31.072  1.00  0.00     0.031 A 
ENDBRANCH   3  28
TORSDOF 6
ENDMDL
MODEL 7
REMARK VINA RESULT:      -8.9      2.480      6.070
REMARK  6 active torsions:
REMARK  status: ('A' for Active; 'I' for Inactive)
REMARK    1  A    between atoms: O_2  and  C_3 
REMARK    2  A    between atoms: C_6  and  C_7 
REMARK    3  A    between atoms: N_9  and  C_10 
REMARK    4  A    between atoms: C_17  and  C_18 
REMARK       I    between atoms: C_18  and  N_19 
REMARK    5  A    between atoms: N_19  and  N_20 
REMARK       I    between atoms: N_20  and  C_21 
REMARK    6  A    between atoms: C_21  and  C_22 
ROOT
HETATM    1  C   UNL     1      -6.974   0.952 -33.124  1.00  0.00     0.105 A 
HETATM    2  N   UNL     1      -7.089  -0.254 -33.715  1.00  0.00    -0.166 NA
HETATM    3  N   UNL     1      -5.944  -0.920 -33.473  1.00  0.00    -0.244 N 
HETATM    4  C   UNL     1      -5.082  -0.162 -32.727  1.00  0.00     0.138 A 
HETATM    5  C   UNL     1      -5.698   1.055 -32.483  1.00  0.00     0.082 A 
ENDROOT
BRANCH   5   6
HETATM    6  C   UNL     1      -5.077   2.132 -31.734  1.00  0.00     0.274 C 
HETATM    7  N   UNL     1      -3.737   2.298 -32.025  1.00  0.00    -0.263 N 
HETATM    8  H   UNL     1      -3.216   1.663 -32.628  1.00  0.00     0.190 HD
HETATM    9  O   UNL     1      -5.667   2.841 -30.926  1.00  0.00    -0.266 OA
BRANCH   7  10
HETATM   10  N   UNL     1      -2.989   3.256 -31.335  1.00  0.00    -0.262 N 
HETATM   11  C   UNL     1      -2.279   4.183 -32.068  1.00  0.00     0.286 C 
HETATM   12  O   UNL     1      -2.276   4.163 -33.299  1.00  0.00    -0.264 OA
HETATM   13  H   UNL     1      -3.059   3.263 -30.321  1.00  0.00     0.190 HD
BRANCH  11  14
HETATM   14  C   UNL     1      -1.552   5.170 -31.303  1.00  0.00     0.102 A 
HETATM   15  N   UNL     1      -2.139   5.823 -30.238  1.00  0.00    -0.361 N 
HETATM   16  H   UNL     1      -3.090   5.656 -29.932  1.00  0.00     0.165 HD
HETATM   17  C   UNL     1      -1.256   6.704 -29.675  1.00  0.00     0.088 A 
HETATM   18  C   UNL     1      -0.081   6.632 -30.384  1.00  0.00     0.019 A 
HETATM   19  C   UNL     1      -0.263   5.670 -31.408  1.00  0.00     0.036 A 
ENDBRANCH  11  14
ENDBRANCH   7  10
ENDBRANCH   5   6
BRANCH   1  20
HETATM   20  C   UNL     1      -8.127   1.877 -33.185  1.00  0.00    -0.004 A 
HETATM   21  C   UNL     1      -7.959   3.157 -33.750  1.00  0.00     0.016 A 
HETATM   22  C   UNL     1      -9.026   4.057 -33.882  1.00  0.00     0.037 A 
HETATM   23  C   UNL     1     -10.296   3.698 -33.443  1.00  0.00     0.068 A 
HETATM   24  C   UNL     1     -10.476   2.444 -32.863  1.00  0.00     0.037 A 
HETATM   25  C   UNL     1      -9.411   1.538 -32.749  1.00  0.00     0.016 A 
BRANCH  23  26
HETATM   26  O   UNL     1     -11.421   4.470 -33.517  1.00  0.00    -0.356 OA
HETATM   27  C   UNL     1     -12.367   4.119 -34.519  1.00  0.00     0.210 C 
ENDBRANCH  23  26
ENDBRANCH   1  20
BRANCH   3  28
HETATM   28  C   UNL     1      -5.752  -2.246 -33.954  1.00  0.00     0.058 A 
HETATM   29  C   UNL     1      -4.505  -2.866 -33.785  1.00  0.00     0.031 A 
HETATM   30  C   UNL     1      -4.293  -4.163 -34.260  1.00  0.00     0.002 A 
HETATM   31  C   UNL     1      -5.320  -4.848 -34.905  1.00  0.00     0.000 A 
HETATM   32  C   UNL     1      -6.562  -4.240 -35.075  1.00  0.00     0.002 A 
HETATM   33  C   UNL     1      -6.783  -2.942 -34.602  1.00  0.00     0.031 A 
ENDBRANCH   3  28
TORSDOF 6
ENDMDL
MODEL 8
REMARK VINA RESULT:      -8.7      3.154      7.593
REMARK  6 active torsions:
REMARK  status: ('A' for Active; 'I' for Inactive)
REMARK    1  A    between atoms: O_2  and  C_3 
REMARK    2  A    between atoms: C_6  and  C_7 
REMARK    3  A    between atoms: N_9  and  C_10 
REMARK    4  A    between atoms: C_17  and  C_18 
REMARK       I    between atoms: C_18  and  N_19 
REMARK    5  A    between atoms: N_19  and  N_20 
REMARK       I    between atoms: N_20  and  C_21 
REMARK    6  A    between atoms: C_21  and  C_22 
ROOT
HETATM    1  C   UNL     1      -6.094   1.181 -33.430  1.00  0.00     0.105 A 
HETATM    2  N   UNL     1      -5.402   0.048 -33.661  1.00  0.00    -0.166 NA
HETATM    3  N   UNL     1      -6.306  -0.931 -33.856  1.00  0.00    -0.244 N 
HETATM    4  C   UNL     1      -7.583  -0.448 -33.756  1.00  0.00     0.138 A 
HETATM    5  C   UNL     1      -7.498   0.906 -33.477  1.00  0.00     0.082 A 
ENDROOT
BRANCH   5   6
HETATM    6  C   UNL     1      -8.656   1.759 -33.281  1.00  0.00     0.274 C 
HETATM    7  N   UNL     1      -9.120   1.759 -31.980  1.00  0.00    -0.263 N 
HETATM    8  H   UNL     1      -8.750   1.145 -31.257  1.00  0.00     0.190 HD
HETATM    9  O   UNL     1      -9.180   2.426 -34.167  1.00  0.00    -0.266 OA
BRANCH   7  10
HETATM   10  N   UNL     1     -10.270   2.483 -31.653  1.00  0.00    -0.262 N 
HETATM   11  C   UNL     1     -10.121   3.671 -30.968  1.00  0.00     0.286 C 
HETATM   12  O   UNL     1      -9.011   4.080 -30.626  1.00  0.00    -0.264 OA
HETATM   13  H   UNL     1     -11.159   2.132 -31.996  1.00  0.00     0.190 HD
BRANCH  11  14
HETATM   14  C   UNL     1     -11.339   4.395 -30.686  1.00  0.00     0.102 A 
HETATM   15  N   UNL     1     -12.446   3.756 -30.166  1.00  0.00    -0.361 N 
HETATM   16  H   UNL     1     -12.475   2.766 -29.954  1.00  0.00     0.165 HD
HETATM   17  C   UNL     1     -13.469   4.648 -29.985  1.00  0.00     0.088 A 
HETATM   18  C   UNL     1     -13.028   5.882 -30.398  1.00  0.00     0.019 A 
HETATM   19  C   UNL     1     -11.691   5.727 -30.840  1.00  0.00     0.036 A 
ENDBRANCH  11  14
ENDBRANCH   7  10
ENDBRANCH   5   6
BRANCH   1  20
HETATM   20  C   UNL     1      -5.338   2.438 -33.238  1.00  0.00    -0.004 A 
HETATM   21  C   UNL     1      -4.175   2.433 -32.443  1.00  0.00     0.016 A 
HETATM   22  C   UNL     1      -3.391   3.581 -32.265  1.00  0.00     0.037 A 
HETATM   23  C   UNL     1      -3.756   4.774 -32.879  1.00  0.00     0.068 A 
HETATM   24  C   UNL     1      -4.914   4.803 -33.653  1.00  0.00     0.037 A 
HETATM   25  C   UNL     1      -5.688   3.649 -33.844  1.00  0.00     0.016 A 
BRANCH  23  26
HETATM   26  O   UNL     1      -3.082   5.960 -32.798  1.00  0.00    -0.356 OA
HETATM   27  C   UNL     1      -2.500   6.442 -34.003  1.00  0.00     0.210 C 
ENDBRANCH  23  26
ENDBRANCH   1  20
BRANCH   3  28
HETATM   28  C   UNL     1      -5.893  -2.263 -34.143  1.00  0.00     0.058 A 
HETATM   29  C   UNL     1      -6.820  -3.172 -34.673  1.00  0.00     0.031 A 
HETATM   30  C   UNL     1      -6.439  -4.487 -34.951  1.00  0.00     0.002 A 
HETATM   31  C   UNL     1      -5.132  -4.903 -34.703  1.00  0.00     0.000 A 
HETATM   32  C   UNL     1      -4.204  -4.005 -34.179  1.00  0.00     0.002 A 
HETATM   33  C   UNL     1      -4.578  -2.687 -33.898  1.00  0.00     0.031 A 
ENDBRANCH   3  28
TORSDOF 6
ENDMDL
MODEL 9
REMARK VINA RESULT:      -8.7      3.034      7.413
REMARK  6 active torsions:
REMARK  status: ('A' for Active; 'I' for Inactive)
REMARK    1  A    between atoms: O_2  and  C_3 
REMARK    2  A    between atoms: C_6  and  C_7 
REMARK    3  A    between atoms: N_9  and  C_10 
REMARK    4  A    between atoms: C_17  and  C_18 
REMARK       I    between atoms: C_18  and  N_19 
REMARK    5  A    between atoms: N_19  and  N_20 
REMARK       I    between atoms: N_20  and  C_21 
REMARK    6  A    between atoms: C_21  and  C_22 
ROOT
HETATM    1  C   UNL     1      -6.411   1.225 -33.562  1.00  0.00     0.105 A 
HETATM    2  N   UNL     1      -5.644   0.127 -33.715  1.00  0.00    -0.166 NA
HETATM    3  N   UNL     1      -6.478  -0.901 -33.964  1.00  0.00    -0.244 N 
HETATM    4  C   UNL     1      -7.782  -0.485 -33.976  1.00  0.00     0.138 A 
HETATM    5  C   UNL     1      -7.790   0.876 -33.716  1.00  0.00     0.082 A 
ENDROOT
BRANCH   5   6
HETATM    6  C   UNL     1      -9.003   1.668 -33.630  1.00  0.00     0.274 C 
HETATM    7  N   UNL     1      -9.378   2.226 -34.836  1.00  0.00    -0.263 N 
HETATM    8  H   UNL     1      -8.806   2.170 -35.677  1.00  0.00     0.190 HD
HETATM    9  O   UNL     1      -9.649   1.831 -32.600  1.00  0.00    -0.266 OA
BRANCH   7  10
HETATM   10  N   UNL     1     -10.492   3.069 -34.895  1.00  0.00    -0.262 N 
HETATM   11  C   UNL     1     -10.280   4.432 -34.901  1.00  0.00     0.286 C 
HETATM   12  O   UNL     1      -9.145   4.906 -34.831  1.00  0.00    -0.264 OA
HETATM   13  H   UNL     1     -11.404   2.634 -35.000  1.00  0.00     0.190 HD
BRANCH  11  14
HETATM   14  C   UNL     1     -11.463   5.255 -34.999  1.00  0.00     0.102 A 
HETATM   15  N   UNL     1     -11.408   6.523 -35.540  1.00  0.00    -0.361 N 
HETATM   16  H   UNL     1     -10.558   6.947 -35.894  1.00  0.00     0.165 HD
HETATM   17  C   UNL     1     -12.649   7.101 -35.526  1.00  0.00     0.088 A 
HETATM   18  C   UNL     1     -13.524   6.203 -34.963  1.00  0.00     0.019 A 
HETATM   19  C   UNL     1     -12.783   5.042 -34.630  1.00  0.00     0.036 A 
ENDBRANCH  11  14
ENDBRANCH   7  10
ENDBRANCH   5   6
BRANCH   1  20
HETATM   20  C   UNL     1      -5.739   2.523 -33.333  1.00  0.00    -0.004 A 
HETATM   21  C   UNL     1      -5.988   3.596 -34.211  1.00  0.00     0.016 A 
HETATM   22  C   UNL     1      -5.420   4.863 -34.015  1.00  0.00     0.037 A 
HETATM   23  C   UNL     1      -4.579   5.088 -32.931  1.00  0.00     0.068 A 
HETATM   24  C   UNL     1      -4.305   4.033 -32.064  1.00  0.00     0.037 A 
HETATM   25  C   UNL     1      -4.888   2.771 -32.251  1.00  0.00     0.016 A 
BRANCH  23  26
HETATM   26  O   UNL     1      -3.967   6.270 -32.618  1.00  0.00    -0.356 OA
HETATM   27  C   UNL     1      -3.251   6.307 -31.390  1.00  0.00     0.210 C 
ENDBRANCH  23  26
ENDBRANCH   1  20
BRANCH   3  28
HETATM   28  C   UNL     1      -5.975  -2.213 -34.191  1.00  0.00     0.058 A 
HETATM   29  C   UNL     1      -6.839  -3.208 -34.673  1.00  0.00     0.031 A 
HETATM   30  C   UNL     1      -6.369  -4.505 -34.892  1.00  0.00     0.002 A 
HETATM   31  C   UNL     1      -5.036  -4.818 -34.634  1.00  0.00     0.000 A 
HETATM   32  C   UNL     1      -4.171  -3.835 -34.158  1.00  0.00     0.002 A 
HETATM   33  C   UNL     1      -4.634  -2.534 -33.936  1.00  0.00     0.031 A 
ENDBRANCH   3  28
TORSDOF 6
ENDMDL
MODEL 10
REMARK VINA RESULT:      -8.5      2.709      8.273
REMARK  6 active torsions:
REMARK  status: ('A' for Active; 'I' for Inactive)
REMARK    1  A    between atoms: O_2  and  C_3 
REMARK    2  A    between atoms: C_6  and  C_7 
REMARK    3  A    between atoms: N_9  and  C_10 
REMARK    4  A    between atoms: C_17  and  C_18 
REMARK       I    between atoms: C_18  and  N_19 
REMARK    5  A    between atoms: N_19  and  N_20 
REMARK       I    between atoms: N_20  and  C_21 
REMARK    6  A    between atoms: C_21  and  C_22 
ROOT
HETATM    1  C   UNL     1      -4.694   1.739 -32.571  1.00  0.00     0.105 A 
HETATM    2  N   UNL     1      -3.968   0.604 -32.543  1.00  0.00    -0.166 NA
HETATM    3  N   UNL     1      -4.791  -0.396 -32.911  1.00  0.00    -0.244 N 
HETATM    4  C   UNL     1      -6.048   0.075 -33.181  1.00  0.00     0.138 A 
HETATM    5  C   UNL     1      -6.036   1.444 -32.971  1.00  0.00     0.082 A 
ENDROOT
BRANCH   5   6
HETATM    6  C   UNL     1      -7.202   2.291 -33.139  1.00  0.00     0.274 C 
HETATM    7  N   UNL     1      -8.280   1.896 -32.372  1.00  0.00    -0.263 N 
HETATM    8  H   UNL     1      -8.287   1.039 -31.822  1.00  0.00     0.190 HD
HETATM    9  O   UNL     1      -7.244   3.270 -33.878  1.00  0.00    -0.266 OA
BRANCH   7  10
HETATM   10  N   UNL     1      -9.496   2.578 -32.477  1.00  0.00    -0.262 N 
HETATM   11  C   UNL     1     -10.560   1.929 -33.067  1.00  0.00     0.286 C 
HETATM   12  O   UNL     1     -10.447   0.787 -33.515  1.00  0.00    -0.264 OA
HETATM   13  H   UNL     1      -9.555   3.499 -32.052  1.00  0.00     0.190 HD
BRANCH  11  14
HETATM   14  C   UNL     1     -11.800   2.666 -33.118  1.00  0.00     0.102 A 
HETATM   15  N   UNL     1     -13.010   2.049 -32.868  1.00  0.00    -0.361 N 
HETATM   16  H   UNL     1     -13.102   1.066 -32.639  1.00  0.00     0.165 HD
HETATM   17  C   UNL     1     -14.035   2.950 -32.973  1.00  0.00     0.088 A 
HETATM   18  C   UNL     1     -13.491   4.169 -33.302  1.00  0.00     0.019 A 
HETATM   19  C   UNL     1     -12.088   3.995 -33.395  1.00  0.00     0.036 A 
ENDBRANCH  11  14
ENDBRANCH   7  10
ENDBRANCH   5   6
BRANCH   1  20
HETATM   20  C   UNL     1      -4.012   3.016 -32.261  1.00  0.00    -0.004 A 
HETATM   21  C   UNL     1      -4.580   3.893 -31.316  1.00  0.00     0.016 A 
HETATM   22  C   UNL     1      -3.955   5.091 -30.945  1.00  0.00     0.037 A 
HETATM   23  C   UNL     1      -2.739   5.448 -31.518  1.00  0.00     0.068 A 
HETATM   24  C   UNL     1      -2.173   4.602 -32.469  1.00  0.00     0.037 A 
HETATM   25  C   UNL     1      -2.791   3.395 -32.826  1.00  0.00     0.016 A 
BRANCH  23  26
HETATM   26  O   UNL     1      -2.020   6.577 -31.243  1.00  0.00    -0.356 OA
HETATM   27  C   UNL     1      -0.938   6.434 -30.333  1.00  0.00     0.210 C 
ENDBRANCH  23  26
ENDBRANCH   1  20
BRANCH   3  28
HETATM   28  C   UNL     1      -4.321  -1.737 -32.998  1.00  0.00     0.058 A 
HETATM   29  C   UNL     1      -3.475  -2.237 -31.996  1.00  0.00     0.031 A 
HETATM   30  C   UNL     1      -2.994  -3.546 -32.067  1.00  0.00     0.002 A 
HETATM   31  C   UNL     1      -3.352  -4.365 -33.136  1.00  0.00     0.000 A 
HETATM   32  C   UNL     1      -4.193  -3.877 -34.134  1.00  0.00     0.002 A 
HETATM   33  C   UNL     1      -4.680  -2.567 -34.070  1.00  0.00     0.031 A 
ENDBRANCH   3  28
TORSDOF 6
ENDMDL
