MODEL 1
REMARK VINA RESULT:      -9.4      0.000      0.000
REMARK  8 active torsions:
REMARK  status: ('A' for Active; 'I' for Inactive)
REMARK    1  A    between atoms: N_2  and  C_4 
REMARK    2  A    between atoms: N_2  and  C_32 
REMARK    3  A    between atoms: C_4  and  C_5 
REMARK    4  A    between atoms: N_8  and  C_9 
REMARK    5  A    between atoms: C_12  and  N_13 
REMARK    6  A    between atoms: N_13  and  C_16 
REMARK    7  A    between atoms: C_16  and  C_17 
REMARK    8  A    between atoms: C_32  and  C_33 
ROOT
HETATM    1  C   UNL     1      -4.579   3.999 -32.158  1.00  0.00     0.161 C 
HETATM    2  C   UNL     1      -3.712   4.412 -33.338  1.00  0.00     0.179 C 
HETATM    3  C   UNL     1      -2.296   4.339 -32.781  1.00  0.00     0.185 C 
HETATM    4  C   UNL     1      -1.930   5.799 -32.542  1.00  0.00     0.241 C 
HETATM    5  C   UNL     1      -2.701   6.485 -33.656  1.00  0.00     0.204 C 
HETATM    6  O   UNL     1      -3.946   5.771 -33.744  1.00  0.00    -0.379 OA
HETATM    7  O   UNL     1      -2.323   3.615 -31.548  1.00  0.00    -0.379 OA
HETATM    8  C   UNL     1      -3.647   3.047 -31.417  1.00  0.00     0.198 C 
ENDROOT
BRANCH   1   9
HETATM    9  N   UNL     1      -5.859   3.463 -32.542  1.00  0.00    -0.274 N 
HETATM   10  N   UNL     1      -6.988   3.817 -31.910  1.00  0.00     0.005 NA
HETATM   11  N   UNL     1      -7.994   3.159 -32.468  1.00  0.00    -0.161 NA
HETATM   12  C   UNL     1      -7.485   2.371 -33.468  1.00  0.00     0.095 A 
HETATM   13  C   UNL     1      -6.121   2.560 -33.535  1.00  0.00     0.139 A 
BRANCH  12  14
HETATM   14  C   UNL     1      -8.389   1.517 -34.282  1.00  0.00     0.296 C 
BRANCH  14  15
HETATM   15  N   UNL     1      -8.687   0.168 -33.662  1.00  0.00    -0.066 N 
HETATM   16  C   UNL     1     -10.028   0.155 -32.987  1.00  0.00     0.270 C 
HETATM   17  H   UNL     1      -8.730  -0.496 -34.447  1.00  0.00     0.280 HD
BRANCH  15  18
HETATM   18  C   UNL     1      -7.564  -0.314 -32.768  1.00  0.00     0.273 C 
BRANCH  18  19
HETATM   19  C   UNL     1      -6.589  -1.235 -33.447  1.00  0.00    -0.033 A 
HETATM   20  C   UNL     1      -7.038  -2.250 -34.306  1.00  0.00     0.009 A 
HETATM   21  C   UNL     1      -6.125  -3.114 -34.912  1.00  0.00     0.001 A 
HETATM   22  C   UNL     1      -4.760  -2.969 -34.675  1.00  0.00     0.000 A 
HETATM   23  C   UNL     1      -4.302  -1.957 -33.834  1.00  0.00     0.001 A 
HETATM   24  C   UNL     1      -5.211  -1.094 -33.221  1.00  0.00     0.009 A 
ENDBRANCH  18  19
ENDBRANCH  15  18
ENDBRANCH  14  15
ENDBRANCH  12  14
ENDBRANCH   1   9
BRANCH   4  25
HETATM   25  N   UNL     1      -0.459   6.016 -32.580  1.00  0.00    -0.062 N 
HETATM   26  H   UNL     1       0.023   5.131 -32.354  1.00  0.00     0.278 HD
HETATM   27  H   UNL     1      -0.118   6.265 -33.519  1.00  0.00     0.278 HD
BRANCH  25  28
HETATM   28  C   UNL     1       0.058   7.037 -31.618  1.00  0.00     0.273 C 
BRANCH  28  29
HETATM   29  C   UNL     1       0.156   6.440 -30.267  1.00  0.00    -0.005 A 
HETATM   30  C   UNL     1      -0.119   7.104 -29.027  1.00  0.00    -0.000 A 
HETATM   31  C   UNL     1       0.115   6.184 -28.006  1.00  0.00     0.043 A 
HETATM   32  C   UNL     1      -0.548   8.403 -28.678  1.00  0.00     0.014 A 
HETATM   33  C   UNL     1      -0.053   6.497 -26.652  1.00  0.00     0.030 A 
HETATM   34  N   UNL     1       0.497   5.002 -28.594  1.00  0.00    -0.365 N 
HETATM   35  C   UNL     1      -0.473   7.790 -26.332  1.00  0.00     0.002 A 
HETATM   36  C   UNL     1      -0.718   8.731 -27.329  1.00  0.00     0.001 A 
HETATM   37  H   UNL     1       0.707   4.152 -28.083  1.00  0.00     0.165 HD
HETATM   38  C   UNL     1       0.544   5.150 -29.957  1.00  0.00     0.098 A 
ENDBRANCH  28  29
ENDBRANCH  25  28
ENDBRANCH   4  25
TORSDOF 8
ENDMDL
MODEL 2
REMARK VINA RESULT:      -9.4      2.430      9.431
REMARK  8 active torsions:
REMARK  status: ('A' for Active; 'I' for Inactive)
REMARK    1  A    between atoms: N_2  and  C_4 
REMARK    2  A    between atoms: N_2  and  C_32 
REMARK    3  A    between atoms: C_4  and  C_5 
REMARK    4  A    between atoms: N_8  and  C_9 
REMARK    5  A    between atoms: C_12  and  N_13 
REMARK    6  A    between atoms: N_13  and  C_16 
REMARK    7  A    between atoms: C_16  and  C_17 
REMARK    8  A    between atoms: C_32  and  C_33 
ROOT
HETATM    1  C   UNL     1      -6.462   4.026 -30.671  1.00  0.00     0.161 C 
HETATM    2  C   UNL     1      -5.710   2.765 -31.070  1.00  0.00     0.179 C 
HETATM    3  C   UNL     1      -6.519   2.224 -32.242  1.00  0.00     0.185 C 
HETATM    4  C   UNL     1      -7.296   1.062 -31.633  1.00  0.00     0.241 C 
HETATM    5  C   UNL     1      -6.321   0.573 -30.577  1.00  0.00     0.204 C 
HETATM    6  O   UNL     1      -5.725   1.766 -30.036  1.00  0.00    -0.379 OA
HETATM    7  O   UNL     1      -7.409   3.246 -32.696  1.00  0.00    -0.379 OA
HETATM    8  C   UNL     1      -7.045   4.466 -32.009  1.00  0.00     0.198 C 
ENDROOT
BRANCH   1   9
HETATM    9  N   UNL     1      -5.645   4.993 -29.986  1.00  0.00    -0.274 N 
HETATM   10  N   UNL     1      -5.929   5.396 -28.738  1.00  0.00     0.005 NA
HETATM   11  N   UNL     1      -5.019   6.291 -28.380  1.00  0.00    -0.161 NA
HETATM   12  C   UNL     1      -4.151   6.458 -29.426  1.00  0.00     0.095 A 
HETATM   13  C   UNL     1      -4.531   5.629 -30.459  1.00  0.00     0.139 A 
BRANCH  12  14
HETATM   14  C   UNL     1      -3.011   7.406 -29.310  1.00  0.00     0.296 C 
BRANCH  14  15
HETATM   15  N   UNL     1      -1.677   6.738 -29.054  1.00  0.00    -0.066 N 
HETATM   16  C   UNL     1      -1.189   6.997 -27.658  1.00  0.00     0.270 C 
HETATM   17  H   UNL     1      -1.850   5.727 -29.138  1.00  0.00     0.280 HD
BRANCH  15  18
HETATM   18  C   UNL     1      -0.652   7.077 -30.116  1.00  0.00     0.273 C 
BRANCH  18  19
HETATM   19  C   UNL     1      -1.058   6.685 -31.510  1.00  0.00    -0.033 A 
HETATM   20  C   UNL     1      -1.102   5.335 -31.892  1.00  0.00     0.009 A 
HETATM   21  C   UNL     1      -1.457   4.984 -33.196  1.00  0.00     0.001 A 
HETATM   22  C   UNL     1      -1.778   5.973 -34.124  1.00  0.00     0.000 A 
HETATM   23  C   UNL     1      -1.750   7.315 -33.752  1.00  0.00     0.001 A 
HETATM   24  C   UNL     1      -1.390   7.671 -32.452  1.00  0.00     0.009 A 
ENDBRANCH  18  19
ENDBRANCH  15  18
ENDBRANCH  14  15
ENDBRANCH  12  14
ENDBRANCH   1   9
BRANCH   4  25
HETATM   25  N   UNL     1      -7.665   0.046 -32.655  1.00  0.00    -0.062 N 
HETATM   26  H   UNL     1      -7.524  -0.899 -32.264  1.00  0.00     0.278 HD
HETATM   27  H   UNL     1      -8.664   0.077 -32.904  1.00  0.00     0.278 HD
BRANCH  25  28
HETATM   28  C   UNL     1      -6.874   0.103 -33.922  1.00  0.00     0.273 C 
BRANCH  28  29
HETATM   29  C   UNL     1      -5.760  -0.869 -33.854  1.00  0.00    -0.005 A 
HETATM   30  C   UNL     1      -5.825  -2.256 -34.207  1.00  0.00    -0.000 A 
HETATM   31  C   UNL     1      -4.562  -2.801 -33.976  1.00  0.00     0.043 A 
HETATM   32  C   UNL     1      -6.841  -3.100 -34.703  1.00  0.00     0.014 A 
HETATM   33  C   UNL     1      -4.263  -4.147 -34.212  1.00  0.00     0.030 A 
HETATM   34  N   UNL     1      -3.752  -1.787 -33.520  1.00  0.00    -0.365 N 
HETATM   35  C   UNL     1      -5.287  -4.963 -34.698  1.00  0.00     0.002 A 
HETATM   36  C   UNL     1      -6.558  -4.450 -34.942  1.00  0.00     0.001 A 
HETATM   37  H   UNL     1      -2.770  -1.899 -33.296  1.00  0.00     0.165 HD
HETATM   38  C   UNL     1      -4.469  -0.621 -33.425  1.00  0.00     0.098 A 
ENDBRANCH  28  29
ENDBRANCH  25  28
ENDBRANCH   4  25
TORSDOF 8
ENDMDL
MODEL 3
REMARK VINA RESULT:      -9.2      2.173     10.232
REMARK  8 active torsions:
REMARK  status: ('A' for Active; 'I' for Inactive)
REMARK    1  A    between atoms: N_2  and  C_4 
REMARK    2  A    between atoms: N_2  and  C_32 
REMARK    3  A    between atoms: C_4  and  C_5 
REMARK    4  A    between atoms: N_8  and  C_9 
REMARK    5  A    between atoms: C_12  and  N_13 
REMARK    6  A    between atoms: N_13  and  C_16 
REMARK    7  A    between atoms: C_16  and  C_17 
REMARK    8  A    between atoms: C_32  and  C_33 
ROOT
HETATM    1  C   UNL     1      -3.043   6.060 -32.542  1.00  0.00     0.161 C 
HETATM    2  C   UNL     1      -2.995   4.983 -31.469  1.00  0.00     0.179 C 
HETATM    3  C   UNL     1      -2.689   3.714 -32.254  1.00  0.00     0.185 C 
HETATM    4  C   UNL     1      -4.034   3.000 -32.318  1.00  0.00     0.241 C 
HETATM    5  C   UNL     1      -4.658   3.422 -30.999  1.00  0.00     0.204 C 
HETATM    6  O   UNL     1      -4.265   4.795 -30.823  1.00  0.00    -0.379 OA
HETATM    7  O   UNL     1      -2.247   4.078 -33.564  1.00  0.00    -0.379 OA
HETATM    8  C   UNL     1      -2.055   5.512 -33.565  1.00  0.00     0.198 C 
ENDROOT
BRANCH   1   9
HETATM    9  N   UNL     1      -2.770   7.383 -32.043  1.00  0.00    -0.274 N 
HETATM   10  N   UNL     1      -1.959   8.229 -32.697  1.00  0.00     0.005 NA
HETATM   11  N   UNL     1      -1.889   9.353 -31.998  1.00  0.00    -0.161 NA
HETATM   12  C   UNL     1      -2.668   9.208 -30.880  1.00  0.00     0.095 A 
HETATM   13  C   UNL     1      -3.247   7.957 -30.897  1.00  0.00     0.139 A 
BRANCH  12  14
HETATM   14  C   UNL     1      -2.790  10.322 -29.903  1.00  0.00     0.296 C 
BRANCH  14  15
HETATM   15  N   UNL     1      -2.628   9.897 -28.459  1.00  0.00    -0.066 N 
HETATM   16  C   UNL     1      -3.850  10.222 -27.648  1.00  0.00     0.270 C 
HETATM   17  H   UNL     1      -2.534   8.873 -28.479  1.00  0.00     0.280 HD
BRANCH  15  18
HETATM   18  C   UNL     1      -1.348  10.424 -27.846  1.00  0.00     0.273 C 
BRANCH  18  19
HETATM   19  C   UNL     1      -0.342   9.358 -27.510  1.00  0.00    -0.033 A 
HETATM   20  C   UNL     1      -0.620   8.005 -27.758  1.00  0.00     0.009 A 
HETATM   21  C   UNL     1       0.312   7.021 -27.421  1.00  0.00     0.001 A 
HETATM   22  C   UNL     1       1.528   7.379 -26.843  1.00  0.00     0.000 A 
HETATM   23  C   UNL     1       1.819   8.719 -26.604  1.00  0.00     0.001 A 
HETATM   24  C   UNL     1       0.890   9.705 -26.934  1.00  0.00     0.009 A 
ENDBRANCH  18  19
ENDBRANCH  15  18
ENDBRANCH  14  15
ENDBRANCH  12  14
ENDBRANCH   1   9
BRANCH   4  25
HETATM   25  N   UNL     1      -3.875   1.531 -32.487  1.00  0.00    -0.062 N 
HETATM   26  H   UNL     1      -4.125   1.269 -33.454  1.00  0.00     0.278 HD
HETATM   27  H   UNL     1      -2.899   1.221 -32.378  1.00  0.00     0.278 HD
BRANCH  25  28
HETATM   28  C   UNL     1      -4.726   0.692 -31.588  1.00  0.00     0.273 C 
BRANCH  28  29
HETATM   29  C   UNL     1      -5.725  -0.043 -32.396  1.00  0.00    -0.005 A 
HETATM   30  C   UNL     1      -5.472  -1.195 -33.210  1.00  0.00    -0.000 A 
HETATM   31  C   UNL     1      -6.681  -1.553 -33.806  1.00  0.00     0.043 A 
HETATM   32  C   UNL     1      -4.326  -1.968 -33.495  1.00  0.00     0.014 A 
HETATM   33  C   UNL     1      -6.803  -2.642 -34.675  1.00  0.00     0.030 A 
HETATM   34  N   UNL     1      -7.638  -0.672 -33.361  1.00  0.00    -0.365 N 
HETATM   35  C   UNL     1      -5.654  -3.388 -34.946  1.00  0.00     0.002 A 
HETATM   36  C   UNL     1      -4.432  -3.059 -34.364  1.00  0.00     0.001 A 
HETATM   37  H   UNL     1      -8.617  -0.715 -33.618  1.00  0.00     0.165 HD
HETATM   38  C   UNL     1      -7.068   0.256 -32.524  1.00  0.00     0.098 A 
ENDBRANCH  28  29
ENDBRANCH  25  28
ENDBRANCH   4  25
TORSDOF 8
ENDMDL
MODEL 4
REMARK VINA RESULT:      -9.2      2.711      9.616
REMARK  8 active torsions:
REMARK  status: ('A' for Active; 'I' for Inactive)
REMARK    1  A    between atoms: N_2  and  C_4 
REMARK    2  A    between atoms: N_2  and  C_32 
REMARK    3  A    between atoms: C_4  and  C_5 
REMARK    4  A    between atoms: N_8  and  C_9 
REMARK    5  A    between atoms: C_12  and  N_13 
REMARK    6  A    between atoms: N_13  and  C_16 
REMARK    7  A    between atoms: C_16  and  C_17 
REMARK    8  A    between atoms: C_32  and  C_33 
ROOT
HETATM    1  C   UNL     1      -6.921   4.090 -30.075  1.00  0.00     0.161 C 
HETATM    2  C   UNL     1      -5.977   3.001 -30.561  1.00  0.00     0.179 C 
HETATM    3  C   UNL     1      -6.627   2.518 -31.851  1.00  0.00     0.185 C 
HETATM    4  C   UNL     1      -7.273   1.195 -31.452  1.00  0.00     0.241 C 
HETATM    5  C   UNL     1      -6.309   0.702 -30.387  1.00  0.00     0.204 C 
HETATM    6  O   UNL     1      -5.919   1.882 -29.660  1.00  0.00    -0.379 OA
HETATM    7  O   UNL     1      -7.620   3.466 -32.249  1.00  0.00    -0.379 OA
HETATM    8  C   UNL     1      -7.472   4.623 -31.392  1.00  0.00     0.198 C 
ENDROOT
BRANCH   1   9
HETATM    9  N   UNL     1      -6.290   5.058 -29.214  1.00  0.00    -0.274 N 
HETATM   10  N   UNL     1      -6.843   5.428 -28.049  1.00  0.00     0.005 NA
HETATM   11  N   UNL     1      -6.051   6.332 -27.489  1.00  0.00    -0.161 NA
HETATM   12  C   UNL     1      -4.984   6.538 -28.323  1.00  0.00     0.095 A 
HETATM   13  C   UNL     1      -5.116   5.724 -29.428  1.00  0.00     0.139 A 
BRANCH  12  14
HETATM   14  C   UNL     1      -3.917   7.503 -27.949  1.00  0.00     0.296 C 
BRANCH  14  15
HETATM   15  N   UNL     1      -2.596   6.857 -27.591  1.00  0.00    -0.066 N 
HETATM   16  C   UNL     1      -2.454   6.674 -26.108  1.00  0.00     0.270 C 
HETATM   17  H   UNL     1      -2.620   5.920 -28.017  1.00  0.00     0.280 HD
BRANCH  15  18
HETATM   18  C   UNL     1      -1.418   7.571 -28.219  1.00  0.00     0.273 C 
BRANCH  18  19
HETATM   19  C   UNL     1      -0.587   6.708 -29.127  1.00  0.00    -0.033 A 
HETATM   20  C   UNL     1      -0.675   6.839 -30.522  1.00  0.00     0.009 A 
HETATM   21  C   UNL     1       0.084   6.016 -31.356  1.00  0.00     0.001 A 
HETATM   22  C   UNL     1       0.941   5.064 -30.808  1.00  0.00     0.000 A 
HETATM   23  C   UNL     1       1.046   4.934 -29.425  1.00  0.00     0.001 A 
HETATM   24  C   UNL     1       0.286   5.750 -28.587  1.00  0.00     0.009 A 
ENDBRANCH  18  19
ENDBRANCH  15  18
ENDBRANCH  14  15
ENDBRANCH  12  14
ENDBRANCH   1   9
BRANCH   4  25
HETATM   25  N   UNL     1      -7.432   0.282 -32.615  1.00  0.00    -0.062 N 
HETATM   26  H   UNL     1      -7.355  -0.696 -32.295  1.00  0.00     0.278 HD
HETATM   27  H   UNL     1      -8.367   0.343 -33.043  1.00  0.00     0.278 HD
BRANCH  25  28
HETATM   28  C   UNL     1      -6.419   0.454 -33.701  1.00  0.00     0.273 C 
BRANCH  28  29
HETATM   29  C   UNL     1      -5.441  -0.656 -33.645  1.00  0.00    -0.005 A 
HETATM   30  C   UNL     1      -5.662  -2.001 -34.087  1.00  0.00    -0.000 A 
HETATM   31  C   UNL     1      -4.492  -2.717 -33.835  1.00  0.00     0.043 A 
HETATM   32  C   UNL     1      -6.750  -2.677 -34.681  1.00  0.00     0.014 A 
HETATM   33  C   UNL     1      -4.354  -4.075 -34.142  1.00  0.00     0.030 A 
HETATM   34  N   UNL     1      -3.586  -1.844 -33.281  1.00  0.00    -0.365 N 
HETATM   35  C   UNL     1      -5.446  -4.723 -34.724  1.00  0.00     0.002 A 
HETATM   36  C   UNL     1      -6.628  -4.036 -34.991  1.00  0.00     0.001 A 
HETATM   37  H   UNL     1      -2.638  -2.094 -33.021  1.00  0.00     0.165 HD
HETATM   38  C   UNL     1      -4.154  -0.602 -33.144  1.00  0.00     0.098 A 
ENDBRANCH  28  29
ENDBRANCH  25  28
ENDBRANCH   4  25
TORSDOF 8
ENDMDL
MODEL 5
REMARK VINA RESULT:      -9.1      1.916      2.787
REMARK  8 active torsions:
REMARK  status: ('A' for Active; 'I' for Inactive)
REMARK    1  A    between atoms: N_2  and  C_4 
REMARK    2  A    between atoms: N_2  and  C_32 
REMARK    3  A    between atoms: C_4  and  C_5 
REMARK    4  A    between atoms: N_8  and  C_9 
REMARK    5  A    between atoms: C_12  and  N_13 
REMARK    6  A    between atoms: N_13  and  C_16 
REMARK    7  A    between atoms: C_16  and  C_17 
REMARK    8  A    between atoms: C_32  and  C_33 
ROOT
HETATM    1  C   UNL     1      -6.151   5.309 -33.082  1.00  0.00     0.161 C 
HETATM    2  C   UNL     1      -5.068   4.468 -33.741  1.00  0.00     0.179 C 
HETATM    3  C   UNL     1      -3.812   4.831 -32.960  1.00  0.00     0.185 C 
HETATM    4  C   UNL     1      -3.065   5.771 -33.900  1.00  0.00     0.241 C 
HETATM    5  C   UNL     1      -3.464   5.215 -35.256  1.00  0.00     0.204 C 
HETATM    6  O   UNL     1      -4.845   4.836 -35.113  1.00  0.00    -0.379 OA
HETATM    7  O   UNL     1      -4.195   5.512 -31.763  1.00  0.00    -0.379 OA
HETATM    8  C   UNL     1      -5.634   5.401 -31.651  1.00  0.00     0.198 C 
ENDROOT
BRANCH   1   9
HETATM    9  N   UNL     1      -7.477   4.771 -33.244  1.00  0.00    -0.274 N 
HETATM   10  N   UNL     1      -8.284   5.177 -34.237  1.00  0.00     0.005 NA
HETATM   11  N   UNL     1      -9.432   4.524 -34.124  1.00  0.00    -0.161 NA
HETATM   12  C   UNL     1      -9.346   3.697 -33.035  1.00  0.00     0.095 A 
HETATM   13  C   UNL     1      -8.099   3.836 -32.465  1.00  0.00     0.139 A 
BRANCH  12  14
HETATM   14  C   UNL     1     -10.493   2.828 -32.662  1.00  0.00     0.296 C 
BRANCH  14  15
HETATM   15  N   UNL     1     -10.705   1.652 -33.592  1.00  0.00    -0.066 N 
HETATM   16  C   UNL     1     -12.151   1.497 -33.967  1.00  0.00     0.270 C 
HETATM   17  H   UNL     1     -10.186   1.879 -34.451  1.00  0.00     0.280 HD
BRANCH  15  18
HETATM   18  C   UNL     1     -10.088   0.377 -33.056  1.00  0.00     0.273 C 
BRANCH  18  19
HETATM   19  C   UNL     1      -8.658   0.163 -33.471  1.00  0.00    -0.033 A 
HETATM   20  C   UNL     1      -7.670  -0.129 -32.518  1.00  0.00     0.009 A 
HETATM   21  C   UNL     1      -6.342  -0.302 -32.912  1.00  0.00     0.001 A 
HETATM   22  C   UNL     1      -5.991  -0.195 -34.256  1.00  0.00     0.000 A 
HETATM   23  C   UNL     1      -6.966   0.082 -35.211  1.00  0.00     0.001 A 
HETATM   24  C   UNL     1      -8.293   0.262 -34.822  1.00  0.00     0.009 A 
ENDBRANCH  18  19
ENDBRANCH  15  18
ENDBRANCH  14  15
ENDBRANCH  12  14
ENDBRANCH   1   9
BRANCH   4  25
HETATM   25  N   UNL     1      -1.602   5.773 -33.636  1.00  0.00    -0.062 N 
HETATM   26  H   UNL     1      -1.404   5.190 -32.807  1.00  0.00     0.278 HD
HETATM   27  H   UNL     1      -1.060   5.337 -34.396  1.00  0.00     0.278 HD
BRANCH  25  28
HETATM   28  C   UNL     1      -1.007   7.117 -33.361  1.00  0.00     0.273 C 
BRANCH  28  29
HETATM   29  C   UNL     1      -1.174   7.448 -31.928  1.00  0.00    -0.005 A 
HETATM   30  C   UNL     1      -0.545   6.779 -30.827  1.00  0.00    -0.000 A 
HETATM   31  C   UNL     1      -0.990   7.398 -29.659  1.00  0.00     0.043 A 
HETATM   32  C   UNL     1       0.363   5.705 -30.715  1.00  0.00     0.014 A 
HETATM   33  C   UNL     1      -0.577   6.996 -28.384  1.00  0.00     0.030 A 
HETATM   34  N   UNL     1      -1.839   8.415 -30.028  1.00  0.00    -0.365 N 
HETATM   35  C   UNL     1       0.318   5.926 -28.300  1.00  0.00     0.002 A 
HETATM   36  C   UNL     1       0.784   5.289 -29.447  1.00  0.00     0.001 A 
HETATM   37  H   UNL     1      -2.290   9.047 -29.376  1.00  0.00     0.165 HD
HETATM   38  C   UNL     1      -1.972   8.442 -31.394  1.00  0.00     0.098 A 
ENDBRANCH  28  29
ENDBRANCH  25  28
ENDBRANCH   4  25
TORSDOF 8
ENDMDL
MODEL 6
REMARK VINA RESULT:      -9.1      1.852      2.677
REMARK  8 active torsions:
REMARK  status: ('A' for Active; 'I' for Inactive)
REMARK    1  A    between atoms: N_2  and  C_4 
REMARK    2  A    between atoms: N_2  and  C_32 
REMARK    3  A    between atoms: C_4  and  C_5 
REMARK    4  A    between atoms: N_8  and  C_9 
REMARK    5  A    between atoms: C_12  and  N_13 
REMARK    6  A    between atoms: N_13  and  C_16 
REMARK    7  A    between atoms: C_16  and  C_17 
REMARK    8  A    between atoms: C_32  and  C_33 
ROOT
HETATM    1  C   UNL     1      -4.153   5.148 -32.764  1.00  0.00     0.161 C 
HETATM    2  C   UNL     1      -3.111   4.781 -31.717  1.00  0.00     0.179 C 
HETATM    3  C   UNL     1      -2.669   6.132 -31.169  1.00  0.00     0.185 C 
HETATM    4  C   UNL     1      -1.314   6.359 -31.829  1.00  0.00     0.241 C 
HETATM    5  C   UNL     1      -0.799   4.936 -31.951  1.00  0.00     0.204 C 
HETATM    6  O   UNL     1      -1.955   4.149 -32.291  1.00  0.00    -0.379 OA
HETATM    7  O   UNL     1      -3.608   7.126 -31.584  1.00  0.00    -0.379 OA
HETATM    8  C   UNL     1      -4.729   6.433 -32.180  1.00  0.00     0.198 C 
ENDROOT
BRANCH   1   9
HETATM    9  N   UNL     1      -5.097   4.094 -33.032  1.00  0.00    -0.274 N 
HETATM   10  N   UNL     1      -5.645   3.932 -34.245  1.00  0.00     0.005 NA
HETATM   11  N   UNL     1      -6.476   2.902 -34.186  1.00  0.00    -0.161 NA
HETATM   12  C   UNL     1      -6.454   2.410 -32.906  1.00  0.00     0.095 A 
HETATM   13  C   UNL     1      -5.571   3.156 -32.157  1.00  0.00     0.139 A 
BRANCH  12  14
HETATM   14  C   UNL     1      -7.292   1.238 -32.540  1.00  0.00     0.296 C 
BRANCH  14  15
HETATM   15  N   UNL     1      -6.528  -0.067 -32.464  1.00  0.00    -0.066 N 
HETATM   16  C   UNL     1      -5.698  -0.148 -31.215  1.00  0.00     0.270 C 
HETATM   17  H   UNL     1      -7.242  -0.806 -32.409  1.00  0.00     0.280 HD
BRANCH  15  18
HETATM   18  C   UNL     1      -5.736  -0.343 -33.724  1.00  0.00     0.273 C 
BRANCH  18  19
HETATM   19  C   UNL     1      -5.650  -1.799 -34.090  1.00  0.00    -0.033 A 
HETATM   20  C   UNL     1      -6.774  -2.486 -34.574  1.00  0.00     0.009 A 
HETATM   21  C   UNL     1      -6.688  -3.844 -34.888  1.00  0.00     0.001 A 
HETATM   22  C   UNL     1      -5.482  -4.524 -34.731  1.00  0.00     0.000 A 
HETATM   23  C   UNL     1      -4.357  -3.849 -34.264  1.00  0.00     0.001 A 
HETATM   24  C   UNL     1      -4.439  -2.494 -33.944  1.00  0.00     0.009 A 
ENDBRANCH  18  19
ENDBRANCH  15  18
ENDBRANCH  14  15
ENDBRANCH  12  14
ENDBRANCH   1   9
BRANCH   4  25
HETATM   25  N   UNL     1      -0.450   7.265 -31.025  1.00  0.00    -0.062 N 
HETATM   26  H   UNL     1       0.496   7.290 -31.437  1.00  0.00     0.278 HD
HETATM   27  H   UNL     1      -0.769   8.244 -31.048  1.00  0.00     0.278 HD
BRANCH  25  28
HETATM   28  C   UNL     1      -0.277   6.872 -29.593  1.00  0.00     0.273 C 
BRANCH  28  29
HETATM   29  C   UNL     1      -0.398   8.070 -28.732  1.00  0.00    -0.005 A 
HETATM   30  C   UNL     1       0.447   8.405 -27.625  1.00  0.00    -0.000 A 
HETATM   31  C   UNL     1      -0.029   9.600 -27.088  1.00  0.00     0.043 A 
HETATM   32  C   UNL     1       1.577   7.803 -27.030  1.00  0.00     0.014 A 
HETATM   33  C   UNL     1       0.562  10.223 -25.984  1.00  0.00     0.030 A 
HETATM   34  N   UNL     1      -1.108   9.992 -27.845  1.00  0.00    -0.365 N 
HETATM   35  C   UNL     1       1.675   9.605 -25.409  1.00  0.00     0.002 A 
HETATM   36  C   UNL     1       2.178   8.413 -25.923  1.00  0.00     0.001 A 
HETATM   37  H   UNL     1      -1.634  10.845 -27.691  1.00  0.00     0.165 HD
HETATM   38  C   UNL     1      -1.352   9.066 -28.828  1.00  0.00     0.098 A 
ENDBRANCH  28  29
ENDBRANCH  25  28
ENDBRANCH   4  25
TORSDOF 8
ENDMDL
MODEL 7
REMARK VINA RESULT:      -9.0      2.473     11.017
REMARK  8 active torsions:
REMARK  status: ('A' for Active; 'I' for Inactive)
REMARK    1  A    between atoms: N_2  and  C_4 
REMARK    2  A    between atoms: N_2  and  C_32 
REMARK    3  A    between atoms: C_4  and  C_5 
REMARK    4  A    between atoms: N_8  and  C_9 
REMARK    5  A    between atoms: C_12  and  N_13 
REMARK    6  A    between atoms: N_13  and  C_16 
REMARK    7  A    between atoms: C_16  and  C_17 
REMARK    8  A    between atoms: C_32  and  C_33 
ROOT
HETATM    1  C   UNL     1      -4.990   3.001 -30.837  1.00  0.00     0.161 C 
HETATM    2  C   UNL     1      -5.820   2.635 -32.058  1.00  0.00     0.179 C 
HETATM    3  C   UNL     1      -7.222   2.448 -31.491  1.00  0.00     0.185 C 
HETATM    4  C   UNL     1      -7.389   0.933 -31.444  1.00  0.00     0.241 C 
HETATM    5  C   UNL     1      -6.559   0.505 -32.642  1.00  0.00     0.204 C 
HETATM    6  O   UNL     1      -5.419   1.383 -32.640  1.00  0.00    -0.379 OA
HETATM    7  O   UNL     1      -7.263   3.002 -30.174  1.00  0.00    -0.379 OA
HETATM    8  C   UNL     1      -6.022   3.718 -29.974  1.00  0.00     0.198 C 
ENDROOT
BRANCH   1   9
HETATM    9  N   UNL     1      -3.799   3.747 -31.152  1.00  0.00    -0.274 N 
HETATM   10  N   UNL     1      -2.698   3.146 -31.628  1.00  0.00     0.005 NA
HETATM   11  N   UNL     1      -1.770   4.074 -31.809  1.00  0.00    -0.161 NA
HETATM   12  C   UNL     1      -2.297   5.282 -31.433  1.00  0.00     0.095 A 
HETATM   13  C   UNL     1      -3.597   5.093 -31.018  1.00  0.00     0.139 A 
BRANCH  12  14
HETATM   14  C   UNL     1      -1.479   6.519 -31.533  1.00  0.00     0.296 C 
BRANCH  14  15
HETATM   15  N   UNL     1      -0.301   6.561 -30.583  1.00  0.00    -0.066 N 
HETATM   16  C   UNL     1       0.761   5.575 -30.977  1.00  0.00     0.270 C 
HETATM   17  H   UNL     1       0.101   7.503 -30.678  1.00  0.00     0.280 HD
BRANCH  15  18
HETATM   18  C   UNL     1      -0.727   6.432 -29.136  1.00  0.00     0.273 C 
BRANCH  18  19
HETATM   19  C   UNL     1       0.179   7.135 -28.163  1.00  0.00    -0.033 A 
HETATM   20  C   UNL     1       0.250   6.725 -26.822  1.00  0.00     0.009 A 
HETATM   21  C   UNL     1       1.076   7.401 -25.923  1.00  0.00     0.001 A 
HETATM   22  C   UNL     1       1.843   8.482 -26.353  1.00  0.00     0.000 A 
HETATM   23  C   UNL     1       1.790   8.889 -27.683  1.00  0.00     0.001 A 
HETATM   24  C   UNL     1       0.962   8.221 -28.585  1.00  0.00     0.009 A 
ENDBRANCH  18  19
ENDBRANCH  15  18
ENDBRANCH  14  15
ENDBRANCH  12  14
ENDBRANCH   1   9
BRANCH   4  25
HETATM   25  N   UNL     1      -8.819   0.530 -31.505  1.00  0.00    -0.062 N 
HETATM   26  H   UNL     1      -9.014  -0.154 -30.756  1.00  0.00     0.278 HD
HETATM   27  H   UNL     1      -9.462   1.313 -31.315  1.00  0.00     0.278 HD
BRANCH  25  28
HETATM   28  C   UNL     1      -9.245  -0.112 -32.787  1.00  0.00     0.273 C 
BRANCH  28  29
HETATM   29  C   UNL     1     -10.098   0.826 -33.550  1.00  0.00    -0.005 A 
HETATM   30  C   UNL     1     -11.514   0.715 -33.743  1.00  0.00    -0.000 A 
HETATM   31  C   UNL     1     -11.909   1.793 -34.534  1.00  0.00     0.043 A 
HETATM   32  C   UNL     1     -12.498  -0.203 -33.316  1.00  0.00     0.014 A 
HETATM   33  C   UNL     1     -13.236   2.000 -34.925  1.00  0.00     0.030 A 
HETATM   34  N   UNL     1     -10.788   2.544 -34.798  1.00  0.00    -0.365 N 
HETATM   35  C   UNL     1     -14.191   1.075 -34.494  1.00  0.00     0.002 A 
HETATM   36  C   UNL     1     -13.830  -0.011 -33.701  1.00  0.00     0.001 A 
HETATM   37  H   UNL     1     -10.790   3.404 -35.335  1.00  0.00     0.165 HD
HETATM   38  C   UNL     1      -9.686   1.959 -34.226  1.00  0.00     0.098 A 
ENDBRANCH  28  29
ENDBRANCH  25  28
ENDBRANCH   4  25
TORSDOF 8
ENDMDL
MODEL 8
REMARK VINA RESULT:      -8.8      2.865     10.491
REMARK  8 active torsions:
REMARK  status: ('A' for Active; 'I' for Inactive)
REMARK    1  A    between atoms: N_2  and  C_4 
REMARK    2  A    between atoms: N_2  and  C_32 
REMARK    3  A    between atoms: C_4  and  C_5 
REMARK    4  A    between atoms: N_8  and  C_9 
REMARK    5  A    between atoms: C_12  and  N_13 
REMARK    6  A    between atoms: N_13  and  C_16 
REMARK    7  A    between atoms: C_16  and  C_17 
REMARK    8  A    between atoms: C_32  and  C_33 
ROOT
HETATM    1  C   UNL     1      -6.136   4.003 -30.348  1.00  0.00     0.161 C 
HETATM    2  C   UNL     1      -7.210   2.989 -29.983  1.00  0.00     0.179 C 
HETATM    3  C   UNL     1      -6.759   1.722 -30.697  1.00  0.00     0.185 C 
HETATM    4  C   UNL     1      -7.687   1.642 -31.905  1.00  0.00     0.241 C 
HETATM    5  C   UNL     1      -8.954   2.268 -31.349  1.00  0.00     0.204 C 
HETATM    6  O   UNL     1      -8.501   3.344 -30.508  1.00  0.00    -0.379 OA
HETATM    7  O   UNL     1      -5.401   1.886 -31.112  1.00  0.00    -0.379 OA
HETATM    8  C   UNL     1      -4.914   3.105 -30.504  1.00  0.00     0.198 C 
ENDROOT
BRANCH   1   9
HETATM    9  N   UNL     1      -6.014   5.080 -29.400  1.00  0.00    -0.274 N 
HETATM   10  N   UNL     1      -6.837   5.186 -28.346  1.00  0.00     0.005 NA
HETATM   11  N   UNL     1      -6.496   6.272 -27.668  1.00  0.00    -0.161 NA
HETATM   12  C   UNL     1      -5.442   6.864 -28.313  1.00  0.00     0.095 A 
HETATM   13  C   UNL     1      -5.114   6.110 -29.418  1.00  0.00     0.139 A 
BRANCH  12  14
HETATM   14  C   UNL     1      -4.837   8.110 -27.772  1.00  0.00     0.296 C 
BRANCH  14  15
HETATM   15  N   UNL     1      -3.379   7.973 -27.390  1.00  0.00    -0.066 N 
HETATM   16  C   UNL     1      -3.220   7.493 -25.976  1.00  0.00     0.270 C 
HETATM   17  H   UNL     1      -2.996   7.245 -28.008  1.00  0.00     0.280 HD
BRANCH  15  18
HETATM   18  C   UNL     1      -2.587   9.230 -27.685  1.00  0.00     0.273 C 
BRANCH  18  19
HETATM   19  C   UNL     1      -1.097   9.033 -27.685  1.00  0.00    -0.033 A 
HETATM   20  C   UNL     1      -0.273   9.785 -26.833  1.00  0.00     0.009 A 
HETATM   21  C   UNL     1       1.112   9.611 -26.859  1.00  0.00     0.001 A 
HETATM   22  C   UNL     1       1.685   8.682 -27.726  1.00  0.00     0.000 A 
HETATM   23  C   UNL     1       0.875   7.921 -28.566  1.00  0.00     0.001 A 
HETATM   24  C   UNL     1      -0.508   8.095 -28.548  1.00  0.00     0.009 A 
ENDBRANCH  18  19
ENDBRANCH  15  18
ENDBRANCH  14  15
ENDBRANCH  12  14
ENDBRANCH   1   9
BRANCH   4  25
HETATM   25  N   UNL     1      -7.846   0.246 -32.391  1.00  0.00    -0.062 N 
HETATM   26  H   UNL     1      -7.288  -0.388 -31.797  1.00  0.00     0.278 HD
HETATM   27  H   UNL     1      -8.813  -0.099 -32.301  1.00  0.00     0.278 HD
BRANCH  25  28
HETATM   28  C   UNL     1      -7.403   0.008 -33.799  1.00  0.00     0.273 C 
BRANCH  28  29
HETATM   29  C   UNL     1      -6.164  -0.801 -33.798  1.00  0.00    -0.005 A 
HETATM   30  C   UNL     1      -6.057  -2.183 -34.160  1.00  0.00    -0.000 A 
HETATM   31  C   UNL     1      -4.721  -2.549 -34.001  1.00  0.00     0.043 A 
HETATM   32  C   UNL     1      -6.973  -3.158 -34.612  1.00  0.00     0.014 A 
HETATM   33  C   UNL     1      -4.253  -3.841 -34.265  1.00  0.00     0.030 A 
HETATM   34  N   UNL     1      -4.035  -1.435 -33.579  1.00  0.00    -0.365 N 
HETATM   35  C   UNL     1      -5.180  -4.789 -34.706  1.00  0.00     0.002 A 
HETATM   36  C   UNL     1      -6.520  -4.455 -34.878  1.00  0.00     0.001 A 
HETATM   37  H   UNL     1      -3.036  -1.411 -33.407  1.00  0.00     0.165 HD
HETATM   38  C   UNL     1      -4.899  -0.379 -33.434  1.00  0.00     0.098 A 
ENDBRANCH  28  29
ENDBRANCH  25  28
ENDBRANCH   4  25
TORSDOF 8
ENDMDL
MODEL 9
REMARK VINA RESULT:      -8.7      2.587     10.167
REMARK  8 active torsions:
REMARK  status: ('A' for Active; 'I' for Inactive)
REMARK    1  A    between atoms: N_2  and  C_4 
REMARK    2  A    between atoms: N_2  and  C_32 
REMARK    3  A    between atoms: C_4  and  C_5 
REMARK    4  A    between atoms: N_8  and  C_9 
REMARK    5  A    between atoms: C_12  and  N_13 
REMARK    6  A    between atoms: N_13  and  C_16 
REMARK    7  A    between atoms: C_16  and  C_17 
REMARK    8  A    between atoms: C_32  and  C_33 
ROOT
HETATM    1  C   UNL     1      -3.534   5.290 -31.977  1.00  0.00     0.161 C 
HETATM    2  C   UNL     1      -4.540   4.549 -31.110  1.00  0.00     0.179 C 
HETATM    3  C   UNL     1      -4.103   3.094 -31.224  1.00  0.00     0.185 C 
HETATM    4  C   UNL     1      -5.120   2.490 -32.186  1.00  0.00     0.241 C 
HETATM    5  C   UNL     1      -6.360   3.302 -31.857  1.00  0.00     0.204 C 
HETATM    6  O   UNL     1      -5.880   4.638 -31.623  1.00  0.00    -0.379 OA
HETATM    7  O   UNL     1      -2.789   3.052 -31.785  1.00  0.00    -0.379 OA
HETATM    8  C   UNL     1      -2.298   4.412 -31.825  1.00  0.00     0.198 C 
ENDROOT
BRANCH   1   9
HETATM    9  N   UNL     1      -3.376   6.676 -31.619  1.00  0.00    -0.274 N 
HETATM   10  N   UNL     1      -2.631   7.513 -32.357  1.00  0.00     0.005 NA
HETATM   11  N   UNL     1      -2.660   8.705 -31.780  1.00  0.00    -0.161 NA
HETATM   12  C   UNL     1      -3.433   8.614 -30.653  1.00  0.00     0.095 A 
HETATM   13  C   UNL     1      -3.907   7.325 -30.539  1.00  0.00     0.139 A 
BRANCH  12  14
HETATM   14  C   UNL     1      -3.654   9.810 -29.797  1.00  0.00     0.296 C 
BRANCH  14  15
HETATM   15  N   UNL     1      -3.005   9.721 -28.433  1.00  0.00    -0.066 N 
HETATM   16  C   UNL     1      -3.908  10.253 -27.356  1.00  0.00     0.270 C 
HETATM   17  H   UNL     1      -2.869   8.717 -28.253  1.00  0.00     0.280 HD
BRANCH  15  18
HETATM   18  C   UNL     1      -1.624  10.341 -28.412  1.00  0.00     0.273 C 
BRANCH  18  19
HETATM   19  C   UNL     1      -0.547   9.428 -27.896  1.00  0.00    -0.033 A 
HETATM   20  C   UNL     1       0.183   9.758 -26.743  1.00  0.00     0.009 A 
HETATM   21  C   UNL     1       1.197   8.914 -26.287  1.00  0.00     0.001 A 
HETATM   22  C   UNL     1       1.484   7.733 -26.968  1.00  0.00     0.000 A 
HETATM   23  C   UNL     1       0.758   7.389 -28.105  1.00  0.00     0.001 A 
HETATM   24  C   UNL     1      -0.253   8.232 -28.569  1.00  0.00     0.009 A 
ENDBRANCH  18  19
ENDBRANCH  15  18
ENDBRANCH  14  15
ENDBRANCH  12  14
ENDBRANCH   1   9
BRANCH   4  25
HETATM   25  N   UNL     1      -5.268   1.023 -31.988  1.00  0.00    -0.062 N 
HETATM   26  H   UNL     1      -4.599   0.707 -31.268  1.00  0.00     0.278 HD
HETATM   27  H   UNL     1      -6.193   0.764 -31.614  1.00  0.00     0.278 HD
BRANCH  25  28
HETATM   28  C   UNL     1      -5.013   0.189 -33.201  1.00  0.00     0.273 C 
BRANCH  28  29
HETATM   29  C   UNL     1      -4.266  -1.030 -32.816  1.00  0.00    -0.005 A 
HETATM   30  C   UNL     1      -4.417  -2.332 -33.394  1.00  0.00    -0.000 A 
HETATM   31  C   UNL     1      -3.537  -3.184 -32.727  1.00  0.00     0.043 A 
HETATM   32  C   UNL     1      -5.219  -2.866 -34.425  1.00  0.00     0.014 A 
HETATM   33  C   UNL     1      -3.422  -4.544 -33.034  1.00  0.00     0.030 A 
HETATM   34  N   UNL     1      -2.862  -2.433 -31.794  1.00  0.00    -0.365 N 
HETATM   35  C   UNL     1      -4.230  -5.050 -34.054  1.00  0.00     0.002 A 
HETATM   36  C   UNL     1      -5.116  -4.225 -34.743  1.00  0.00     0.001 A 
HETATM   37  H   UNL     1      -2.141  -2.797 -31.181  1.00  0.00     0.165 HD
HETATM   38  C   UNL     1      -3.307  -1.136 -31.825  1.00  0.00     0.098 A 
ENDBRANCH  28  29
ENDBRANCH  25  28
ENDBRANCH   4  25
TORSDOF 8
ENDMDL
MODEL 10
REMARK VINA RESULT:      -8.7      5.513      9.540
REMARK  8 active torsions:
REMARK  status: ('A' for Active; 'I' for Inactive)
REMARK    1  A    between atoms: N_2  and  C_4 
REMARK    2  A    between atoms: N_2  and  C_32 
REMARK    3  A    between atoms: C_4  and  C_5 
REMARK    4  A    between atoms: N_8  and  C_9 
REMARK    5  A    between atoms: C_12  and  N_13 
REMARK    6  A    between atoms: N_13  and  C_16 
REMARK    7  A    between atoms: C_16  and  C_17 
REMARK    8  A    between atoms: C_32  and  C_33 
ROOT
HETATM    1  C   UNL     1      -9.600   3.263 -33.531  1.00  0.00     0.161 C 
HETATM    2  C   UNL     1     -10.653   2.990 -34.594  1.00  0.00     0.179 C 
HETATM    3  C   UNL     1     -10.751   4.311 -35.345  1.00  0.00     0.185 C 
HETATM    4  C   UNL     1     -12.045   4.925 -34.820  1.00  0.00     0.241 C 
HETATM    5  C   UNL     1     -12.876   3.683 -34.552  1.00  0.00     0.204 C 
HETATM    6  O   UNL     1     -11.946   2.717 -34.029  1.00  0.00    -0.379 OA
HETATM    7  O   UNL     1      -9.628   5.123 -34.995  1.00  0.00    -0.379 OA
HETATM    8  C   UNL     1      -8.721   4.292 -34.233  1.00  0.00     0.198 C 
ENDROOT
BRANCH   1   9
HETATM    9  N   UNL     1      -8.934   2.076 -33.060  1.00  0.00    -0.274 N 
HETATM   10  N   UNL     1      -9.466   0.857 -33.230  1.00  0.00     0.005 NA
HETATM   11  N   UNL     1      -8.643  -0.029 -32.687  1.00  0.00    -0.161 NA
HETATM   12  C   UNL     1      -7.575   0.649 -32.160  1.00  0.00     0.095 A 
HETATM   13  C   UNL     1      -7.740   1.997 -32.397  1.00  0.00     0.139 A 
BRANCH  12  14
HETATM   14  C   UNL     1      -6.476  -0.092 -31.486  1.00  0.00     0.296 C 
BRANCH  14  15
HETATM   15  N   UNL     1      -5.201  -0.177 -32.297  1.00  0.00    -0.066 N 
HETATM   16  C   UNL     1      -4.320   1.017 -32.068  1.00  0.00     0.270 C 
HETATM   17  H   UNL     1      -4.700  -1.003 -31.943  1.00  0.00     0.280 HD
BRANCH  15  18
HETATM   18  C   UNL     1      -5.470  -0.447 -33.763  1.00  0.00     0.273 C 
BRANCH  18  19
HETATM   19  C   UNL     1      -5.517  -1.906 -34.121  1.00  0.00    -0.033 A 
HETATM   20  C   UNL     1      -6.702  -2.492 -34.594  1.00  0.00     0.009 A 
HETATM   21  C   UNL     1      -6.741  -3.853 -34.901  1.00  0.00     0.001 A 
HETATM   22  C   UNL     1      -5.599  -4.638 -34.749  1.00  0.00     0.000 A 
HETATM   23  C   UNL     1      -4.415  -4.064 -34.293  1.00  0.00     0.001 A 
HETATM   24  C   UNL     1      -4.372  -2.706 -33.979  1.00  0.00     0.009 A 
ENDBRANCH  18  19
ENDBRANCH  15  18
ENDBRANCH  14  15
ENDBRANCH  12  14
ENDBRANCH   1   9
BRANCH   4  25
HETATM   25  N   UNL     1     -12.644   5.874 -35.797  1.00  0.00    -0.062 N 
HETATM   26  H   UNL     1     -12.064   5.897 -36.650  1.00  0.00     0.278 HD
HETATM   27  H   UNL     1     -13.574   5.574 -36.123  1.00  0.00     0.278 HD
BRANCH  25  28
HETATM   28  C   UNL     1     -12.758   7.286 -35.322  1.00  0.00     0.273 C 
BRANCH  28  29
HETATM   29  C   UNL     1     -11.755   8.125 -36.016  1.00  0.00    -0.005 A 
HETATM   30  C   UNL     1     -11.866   8.652 -37.344  1.00  0.00    -0.000 A 
HETATM   31  C   UNL     1     -10.697   9.365 -37.604  1.00  0.00     0.043 A 
HETATM   32  C   UNL     1     -12.855   8.590 -38.349  1.00  0.00     0.014 A 
HETATM   33  C   UNL     1     -10.462  10.016 -38.820  1.00  0.00     0.030 A 
HETATM   34  N   UNL     1      -9.910   9.295 -36.478  1.00  0.00    -0.365 N 
HETATM   35  C   UNL     1     -11.453   9.936 -39.801  1.00  0.00     0.002 A 
HETATM   36  C   UNL     1     -12.634   9.235 -39.571  1.00  0.00     0.001 A 
HETATM   37  H   UNL     1      -9.009   9.748 -36.383  1.00  0.00     0.165 HD
HETATM   38  C   UNL     1     -10.530   8.533 -35.520  1.00  0.00     0.098 A 
ENDBRANCH  28  29
ENDBRANCH  25  28
ENDBRANCH   4  25
TORSDOF 8
ENDMDL
