MODEL 1
REMARK VINA RESULT:      -7.5      0.000      0.000
REMARK  5 active torsions:
REMARK  status: ('A' for Active; 'I' for Inactive)
REMARK    1  A    between atoms: C_2  and  O_3 
REMARK    2  A    between atoms: O_3  and  C_4 
REMARK    3  A    between atoms: C_8  and  N_9 
REMARK       I    between atoms: N_9  and  C_10 
REMARK       I    between atoms: C_10  and  N_11 
REMARK    4  A    between atoms: N_11  and  C_12 
REMARK    5  A    between atoms: C_12  and  C_13 
ROOT
HETATM    1  N   UNL     1      -6.866   0.020 -32.813  1.00  0.00    -0.309 N 
HETATM    2  C   UNL     1      -6.148  -0.081 -31.658  1.00  0.00     0.321 C 
HETATM    3  N   UNL     1      -4.896  -0.617 -31.804  1.00  0.00    -0.337 N 
HETATM    4  O   UNL     1      -6.501   0.234 -30.529  1.00  0.00    -0.247 OA
HETATM    5  H   UNL     1      -6.628  -0.715 -33.476  1.00  0.00     0.170 HD
HETATM    6  H   UNL     1      -4.394  -0.679 -30.928  1.00  0.00     0.164 HD
ENDROOT
BRANCH   1   7
HETATM    7  C   UNL     1      -8.073   0.695 -33.093  1.00  0.00     0.042 A 
HETATM    8  C   UNL     1      -8.225   2.013 -33.555  1.00  0.00    -0.033 A 
HETATM    9  C   UNL     1      -9.532   2.500 -33.792  1.00  0.00     0.045 A 
HETATM   10  C   UNL     1      -7.098   2.960 -33.848  1.00  0.00     0.050 C 
HETATM   11  C   UNL     1     -10.665   1.698 -33.641  1.00  0.00     0.069 A 
HETATM   12  C   UNL     1     -10.507   0.390 -33.208  1.00  0.00     0.039 A 
HETATM   13  C   UNL     1      -9.226  -0.100 -32.942  1.00  0.00     0.033 A 
BRANCH  11  14
HETATM   14  O   UNL     1     -11.852   2.303 -33.950  1.00  0.00    -0.351 OA
BRANCH  14  15
HETATM   15  C   UNL     1     -12.610   1.714 -35.006  1.00  0.00     0.171 C 
HETATM   16  C   UNL     1     -13.907   1.187 -34.417  1.00  0.00     0.034 C 
ENDBRANCH  14  15
ENDBRANCH  11  14
ENDBRANCH   1   7
BRANCH   3  17
HETATM   17  C   UNL     1      -4.194  -0.923 -33.037  1.00  0.00     0.183 C 
BRANCH  17  18
HETATM   18  C   UNL     1      -4.333  -2.379 -33.423  1.00  0.00     0.053 A 
HETATM   19  N   UNL     1      -3.421  -3.246 -32.900  1.00  0.00    -0.264 NA
HETATM   20  C   UNL     1      -3.496  -4.541 -33.281  1.00  0.00     0.118 A 
HETATM   21  C   UNL     1      -4.446  -5.029 -34.155  1.00  0.00     0.043 A 
HETATM   22  C   UNL     1      -5.368  -4.128 -34.667  1.00  0.00     0.037 A 
HETATM   23 CL   UNL     1      -6.579  -4.677 -35.759  1.00  0.00    -0.084 Cl
HETATM   24  C   UNL     1      -5.319  -2.786 -34.313  1.00  0.00     0.052 A 
ENDBRANCH  17  18
ENDBRANCH   3  17
TORSDOF 5
ENDMDL
MODEL 2
REMARK VINA RESULT:      -7.4      5.740      8.070
REMARK  5 active torsions:
REMARK  status: ('A' for Active; 'I' for Inactive)
REMARK    1  A    between atoms: C_2  and  O_3 
REMARK    2  A    between atoms: O_3  and  C_4 
REMARK    3  A    between atoms: C_8  and  N_9 
REMARK       I    between atoms: N_9  and  C_10 
REMARK       I    between atoms: C_10  and  N_11 
REMARK    4  A    between atoms: N_11  and  C_12 
REMARK    5  A    between atoms: C_12  and  C_13 
ROOT
HETATM    1  N   UNL     1      -4.140   2.124 -32.091  1.00  0.00    -0.309 N 
HETATM    2  C   UNL     1      -4.471   2.782 -30.943  1.00  0.00     0.321 C 
HETATM    3  N   UNL     1      -3.907   4.023 -30.808  1.00  0.00    -0.337 N 
HETATM    4  O   UNL     1      -5.188   2.384 -30.033  1.00  0.00    -0.247 OA
HETATM    5  H   UNL     1      -3.209   2.371 -32.418  1.00  0.00     0.170 HD
HETATM    6  H   UNL     1      -4.172   4.479 -29.945  1.00  0.00     0.164 HD
ENDROOT
BRANCH   1   7
HETATM    7  C   UNL     1      -4.675   0.952 -32.669  1.00  0.00     0.042 A 
HETATM    8  C   UNL     1      -4.187  -0.359 -32.542  1.00  0.00    -0.033 A 
HETATM    9  C   UNL     1      -4.883  -1.406 -33.191  1.00  0.00     0.045 A 
HETATM   10  C   UNL     1      -2.980  -0.758 -31.742  1.00  0.00     0.050 C 
HETATM   11  C   UNL     1      -6.068  -1.186 -33.898  1.00  0.00     0.069 A 
HETATM   12  C   UNL     1      -6.558   0.107 -33.999  1.00  0.00     0.039 A 
HETATM   13  C   UNL     1      -5.868   1.158 -33.387  1.00  0.00     0.033 A 
BRANCH  11  14
HETATM   14  O   UNL     1      -6.643  -2.306 -34.431  1.00  0.00    -0.351 OA
BRANCH  14  15
HETATM   15  C   UNL     1      -5.754  -3.283 -34.971  1.00  0.00     0.171 C 
HETATM   16  C   UNL     1      -6.558  -4.533 -35.280  1.00  0.00     0.034 C 
ENDBRANCH  14  15
ENDBRANCH  11  14
ENDBRANCH   1   7
BRANCH   3  17
HETATM   17  C   UNL     1      -3.157   4.774 -31.798  1.00  0.00     0.183 C 
BRANCH  17  18
HETATM   18  C   UNL     1      -1.921   5.415 -31.206  1.00  0.00     0.053 A 
HETATM   19  N   UNL     1      -0.734   4.781 -31.422  1.00  0.00    -0.264 NA
HETATM   20  C   UNL     1       0.372   5.308 -30.850  1.00  0.00     0.118 A 
HETATM   21  C   UNL     1       0.364   6.451 -30.077  1.00  0.00     0.043 A 
HETATM   22  C   UNL     1      -0.855   7.083 -29.879  1.00  0.00     0.037 A 
HETATM   23 CL   UNL     1      -0.928   8.514 -28.927  1.00  0.00    -0.084 Cl
HETATM   24  C   UNL     1      -2.019   6.568 -30.437  1.00  0.00     0.052 A 
ENDBRANCH  17  18
ENDBRANCH   3  17
TORSDOF 5
ENDMDL
MODEL 3
REMARK VINA RESULT:      -7.2      2.848      7.437
REMARK  5 active torsions:
REMARK  status: ('A' for Active; 'I' for Inactive)
REMARK    1  A    between atoms: C_2  and  O_3 
REMARK    2  A    between atoms: O_3  and  C_4 
REMARK    3  A    between atoms: C_8  and  N_9 
REMARK       I    between atoms: N_9  and  C_10 
REMARK       I    between atoms: C_10  and  N_11 
REMARK    4  A    between atoms: N_11  and  C_12 
REMARK    5  A    between atoms: C_12  and  C_13 
ROOT
HETATM    1  N   UNL     1      -7.323   1.307 -33.415  1.00  0.00    -0.309 N 
HETATM    2  C   UNL     1      -8.031   1.625 -32.294  1.00  0.00     0.321 C 
HETATM    3  N   UNL     1      -8.959   2.618 -32.462  1.00  0.00    -0.337 N 
HETATM    4  O   UNL     1      -7.918   1.140 -31.175  1.00  0.00    -0.247 OA
HETATM    5  H   UNL     1      -7.203   2.107 -34.031  1.00  0.00     0.170 HD
HETATM    6  H   UNL     1      -9.463   2.829 -31.611  1.00  0.00     0.164 HD
ENDROOT
BRANCH   1   7
HETATM    7  C   UNL     1      -6.458   0.224 -33.683  1.00  0.00     0.042 A 
HETATM    8  C   UNL     1      -5.145   0.048 -33.217  1.00  0.00    -0.033 A 
HETATM    9  C   UNL     1      -4.447  -1.126 -33.588  1.00  0.00     0.045 A 
HETATM   10  C   UNL     1      -4.410   1.004 -32.322  1.00  0.00     0.050 C 
HETATM   11  C   UNL     1      -5.041  -2.137 -34.347  1.00  0.00     0.069 A 
HETATM   12  C   UNL     1      -6.346  -1.968 -34.784  1.00  0.00     0.039 A 
HETATM   13  C   UNL     1      -7.042  -0.803 -34.450  1.00  0.00     0.033 A 
BRANCH  11  14
HETATM   14  O   UNL     1      -4.249  -3.226 -34.586  1.00  0.00    -0.351 OA
BRANCH  14  15
HETATM   15  C   UNL     1      -3.650  -3.840 -33.445  1.00  0.00     0.171 C 
HETATM   16  C   UNL     1      -3.939  -5.329 -33.506  1.00  0.00     0.034 C 
ENDBRANCH  14  15
ENDBRANCH  11  14
ENDBRANCH   1   7
BRANCH   3  17
HETATM   17  C   UNL     1      -9.389   3.237 -33.703  1.00  0.00     0.183 C 
BRANCH  17  18
HETATM   18  C   UNL     1     -10.694   2.658 -34.204  1.00  0.00     0.053 A 
HETATM   19  N   UNL     1     -11.354   3.365 -35.164  1.00  0.00    -0.264 NA
HETATM   20  C   UNL     1     -12.551   2.891 -35.580  1.00  0.00     0.118 A 
HETATM   21  C   UNL     1     -13.127   1.734 -35.096  1.00  0.00     0.043 A 
HETATM   22  C   UNL     1     -12.431   1.029 -34.126  1.00  0.00     0.037 A 
HETATM   23 CL   UNL     1     -13.096  -0.423 -33.487  1.00  0.00    -0.084 Cl
HETATM   24  C   UNL     1     -11.205   1.486 -33.660  1.00  0.00     0.052 A 
ENDBRANCH  17  18
ENDBRANCH   3  17
TORSDOF 5
ENDMDL
MODEL 4
REMARK VINA RESULT:      -7.2      4.489      7.547
REMARK  5 active torsions:
REMARK  status: ('A' for Active; 'I' for Inactive)
REMARK    1  A    between atoms: C_2  and  O_3 
REMARK    2  A    between atoms: O_3  and  C_4 
REMARK    3  A    between atoms: C_8  and  N_9 
REMARK       I    between atoms: N_9  and  C_10 
REMARK       I    between atoms: C_10  and  N_11 
REMARK    4  A    between atoms: N_11  and  C_12 
REMARK    5  A    between atoms: C_12  and  C_13 
ROOT
HETATM    1  N   UNL     1      -5.658   2.483 -32.948  1.00  0.00    -0.309 N 
HETATM    2  C   UNL     1      -6.062   3.108 -31.805  1.00  0.00     0.321 C 
HETATM    3  N   UNL     1      -6.242   4.461 -31.922  1.00  0.00    -0.337 N 
HETATM    4  O   UNL     1      -6.263   2.603 -30.707  1.00  0.00    -0.247 OA
HETATM    5  H   UNL     1      -5.089   3.090 -33.534  1.00  0.00     0.170 HD
HETATM    6  H   UNL     1      -6.539   4.890 -31.055  1.00  0.00     0.164 HD
ENDROOT
BRANCH   1   7
HETATM    7  C   UNL     1      -5.577   1.111 -33.269  1.00  0.00     0.042 A 
HETATM    8  C   UNL     1      -6.438   0.379 -34.103  1.00  0.00    -0.033 A 
HETATM    9  C   UNL     1      -6.171  -0.995 -34.313  1.00  0.00     0.045 A 
HETATM   10  C   UNL     1      -7.626   0.944 -34.826  1.00  0.00     0.050 C 
HETATM   11  C   UNL     1      -5.051  -1.627 -33.769  1.00  0.00     0.069 A 
HETATM   12  C   UNL     1      -4.191  -0.894 -32.965  1.00  0.00     0.039 A 
HETATM   13  C   UNL     1      -4.454   0.458 -32.725  1.00  0.00     0.033 A 
BRANCH  11  14
HETATM   14  O   UNL     1      -4.911  -2.947 -34.098  1.00  0.00    -0.351 OA
BRANCH  14  15
HETATM   15  C   UNL     1      -5.558  -3.376 -35.296  1.00  0.00     0.171 C 
HETATM   16  C   UNL     1      -6.482  -4.529 -34.944  1.00  0.00     0.034 C 
ENDBRANCH  14  15
ENDBRANCH  11  14
ENDBRANCH   1   7
BRANCH   3  17
HETATM   17  C   UNL     1      -6.220   5.263 -33.132  1.00  0.00     0.183 C 
BRANCH  17  18
HETATM   18  C   UNL     1      -4.810   5.610 -33.557  1.00  0.00     0.053 A 
HETATM   19  N   UNL     1      -4.338   5.002 -34.681  1.00  0.00    -0.264 NA
HETATM   20  C   UNL     1      -3.060   5.257 -35.042  1.00  0.00     0.118 A 
HETATM   21  C   UNL     1      -2.220   6.101 -34.344  1.00  0.00     0.043 A 
HETATM   22  C   UNL     1      -2.727   6.714 -33.207  1.00  0.00     0.037 A 
HETATM   23 CL   UNL     1      -1.730   7.780 -32.297  1.00  0.00    -0.084 Cl
HETATM   24  C   UNL     1      -4.031   6.470 -32.793  1.00  0.00     0.052 A 
ENDBRANCH  17  18
ENDBRANCH   3  17
TORSDOF 5
ENDMDL
MODEL 5
REMARK VINA RESULT:      -7.1      3.413      5.849
REMARK  5 active torsions:
REMARK  status: ('A' for Active; 'I' for Inactive)
REMARK    1  A    between atoms: C_2  and  O_3 
REMARK    2  A    between atoms: O_3  and  C_4 
REMARK    3  A    between atoms: C_8  and  N_9 
REMARK       I    between atoms: N_9  and  C_10 
REMARK       I    between atoms: C_10  and  N_11 
REMARK    4  A    between atoms: N_11  and  C_12 
REMARK    5  A    between atoms: C_12  and  C_13 
ROOT
HETATM    1  N   UNL     1      -6.154   2.233 -32.627  1.00  0.00    -0.309 N 
HETATM    2  C   UNL     1      -6.569   1.496 -31.557  1.00  0.00     0.321 C 
HETATM    3  N   UNL     1      -7.348   0.414 -31.871  1.00  0.00    -0.337 N 
HETATM    4  O   UNL     1      -6.338   1.703 -30.372  1.00  0.00    -0.247 OA
HETATM    5  H   UNL     1      -6.827   2.211 -33.390  1.00  0.00     0.170 HD
HETATM    6  H   UNL     1      -7.640  -0.106 -31.054  1.00  0.00     0.164 HD
ENDROOT
BRANCH   1   7
HETATM    7  C   UNL     1      -5.192   3.262 -32.720  1.00  0.00     0.042 A 
HETATM    8  C   UNL     1      -5.416   4.610 -33.046  1.00  0.00    -0.033 A 
HETATM    9  C   UNL     1      -4.310   5.492 -33.069  1.00  0.00     0.045 A 
HETATM   10  C   UNL     1      -6.755   5.212 -33.356  1.00  0.00     0.050 C 
HETATM   11  C   UNL     1      -3.022   5.082 -32.718  1.00  0.00     0.069 A 
HETATM   12  C   UNL     1      -2.812   3.756 -32.374  1.00  0.00     0.039 A 
HETATM   13  C   UNL     1      -3.887   2.862 -32.373  1.00  0.00     0.033 A 
BRANCH  11  14
HETATM   14  O   UNL     1      -2.070   6.063 -32.749  1.00  0.00    -0.351 OA
BRANCH  14  15
HETATM   15  C   UNL     1      -1.774   6.623 -34.028  1.00  0.00     0.171 C 
HETATM   16  C   UNL     1      -1.093   5.554 -34.863  1.00  0.00     0.034 C 
ENDBRANCH  14  15
ENDBRANCH  11  14
ENDBRANCH   1   7
BRANCH   3  17
HETATM   17  C   UNL     1      -7.634  -0.128 -33.187  1.00  0.00     0.183 C 
BRANCH  17  18
HETATM   18  C   UNL     1      -6.604  -1.150 -33.615  1.00  0.00     0.053 A 
HETATM   19  N   UNL     1      -5.301  -0.867 -33.336  1.00  0.00    -0.264 NA
HETATM   20  C   UNL     1      -4.363  -1.742 -33.764  1.00  0.00     0.118 A 
HETATM   21  C   UNL     1      -4.655  -2.902 -34.452  1.00  0.00     0.043 A 
HETATM   22  C   UNL     1      -5.990  -3.172 -34.716  1.00  0.00     0.037 A 
HETATM   23 CL   UNL     1      -6.417  -4.606 -35.566  1.00  0.00    -0.084 Cl
HETATM   24  C   UNL     1      -6.985  -2.294 -34.306  1.00  0.00     0.052 A 
ENDBRANCH  17  18
ENDBRANCH   3  17
TORSDOF 5
ENDMDL
MODEL 6
REMARK VINA RESULT:      -7.0      4.588      7.196
REMARK  5 active torsions:
REMARK  status: ('A' for Active; 'I' for Inactive)
REMARK    1  A    between atoms: C_2  and  O_3 
REMARK    2  A    between atoms: O_3  and  C_4 
REMARK    3  A    between atoms: C_8  and  N_9 
REMARK       I    between atoms: N_9  and  C_10 
REMARK       I    between atoms: C_10  and  N_11 
REMARK    4  A    between atoms: N_11  and  C_12 
REMARK    5  A    between atoms: C_12  and  C_13 
ROOT
HETATM    1  N   UNL     1      -5.027   2.320 -32.202  1.00  0.00    -0.309 N 
HETATM    2  C   UNL     1      -5.236   2.642 -30.893  1.00  0.00     0.321 C 
HETATM    3  N   UNL     1      -5.068   3.968 -30.592  1.00  0.00    -0.337 N 
HETATM    4  O   UNL     1      -5.535   1.887 -29.976  1.00  0.00    -0.247 OA
HETATM    5  H   UNL     1      -4.335   2.925 -32.638  1.00  0.00     0.170 HD
HETATM    6  H   UNL     1      -5.228   4.168 -29.614  1.00  0.00     0.164 HD
ENDROOT
BRANCH   1   7
HETATM    7  C   UNL     1      -5.304   1.134 -32.916  1.00  0.00     0.042 A 
HETATM    8  C   UNL     1      -4.546  -0.048 -32.930  1.00  0.00    -0.033 A 
HETATM    9  C   UNL     1      -5.009  -1.139 -33.703  1.00  0.00     0.045 A 
HETATM   10  C   UNL     1      -3.274  -0.268 -32.163  1.00  0.00     0.050 C 
HETATM   11  C   UNL     1      -6.220  -1.099 -34.397  1.00  0.00     0.069 A 
HETATM   12  C   UNL     1      -6.976   0.063 -34.359  1.00  0.00     0.039 A 
HETATM   13  C   UNL     1      -6.521   1.160 -33.624  1.00  0.00     0.033 A 
BRANCH  11  14
HETATM   14  O   UNL     1      -6.548  -2.248 -35.062  1.00  0.00    -0.351 OA
BRANCH  14  15
HETATM   15  C   UNL     1      -5.673  -3.361 -34.880  1.00  0.00     0.171 C 
HETATM   16  C   UNL     1      -6.416  -4.618 -35.296  1.00  0.00     0.034 C 
ENDBRANCH  14  15
ENDBRANCH  11  14
ENDBRANCH   1   7
BRANCH   3  17
HETATM   17  C   UNL     1      -4.868   5.073 -31.512  1.00  0.00     0.183 C 
BRANCH  17  18
HETATM   18  C   UNL     1      -3.407   5.266 -31.858  1.00  0.00     0.053 A 
HETATM   19  N   UNL     1      -2.562   5.550 -30.827  1.00  0.00    -0.264 NA
HETATM   20  C   UNL     1      -1.264   5.783 -31.126  1.00  0.00     0.118 A 
HETATM   21  C   UNL     1      -0.753   5.738 -32.407  1.00  0.00     0.043 A 
HETATM   22  C   UNL     1      -1.632   5.439 -33.438  1.00  0.00     0.037 A 
HETATM   23 CL   UNL     1      -1.054   5.364 -35.057  1.00  0.00    -0.084 Cl
HETATM   24  C   UNL     1      -2.977   5.205 -33.177  1.00  0.00     0.052 A 
ENDBRANCH  17  18
ENDBRANCH   3  17
TORSDOF 5
ENDMDL
MODEL 7
REMARK VINA RESULT:      -7.0      4.188      7.339
REMARK  5 active torsions:
REMARK  status: ('A' for Active; 'I' for Inactive)
REMARK    1  A    between atoms: C_2  and  O_3 
REMARK    2  A    between atoms: O_3  and  C_4 
REMARK    3  A    between atoms: C_8  and  N_9 
REMARK       I    between atoms: N_9  and  C_10 
REMARK       I    between atoms: C_10  and  N_11 
REMARK    4  A    between atoms: N_11  and  C_12 
REMARK    5  A    between atoms: C_12  and  C_13 
ROOT
HETATM    1  N   UNL     1      -5.879   1.170 -31.627  1.00  0.00    -0.309 N 
HETATM    2  C   UNL     1      -5.973   1.206 -30.266  1.00  0.00     0.321 C 
HETATM    3  N   UNL     1      -6.125   2.459 -29.734  1.00  0.00    -0.337 N 
HETATM    4  O   UNL     1      -5.921   0.263 -29.488  1.00  0.00    -0.247 OA
HETATM    5  H   UNL     1      -5.446   2.010 -32.002  1.00  0.00     0.170 HD
HETATM    6  H   UNL     1      -6.189   2.448 -28.725  1.00  0.00     0.164 HD
ENDROOT
BRANCH   1   7
HETATM    7  C   UNL     1      -5.928   0.082 -32.525  1.00  0.00     0.042 A 
HETATM    8  C   UNL     1      -7.062  -0.446 -33.163  1.00  0.00    -0.033 A 
HETATM    9  C   UNL     1      -6.895  -1.536 -34.049  1.00  0.00     0.045 A 
HETATM   10  C   UNL     1      -8.463   0.072 -33.001  1.00  0.00     0.050 C 
HETATM   11  C   UNL     1      -5.637  -2.061 -34.355  1.00  0.00     0.069 A 
HETATM   12  C   UNL     1      -4.518  -1.520 -33.741  1.00  0.00     0.039 A 
HETATM   13  C   UNL     1      -4.667  -0.460 -32.841  1.00  0.00     0.033 A 
BRANCH  11  14
HETATM   14  O   UNL     1      -5.639  -3.085 -35.261  1.00  0.00    -0.351 OA
BRANCH  14  15
HETATM   15  C   UNL     1      -6.041  -4.365 -34.774  1.00  0.00     0.171 C 
HETATM   16  C   UNL     1      -4.798  -5.104 -34.311  1.00  0.00     0.034 C 
ENDBRANCH  14  15
ENDBRANCH  11  14
ENDBRANCH   1   7
BRANCH   3  17
HETATM   17  C   UNL     1      -6.367   3.705 -30.439  1.00  0.00     0.183 C 
BRANCH  17  18
HETATM   18  C   UNL     1      -5.123   4.563 -30.515  1.00  0.00     0.053 A 
HETATM   19  N   UNL     1      -5.109   5.698 -29.760  1.00  0.00    -0.264 NA
HETATM   20  C   UNL     1      -4.029   6.505 -29.862  1.00  0.00     0.118 A 
HETATM   21  C   UNL     1      -2.946   6.238 -30.674  1.00  0.00     0.043 A 
HETATM   22  C   UNL     1      -2.981   5.073 -31.426  1.00  0.00     0.037 A 
HETATM   23 CL   UNL     1      -1.658   4.684 -32.455  1.00  0.00    -0.084 Cl
HETATM   24  C   UNL     1      -4.076   4.221 -31.362  1.00  0.00     0.052 A 
ENDBRANCH  17  18
ENDBRANCH   3  17
TORSDOF 5
ENDMDL
MODEL 8
REMARK VINA RESULT:      -7.0      3.807      8.219
REMARK  5 active torsions:
REMARK  status: ('A' for Active; 'I' for Inactive)
REMARK    1  A    between atoms: C_2  and  O_3 
REMARK    2  A    between atoms: O_3  and  C_4 
REMARK    3  A    between atoms: C_8  and  N_9 
REMARK       I    between atoms: N_9  and  C_10 
REMARK       I    between atoms: C_10  and  N_11 
REMARK    4  A    between atoms: N_11  and  C_12 
REMARK    5  A    between atoms: C_12  and  C_13 
ROOT
HETATM    1  N   UNL     1      -8.401   0.778 -32.774  1.00  0.00    -0.309 N 
HETATM    2  C   UNL     1      -9.727   0.497 -32.624  1.00  0.00     0.321 C 
HETATM    3  N   UNL     1     -10.538   1.595 -32.511  1.00  0.00    -0.337 N 
HETATM    4  O   UNL     1     -10.255  -0.606 -32.565  1.00  0.00    -0.247 OA
HETATM    5  H   UNL     1      -8.138   1.641 -32.304  1.00  0.00     0.170 HD
HETATM    6  H   UNL     1     -11.513   1.349 -32.398  1.00  0.00     0.164 HD
ENDROOT
BRANCH   1   7
HETATM    7  C   UNL     1      -7.316  -0.054 -33.125  1.00  0.00     0.042 A 
HETATM    8  C   UNL     1      -6.243  -0.445 -32.308  1.00  0.00    -0.033 A 
HETATM    9  C   UNL     1      -5.259  -1.306 -32.850  1.00  0.00     0.045 A 
HETATM   10  C   UNL     1      -6.057  -0.040 -30.874  1.00  0.00     0.050 C 
HETATM   11  C   UNL     1      -5.353  -1.825 -34.143  1.00  0.00     0.069 A 
HETATM   12  C   UNL     1      -6.428  -1.454 -34.937  1.00  0.00     0.039 A 
HETATM   13  C   UNL     1      -7.396  -0.583 -34.428  1.00  0.00     0.033 A 
BRANCH  11  14
HETATM   14  O   UNL     1      -4.346  -2.676 -34.503  1.00  0.00    -0.351 OA
BRANCH  14  15
HETATM   15  C   UNL     1      -4.603  -4.071 -34.346  1.00  0.00     0.171 C 
HETATM   16  C   UNL     1      -3.532  -4.647 -33.437  1.00  0.00     0.034 C 
ENDBRANCH  14  15
ENDBRANCH  11  14
ENDBRANCH   1   7
BRANCH   3  17
HETATM   17  C   UNL     1     -10.184   2.990 -32.701  1.00  0.00     0.183 C 
BRANCH  17  18
HETATM   18  C   UNL     1     -11.059   3.661 -33.737  1.00  0.00     0.053 A 
HETATM   19  N   UNL     1     -11.973   2.877 -34.373  1.00  0.00    -0.264 NA
HETATM   20  C   UNL     1     -12.722   3.448 -35.344  1.00  0.00     0.118 A 
HETATM   21  C   UNL     1     -12.619   4.774 -35.711  1.00  0.00     0.043 A 
HETATM   22  C   UNL     1     -11.686   5.553 -35.043  1.00  0.00     0.037 A 
HETATM   23 CL   UNL     1     -11.512   7.215 -35.454  1.00  0.00    -0.084 Cl
HETATM   24  C   UNL     1     -10.886   5.004 -34.048  1.00  0.00     0.052 A 
ENDBRANCH  17  18
ENDBRANCH   3  17
TORSDOF 5
ENDMDL
MODEL 9
REMARK VINA RESULT:      -7.0      3.653      7.173
REMARK  5 active torsions:
REMARK  status: ('A' for Active; 'I' for Inactive)
REMARK    1  A    between atoms: C_2  and  O_3 
REMARK    2  A    between atoms: O_3  and  C_4 
REMARK    3  A    between atoms: C_8  and  N_9 
REMARK       I    between atoms: N_9  and  C_10 
REMARK       I    between atoms: C_10  and  N_11 
REMARK    4  A    between atoms: N_11  and  C_12 
REMARK    5  A    between atoms: C_12  and  C_13 
ROOT
HETATM    1  N   UNL     1      -5.980   0.901 -31.567  1.00  0.00    -0.309 N 
HETATM    2  C   UNL     1      -6.355   0.808 -30.259  1.00  0.00     0.321 C 
HETATM    3  N   UNL     1      -6.746   1.989 -29.687  1.00  0.00    -0.337 N 
HETATM    4  O   UNL     1      -6.363  -0.193 -29.554  1.00  0.00    -0.247 OA
HETATM    5  H   UNL     1      -5.572   1.808 -31.784  1.00  0.00     0.170 HD
HETATM    6  H   UNL     1      -7.014   1.882 -28.718  1.00  0.00     0.164 HD
ENDROOT
BRANCH   1   7
HETATM    7  C   UNL     1      -5.727  -0.101 -32.528  1.00  0.00     0.042 A 
HETATM    8  C   UNL     1      -4.495  -0.707 -32.823  1.00  0.00    -0.033 A 
HETATM    9  C   UNL     1      -4.456  -1.713 -33.817  1.00  0.00     0.045 A 
HETATM   10  C   UNL     1      -3.193  -0.391 -32.146  1.00  0.00     0.050 C 
HETATM   11  C   UNL     1      -5.608  -2.164 -34.466  1.00  0.00     0.069 A 
HETATM   12  C   UNL     1      -6.825  -1.578 -34.153  1.00  0.00     0.039 A 
HETATM   13  C   UNL     1      -6.879  -0.564 -33.194  1.00  0.00     0.033 A 
BRANCH  11  14
HETATM   14  O   UNL     1      -5.410  -3.170 -35.370  1.00  0.00    -0.351 OA
BRANCH  14  15
HETATM   15  C   UNL     1      -5.874  -4.466 -34.991  1.00  0.00     0.171 C 
HETATM   16  C   UNL     1      -4.743  -5.180 -34.273  1.00  0.00     0.034 C 
ENDBRANCH  14  15
ENDBRANCH  11  14
ENDBRANCH   1   7
BRANCH   3  17
HETATM   17  C   UNL     1      -6.970   3.266 -30.340  1.00  0.00     0.183 C 
BRANCH  17  18
HETATM   18  C   UNL     1      -8.276   3.292 -31.104  1.00  0.00     0.053 A 
HETATM   19  N   UNL     1      -8.222   2.969 -32.427  1.00  0.00    -0.264 NA
HETATM   20  C   UNL     1      -9.370   3.044 -33.137  1.00  0.00     0.118 A 
HETATM   21  C   UNL     1     -10.584   3.415 -32.596  1.00  0.00     0.043 A 
HETATM   22  C   UNL     1     -10.613   3.730 -31.245  1.00  0.00     0.037 A 
HETATM   23 CL   UNL     1     -12.098   4.197 -30.511  1.00  0.00    -0.084 Cl
HETATM   24  C   UNL     1      -9.454   3.680 -30.480  1.00  0.00     0.052 A 
ENDBRANCH  17  18
ENDBRANCH   3  17
TORSDOF 5
ENDMDL
MODEL 10
REMARK VINA RESULT:      -6.8      5.176      7.699
REMARK  5 active torsions:
REMARK  status: ('A' for Active; 'I' for Inactive)
REMARK    1  A    between atoms: C_2  and  O_3 
REMARK    2  A    between atoms: O_3  and  C_4 
REMARK    3  A    between atoms: C_8  and  N_9 
REMARK       I    between atoms: N_9  and  C_10 
REMARK       I    between atoms: C_10  and  N_11 
REMARK    4  A    between atoms: N_11  and  C_12 
REMARK    5  A    between atoms: C_12  and  C_13 
ROOT
HETATM    1  N   UNL     1      -6.128   3.099 -32.567  1.00  0.00    -0.309 N 
HETATM    2  C   UNL     1      -6.360   4.258 -33.247  1.00  0.00     0.321 C 
HETATM    3  N   UNL     1      -5.669   5.346 -32.783  1.00  0.00    -0.337 N 
HETATM    4  O   UNL     1      -7.115   4.430 -34.196  1.00  0.00    -0.247 OA
HETATM    5  H   UNL     1      -5.912   3.268 -31.588  1.00  0.00     0.170 HD
HETATM    6  H   UNL     1      -5.868   6.187 -33.309  1.00  0.00     0.164 HD
ENDROOT
BRANCH   1   7
HETATM    7  C   UNL     1      -6.478   1.766 -32.871  1.00  0.00     0.042 A 
HETATM    8  C   UNL     1      -7.736   1.159 -32.718  1.00  0.00    -0.033 A 
HETATM    9  C   UNL     1      -7.885  -0.194 -33.101  1.00  0.00     0.045 A 
HETATM   10  C   UNL     1      -8.966   1.843 -32.194  1.00  0.00     0.050 C 
HETATM   11  C   UNL     1      -6.845  -0.924 -33.681  1.00  0.00     0.069 A 
HETATM   12  C   UNL     1      -5.612  -0.312 -33.852  1.00  0.00     0.039 A 
HETATM   13  C   UNL     1      -5.438   1.016 -33.454  1.00  0.00     0.033 A 
BRANCH  11  14
HETATM   14  O   UNL     1      -7.160  -2.206 -34.034  1.00  0.00    -0.351 OA
BRANCH  14  15
HETATM   15  C   UNL     1      -6.155  -2.938 -34.735  1.00  0.00     0.171 C 
HETATM   16  C   UNL     1      -6.685  -4.338 -34.992  1.00  0.00     0.034 C 
ENDBRANCH  14  15
ENDBRANCH  11  14
ENDBRANCH   1   7
BRANCH   3  17
HETATM   17  C   UNL     1      -4.613   5.374 -31.788  1.00  0.00     0.183 C 
BRANCH  17  18
HETATM   18  C   UNL     1      -3.334   5.969 -32.334  1.00  0.00     0.053 A 
HETATM   19  N   UNL     1      -3.333   6.327 -33.649  1.00  0.00    -0.264 NA
HETATM   20  C   UNL     1      -2.180   6.806 -34.168  1.00  0.00     0.118 A 
HETATM   21  C   UNL     1      -1.018   6.960 -33.440  1.00  0.00     0.043 A 
HETATM   22  C   UNL     1      -1.047   6.597 -32.102  1.00  0.00     0.037 A 
HETATM   23 CL   UNL     1       0.370   6.770 -31.141  1.00  0.00    -0.084 Cl
HETATM   24  C   UNL     1      -2.207   6.088 -31.531  1.00  0.00     0.052 A 
ENDBRANCH  17  18
ENDBRANCH   3  17
TORSDOF 5
ENDMDL
