MODEL 1
REMARK VINA RESULT:      -8.7      0.000      0.000
REMARK  7 active torsions:
REMARK  status: ('A' for Active; 'I' for Inactive)
REMARK    1  A    between atoms: C_3  and  C_4 
REMARK    2  A    between atoms: C_4  and  S_5 
REMARK    3  A    between atoms: S_5  and  C_6 
REMARK    4  A    between atoms: C_6  and  C_7 
REMARK    5  A    between atoms: C_16  and  C_17 
REMARK       I    between atoms: C_17  and  N_18 
REMARK    6  A    between atoms: N_18  and  C_19 
REMARK    7  A    between atoms: C_19  and  C_20 
ROOT
HETATM    1  C   UNL     1      -7.205   5.549 -30.110  1.00  0.00     0.162 C 
HETATM    2  N   UNL     1      -6.530   5.294 -31.413  1.00  0.00    -0.277 NA
HETATM    3  C   UNL     1      -5.922   4.028 -31.516  1.00  0.00     0.036 A 
HETATM    4  C   UNL     1      -5.450   3.351 -30.375  1.00  0.00     0.057 A 
HETATM    5  N   UNL     1      -5.633   3.920 -29.107  1.00  0.00    -0.324 N 
HETATM    6  C   UNL     1      -6.345   5.080 -28.923  1.00  0.00     0.240 C 
HETATM    7  O   UNL     1      -6.341   5.651 -27.833  1.00  0.00    -0.271 OA
HETATM    8  C   UNL     1      -5.627   3.499 -32.776  1.00  0.00     0.027 A 
HETATM    9  C   UNL     1      -4.959   2.277 -32.892  1.00  0.00     0.019 A 
HETATM   10  C   UNL     1      -4.553   1.581 -31.746  1.00  0.00     0.034 A 
HETATM   11  C   UNL     1      -4.771   2.137 -30.481  1.00  0.00     0.048 A 
HETATM   12  H   UNL     1      -7.093   5.533 -32.225  1.00  0.00     0.128 HD
HETATM   13  H   UNL     1      -5.152   3.554 -28.297  1.00  0.00     0.169 HD
ENDROOT
BRANCH  10  14
HETATM   14  C   UNL     1      -3.859   0.277 -31.912  1.00  0.00     0.252 C 
HETATM   15  N   UNL     1      -4.335  -0.534 -32.915  1.00  0.00    -0.353 N 
HETATM   16  H   UNL     1      -5.049  -0.204 -33.549  1.00  0.00     0.163 HD
HETATM   17  O   UNL     1      -2.905  -0.013 -31.200  1.00  0.00    -0.268 OA
BRANCH  15  18
HETATM   18  C   UNL     1      -3.792  -1.855 -33.124  1.00  0.00     0.163 C 
BRANCH  18  19
HETATM   19  C   UNL     1      -4.764  -2.737 -33.866  1.00  0.00    -0.019 A 
HETATM   20  C   UNL     1      -4.524  -4.102 -34.091  1.00  0.00     0.042 A 
HETATM   21 CL   UNL     1      -3.087  -4.881 -33.530  1.00  0.00    -0.084 Cl
HETATM   22  C   UNL     1      -5.462  -4.887 -34.770  1.00  0.00     0.024 A 
HETATM   23  C   UNL     1      -6.651  -4.322 -35.227  1.00  0.00     0.002 A 
HETATM   24  C   UNL     1      -6.906  -2.971 -35.005  1.00  0.00     0.001 A 
HETATM   25  C   UNL     1      -5.972  -2.186 -34.327  1.00  0.00     0.010 A 
ENDBRANCH  18  19
ENDBRANCH  15  18
ENDBRANCH  10  14
BRANCH   1  26
HETATM   26  C   UNL     1      -8.592   4.872 -30.111  1.00  0.00     0.103 C 
BRANCH  26  27
HETATM   27  S   UNL     1      -9.600   4.990 -31.629  1.00  0.00    -0.162 SA
BRANCH  27  28
HETATM   28  C   UNL     1     -10.461   3.386 -31.572  1.00  0.00     0.112 C 
BRANCH  28  29
HETATM   29  C   UNL     1      -9.641   2.301 -32.234  1.00  0.00    -0.043 A 
HETATM   30  C   UNL     1      -9.695   2.053 -33.623  1.00  0.00    -0.055 A 
HETATM   31  C   UNL     1     -10.561   2.868 -34.546  1.00  0.00     0.049 C 
HETATM   32  C   UNL     1      -8.908   1.023 -34.167  1.00  0.00     0.007 A 
HETATM   33  C   UNL     1      -8.094   0.237 -33.354  1.00  0.00     0.001 A 
HETATM   34  C   UNL     1      -8.053   0.467 -31.983  1.00  0.00     0.001 A 
HETATM   35  C   UNL     1      -8.820   1.491 -31.428  1.00  0.00     0.008 A 
ENDBRANCH  28  29
ENDBRANCH  27  28
ENDBRANCH  26  27
ENDBRANCH   1  26
TORSDOF 7
ENDMDL
MODEL 2
REMARK VINA RESULT:      -8.6      2.763      4.543
REMARK  7 active torsions:
REMARK  status: ('A' for Active; 'I' for Inactive)
REMARK    1  A    between atoms: C_3  and  C_4 
REMARK    2  A    between atoms: C_4  and  S_5 
REMARK    3  A    between atoms: S_5  and  C_6 
REMARK    4  A    between atoms: C_6  and  C_7 
REMARK    5  A    between atoms: C_16  and  C_17 
REMARK       I    between atoms: C_17  and  N_18 
REMARK    6  A    between atoms: N_18  and  C_19 
REMARK    7  A    between atoms: C_19  and  C_20 
ROOT
HETATM    1  C   UNL     1     -11.766   3.085 -33.882  1.00  0.00     0.162 C 
HETATM    2  N   UNL     1     -11.278   2.710 -32.526  1.00  0.00    -0.277 NA
HETATM    3  C   UNL     1     -10.038   2.043 -32.516  1.00  0.00     0.036 A 
HETATM    4  C   UNL     1      -9.618   1.269 -33.616  1.00  0.00     0.057 A 
HETATM    5  N   UNL     1     -10.422   1.201 -34.761  1.00  0.00    -0.324 N 
HETATM    6  C   UNL     1     -11.571   1.941 -34.893  1.00  0.00     0.240 C 
HETATM    7  O   UNL     1     -12.348   1.732 -35.824  1.00  0.00    -0.271 OA
HETATM    8  C   UNL     1      -9.279   2.005 -31.343  1.00  0.00     0.027 A 
HETATM    9  C   UNL     1      -8.080   1.286 -31.299  1.00  0.00     0.019 A 
HETATM   10  C   UNL     1      -7.641   0.573 -32.422  1.00  0.00     0.034 A 
HETATM   11  C   UNL     1      -8.431   0.538 -33.576  1.00  0.00     0.048 A 
HETATM   12  H   UNL     1     -11.332   3.461 -31.844  1.00  0.00     0.128 HD
HETATM   13  H   UNL     1     -10.240   0.518 -35.485  1.00  0.00     0.169 HD
ENDROOT
BRANCH  10  14
HETATM   14  C   UNL     1      -6.353  -0.165 -32.339  1.00  0.00     0.252 C 
HETATM   15  N   UNL     1      -5.673  -0.322 -33.524  1.00  0.00    -0.353 N 
HETATM   16  H   UNL     1      -5.999   0.127 -34.368  1.00  0.00     0.163 HD
HETATM   17  O   UNL     1      -5.939  -0.569 -31.259  1.00  0.00    -0.268 OA
BRANCH  15  18
HETATM   18  C   UNL     1      -4.450  -1.085 -33.583  1.00  0.00     0.163 C 
BRANCH  18  19
HETATM   19  C   UNL     1      -4.712  -2.513 -33.988  1.00  0.00    -0.019 A 
HETATM   20  C   UNL     1      -4.060  -3.601 -33.387  1.00  0.00     0.042 A 
HETATM   21 CL   UNL     1      -2.899  -3.384 -32.125  1.00  0.00    -0.084 Cl
HETATM   22  C   UNL     1      -4.347  -4.912 -33.782  1.00  0.00     0.024 A 
HETATM   23  C   UNL     1      -5.291  -5.153 -34.779  1.00  0.00     0.002 A 
HETATM   24  C   UNL     1      -5.951  -4.084 -35.380  1.00  0.00     0.001 A 
HETATM   25  C   UNL     1      -5.667  -2.776 -34.986  1.00  0.00     0.010 A 
ENDBRANCH  18  19
ENDBRANCH  15  18
ENDBRANCH  10  14
BRANCH   1  26
HETATM   26  C   UNL     1     -11.057   4.377 -34.342  1.00  0.00     0.103 C 
BRANCH  26  27
HETATM   27  S   UNL     1     -10.163   5.355 -33.085  1.00  0.00    -0.162 SA
BRANCH  27  28
HETATM   28  C   UNL     1      -8.462   5.225 -33.721  1.00  0.00     0.112 C 
BRANCH  28  29
HETATM   29  C   UNL     1      -7.490   4.879 -32.616  1.00  0.00    -0.043 A 
HETATM   30  C   UNL     1      -6.342   4.087 -32.839  1.00  0.00    -0.055 A 
HETATM   31  C   UNL     1      -5.995   3.551 -34.203  1.00  0.00     0.049 C 
HETATM   32  C   UNL     1      -5.485   3.801 -31.762  1.00  0.00     0.007 A 
HETATM   33  C   UNL     1      -5.764   4.270 -30.479  1.00  0.00     0.001 A 
HETATM   34  C   UNL     1      -6.904   5.034 -30.253  1.00  0.00     0.001 A 
HETATM   35  C   UNL     1      -7.760   5.335 -31.312  1.00  0.00     0.008 A 
ENDBRANCH  28  29
ENDBRANCH  27  28
ENDBRANCH  26  27
ENDBRANCH   1  26
TORSDOF 7
ENDMDL
MODEL 3
REMARK VINA RESULT:      -8.6      5.127      8.340
REMARK  7 active torsions:
REMARK  status: ('A' for Active; 'I' for Inactive)
REMARK    1  A    between atoms: C_3  and  C_4 
REMARK    2  A    between atoms: C_4  and  S_5 
REMARK    3  A    between atoms: S_5  and  C_6 
REMARK    4  A    between atoms: C_6  and  C_7 
REMARK    5  A    between atoms: C_16  and  C_17 
REMARK       I    between atoms: C_17  and  N_18 
REMARK    6  A    between atoms: N_18  and  C_19 
REMARK    7  A    between atoms: C_19  and  C_20 
ROOT
HETATM    1  C   UNL     1      -5.951   4.833 -33.900  1.00  0.00     0.162 C 
HETATM    2  N   UNL     1      -4.640   5.285 -34.442  1.00  0.00    -0.277 NA
HETATM    3  C   UNL     1      -3.574   5.213 -33.526  1.00  0.00     0.036 A 
HETATM    4  C   UNL     1      -3.797   5.320 -32.139  1.00  0.00     0.057 A 
HETATM    5  N   UNL     1      -5.106   5.450 -31.656  1.00  0.00    -0.324 N 
HETATM    6  C   UNL     1      -6.200   5.382 -32.484  1.00  0.00     0.240 C 
HETATM    7  O   UNL     1      -7.320   5.675 -32.067  1.00  0.00    -0.271 OA
HETATM    8  C   UNL     1      -2.256   5.199 -33.991  1.00  0.00     0.027 A 
HETATM    9  C   UNL     1      -1.187   5.201 -33.090  1.00  0.00     0.019 A 
HETATM   10  C   UNL     1      -1.425   5.242 -31.710  1.00  0.00     0.034 A 
HETATM   11  C   UNL     1      -2.736   5.335 -31.233  1.00  0.00     0.048 A 
HETATM   12  H   UNL     1      -4.411   4.893 -35.352  1.00  0.00     0.128 HD
HETATM   13  H   UNL     1      -5.284   5.710 -30.696  1.00  0.00     0.169 HD
ENDROOT
BRANCH  10  14
HETATM   14  C   UNL     1      -0.261   5.225 -30.785  1.00  0.00     0.252 C 
HETATM   15  N   UNL     1      -0.508   5.651 -29.501  1.00  0.00    -0.353 N 
HETATM   16  H   UNL     1      -1.448   5.867 -29.201  1.00  0.00     0.163 HD
HETATM   17  O   UNL     1       0.830   4.821 -31.169  1.00  0.00    -0.268 OA
BRANCH  15  18
HETATM   18  C   UNL     1       0.559   5.751 -28.533  1.00  0.00     0.163 C 
BRANCH  18  19
HETATM   19  C   UNL     1       0.473   7.038 -27.752  1.00  0.00    -0.019 A 
HETATM   20  C   UNL     1      -0.326   7.173 -26.605  1.00  0.00     0.042 A 
HETATM   21 CL   UNL     1      -1.275   5.864 -25.996  1.00  0.00    -0.084 Cl
HETATM   22  C   UNL     1      -0.362   8.381 -25.901  1.00  0.00     0.024 A 
HETATM   23  C   UNL     1       0.400   9.466 -26.330  1.00  0.00     0.002 A 
HETATM   24  C   UNL     1       1.201   9.345 -27.462  1.00  0.00     0.001 A 
HETATM   25  C   UNL     1       1.240   8.140 -28.166  1.00  0.00     0.010 A 
ENDBRANCH  18  19
ENDBRANCH  15  18
ENDBRANCH  10  14
BRANCH   1  26
HETATM   26  C   UNL     1      -6.016   3.292 -33.932  1.00  0.00     0.103 C 
BRANCH  26  27
HETATM   27  S   UNL     1      -7.634   2.498 -33.636  1.00  0.00    -0.162 SA
BRANCH  27  28
HETATM   28  C   UNL     1      -7.150   1.211 -32.443  1.00  0.00     0.112 C 
BRANCH  28  29
HETATM   29  C   UNL     1      -6.582  -0.002 -33.146  1.00  0.00    -0.043 A 
HETATM   30  C   UNL     1      -5.229  -0.387 -33.017  1.00  0.00    -0.055 A 
HETATM   31  C   UNL     1      -4.262   0.375 -32.151  1.00  0.00     0.049 C 
HETATM   32  C   UNL     1      -4.771  -1.523 -33.706  1.00  0.00     0.007 A 
HETATM   33  C   UNL     1      -5.626  -2.260 -34.524  1.00  0.00     0.001 A 
HETATM   34  C   UNL     1      -6.954  -1.873 -34.667  1.00  0.00     0.001 A 
HETATM   35  C   UNL     1      -7.428  -0.753 -33.984  1.00  0.00     0.008 A 
ENDBRANCH  28  29
ENDBRANCH  27  28
ENDBRANCH  26  27
ENDBRANCH   1  26
TORSDOF 7
ENDMDL
MODEL 4
REMARK VINA RESULT:      -8.5      4.643      8.239
REMARK  7 active torsions:
REMARK  status: ('A' for Active; 'I' for Inactive)
REMARK    1  A    between atoms: C_3  and  C_4 
REMARK    2  A    between atoms: C_4  and  S_5 
REMARK    3  A    between atoms: S_5  and  C_6 
REMARK    4  A    between atoms: C_6  and  C_7 
REMARK    5  A    between atoms: C_16  and  C_17 
REMARK       I    between atoms: C_17  and  N_18 
REMARK    6  A    between atoms: N_18  and  C_19 
REMARK    7  A    between atoms: C_19  and  C_20 
ROOT
HETATM    1  C   UNL     1      -7.156   1.280 -32.117  1.00  0.00     0.162 C 
HETATM    2  N   UNL     1      -7.000   2.757 -32.237  1.00  0.00    -0.277 NA
HETATM    3  C   UNL     1      -5.667   3.207 -32.190  1.00  0.00     0.036 A 
HETATM    4  C   UNL     1      -4.678   2.484 -31.495  1.00  0.00     0.057 A 
HETATM    5  N   UNL     1      -5.011   1.269 -30.883  1.00  0.00    -0.324 N 
HETATM    6  C   UNL     1      -6.254   0.701 -31.013  1.00  0.00     0.240 C 
HETATM    7  O   UNL     1      -6.576  -0.268 -30.326  1.00  0.00    -0.271 OA
HETATM    8  C   UNL     1      -5.342   4.470 -32.694  1.00  0.00     0.027 A 
HETATM    9  C   UNL     1      -4.037   4.959 -32.588  1.00  0.00     0.019 A 
HETATM   10  C   UNL     1      -3.046   4.201 -31.952  1.00  0.00     0.034 A 
HETATM   11  C   UNL     1      -3.376   2.971 -31.373  1.00  0.00     0.048 A 
HETATM   12  H   UNL     1      -7.534   3.169 -32.997  1.00  0.00     0.128 HD
HETATM   13  H   UNL     1      -4.378   0.824 -30.231  1.00  0.00     0.169 HD
ENDROOT
BRANCH  10  14
HETATM   14  C   UNL     1      -1.666   4.750 -31.874  1.00  0.00     0.252 C 
HETATM   15  N   UNL     1      -1.123   4.836 -30.614  1.00  0.00    -0.353 N 
HETATM   16  H   UNL     1      -1.611   4.455 -29.815  1.00  0.00     0.163 HD
HETATM   17  O   UNL     1      -1.068   5.069 -32.895  1.00  0.00    -0.268 OA
BRANCH  15  18
HETATM   18  C   UNL     1       0.179   5.422 -30.404  1.00  0.00     0.163 C 
BRANCH  18  19
HETATM   19  C   UNL     1       0.143   6.465 -29.317  1.00  0.00    -0.019 A 
HETATM   20  C   UNL     1      -0.540   7.684 -29.462  1.00  0.00     0.042 A 
HETATM   21 CL   UNL     1      -1.400   8.080 -30.908  1.00  0.00    -0.084 Cl
HETATM   22  C   UNL     1      -0.562   8.616 -28.420  1.00  0.00     0.024 A 
HETATM   23  C   UNL     1       0.093   8.344 -27.221  1.00  0.00     0.002 A 
HETATM   24  C   UNL     1       0.769   7.138 -27.059  1.00  0.00     0.001 A 
HETATM   25  C   UNL     1       0.791   6.204 -28.097  1.00  0.00     0.010 A 
ENDBRANCH  18  19
ENDBRANCH  15  18
ENDBRANCH  10  14
BRANCH   1  26
HETATM   26  C   UNL     1      -6.875   0.623 -33.485  1.00  0.00     0.103 C 
BRANCH  26  27
HETATM   27  S   UNL     1      -7.460  -1.088 -33.746  1.00  0.00    -0.162 SA
BRANCH  27  28
HETATM   28  C   UNL     1      -6.250  -1.659 -34.981  1.00  0.00     0.112 C 
BRANCH  28  29
HETATM   29  C   UNL     1      -5.332  -2.712 -34.401  1.00  0.00    -0.043 A 
HETATM   30  C   UNL     1      -5.468  -4.085 -34.702  1.00  0.00    -0.055 A 
HETATM   31  C   UNL     1      -6.529  -4.593 -35.642  1.00  0.00     0.049 C 
HETATM   32  C   UNL     1      -4.581  -5.006 -34.121  1.00  0.00     0.007 A 
HETATM   33  C   UNL     1      -3.585  -4.586 -33.241  1.00  0.00     0.001 A 
HETATM   34  C   UNL     1      -3.460  -3.237 -32.928  1.00  0.00     0.001 A 
HETATM   35  C   UNL     1      -4.326  -2.308 -33.503  1.00  0.00     0.008 A 
ENDBRANCH  28  29
ENDBRANCH  27  28
ENDBRANCH  26  27
ENDBRANCH   1  26
TORSDOF 7
ENDMDL
MODEL 5
REMARK VINA RESULT:      -8.5      4.103      7.572
REMARK  7 active torsions:
REMARK  status: ('A' for Active; 'I' for Inactive)
REMARK    1  A    between atoms: C_3  and  C_4 
REMARK    2  A    between atoms: C_4  and  S_5 
REMARK    3  A    between atoms: S_5  and  C_6 
REMARK    4  A    between atoms: C_6  and  C_7 
REMARK    5  A    between atoms: C_16  and  C_17 
REMARK       I    between atoms: C_17  and  N_18 
REMARK    6  A    between atoms: N_18  and  C_19 
REMARK    7  A    between atoms: C_19  and  C_20 
ROOT
HETATM    1  C   UNL     1      -4.386   1.594 -30.910  1.00  0.00     0.162 C 
HETATM    2  N   UNL     1      -5.656   0.921 -30.520  1.00  0.00    -0.277 NA
HETATM    3  C   UNL     1      -6.747   1.199 -31.365  1.00  0.00     0.036 A 
HETATM    4  C   UNL     1      -6.825   2.410 -32.080  1.00  0.00     0.057 A 
HETATM    5  N   UNL     1      -5.776   3.335 -31.990  1.00  0.00    -0.324 N 
HETATM    6  C   UNL     1      -4.619   3.065 -31.300  1.00  0.00     0.240 C 
HETATM    7  O   UNL     1      -3.795   3.953 -31.087  1.00  0.00    -0.271 OA
HETATM    8  C   UNL     1      -7.852   0.344 -31.378  1.00  0.00     0.027 A 
HETATM    9  C   UNL     1      -8.972   0.646 -32.159  1.00  0.00     0.019 A 
HETATM   10  C   UNL     1      -9.009   1.823 -32.916  1.00  0.00     0.034 A 
HETATM   11  C   UNL     1      -7.943   2.727 -32.851  1.00  0.00     0.048 A 
HETATM   12  H   UNL     1      -5.553  -0.069 -30.314  1.00  0.00     0.128 HD
HETATM   13  H   UNL     1      -5.882   4.278 -32.339  1.00  0.00     0.169 HD
ENDROOT
BRANCH  10  14
HETATM   14  C   UNL     1     -10.212   2.100 -33.746  1.00  0.00     0.252 C 
HETATM   15  N   UNL     1     -11.355   1.420 -33.393  1.00  0.00    -0.353 N 
HETATM   16  H   UNL     1     -11.377   0.847 -32.561  1.00  0.00     0.163 HD
HETATM   17  O   UNL     1     -10.161   2.913 -34.660  1.00  0.00    -0.268 OA
BRANCH  15  18
HETATM   18  C   UNL     1     -12.565   1.548 -34.169  1.00  0.00     0.163 C 
BRANCH  18  19
HETATM   19  C   UNL     1     -13.696   2.094 -33.335  1.00  0.00    -0.019 A 
HETATM   20  C   UNL     1     -15.015   1.624 -33.451  1.00  0.00     0.042 A 
HETATM   21 CL   UNL     1     -15.443   0.375 -34.566  1.00  0.00    -0.084 Cl
HETATM   22  C   UNL     1     -16.031   2.147 -32.645  1.00  0.00     0.024 A 
HETATM   23  C   UNL     1     -15.743   3.141 -31.710  1.00  0.00     0.002 A 
HETATM   24  C   UNL     1     -14.440   3.612 -31.579  1.00  0.00     0.001 A 
HETATM   25  C   UNL     1     -13.424   3.090 -32.382  1.00  0.00     0.010 A 
ENDBRANCH  18  19
ENDBRANCH  15  18
ENDBRANCH  10  14
BRANCH   1  26
HETATM   26  C   UNL     1      -3.715   0.802 -32.051  1.00  0.00     0.103 C 
BRANCH  26  27
HETATM   27  S   UNL     1      -3.786  -1.021 -31.983  1.00  0.00    -0.162 SA
BRANCH  27  28
HETATM   28  C   UNL     1      -3.653  -1.418 -33.755  1.00  0.00     0.112 C 
BRANCH  28  29
HETATM   29  C   UNL     1      -4.640  -2.494 -34.150  1.00  0.00    -0.043 A 
HETATM   30  C   UNL     1      -5.962  -2.198 -34.552  1.00  0.00    -0.055 A 
HETATM   31  C   UNL     1      -6.473  -0.784 -34.634  1.00  0.00     0.049 C 
HETATM   32  C   UNL     1      -6.825  -3.251 -34.900  1.00  0.00     0.007 A 
HETATM   33  C   UNL     1      -6.402  -4.577 -34.836  1.00  0.00     0.001 A 
HETATM   34  C   UNL     1      -5.107  -4.873 -34.423  1.00  0.00     0.001 A 
HETATM   35  C   UNL     1      -4.234  -3.840 -34.083  1.00  0.00     0.008 A 
ENDBRANCH  28  29
ENDBRANCH  27  28
ENDBRANCH  26  27
ENDBRANCH   1  26
TORSDOF 7
ENDMDL
MODEL 6
REMARK VINA RESULT:      -8.4      2.550      4.300
REMARK  7 active torsions:
REMARK  status: ('A' for Active; 'I' for Inactive)
REMARK    1  A    between atoms: C_3  and  C_4 
REMARK    2  A    between atoms: C_4  and  S_5 
REMARK    3  A    between atoms: S_5  and  C_6 
REMARK    4  A    between atoms: C_6  and  C_7 
REMARK    5  A    between atoms: C_16  and  C_17 
REMARK       I    between atoms: C_17  and  N_18 
REMARK    6  A    between atoms: N_18  and  C_19 
REMARK    7  A    between atoms: C_19  and  C_20 
ROOT
HETATM    1  C   UNL     1     -10.796   3.949 -30.853  1.00  0.00     0.162 C 
HETATM    2  N   UNL     1     -10.053   2.720 -30.458  1.00  0.00    -0.277 NA
HETATM    3  C   UNL     1      -9.374   2.085 -31.515  1.00  0.00     0.036 A 
HETATM    4  C   UNL     1      -9.831   2.193 -32.844  1.00  0.00     0.057 A 
HETATM    5  N   UNL     1     -10.950   2.987 -33.128  1.00  0.00    -0.324 N 
HETATM    6  C   UNL     1     -11.570   3.748 -32.168  1.00  0.00     0.240 C 
HETATM    7  O   UNL     1     -12.649   4.292 -32.399  1.00  0.00    -0.271 OA
HETATM    8  C   UNL     1      -8.329   1.199 -31.238  1.00  0.00     0.027 A 
HETATM    9  C   UNL     1      -7.695   0.506 -32.274  1.00  0.00     0.019 A 
HETATM   10  C   UNL     1      -8.117   0.673 -33.599  1.00  0.00     0.034 A 
HETATM   11  C   UNL     1      -9.213   1.496 -33.882  1.00  0.00     0.048 A 
HETATM   12  H   UNL     1      -9.479   2.833 -29.627  1.00  0.00     0.128 HD
HETATM   13  H   UNL     1     -11.407   2.939 -34.029  1.00  0.00     0.169 HD
ENDROOT
BRANCH  10  14
HETATM   14  C   UNL     1      -7.406  -0.070 -34.673  1.00  0.00     0.252 C 
HETATM   15  N   UNL     1      -7.142  -1.395 -34.415  1.00  0.00    -0.353 N 
HETATM   16  H   UNL     1      -7.503  -1.839 -33.582  1.00  0.00     0.163 HD
HETATM   17  O   UNL     1      -7.114   0.489 -35.724  1.00  0.00    -0.268 OA
BRANCH  15  18
HETATM   18  C   UNL     1      -6.391  -2.199 -35.349  1.00  0.00     0.163 C 
BRANCH  18  19
HETATM   19  C   UNL     1      -5.406  -3.091 -34.638  1.00  0.00    -0.019 A 
HETATM   20  C   UNL     1      -4.402  -2.586 -33.796  1.00  0.00     0.042 A 
HETATM   21 CL   UNL     1      -4.220  -0.892 -33.508  1.00  0.00    -0.084 Cl
HETATM   22  C   UNL     1      -3.520  -3.452 -33.142  1.00  0.00     0.024 A 
HETATM   23  C   UNL     1      -3.631  -4.830 -33.316  1.00  0.00     0.002 A 
HETATM   24  C   UNL     1      -4.625  -5.346 -34.143  1.00  0.00     0.001 A 
HETATM   25  C   UNL     1      -5.508  -4.484 -34.795  1.00  0.00     0.010 A 
ENDBRANCH  18  19
ENDBRANCH  15  18
ENDBRANCH  10  14
BRANCH   1  26
HETATM   26  C   UNL     1      -9.813   5.135 -30.947  1.00  0.00     0.103 C 
BRANCH  26  27
HETATM   27  S   UNL     1      -8.367   5.137 -29.832  1.00  0.00    -0.162 SA
BRANCH  27  28
HETATM   28  C   UNL     1      -7.078   5.732 -30.972  1.00  0.00     0.112 C 
BRANCH  28  29
HETATM   29  C   UNL     1      -6.195   4.596 -31.440  1.00  0.00    -0.043 A 
HETATM   30  C   UNL     1      -6.228   4.109 -32.765  1.00  0.00    -0.055 A 
HETATM   31  C   UNL     1      -7.132   4.703 -33.811  1.00  0.00     0.049 C 
HETATM   32  C   UNL     1      -5.381   3.047 -33.126  1.00  0.00     0.007 A 
HETATM   33  C   UNL     1      -4.529   2.459 -32.193  1.00  0.00     0.001 A 
HETATM   34  C   UNL     1      -4.508   2.924 -30.883  1.00  0.00     0.001 A 
HETATM   35  C   UNL     1      -5.334   3.984 -30.509  1.00  0.00     0.008 A 
ENDBRANCH  28  29
ENDBRANCH  27  28
ENDBRANCH  26  27
ENDBRANCH   1  26
TORSDOF 7
ENDMDL
MODEL 7
REMARK VINA RESULT:      -8.3      4.534      7.038
REMARK  7 active torsions:
REMARK  status: ('A' for Active; 'I' for Inactive)
REMARK    1  A    between atoms: C_3  and  C_4 
REMARK    2  A    between atoms: C_4  and  S_5 
REMARK    3  A    between atoms: S_5  and  C_6 
REMARK    4  A    between atoms: C_6  and  C_7 
REMARK    5  A    between atoms: C_16  and  C_17 
REMARK       I    between atoms: C_17  and  N_18 
REMARK    6  A    between atoms: N_18  and  C_19 
REMARK    7  A    between atoms: C_19  and  C_20 
ROOT
HETATM    1  C   UNL     1      -2.897   7.015 -32.663  1.00  0.00     0.162 C 
HETATM    2  N   UNL     1      -4.179   6.326 -32.348  1.00  0.00    -0.277 NA
HETATM    3  C   UNL     1      -4.057   4.941 -32.126  1.00  0.00     0.036 A 
HETATM    4  C   UNL     1      -3.027   4.194 -32.731  1.00  0.00     0.057 A 
HETATM    5  N   UNL     1      -2.075   4.845 -33.526  1.00  0.00    -0.324 N 
HETATM    6  C   UNL     1      -2.051   6.211 -33.666  1.00  0.00     0.240 C 
HETATM    7  O   UNL     1      -1.323   6.742 -34.505  1.00  0.00    -0.271 OA
HETATM    8  C   UNL     1      -5.059   4.257 -31.432  1.00  0.00     0.027 A 
HETATM    9  C   UNL     1      -4.986   2.871 -31.267  1.00  0.00     0.019 A 
HETATM   10  C   UNL     1      -3.921   2.148 -31.818  1.00  0.00     0.034 A 
HETATM   11  C   UNL     1      -2.953   2.809 -32.582  1.00  0.00     0.048 A 
HETATM   12  H   UNL     1      -4.738   6.795 -31.641  1.00  0.00     0.128 HD
HETATM   13  H   UNL     1      -1.441   4.321 -34.114  1.00  0.00     0.169 HD
ENDROOT
BRANCH  10  14
HETATM   14  C   UNL     1      -3.872   0.677 -31.606  1.00  0.00     0.252 C 
HETATM   15  N   UNL     1      -3.548  -0.078 -32.709  1.00  0.00    -0.353 N 
HETATM   16  H   UNL     1      -3.272   0.364 -33.574  1.00  0.00     0.163 HD
HETATM   17  O   UNL     1      -4.083   0.203 -30.497  1.00  0.00    -0.268 OA
BRANCH  15  18
HETATM   18  C   UNL     1      -3.542  -1.521 -32.646  1.00  0.00     0.163 C 
BRANCH  18  19
HETATM   19  C   UNL     1      -4.636  -2.112 -33.499  1.00  0.00    -0.019 A 
HETATM   20  C   UNL     1      -4.599  -3.437 -33.962  1.00  0.00     0.042 A 
HETATM   21 CL   UNL     1      -3.289  -4.499 -33.584  1.00  0.00    -0.084 Cl
HETATM   22  C   UNL     1      -5.644  -3.950 -34.737  1.00  0.00     0.024 A 
HETATM   23  C   UNL     1      -6.739  -3.149 -35.056  1.00  0.00     0.002 A 
HETATM   24  C   UNL     1      -6.793  -1.835 -34.599  1.00  0.00     0.001 A 
HETATM   25  C   UNL     1      -5.752  -1.321 -33.824  1.00  0.00     0.010 A 
ENDBRANCH  18  19
ENDBRANCH  15  18
ENDBRANCH  10  14
BRANCH   1  26
HETATM   26  C   UNL     1      -2.124   7.283 -31.354  1.00  0.00     0.103 C 
BRANCH  26  27
HETATM   27  S   UNL     1      -3.001   8.148 -30.006  1.00  0.00    -0.162 SA
BRANCH  27  28
HETATM   28  C   UNL     1      -2.273   7.316 -28.559  1.00  0.00     0.112 C 
BRANCH  28  29
HETATM   29  C   UNL     1      -1.008   8.011 -28.107  1.00  0.00    -0.043 A 
HETATM   30  C   UNL     1       0.269   7.424 -28.247  1.00  0.00    -0.055 A 
HETATM   31  C   UNL     1       0.460   6.070 -28.878  1.00  0.00     0.049 C 
HETATM   32  C   UNL     1       1.401   8.127 -27.800  1.00  0.00     0.007 A 
HETATM   33  C   UNL     1       1.277   9.382 -27.205  1.00  0.00     0.001 A 
HETATM   34  C   UNL     1       0.019   9.954 -27.049  1.00  0.00     0.001 A 
HETATM   35  C   UNL     1      -1.114   9.275 -27.496  1.00  0.00     0.008 A 
ENDBRANCH  28  29
ENDBRANCH  27  28
ENDBRANCH  26  27
ENDBRANCH   1  26
TORSDOF 7
ENDMDL
MODEL 8
REMARK VINA RESULT:      -8.2      3.096      4.877
REMARK  7 active torsions:
REMARK  status: ('A' for Active; 'I' for Inactive)
REMARK    1  A    between atoms: C_3  and  C_4 
REMARK    2  A    between atoms: C_4  and  S_5 
REMARK    3  A    between atoms: S_5  and  C_6 
REMARK    4  A    between atoms: C_6  and  C_7 
REMARK    5  A    between atoms: C_16  and  C_17 
REMARK       I    between atoms: C_17  and  N_18 
REMARK    6  A    between atoms: N_18  and  C_19 
REMARK    7  A    between atoms: C_19  and  C_20 
ROOT
HETATM    1  C   UNL     1     -13.014   2.961 -33.296  1.00  0.00     0.162 C 
HETATM    2  N   UNL     1     -12.582   1.543 -33.146  1.00  0.00    -0.277 NA
HETATM    3  C   UNL     1     -11.214   1.321 -33.390  1.00  0.00     0.036 A 
HETATM    4  C   UNL     1     -10.485   2.153 -34.263  1.00  0.00     0.057 A 
HETATM    5  N   UNL     1     -11.117   3.252 -34.860  1.00  0.00    -0.324 N 
HETATM    6  C   UNL     1     -12.407   3.609 -34.553  1.00  0.00     0.240 C 
HETATM    7  O   UNL     1     -12.995   4.462 -35.217  1.00  0.00    -0.271 OA
HETATM    8  C   UNL     1     -10.597   0.168 -32.896  1.00  0.00     0.027 A 
HETATM    9  C   UNL     1      -9.257  -0.101 -33.192  1.00  0.00     0.019 A 
HETATM   10  C   UNL     1      -8.525   0.770 -34.009  1.00  0.00     0.034 A 
HETATM   11  C   UNL     1      -9.152   1.886 -34.574  1.00  0.00     0.048 A 
HETATM   12  H   UNL     1     -12.912   1.098 -32.294  1.00  0.00     0.128 HD
HETATM   13  H   UNL     1     -10.680   3.753 -35.622  1.00  0.00     0.169 HD
ENDROOT
BRANCH  10  14
HETATM   14  C   UNL     1      -7.098   0.457 -34.286  1.00  0.00     0.252 C 
HETATM   15  N   UNL     1      -6.523  -0.493 -33.475  1.00  0.00    -0.353 N 
HETATM   16  H   UNL     1      -7.079  -1.002 -32.802  1.00  0.00     0.163 HD
HETATM   17  O   UNL     1      -6.510   1.009 -35.209  1.00  0.00    -0.268 OA
BRANCH  15  18
HETATM   18  C   UNL     1      -5.124  -0.827 -33.598  1.00  0.00     0.163 C 
BRANCH  18  19
HETATM   19  C   UNL     1      -4.931  -2.303 -33.839  1.00  0.00    -0.019 A 
HETATM   20  C   UNL     1      -3.963  -3.059 -33.158  1.00  0.00     0.042 A 
HETATM   21 CL   UNL     1      -2.914  -2.349 -31.982  1.00  0.00    -0.084 Cl
HETATM   22  C   UNL     1      -3.830  -4.429 -33.400  1.00  0.00     0.024 A 
HETATM   23  C   UNL     1      -4.663  -5.063 -34.321  1.00  0.00     0.002 A 
HETATM   24  C   UNL     1      -5.631  -4.328 -34.999  1.00  0.00     0.001 A 
HETATM   25  C   UNL     1      -5.767  -2.960 -34.758  1.00  0.00     0.010 A 
ENDBRANCH  18  19
ENDBRANCH  15  18
ENDBRANCH  10  14
BRANCH   1  26
HETATM   26  C   UNL     1     -12.649   3.746 -32.019  1.00  0.00     0.103 C 
BRANCH  26  27
HETATM   27  S   UNL     1     -11.441   5.108 -32.169  1.00  0.00    -0.162 SA
BRANCH  27  28
HETATM   28  C   UNL     1     -10.087   4.456 -31.141  1.00  0.00     0.112 C 
BRANCH  28  29
HETATM   29  C   UNL     1      -8.794   4.380 -31.922  1.00  0.00    -0.043 A 
HETATM   30  C   UNL     1      -7.742   3.511 -31.562  1.00  0.00    -0.055 A 
HETATM   31  C   UNL     1      -7.844   2.580 -30.382  1.00  0.00     0.049 C 
HETATM   32  C   UNL     1      -6.567   3.498 -32.333  1.00  0.00     0.007 A 
HETATM   33  C   UNL     1      -6.421   4.344 -33.432  1.00  0.00     0.001 A 
HETATM   34  C   UNL     1      -7.448   5.214 -33.778  1.00  0.00     0.001 A 
HETATM   35  C   UNL     1      -8.625   5.233 -33.030  1.00  0.00     0.008 A 
ENDBRANCH  28  29
ENDBRANCH  27  28
ENDBRANCH  26  27
ENDBRANCH   1  26
TORSDOF 7
ENDMDL
MODEL 9
REMARK VINA RESULT:      -8.0      3.621      7.008
REMARK  7 active torsions:
REMARK  status: ('A' for Active; 'I' for Inactive)
REMARK    1  A    between atoms: C_3  and  C_4 
REMARK    2  A    between atoms: C_4  and  S_5 
REMARK    3  A    between atoms: S_5  and  C_6 
REMARK    4  A    between atoms: C_6  and  C_7 
REMARK    5  A    between atoms: C_16  and  C_17 
REMARK       I    between atoms: C_17  and  N_18 
REMARK    6  A    between atoms: N_18  and  C_19 
REMARK    7  A    between atoms: C_19  and  C_20 
ROOT
HETATM    1  C   UNL     1      -3.302   2.968 -31.494  1.00  0.00     0.162 C 
HETATM    2  N   UNL     1      -4.527   3.337 -30.732  1.00  0.00    -0.277 NA
HETATM    3  C   UNL     1      -5.656   3.593 -31.533  1.00  0.00     0.036 A 
HETATM    4  C   UNL     1      -5.522   4.066 -32.853  1.00  0.00     0.057 A 
HETATM    5  N   UNL     1      -4.243   4.237 -33.400  1.00  0.00    -0.324 N 
HETATM    6  C   UNL     1      -3.105   3.870 -32.726  1.00  0.00     0.240 C 
HETATM    7  O   UNL     1      -1.995   4.191 -33.148  1.00  0.00    -0.271 OA
HETATM    8  C   UNL     1      -6.934   3.539 -30.970  1.00  0.00     0.027 A 
HETATM    9  C   UNL     1      -8.060   3.861 -31.735  1.00  0.00     0.019 A 
HETATM   10  C   UNL     1      -7.916   4.267 -33.067  1.00  0.00     0.034 A 
HETATM   11  C   UNL     1      -6.638   4.402 -33.620  1.00  0.00     0.048 A 
HETATM   12  H   UNL     1      -4.726   2.725 -29.946  1.00  0.00     0.128 HD
HETATM   13  H   UNL     1      -4.111   4.741 -34.267  1.00  0.00     0.169 HD
ENDROOT
BRANCH  10  14
HETATM   14  C   UNL     1      -9.139   4.585 -33.852  1.00  0.00     0.252 C 
HETATM   15  N   UNL     1     -10.277   3.902 -33.493  1.00  0.00    -0.353 N 
HETATM   16  H   UNL     1     -10.282   3.298 -32.684  1.00  0.00     0.163 HD
HETATM   17  O   UNL     1      -9.105   5.432 -34.736  1.00  0.00    -0.268 OA
BRANCH  15  18
HETATM   18  C   UNL     1     -11.507   4.070 -34.229  1.00  0.00     0.163 C 
BRANCH  18  19
HETATM   19  C   UNL     1     -12.683   3.511 -33.469  1.00  0.00    -0.019 A 
HETATM   20  C   UNL     1     -13.284   2.286 -33.802  1.00  0.00     0.042 A 
HETATM   21 CL   UNL     1     -12.715   1.319 -35.116  1.00  0.00    -0.084 Cl
HETATM   22  C   UNL     1     -14.362   1.796 -33.058  1.00  0.00     0.024 A 
HETATM   23  C   UNL     1     -14.851   2.520 -31.972  1.00  0.00     0.002 A 
HETATM   24  C   UNL     1     -14.261   3.733 -31.626  1.00  0.00     0.001 A 
HETATM   25  C   UNL     1     -13.184   4.223 -32.366  1.00  0.00     0.010 A 
ENDBRANCH  18  19
ENDBRANCH  15  18
ENDBRANCH  10  14
BRANCH   1  26
HETATM   26  C   UNL     1      -3.373   1.477 -31.887  1.00  0.00     0.103 C 
BRANCH  26  27
HETATM   27  S   UNL     1      -4.341   0.357 -30.818  1.00  0.00    -0.162 SA
BRANCH  27  28
HETATM   28  C   UNL     1      -4.572  -1.053 -31.947  1.00  0.00     0.112 C 
BRANCH  28  29
HETATM   29  C   UNL     1      -5.679  -0.782 -32.942  1.00  0.00    -0.043 A 
HETATM   30  C   UNL     1      -5.817  -1.517 -34.139  1.00  0.00    -0.055 A 
HETATM   31  C   UNL     1      -4.881  -2.640 -34.498  1.00  0.00     0.049 C 
HETATM   32  C   UNL     1      -6.868  -1.205 -35.019  1.00  0.00     0.007 A 
HETATM   33  C   UNL     1      -7.759  -0.172 -34.734  1.00  0.00     0.001 A 
HETATM   34  C   UNL     1      -7.614   0.567 -33.564  1.00  0.00     0.001 A 
HETATM   35  C   UNL     1      -6.582   0.264 -32.676  1.00  0.00     0.008 A 
ENDBRANCH  28  29
ENDBRANCH  27  28
ENDBRANCH  26  27
ENDBRANCH   1  26
TORSDOF 7
ENDMDL
MODEL 10
REMARK VINA RESULT:      -8.0      4.651      7.214
REMARK  7 active torsions:
REMARK  status: ('A' for Active; 'I' for Inactive)
REMARK    1  A    between atoms: C_3  and  C_4 
REMARK    2  A    between atoms: C_4  and  S_5 
REMARK    3  A    between atoms: S_5  and  C_6 
REMARK    4  A    between atoms: C_6  and  C_7 
REMARK    5  A    between atoms: C_16  and  C_17 
REMARK       I    between atoms: C_17  and  N_18 
REMARK    6  A    between atoms: N_18  and  C_19 
REMARK    7  A    between atoms: C_19  and  C_20 
ROOT
HETATM    1  C   UNL     1      -2.475   6.279 -32.884  1.00  0.00     0.162 C 
HETATM    2  N   UNL     1      -3.536   6.019 -33.896  1.00  0.00    -0.277 NA
HETATM    3  C   UNL     1      -4.328   4.886 -33.631  1.00  0.00     0.036 A 
HETATM    4  C   UNL     1      -3.818   3.794 -32.901  1.00  0.00     0.057 A 
HETATM    5  N   UNL     1      -2.517   3.855 -32.384  1.00  0.00    -0.324 N 
HETATM    6  C   UNL     1      -1.744   4.986 -32.481  1.00  0.00     0.240 C 
HETATM    7  O   UNL     1      -0.551   4.957 -32.181  1.00  0.00    -0.271 OA
HETATM    8  C   UNL     1      -5.583   4.758 -34.234  1.00  0.00     0.027 A 
HETATM    9  C   UNL     1      -6.349   3.606 -34.037  1.00  0.00     0.019 A 
HETATM   10  C   UNL     1      -5.856   2.554 -33.255  1.00  0.00     0.034 A 
HETATM   11  C   UNL     1      -4.570   2.635 -32.711  1.00  0.00     0.048 A 
HETATM   12  H   UNL     1      -4.083   6.839 -34.142  1.00  0.00     0.128 HD
HETATM   13  H   UNL     1      -2.063   3.028 -32.020  1.00  0.00     0.169 HD
ENDROOT
BRANCH  10  14
HETATM   14  C   UNL     1      -6.709   1.352 -33.057  1.00  0.00     0.252 C 
HETATM   15  N   UNL     1      -6.365   0.242 -33.793  1.00  0.00    -0.353 N 
HETATM   16  H   UNL     1      -5.525   0.237 -34.355  1.00  0.00     0.163 HD
HETATM   17  O   UNL     1      -7.636   1.374 -32.256  1.00  0.00    -0.268 OA
BRANCH  15  18
HETATM   18  C   UNL     1      -7.162  -0.960 -33.743  1.00  0.00     0.163 C 
BRANCH  18  19
HETATM   19  C   UNL     1      -6.343  -2.176 -34.093  1.00  0.00    -0.019 A 
HETATM   20  C   UNL     1      -4.970  -2.268 -33.814  1.00  0.00     0.042 A 
HETATM   21 CL   UNL     1      -4.109  -0.985 -33.040  1.00  0.00    -0.084 Cl
HETATM   22  C   UNL     1      -4.252  -3.423 -34.141  1.00  0.00     0.024 A 
HETATM   23  C   UNL     1      -4.896  -4.502 -34.746  1.00  0.00     0.002 A 
HETATM   24  C   UNL     1      -6.258  -4.427 -35.023  1.00  0.00     0.001 A 
HETATM   25  C   UNL     1      -6.977  -3.276 -34.697  1.00  0.00     0.010 A 
ENDBRANCH  18  19
ENDBRANCH  15  18
ENDBRANCH  10  14
BRANCH   1  26
HETATM   26  C   UNL     1      -3.095   6.986 -31.661  1.00  0.00     0.103 C 
BRANCH  26  27
HETATM   27  S   UNL     1      -2.182   8.391 -30.933  1.00  0.00    -0.162 SA
BRANCH  27  28
HETATM   28  C   UNL     1      -2.154   7.888 -29.183  1.00  0.00     0.112 C 
BRANCH  28  29
HETATM   29  C   UNL     1      -0.935   8.435 -28.475  1.00  0.00    -0.043 A 
HETATM   30  C   UNL     1       0.312   7.773 -28.495  1.00  0.00    -0.055 A 
HETATM   31  C   UNL     1       0.518   6.482 -29.242  1.00  0.00     0.049 C 
HETATM   32  C   UNL     1       1.401   8.339 -27.810  1.00  0.00     0.007 A 
HETATM   33  C   UNL     1       1.261   9.530 -27.099  1.00  0.00     0.001 A 
HETATM   34  C   UNL     1       0.029  10.175 -27.063  1.00  0.00     0.001 A 
HETATM   35  C   UNL     1      -1.060   9.632 -27.745  1.00  0.00     0.008 A 
ENDBRANCH  28  29
ENDBRANCH  27  28
ENDBRANCH  26  27
ENDBRANCH   1  26
TORSDOF 7
ENDMDL
