MODEL 1
REMARK VINA RESULT:      -7.7      0.000      0.000
REMARK  4 active torsions:
REMARK  status: ('A' for Active; 'I' for Inactive)
REMARK    1  A    between atoms: C_4  and  N_5 
REMARK    2  A    between atoms: N_5  and  N_6 
REMARK    3  A    between atoms: C_7  and  C_8 
REMARK    4  A    between atoms: C_9  and  O_10 
ROOT
HETATM    1  N   UNL     1      -2.888   2.823 -31.687  1.00  0.00    -0.172 NA
HETATM    2  C   UNL     1      -4.029   2.224 -31.530  1.00  0.00     0.153 C 
ENDROOT
BRANCH   1   3
HETATM    3  N   UNL     1      -2.803   4.036 -31.069  1.00  0.00    -0.108 N 
HETATM    4  H   UNL     1      -3.412   4.280 -30.289  1.00  0.00     0.208 HD
BRANCH   3   5
HETATM    5  C   UNL     1      -1.940   5.050 -31.394  1.00  0.00     0.723 A 
HETATM    6  N   UNL     1      -1.166   5.572 -30.488  1.00  0.00    -0.068 NA
HETATM    7  C   UNL     1      -0.328   6.592 -30.872  1.00  0.00     0.055 A 
HETATM    8  C   UNL     1       0.535   7.175 -29.789  1.00  0.00     0.071 C 
HETATM    9  C   UNL     1      -0.262   7.078 -32.119  1.00  0.00     0.102 A 
HETATM   10  C   UNL     1      -1.129   6.477 -33.141  1.00  0.00     0.261 A 
HETATM   11  N   UNL     1      -1.933   5.478 -32.690  1.00  0.00    -0.153 N 
HETATM   12  O   UNL     1      -1.113   6.864 -34.302  1.00  0.00    -0.268 OA
HETATM   13  H   UNL     1      -2.553   5.029 -33.343  1.00  0.00     0.187 HD
ENDBRANCH   3   5
ENDBRANCH   1   3
BRANCH   2  14
HETATM   14  C   UNL     1      -4.302   0.899 -32.126  1.00  0.00     0.019 A 
HETATM   15  C   UNL     1      -3.570  -0.248 -31.782  1.00  0.00     0.094 A 
HETATM   16  C   UNL     1      -3.882  -1.474 -32.382  1.00  0.00     0.046 A 
HETATM   17 BR   UNL     1      -2.929  -3.059 -31.958  1.00  0.00    -0.048 Br
HETATM   18  C   UNL     1      -4.914  -1.558 -33.320  1.00  0.00     0.041 A 
HETATM   19  C   UNL     1      -5.634  -0.413 -33.655  1.00  0.00     0.013 A 
HETATM   20 BR   UNL     1      -7.032  -0.525 -34.922  1.00  0.00    -0.051 Br
HETATM   21  C   UNL     1      -5.336   0.815 -33.066  1.00  0.00     0.035 A 
BRANCH  15  22
HETATM   22  O   UNL     1      -2.551  -0.204 -30.867  1.00  0.00    -0.358 OA
HETATM   23  H   UNL     1      -2.603   0.654 -30.397  1.00  0.00     0.218 HD
ENDBRANCH  15  22
ENDBRANCH   2  14
TORSDOF 4
ENDMDL
MODEL 2
REMARK VINA RESULT:      -7.7      5.873      8.526
REMARK  4 active torsions:
REMARK  status: ('A' for Active; 'I' for Inactive)
REMARK    1  A    between atoms: C_4  and  N_5 
REMARK    2  A    between atoms: N_5  and  N_6 
REMARK    3  A    between atoms: C_7  and  C_8 
REMARK    4  A    between atoms: C_9  and  O_10 
ROOT
HETATM    1  N   UNL     1      -8.364   1.183 -33.207  1.00  0.00    -0.172 NA
HETATM    2  C   UNL     1      -7.730   0.679 -34.222  1.00  0.00     0.153 C 
ENDROOT
BRANCH   1   3
HETATM    3  N   UNL     1      -9.297   2.120 -33.539  1.00  0.00    -0.108 N 
HETATM    4  H   UNL     1      -9.116   3.115 -33.423  1.00  0.00     0.208 HD
BRANCH   3   5
HETATM    5  C   UNL     1     -10.548   1.872 -34.041  1.00  0.00     0.723 A 
HETATM    6  N   UNL     1     -11.282   0.920 -33.545  1.00  0.00    -0.068 NA
HETATM    7  C   UNL     1     -12.524   0.714 -34.096  1.00  0.00     0.055 A 
HETATM    8  C   UNL     1     -13.329  -0.406 -33.501  1.00  0.00     0.071 C 
HETATM    9  C   UNL     1     -13.021   1.434 -35.112  1.00  0.00     0.102 A 
HETATM   10  C   UNL     1     -12.194   2.515 -35.662  1.00  0.00     0.261 A 
HETATM   11  N   UNL     1     -10.978   2.659 -35.071  1.00  0.00    -0.153 N 
HETATM   12  O   UNL     1     -12.589   3.219 -36.582  1.00  0.00    -0.268 OA
HETATM   13  H   UNL     1     -10.364   3.382 -35.406  1.00  0.00     0.187 HD
ENDBRANCH   3   5
ENDBRANCH   1   3
BRANCH   2  14
HETATM   14  C   UNL     1      -6.685  -0.353 -34.053  1.00  0.00     0.019 A 
HETATM   15  C   UNL     1      -5.495  -0.115 -33.349  1.00  0.00     0.094 A 
HETATM   16  C   UNL     1      -4.548  -1.138 -33.225  1.00  0.00     0.046 A 
HETATM   17 BR   UNL     1      -2.920  -0.877 -32.285  1.00  0.00    -0.048 Br
HETATM   18  C   UNL     1      -4.782  -2.390 -33.799  1.00  0.00     0.041 A 
HETATM   19  C   UNL     1      -5.967  -2.616 -34.496  1.00  0.00     0.013 A 
HETATM   20 BR   UNL     1      -6.286  -4.310 -35.272  1.00  0.00    -0.051 Br
HETATM   21  C   UNL     1      -6.920  -1.608 -34.629  1.00  0.00     0.035 A 
BRANCH  15  22
HETATM   22  O   UNL     1      -5.231   1.100 -32.773  1.00  0.00    -0.358 OA
HETATM   23  H   UNL     1      -5.337   1.791 -33.460  1.00  0.00     0.218 HD
ENDBRANCH  15  22
ENDBRANCH   2  14
TORSDOF 4
ENDMDL
MODEL 3
REMARK VINA RESULT:      -7.6      1.995      2.813
REMARK  4 active torsions:
REMARK  status: ('A' for Active; 'I' for Inactive)
REMARK    1  A    between atoms: C_4  and  N_5 
REMARK    2  A    between atoms: N_5  and  N_6 
REMARK    3  A    between atoms: C_7  and  C_8 
REMARK    4  A    between atoms: C_9  and  O_10 
ROOT
HETATM    1  N   UNL     1      -4.417   2.430 -31.847  1.00  0.00    -0.172 NA
HETATM    2  C   UNL     1      -4.281   1.151 -32.026  1.00  0.00     0.153 C 
ENDROOT
BRANCH   1   3
HETATM    3  N   UNL     1      -3.329   3.036 -31.291  1.00  0.00    -0.108 N 
HETATM    4  H   UNL     1      -3.066   2.871 -30.321  1.00  0.00     0.208 HD
BRANCH   3   5
HETATM    5  C   UNL     1      -2.484   3.914 -31.919  1.00  0.00     0.723 A 
HETATM    6  N   UNL     1      -1.539   4.510 -31.252  1.00  0.00    -0.068 NA
HETATM    7  C   UNL     1      -0.728   5.386 -31.934  1.00  0.00     0.055 A 
HETATM    8  C   UNL     1       0.337   6.063 -31.120  1.00  0.00     0.071 C 
HETATM    9  C   UNL     1      -0.854   5.660 -33.240  1.00  0.00     0.102 A 
HETATM   10  C   UNL     1      -1.914   4.976 -33.991  1.00  0.00     0.261 A 
HETATM   11  N   UNL     1      -2.678   4.128 -33.253  1.00  0.00    -0.153 N 
HETATM   12  O   UNL     1      -2.078   5.171 -35.188  1.00  0.00    -0.268 OA
HETATM   13  H   UNL     1      -3.424   3.632 -33.711  1.00  0.00     0.187 HD
ENDBRANCH   3   5
ENDBRANCH   1   3
BRANCH   2  14
HETATM   14  C   UNL     1      -5.356   0.329 -32.620  1.00  0.00     0.019 A 
HETATM   15  C   UNL     1      -6.717   0.627 -32.450  1.00  0.00     0.094 A 
HETATM   16  C   UNL     1      -7.684  -0.192 -33.042  1.00  0.00     0.046 A 
HETATM   17 BR   UNL     1      -9.539   0.160 -32.848  1.00  0.00    -0.048 Br
HETATM   18  C   UNL     1      -7.302  -1.302 -33.799  1.00  0.00     0.041 A 
HETATM   19  C   UNL     1      -5.948  -1.590 -33.963  1.00  0.00     0.013 A 
HETATM   20 BR   UNL     1      -5.428  -3.090 -34.987  1.00  0.00    -0.051 Br
HETATM   21  C   UNL     1      -4.972  -0.783 -33.379  1.00  0.00     0.035 A 
BRANCH  15  22
HETATM   22  O   UNL     1      -7.130   1.708 -31.714  1.00  0.00    -0.358 OA
HETATM   23  H   UNL     1      -7.261   1.413 -30.789  1.00  0.00     0.218 HD
ENDBRANCH  15  22
ENDBRANCH   2  14
TORSDOF 4
ENDMDL
MODEL 4
REMARK VINA RESULT:      -7.5      5.937      8.591
REMARK  4 active torsions:
REMARK  status: ('A' for Active; 'I' for Inactive)
REMARK    1  A    between atoms: C_4  and  N_5 
REMARK    2  A    between atoms: N_5  and  N_6 
REMARK    3  A    between atoms: C_7  and  C_8 
REMARK    4  A    between atoms: C_9  and  O_10 
ROOT
HETATM    1  N   UNL     1      -8.423   1.065 -32.419  1.00  0.00    -0.172 NA
HETATM    2  C   UNL     1      -8.150   0.410 -33.507  1.00  0.00     0.153 C 
ENDROOT
BRANCH   1   3
HETATM    3  N   UNL     1      -9.529   1.858 -32.506  1.00  0.00    -0.108 N 
HETATM    4  H   UNL     1      -9.614   2.713 -31.960  1.00  0.00     0.208 HD
BRANCH   3   5
HETATM    5  C   UNL     1     -10.629   1.628 -33.291  1.00  0.00     0.723 A 
HETATM    6  N   UNL     1     -10.920   2.435 -34.269  1.00  0.00    -0.068 NA
HETATM    7  C   UNL     1     -12.040   2.158 -35.016  1.00  0.00     0.055 A 
HETATM    8  C   UNL     1     -12.346   3.126 -36.124  1.00  0.00     0.071 C 
HETATM    9  C   UNL     1     -12.846   1.110 -34.796  1.00  0.00     0.102 A 
HETATM   10  C   UNL     1     -12.507   0.196 -33.699  1.00  0.00     0.261 A 
HETATM   11  N   UNL     1     -11.390   0.533 -33.001  1.00  0.00    -0.153 N 
HETATM   12  O   UNL     1     -13.193  -0.787 -33.449  1.00  0.00    -0.268 OA
HETATM   13  H   UNL     1     -11.108  -0.054 -32.234  1.00  0.00     0.187 HD
ENDBRANCH   3   5
ENDBRANCH   1   3
BRANCH   2  14
HETATM   14  C   UNL     1      -6.990  -0.502 -33.597  1.00  0.00     0.019 A 
HETATM   15  C   UNL     1      -5.735  -0.183 -33.055  1.00  0.00     0.094 A 
HETATM   16  C   UNL     1      -4.679  -1.094 -33.174  1.00  0.00     0.046 A 
HETATM   17 BR   UNL     1      -2.961  -0.720 -32.461  1.00  0.00    -0.048 Br
HETATM   18  C   UNL     1      -4.868  -2.313 -33.828  1.00  0.00     0.041 A 
HETATM   19  C   UNL     1      -6.118  -2.620 -34.363  1.00  0.00     0.013 A 
HETATM   20 BR   UNL     1      -6.376  -4.270 -35.248  1.00  0.00    -0.051 Br
HETATM   21  C   UNL     1      -7.180  -1.724 -34.253  1.00  0.00     0.035 A 
BRANCH  15  22
HETATM   22  O   UNL     1      -5.513   1.003 -32.406  1.00  0.00    -0.358 OA
HETATM   23  H   UNL     1      -6.334   1.248 -31.930  1.00  0.00     0.218 HD
ENDBRANCH  15  22
ENDBRANCH   2  14
TORSDOF 4
ENDMDL
MODEL 5
REMARK VINA RESULT:      -7.4      2.115      3.262
REMARK  4 active torsions:
REMARK  status: ('A' for Active; 'I' for Inactive)
REMARK    1  A    between atoms: C_4  and  N_5 
REMARK    2  A    between atoms: N_5  and  N_6 
REMARK    3  A    between atoms: C_7  and  C_8 
REMARK    4  A    between atoms: C_9  and  O_10 
ROOT
HETATM    1  N   UNL     1      -4.316   2.371 -31.723  1.00  0.00    -0.172 NA
HETATM    2  C   UNL     1      -4.226   1.090 -31.909  1.00  0.00     0.153 C 
ENDROOT
BRANCH   1   3
HETATM    3  N   UNL     1      -3.216   2.931 -31.144  1.00  0.00    -0.108 N 
HETATM    4  H   UNL     1      -2.857   2.598 -30.251  1.00  0.00     0.208 HD
BRANCH   3   5
HETATM    5  C   UNL     1      -2.479   3.972 -31.647  1.00  0.00     0.723 A 
HETATM    6  N   UNL     1      -2.340   4.121 -32.931  1.00  0.00    -0.068 NA
HETATM    7  C   UNL     1      -1.582   5.179 -33.375  1.00  0.00     0.055 A 
HETATM    8  C   UNL     1      -1.437   5.302 -34.866  1.00  0.00     0.071 C 
HETATM    9  C   UNL     1      -0.980   6.060 -32.565  1.00  0.00     0.102 A 
HETATM   10  C   UNL     1      -1.148   5.894 -31.116  1.00  0.00     0.261 A 
HETATM   11  N   UNL     1      -1.906   4.827 -30.750  1.00  0.00    -0.153 N 
HETATM   12  O   UNL     1      -0.635   6.669 -30.319  1.00  0.00    -0.268 OA
HETATM   13  H   UNL     1      -2.056   4.659 -29.769  1.00  0.00     0.187 HD
ENDBRANCH   3   5
ENDBRANCH   1   3
BRANCH   2  14
HETATM   14  C   UNL     1      -5.322   0.313 -32.528  1.00  0.00     0.019 A 
HETATM   15  C   UNL     1      -6.674   0.645 -32.354  1.00  0.00     0.094 A 
HETATM   16  C   UNL     1      -7.662  -0.131 -32.971  1.00  0.00     0.046 A 
HETATM   17 BR   UNL     1      -9.506   0.267 -32.772  1.00  0.00    -0.048 Br
HETATM   18  C   UNL     1      -7.307  -1.231 -33.755  1.00  0.00     0.041 A 
HETATM   19  C   UNL     1      -5.962  -1.552 -33.922  1.00  0.00     0.013 A 
HETATM   20 BR   UNL     1      -5.480  -3.039 -34.984  1.00  0.00    -0.051 Br
HETATM   21  C   UNL     1      -4.966  -0.789 -33.314  1.00  0.00     0.035 A 
BRANCH  15  22
HETATM   22  O   UNL     1      -7.059   1.717 -31.591  1.00  0.00    -0.358 OA
HETATM   23  H   UNL     1      -7.506   2.362 -32.178  1.00  0.00     0.218 HD
ENDBRANCH  15  22
ENDBRANCH   2  14
TORSDOF 4
ENDMDL
MODEL 6
REMARK VINA RESULT:      -7.4      6.046      8.363
REMARK  4 active torsions:
REMARK  status: ('A' for Active; 'I' for Inactive)
REMARK    1  A    between atoms: C_4  and  N_5 
REMARK    2  A    between atoms: N_5  and  N_6 
REMARK    3  A    between atoms: C_7  and  C_8 
REMARK    4  A    between atoms: C_9  and  O_10 
ROOT
HETATM    1  N   UNL     1      -8.411   1.297 -34.144  1.00  0.00    -0.172 NA
HETATM    2  C   UNL     1      -7.798   0.533 -34.995  1.00  0.00     0.153 C 
ENDROOT
BRANCH   1   3
HETATM    3  N   UNL     1      -9.342   2.123 -34.702  1.00  0.00    -0.108 N 
HETATM    4  H   UNL     1      -9.137   2.669 -35.537  1.00  0.00     0.208 HD
BRANCH   3   5
HETATM    5  C   UNL     1     -10.616   2.333 -34.242  1.00  0.00     0.723 A 
HETATM    6  N   UNL     1     -10.826   3.072 -33.193  1.00  0.00    -0.068 NA
HETATM    7  C   UNL     1     -12.125   3.238 -32.774  1.00  0.00     0.055 A 
HETATM    8  C   UNL     1     -12.316   4.086 -31.549  1.00  0.00     0.071 C 
HETATM    9  C   UNL     1     -13.183   2.686 -33.383  1.00  0.00     0.102 A 
HETATM   10  C   UNL     1     -12.943   1.862 -34.574  1.00  0.00     0.261 A 
HETATM   11  N   UNL     1     -11.637   1.738 -34.928  1.00  0.00    -0.153 N 
HETATM   12  O   UNL     1     -13.865   1.337 -35.185  1.00  0.00    -0.268 OA
HETATM   13  H   UNL     1     -11.408   1.183 -35.735  1.00  0.00     0.187 HD
ENDBRANCH   3   5
ENDBRANCH   1   3
BRANCH   2  14
HETATM   14  C   UNL     1      -6.759  -0.429 -34.571  1.00  0.00     0.019 A 
HETATM   15  C   UNL     1      -5.660  -0.055 -33.783  1.00  0.00     0.094 A 
HETATM   16  C   UNL     1      -4.713  -1.018 -33.414  1.00  0.00     0.046 A 
HETATM   17 BR   UNL     1      -3.206  -0.573 -32.350  1.00  0.00    -0.048 Br
HETATM   18  C   UNL     1      -4.858  -2.344 -33.826  1.00  0.00     0.041 A 
HETATM   19  C   UNL     1      -5.953  -2.706 -34.609  1.00  0.00     0.013 A 
HETATM   20 BR   UNL     1      -6.152  -4.500 -35.167  1.00  0.00    -0.051 Br
HETATM   21  C   UNL     1      -6.905  -1.759 -34.985  1.00  0.00     0.035 A 
BRANCH  15  22
HETATM   22  O   UNL     1      -5.485   1.237 -33.359  1.00  0.00    -0.358 OA
HETATM   23  H   UNL     1      -6.279   1.750 -33.615  1.00  0.00     0.218 HD
ENDBRANCH  15  22
ENDBRANCH   2  14
TORSDOF 4
ENDMDL
MODEL 7
REMARK VINA RESULT:      -7.3      1.218      1.917
REMARK  4 active torsions:
REMARK  status: ('A' for Active; 'I' for Inactive)
REMARK    1  A    between atoms: C_4  and  N_5 
REMARK    2  A    between atoms: N_5  and  N_6 
REMARK    3  A    between atoms: C_7  and  C_8 
REMARK    4  A    between atoms: C_9  and  O_10 
ROOT
HETATM    1  N   UNL     1      -2.927   2.413 -31.809  1.00  0.00    -0.172 NA
HETATM    2  C   UNL     1      -3.993   1.742 -31.497  1.00  0.00     0.153 C 
ENDROOT
BRANCH   1   3
HETATM    3  N   UNL     1      -2.685   3.486 -31.002  1.00  0.00    -0.108 N 
HETATM    4  H   UNL     1      -3.010   3.510 -30.037  1.00  0.00     0.208 HD
BRANCH   3   5
HETATM    5  C   UNL     1      -2.014   4.628 -31.355  1.00  0.00     0.723 A 
HETATM    6  N   UNL     1      -2.278   5.227 -32.479  1.00  0.00    -0.068 NA
HETATM    7  C   UNL     1      -1.566   6.364 -32.782  1.00  0.00     0.055 A 
HETATM    8  C   UNL     1      -1.894   7.012 -34.097  1.00  0.00     0.071 C 
HETATM    9  C   UNL     1      -0.620   6.888 -31.990  1.00  0.00     0.102 A 
HETATM   10  C   UNL     1      -0.334   6.214 -30.717  1.00  0.00     0.261 A 
HETATM   11  N   UNL     1      -1.072   5.097 -30.485  1.00  0.00    -0.153 N 
HETATM   12  O   UNL     1       0.510   6.645 -29.941  1.00  0.00    -0.268 OA
HETATM   13  H   UNL     1      -0.919   4.589 -29.630  1.00  0.00     0.187 HD
ENDBRANCH   3   5
ENDBRANCH   1   3
BRANCH   2  14
HETATM   14  C   UNL     1      -4.411   0.545 -32.259  1.00  0.00     0.019 A 
HETATM   15  C   UNL     1      -3.788  -0.703 -32.104  1.00  0.00     0.094 A 
HETATM   16  C   UNL     1      -4.235  -1.796 -32.855  1.00  0.00     0.046 A 
HETATM   17 BR   UNL     1      -3.434  -3.508 -32.691  1.00  0.00    -0.048 Br
HETATM   18  C   UNL     1      -5.294  -1.649 -33.754  1.00  0.00     0.041 A 
HETATM   19  C   UNL     1      -5.906  -0.406 -33.900  1.00  0.00     0.013 A 
HETATM   20 BR   UNL     1      -7.339  -0.205 -35.115  1.00  0.00    -0.051 Br
HETATM   21  C   UNL     1      -5.472   0.693 -33.159  1.00  0.00     0.035 A 
BRANCH  15  22
HETATM   22  O   UNL     1      -2.747  -0.884 -31.232  1.00  0.00    -0.358 OA
HETATM   23  H   UNL     1      -1.931  -1.017 -31.757  1.00  0.00     0.218 HD
ENDBRANCH  15  22
ENDBRANCH   2  14
TORSDOF 4
ENDMDL
MODEL 8
REMARK VINA RESULT:      -6.9      6.434      9.053
REMARK  4 active torsions:
REMARK  status: ('A' for Active; 'I' for Inactive)
REMARK    1  A    between atoms: C_4  and  N_5 
REMARK    2  A    between atoms: N_5  and  N_6 
REMARK    3  A    between atoms: C_7  and  C_8 
REMARK    4  A    between atoms: C_9  and  O_10 
ROOT
HETATM    1  N   UNL     1      -9.205  -0.018 -33.173  1.00  0.00    -0.172 NA
HETATM    2  C   UNL     1      -8.297   0.189 -32.269  1.00  0.00     0.153 C 
ENDROOT
BRANCH   1   3
HETATM    3  N   UNL     1     -10.476   0.261 -32.764  1.00  0.00    -0.108 N 
HETATM    4  H   UNL     1     -10.802   0.011 -31.831  1.00  0.00     0.208 HD
BRANCH   3   5
HETATM    5  C   UNL     1     -11.448   0.877 -33.508  1.00  0.00     0.723 A 
HETATM    6  N   UNL     1     -11.166   1.928 -34.221  1.00  0.00    -0.068 NA
HETATM    7  C   UNL     1     -12.185   2.507 -34.939  1.00  0.00     0.055 A 
HETATM    8  C   UNL     1     -11.815   3.727 -35.735  1.00  0.00     0.071 C 
HETATM    9  C   UNL     1     -13.446   2.055 -34.948  1.00  0.00     0.102 A 
HETATM   10  C   UNL     1     -13.757   0.862 -34.151  1.00  0.00     0.261 A 
HETATM   11  N   UNL     1     -12.704   0.344 -33.465  1.00  0.00    -0.153 N 
HETATM   12  O   UNL     1     -14.886   0.388 -34.122  1.00  0.00    -0.268 OA
HETATM   13  H   UNL     1     -12.856  -0.472 -32.897  1.00  0.00     0.187 HD
ENDBRANCH   3   5
ENDBRANCH   1   3
BRANCH   2  14
HETATM   14  C   UNL     1      -6.863  -0.056 -32.535  1.00  0.00     0.019 A 
HETATM   15  C   UNL     1      -6.410  -1.155 -33.281  1.00  0.00     0.094 A 
HETATM   16  C   UNL     1      -5.038  -1.326 -33.498  1.00  0.00     0.046 A 
HETATM   17 BR   UNL     1      -4.366  -2.792 -34.498  1.00  0.00    -0.048 Br
HETATM   18  C   UNL     1      -4.122  -0.411 -32.976  1.00  0.00     0.041 A 
HETATM   19  C   UNL     1      -4.581   0.678 -32.237  1.00  0.00     0.013 A 
HETATM   20 BR   UNL     1      -3.343   1.918 -31.531  1.00  0.00    -0.051 Br
HETATM   21  C   UNL     1      -5.945   0.862 -32.012  1.00  0.00     0.035 A 
BRANCH  15  22
HETATM   22  O   UNL     1      -7.280  -2.073 -33.808  1.00  0.00    -0.358 OA
HETATM   23  H   UNL     1      -7.741  -1.655 -34.566  1.00  0.00     0.218 HD
ENDBRANCH  15  22
ENDBRANCH   2  14
TORSDOF 4
ENDMDL
MODEL 9
REMARK VINA RESULT:      -6.6      1.872      2.844
REMARK  4 active torsions:
REMARK  status: ('A' for Active; 'I' for Inactive)
REMARK    1  A    between atoms: C_4  and  N_5 
REMARK    2  A    between atoms: N_5  and  N_6 
REMARK    3  A    between atoms: C_7  and  C_8 
REMARK    4  A    between atoms: C_9  and  O_10 
ROOT
HETATM    1  N   UNL     1      -3.339   3.367 -31.462  1.00  0.00    -0.172 NA
HETATM    2  C   UNL     1      -4.546   3.069 -31.835  1.00  0.00     0.153 C 
ENDROOT
BRANCH   1   3
HETATM    3  N   UNL     1      -3.214   4.609 -30.912  1.00  0.00    -0.108 N 
HETATM    4  H   UNL     1      -3.512   4.801 -29.957  1.00  0.00     0.208 HD
BRANCH   3   5
HETATM    5  C   UNL     1      -2.706   5.721 -31.533  1.00  0.00     0.723 A 
HETATM    6  N   UNL     1      -2.800   6.890 -30.972  1.00  0.00    -0.068 NA
HETATM    7  C   UNL     1      -2.279   7.969 -31.647  1.00  0.00     0.055 A 
HETATM    8  C   UNL     1      -2.425   9.301 -30.967  1.00  0.00     0.071 C 
HETATM    9  C   UNL     1      -1.683   7.886 -32.844  1.00  0.00     0.102 A 
HETATM   10  C   UNL     1      -1.568   6.562 -33.468  1.00  0.00     0.261 A 
HETATM   11  N   UNL     1      -2.107   5.544 -32.747  1.00  0.00    -0.153 N 
HETATM   12  O   UNL     1      -1.025   6.412 -34.555  1.00  0.00    -0.268 OA
HETATM   13  H   UNL     1      -2.063   4.612 -33.125  1.00  0.00     0.187 HD
ENDBRANCH   3   5
ENDBRANCH   1   3
BRANCH   2  14
HETATM   14  C   UNL     1      -4.871   1.763 -32.449  1.00  0.00     0.019 A 
HETATM   15  C   UNL     1      -5.907   1.605 -33.381  1.00  0.00     0.094 A 
HETATM   16  C   UNL     1      -6.160   0.340 -33.926  1.00  0.00     0.046 A 
HETATM   17 BR   UNL     1      -7.548   0.063 -35.191  1.00  0.00    -0.048 Br
HETATM   18  C   UNL     1      -5.388  -0.759 -33.545  1.00  0.00     0.041 A 
HETATM   19  C   UNL     1      -4.361  -0.591 -32.619  1.00  0.00     0.013 A 
HETATM   20 BR   UNL     1      -3.314  -2.078 -32.103  1.00  0.00    -0.051 Br
HETATM   21  C   UNL     1      -4.096   0.661 -32.067  1.00  0.00     0.035 A 
BRANCH  15  22
HETATM   22  O   UNL     1      -6.685   2.660 -33.778  1.00  0.00    -0.358 OA
HETATM   23  H   UNL     1      -7.600   2.333 -33.905  1.00  0.00     0.218 HD
ENDBRANCH  15  22
ENDBRANCH   2  14
TORSDOF 4
ENDMDL
MODEL 10
REMARK VINA RESULT:      -6.6      6.127      8.475
REMARK  4 active torsions:
REMARK  status: ('A' for Active; 'I' for Inactive)
REMARK    1  A    between atoms: C_4  and  N_5 
REMARK    2  A    between atoms: N_5  and  N_6 
REMARK    3  A    between atoms: C_7  and  C_8 
REMARK    4  A    between atoms: C_9  and  O_10 
ROOT
HETATM    1  N   UNL     1      -7.695   1.540 -34.336  1.00  0.00    -0.172 NA
HETATM    2  C   UNL     1      -8.632   1.615 -33.441  1.00  0.00     0.153 C 
ENDROOT
BRANCH   1   3
HETATM    3  N   UNL     1      -6.451   1.307 -33.828  1.00  0.00    -0.108 N 
HETATM    4  H   UNL     1      -5.883   2.061 -33.445  1.00  0.00     0.208 HD
BRANCH   3   5
HETATM    5  C   UNL     1      -5.817   0.094 -33.766  1.00  0.00     0.723 A 
HETATM    6  N   UNL     1      -6.308  -0.939 -34.386  1.00  0.00    -0.068 NA
HETATM    7  C   UNL     1      -5.631  -2.131 -34.280  1.00  0.00     0.055 A 
HETATM    8  C   UNL     1      -6.245  -3.300 -34.999  1.00  0.00     0.071 C 
HETATM    9  C   UNL     1      -4.501  -2.291 -33.579  1.00  0.00     0.102 A 
HETATM   10  C   UNL     1      -3.944  -1.120 -32.891  1.00  0.00     0.261 A 
HETATM   11  N   UNL     1      -4.666   0.023 -33.036  1.00  0.00    -0.153 N 
HETATM   12  O   UNL     1      -2.908  -1.191 -32.242  1.00  0.00    -0.268 OA
HETATM   13  H   UNL     1      -4.336   0.859 -32.584  1.00  0.00     0.187 HD
ENDBRANCH   3   5
ENDBRANCH   1   3
BRANCH   2  14
HETATM   14  C   UNL     1     -10.043   1.859 -33.808  1.00  0.00     0.019 A 
HETATM   15  C   UNL     1     -10.480   3.073 -34.359  1.00  0.00     0.094 A 
HETATM   16  C   UNL     1     -11.831   3.237 -34.686  1.00  0.00     0.046 A 
HETATM   17 BR   UNL     1     -12.483   4.855 -35.434  1.00  0.00    -0.048 Br
HETATM   18  C   UNL     1     -12.741   2.201 -34.467  1.00  0.00     0.041 A 
HETATM   19  C   UNL     1     -12.297   0.999 -33.919  1.00  0.00     0.013 A 
HETATM   20 BR   UNL     1     -13.527  -0.405 -33.623  1.00  0.00    -0.051 Br
HETATM   21  C   UNL     1     -10.955   0.820 -33.588  1.00  0.00     0.035 A 
BRANCH  15  22
HETATM   22  O   UNL     1      -9.616   4.111 -34.589  1.00  0.00    -0.358 OA
HETATM   23  H   UNL     1      -9.165   3.947 -35.443  1.00  0.00     0.218 HD
ENDBRANCH  15  22
ENDBRANCH   2  14
TORSDOF 4
ENDMDL
