MODEL 1
REMARK VINA RESULT:      -8.0      0.000      0.000
REMARK  7 active torsions:
REMARK  status: ('A' for Active; 'I' for Inactive)
REMARK    1  A    between atoms: N_3  and  C_4 
REMARK    2  A    between atoms: C_12  and  C_13 
REMARK       I    between atoms: C_13  and  N_14 
REMARK    3  A    between atoms: N_14  and  C_15 
REMARK    4  A    between atoms: C_15  and  C_16 
REMARK    5  A    between atoms: C_16  and  O_17 
REMARK    6  A    between atoms: C_16  and  C_18 
REMARK    7  A    between atoms: C_21  and  O_22 
ROOT
HETATM    1  C   UNL     1      -6.461   3.228 -31.426  1.00  0.00     0.255 C 
HETATM    2  N   UNL     1      -7.124   2.993 -32.606  1.00  0.00    -0.350 N 
HETATM    3  O   UNL     1      -7.034   3.195 -30.341  1.00  0.00    -0.268 OA
HETATM    4  H   UNL     1      -6.637   3.047 -33.488  1.00  0.00     0.163 HD
ENDROOT
BRANCH   2   5
HETATM    5  C   UNL     1      -8.577   2.782 -32.649  1.00  0.00     0.114 C 
HETATM    6  C   UNL     1      -9.136   3.368 -33.949  1.00  0.00     0.035 C 
BRANCH   5   7
HETATM    7  C   UNL     1      -8.903   1.274 -32.461  1.00  0.00     0.173 C 
BRANCH   7   8
HETATM    8  O   UNL     1      -9.144   0.969 -31.083  1.00  0.00    -0.389 OA
HETATM    9  H   UNL     1      -9.396   0.031 -31.042  1.00  0.00     0.210 HD
ENDBRANCH   7   8
BRANCH   7  10
HETATM   10  C   UNL     1      -7.860   0.349 -33.061  1.00  0.00    -0.028 A 
HETATM   11  C   UNL     1      -6.863  -0.189 -32.236  1.00  0.00     0.012 A 
HETATM   12  C   UNL     1      -5.908  -1.066 -32.754  1.00  0.00     0.037 A 
HETATM   13  C   UNL     1      -5.931  -1.432 -34.100  1.00  0.00     0.068 A 
HETATM   14  C   UNL     1      -6.916  -0.899 -34.931  1.00  0.00     0.037 A 
HETATM   15  C   UNL     1      -7.873  -0.014 -34.416  1.00  0.00     0.012 A 
BRANCH  13  16
HETATM   16  O   UNL     1      -4.946  -2.304 -34.470  1.00  0.00    -0.356 OA
HETATM   17  C   UNL     1      -5.358  -3.586 -34.923  1.00  0.00     0.210 C 
ENDBRANCH  13  16
ENDBRANCH   7  10
ENDBRANCH   5   7
ENDBRANCH   2   5
BRANCH   1  18
HETATM   18  C   UNL     1      -5.026   3.462 -31.505  1.00  0.00     0.075 C 
HETATM   19  C   UNL     1      -4.204   4.493 -31.052  1.00  0.00     0.051 C 
HETATM   20  C   UNL     1      -4.498   5.690 -30.218  1.00  0.00     0.071 C 
HETATM   21  N   UNL     1      -2.915   4.197 -31.513  1.00  0.00    -0.220 N 
HETATM   22  N   UNL     1      -2.864   2.957 -32.072  1.00  0.00    -0.177 NA
HETATM   23  C   UNL     1      -4.125   2.542 -32.085  1.00  0.00     0.158 C 
BRANCH  21  24
HETATM   24  C   UNL     1      -1.730   5.011 -31.472  1.00  0.00     0.150 A 
HETATM   25  N   UNL     1      -0.694   4.647 -30.667  1.00  0.00    -0.241 NA
HETATM   26  C   UNL     1       0.390   5.453 -30.645  1.00  0.00     0.119 A 
HETATM   27  C   UNL     1       0.508   6.614 -31.389  1.00  0.00     0.019 A 
HETATM   28  C   UNL     1      -0.555   6.979 -32.204  1.00  0.00     0.005 A 
HETATM   29  C   UNL     1      -1.691   6.173 -32.247  1.00  0.00     0.052 A 
ENDBRANCH  21  24
ENDBRANCH   1  18
TORSDOF 7
ENDMDL
MODEL 2
REMARK VINA RESULT:      -7.9      1.485      2.248
REMARK  7 active torsions:
REMARK  status: ('A' for Active; 'I' for Inactive)
REMARK    1  A    between atoms: N_3  and  C_4 
REMARK    2  A    between atoms: C_12  and  C_13 
REMARK       I    between atoms: C_13  and  N_14 
REMARK    3  A    between atoms: N_14  and  C_15 
REMARK    4  A    between atoms: C_15  and  C_16 
REMARK    5  A    between atoms: C_16  and  O_17 
REMARK    6  A    between atoms: C_16  and  C_18 
REMARK    7  A    between atoms: C_21  and  O_22 
ROOT
HETATM    1  C   UNL     1      -5.890   2.229 -31.630  1.00  0.00     0.255 C 
HETATM    2  N   UNL     1      -6.568   2.228 -32.825  1.00  0.00    -0.350 N 
HETATM    3  O   UNL     1      -6.008   1.318 -30.815  1.00  0.00    -0.268 OA
HETATM    4  H   UNL     1      -6.472   2.998 -33.470  1.00  0.00     0.163 HD
ENDROOT
BRANCH   2   5
HETATM    5  C   UNL     1      -7.547   1.185 -33.159  1.00  0.00     0.114 C 
HETATM    6  C   UNL     1      -8.957   1.779 -33.107  1.00  0.00     0.035 C 
BRANCH   5   7
HETATM    7  C   UNL     1      -7.197   0.545 -34.532  1.00  0.00     0.173 C 
BRANCH   7   8
HETATM    8  O   UNL     1      -8.362   0.434 -35.357  1.00  0.00    -0.389 OA
HETATM    9  H   UNL     1      -8.062   0.120 -36.228  1.00  0.00     0.210 HD
ENDBRANCH   7   8
BRANCH   7  10
HETATM   10  C   UNL     1      -6.470  -0.781 -34.414  1.00  0.00    -0.028 A 
HETATM   11  C   UNL     1      -7.110  -1.955 -34.834  1.00  0.00     0.012 A 
HETATM   12  C   UNL     1      -6.455  -3.187 -34.765  1.00  0.00     0.037 A 
HETATM   13  C   UNL     1      -5.148  -3.273 -34.286  1.00  0.00     0.068 A 
HETATM   14  C   UNL     1      -4.502  -2.111 -33.861  1.00  0.00     0.037 A 
HETATM   15  C   UNL     1      -5.159  -0.875 -33.924  1.00  0.00     0.012 A 
BRANCH  13  16
HETATM   16  O   UNL     1      -4.624  -4.536 -34.283  1.00  0.00    -0.356 OA
HETATM   17  C   UNL     1      -3.409  -4.726 -33.571  1.00  0.00     0.210 C 
ENDBRANCH  13  16
ENDBRANCH   7  10
ENDBRANCH   5   7
ENDBRANCH   2   5
BRANCH   1  18
HETATM   18  C   UNL     1      -4.971   3.332 -31.388  1.00  0.00     0.075 C 
HETATM   19  C   UNL     1      -3.715   3.652 -31.900  1.00  0.00     0.051 C 
HETATM   20  C   UNL     1      -2.900   3.021 -32.974  1.00  0.00     0.071 C 
HETATM   21  N   UNL     1      -3.291   4.795 -31.211  1.00  0.00    -0.220 N 
HETATM   22  N   UNL     1      -4.288   5.299 -30.431  1.00  0.00    -0.177 NA
HETATM   23  C   UNL     1      -5.268   4.409 -30.524  1.00  0.00     0.158 C 
BRANCH  21  24
HETATM   24  C   UNL     1      -2.005   5.439 -31.229  1.00  0.00     0.150 A 
HETATM   25  N   UNL     1      -0.911   4.762 -30.786  1.00  0.00    -0.241 NA
HETATM   26  C   UNL     1       0.273   5.413 -30.802  1.00  0.00     0.119 A 
HETATM   27  C   UNL     1       0.435   6.716 -31.241  1.00  0.00     0.019 A 
HETATM   28  C   UNL     1      -0.687   7.399 -31.688  1.00  0.00     0.005 A 
HETATM   29  C   UNL     1      -1.925   6.759 -31.681  1.00  0.00     0.052 A 
ENDBRANCH  21  24
ENDBRANCH   1  18
TORSDOF 7
ENDMDL
MODEL 3
REMARK VINA RESULT:      -7.9      1.872      2.279
REMARK  7 active torsions:
REMARK  status: ('A' for Active; 'I' for Inactive)
REMARK    1  A    between atoms: N_3  and  C_4 
REMARK    2  A    between atoms: C_12  and  C_13 
REMARK       I    between atoms: C_13  and  N_14 
REMARK    3  A    between atoms: N_14  and  C_15 
REMARK    4  A    between atoms: C_15  and  C_16 
REMARK    5  A    between atoms: C_16  and  O_17 
REMARK    6  A    between atoms: C_16  and  C_18 
REMARK    7  A    between atoms: C_21  and  O_22 
ROOT
HETATM    1  C   UNL     1      -6.001   3.555 -33.780  1.00  0.00     0.255 C 
HETATM    2  N   UNL     1      -5.992   2.190 -33.620  1.00  0.00    -0.350 N 
HETATM    3  O   UNL     1      -7.030   4.172 -34.036  1.00  0.00    -0.268 OA
HETATM    4  H   UNL     1      -5.130   1.702 -33.430  1.00  0.00     0.163 HD
ENDROOT
BRANCH   2   5
HETATM    5  C   UNL     1      -7.195   1.377 -33.841  1.00  0.00     0.114 C 
HETATM    6  C   UNL     1      -7.277   0.985 -35.319  1.00  0.00     0.035 C 
BRANCH   5   7
HETATM    7  C   UNL     1      -7.199   0.157 -32.877  1.00  0.00     0.173 C 
BRANCH   7   8
HETATM    8  O   UNL     1      -6.815   0.548 -31.555  1.00  0.00    -0.389 OA
HETATM    9  H   UNL     1      -7.513   0.233 -30.954  1.00  0.00     0.210 HD
ENDBRANCH   7   8
BRANCH   7  10
HETATM   10  C   UNL     1      -6.368  -1.011 -33.375  1.00  0.00    -0.028 A 
HETATM   11  C   UNL     1      -5.017  -1.097 -33.014  1.00  0.00     0.012 A 
HETATM   12  C   UNL     1      -4.235  -2.175 -33.433  1.00  0.00     0.037 A 
HETATM   13  C   UNL     1      -4.785  -3.194 -34.211  1.00  0.00     0.068 A 
HETATM   14  C   UNL     1      -6.128  -3.117 -34.581  1.00  0.00     0.037 A 
HETATM   15  C   UNL     1      -6.913  -2.033 -34.167  1.00  0.00     0.012 A 
BRANCH  13  16
HETATM   16  O   UNL     1      -3.911  -4.193 -34.542  1.00  0.00    -0.356 OA
HETATM   17  C   UNL     1      -3.381  -4.963 -33.472  1.00  0.00     0.210 C 
ENDBRANCH  13  16
ENDBRANCH   7  10
ENDBRANCH   5   7
ENDBRANCH   2   5
BRANCH   1  18
HETATM   18  C   UNL     1      -4.741   4.256 -33.572  1.00  0.00     0.075 C 
HETATM   19  C   UNL     1      -3.787   4.215 -32.556  1.00  0.00     0.051 C 
HETATM   20  C   UNL     1      -3.666   3.345 -31.355  1.00  0.00     0.071 C 
HETATM   21  N   UNL     1      -2.835   5.192 -32.874  1.00  0.00    -0.220 N 
HETATM   22  N   UNL     1      -3.055   5.709 -34.115  1.00  0.00    -0.177 NA
HETATM   23  C   UNL     1      -4.202   5.166 -34.506  1.00  0.00     0.158 C 
BRANCH  21  24
HETATM   24  C   UNL     1      -1.739   5.680 -32.082  1.00  0.00     0.150 A 
HETATM   25  N   UNL     1      -0.665   4.874 -31.857  1.00  0.00    -0.241 NA
HETATM   26  C   UNL     1       0.333   5.366 -31.089  1.00  0.00     0.119 A 
HETATM   27  C   UNL     1       0.326   6.631 -30.528  1.00  0.00     0.019 A 
HETATM   28  C   UNL     1      -0.775   7.444 -30.760  1.00  0.00     0.005 A 
HETATM   29  C   UNL     1      -1.824   6.965 -31.543  1.00  0.00     0.052 A 
ENDBRANCH  21  24
ENDBRANCH   1  18
TORSDOF 7
ENDMDL
MODEL 4
REMARK VINA RESULT:      -7.8      3.169      8.813
REMARK  7 active torsions:
REMARK  status: ('A' for Active; 'I' for Inactive)
REMARK    1  A    between atoms: N_3  and  C_4 
REMARK    2  A    between atoms: C_12  and  C_13 
REMARK       I    between atoms: C_13  and  N_14 
REMARK    3  A    between atoms: N_14  and  C_15 
REMARK    4  A    between atoms: C_15  and  C_16 
REMARK    5  A    between atoms: C_16  and  O_17 
REMARK    6  A    between atoms: C_16  and  C_18 
REMARK    7  A    between atoms: C_21  and  O_22 
ROOT
HETATM    1  C   UNL     1      -2.577   3.745 -32.146  1.00  0.00     0.255 C 
HETATM    2  N   UNL     1      -2.514   4.556 -33.254  1.00  0.00    -0.350 N 
HETATM    3  O   UNL     1      -1.796   3.867 -31.207  1.00  0.00    -0.268 OA
HETATM    4  H   UNL     1      -3.153   4.424 -34.023  1.00  0.00     0.163 HD
ENDROOT
BRANCH   2   5
HETATM    5  C   UNL     1      -1.451   5.555 -33.423  1.00  0.00     0.114 C 
HETATM    6  C   UNL     1      -1.028   5.600 -34.894  1.00  0.00     0.035 C 
BRANCH   5   7
HETATM    7  C   UNL     1      -1.919   6.932 -32.873  1.00  0.00     0.173 C 
BRANCH   7   8
HETATM    8  O   UNL     1      -1.689   7.971 -33.830  1.00  0.00    -0.389 OA
HETATM    9  H   UNL     1      -2.469   7.997 -34.411  1.00  0.00     0.210 HD
ENDBRANCH   7   8
BRANCH   7  10
HETATM   10  C   UNL     1      -1.324   7.278 -31.521  1.00  0.00    -0.028 A 
HETATM   11  C   UNL     1      -0.035   6.828 -31.202  1.00  0.00     0.012 A 
HETATM   12  C   UNL     1       0.551   7.156 -29.978  1.00  0.00     0.037 A 
HETATM   13  C   UNL     1      -0.130   7.945 -29.051  1.00  0.00     0.068 A 
HETATM   14  C   UNL     1      -1.415   8.395 -29.355  1.00  0.00     0.037 A 
HETATM   15  C   UNL     1      -2.007   8.063 -30.581  1.00  0.00     0.012 A 
BRANCH  13  16
HETATM   16  O   UNL     1       0.563   8.198 -27.900  1.00  0.00    -0.356 OA
HETATM   17  C   UNL     1       0.875   7.081 -27.079  1.00  0.00     0.210 C 
ENDBRANCH  13  16
ENDBRANCH   7  10
ENDBRANCH   5   7
ENDBRANCH   2   5
BRANCH   1  18
HETATM   18  C   UNL     1      -3.653   2.764 -32.101  1.00  0.00     0.075 C 
HETATM   19  C   UNL     1      -4.927   2.724 -32.666  1.00  0.00     0.051 C 
HETATM   20  C   UNL     1      -5.609   3.640 -33.620  1.00  0.00     0.071 C 
HETATM   21  N   UNL     1      -5.531   1.556 -32.185  1.00  0.00    -0.220 N 
HETATM   22  N   UNL     1      -4.641   0.787 -31.498  1.00  0.00    -0.177 NA
HETATM   23  C   UNL     1      -3.540   1.526 -31.434  1.00  0.00     0.158 C 
BRANCH  21  24
HETATM   24  C   UNL     1      -6.895   1.121 -32.319  1.00  0.00     0.150 A 
HETATM   25  N   UNL     1      -7.852   1.661 -31.516  1.00  0.00    -0.241 NA
HETATM   26  C   UNL     1      -9.117   1.207 -31.663  1.00  0.00     0.119 A 
HETATM   27  C   UNL     1      -9.491   0.237 -32.576  1.00  0.00     0.019 A 
HETATM   28  C   UNL     1      -8.507  -0.310 -33.388  1.00  0.00     0.005 A 
HETATM   29  C   UNL     1      -7.192   0.131 -33.259  1.00  0.00     0.052 A 
ENDBRANCH  21  24
ENDBRANCH   1  18
TORSDOF 7
ENDMDL
MODEL 5
REMARK VINA RESULT:      -7.7      1.495      1.867
REMARK  7 active torsions:
REMARK  status: ('A' for Active; 'I' for Inactive)
REMARK    1  A    between atoms: N_3  and  C_4 
REMARK    2  A    between atoms: C_12  and  C_13 
REMARK       I    between atoms: C_13  and  N_14 
REMARK    3  A    between atoms: N_14  and  C_15 
REMARK    4  A    between atoms: C_15  and  C_16 
REMARK    5  A    between atoms: C_16  and  O_17 
REMARK    6  A    between atoms: C_16  and  C_18 
REMARK    7  A    between atoms: C_21  and  O_22 
ROOT
HETATM    1  C   UNL     1      -7.702   3.545 -32.004  1.00  0.00     0.255 C 
HETATM    2  N   UNL     1      -8.109   2.716 -33.022  1.00  0.00    -0.350 N 
HETATM    3  O   UNL     1      -8.344   3.660 -30.964  1.00  0.00    -0.268 OA
HETATM    4  H   UNL     1      -7.576   2.653 -33.876  1.00  0.00     0.163 HD
ENDROOT
BRANCH   2   5
HETATM    5  C   UNL     1      -9.385   1.991 -32.966  1.00  0.00     0.114 C 
HETATM    6  C   UNL     1      -9.993   1.928 -34.370  1.00  0.00     0.035 C 
BRANCH   5   7
HETATM    7  C   UNL     1      -9.177   0.592 -32.321  1.00  0.00     0.173 C 
BRANCH   7   8
HETATM    8  O   UNL     1      -9.375   0.647 -30.904  1.00  0.00    -0.389 OA
HETATM    9  H   UNL     1      -9.187   1.561 -30.629  1.00  0.00     0.210 HD
ENDBRANCH   7   8
BRANCH   7  10
HETATM   10  C   UNL     1      -7.846  -0.046 -32.673  1.00  0.00    -0.028 A 
HETATM   11  C   UNL     1      -6.808  -0.034 -31.730  1.00  0.00     0.012 A 
HETATM   12  C   UNL     1      -5.582  -0.638 -32.014  1.00  0.00     0.037 A 
HETATM   13  C   UNL     1      -5.367  -1.274 -33.237  1.00  0.00     0.068 A 
HETATM   14  C   UNL     1      -6.391  -1.288 -34.185  1.00  0.00     0.037 A 
HETATM   15  C   UNL     1      -7.620  -0.677 -33.904  1.00  0.00     0.012 A 
BRANCH  13  16
HETATM   16  O   UNL     1      -4.127  -1.832 -33.379  1.00  0.00    -0.356 OA
HETATM   17  C   UNL     1      -3.418  -2.135 -32.186  1.00  0.00     0.210 C 
ENDBRANCH  13  16
ENDBRANCH   7  10
ENDBRANCH   5   7
ENDBRANCH   2   5
BRANCH   1  18
HETATM   18  C   UNL     1      -6.437   4.243 -32.182  1.00  0.00     0.075 C 
HETATM   19  C   UNL     1      -5.154   4.027 -31.681  1.00  0.00     0.051 C 
HETATM   20  C   UNL     1      -4.593   2.923 -30.856  1.00  0.00     0.071 C 
HETATM   21  N   UNL     1      -4.371   5.095 -32.140  1.00  0.00    -0.220 N 
HETATM   22  N   UNL     1      -5.054   5.858 -33.036  1.00  0.00    -0.177 NA
HETATM   23  C   UNL     1      -6.285   5.359 -33.033  1.00  0.00     0.158 C 
BRANCH  21  24
HETATM   24  C   UNL     1      -3.024   5.450 -31.779  1.00  0.00     0.150 A 
HETATM   25  N   UNL     1      -2.812   6.309 -30.746  1.00  0.00    -0.241 NA
HETATM   26  C   UNL     1      -1.532   6.631 -30.456  1.00  0.00     0.119 A 
HETATM   27  C   UNL     1      -0.435   6.139 -31.142  1.00  0.00     0.019 A 
HETATM   28  C   UNL     1      -0.662   5.265 -32.197  1.00  0.00     0.005 A 
HETATM   29  C   UNL     1      -1.971   4.917 -32.526  1.00  0.00     0.052 A 
ENDBRANCH  21  24
ENDBRANCH   1  18
TORSDOF 7
ENDMDL
MODEL 6
REMARK VINA RESULT:      -7.6      2.628      7.671
REMARK  7 active torsions:
REMARK  status: ('A' for Active; 'I' for Inactive)
REMARK    1  A    between atoms: N_3  and  C_4 
REMARK    2  A    between atoms: C_12  and  C_13 
REMARK       I    between atoms: C_13  and  N_14 
REMARK    3  A    between atoms: N_14  and  C_15 
REMARK    4  A    between atoms: C_15  and  C_16 
REMARK    5  A    between atoms: C_16  and  O_17 
REMARK    6  A    between atoms: C_16  and  C_18 
REMARK    7  A    between atoms: C_21  and  O_22 
ROOT
HETATM    1  C   UNL     1      -7.623   2.410 -32.825  1.00  0.00     0.255 C 
HETATM    2  N   UNL     1      -6.571   3.292 -32.761  1.00  0.00    -0.350 N 
HETATM    3  O   UNL     1      -8.741   2.701 -32.409  1.00  0.00    -0.268 OA
HETATM    4  H   UNL     1      -5.656   3.023 -33.089  1.00  0.00     0.163 HD
ENDROOT
BRANCH   2   5
HETATM    5  C   UNL     1      -6.696   4.600 -32.106  1.00  0.00     0.114 C 
HETATM    6  C   UNL     1      -6.464   4.438 -30.601  1.00  0.00     0.035 C 
BRANCH   5   7
HETATM    7  C   UNL     1      -5.735   5.625 -32.772  1.00  0.00     0.173 C 
BRANCH   7   8
HETATM    8  O   UNL     1      -5.919   5.651 -34.191  1.00  0.00    -0.389 OA
HETATM    9  H   UNL     1      -5.878   4.729 -34.498  1.00  0.00     0.210 HD
ENDBRANCH   7   8
BRANCH   7  10
HETATM   10  C   UNL     1      -4.279   5.418 -32.402  1.00  0.00    -0.028 A 
HETATM   11  C   UNL     1      -3.502   4.519 -33.146  1.00  0.00     0.012 A 
HETATM   12  C   UNL     1      -2.151   4.330 -32.849  1.00  0.00     0.037 A 
HETATM   13  C   UNL     1      -1.544   5.039 -31.811  1.00  0.00     0.068 A 
HETATM   14  C   UNL     1      -2.308   5.933 -31.061  1.00  0.00     0.037 A 
HETATM   15  C   UNL     1      -3.665   6.120 -31.354  1.00  0.00     0.012 A 
BRANCH  13  16
HETATM   16  O   UNL     1      -0.216   4.765 -31.636  1.00  0.00    -0.356 OA
HETATM   17  C   UNL     1       0.484   5.559 -30.688  1.00  0.00     0.210 C 
ENDBRANCH  13  16
ENDBRANCH   7  10
ENDBRANCH   5   7
ENDBRANCH   2   5
BRANCH   1  18
HETATM   18  C   UNL     1      -7.375   1.125 -33.464  1.00  0.00     0.075 C 
HETATM   19  C   UNL     1      -6.800  -0.064 -33.017  1.00  0.00     0.051 C 
HETATM   20  C   UNL     1      -6.324  -0.481 -31.671  1.00  0.00     0.071 C 
HETATM   21  N   UNL     1      -6.758  -0.918 -34.126  1.00  0.00    -0.220 N 
HETATM   22  N   UNL     1      -7.432  -0.388 -35.184  1.00  0.00    -0.177 NA
HETATM   23  C   UNL     1      -7.770   0.833 -34.787  1.00  0.00     0.158 C 
BRANCH  21  24
HETATM   24  C   UNL     1      -6.113  -2.197 -34.260  1.00  0.00     0.150 A 
HETATM   25  N   UNL     1      -4.775  -2.300 -34.031  1.00  0.00    -0.241 NA
HETATM   26  C   UNL     1      -4.208  -3.517 -34.188  1.00  0.00     0.119 A 
HETATM   27  C   UNL     1      -4.904  -4.653 -34.563  1.00  0.00     0.019 A 
HETATM   28  C   UNL     1      -6.267  -4.537 -34.797  1.00  0.00     0.005 A 
HETATM   29  C   UNL     1      -6.883  -3.296 -34.649  1.00  0.00     0.052 A 
ENDBRANCH  21  24
ENDBRANCH   1  18
TORSDOF 7
ENDMDL
MODEL 7
REMARK VINA RESULT:      -7.5      3.351      7.763
REMARK  7 active torsions:
REMARK  status: ('A' for Active; 'I' for Inactive)
REMARK    1  A    between atoms: N_3  and  C_4 
REMARK    2  A    between atoms: C_12  and  C_13 
REMARK       I    between atoms: C_13  and  N_14 
REMARK    3  A    between atoms: N_14  and  C_15 
REMARK    4  A    between atoms: C_15  and  C_16 
REMARK    5  A    between atoms: C_16  and  O_17 
REMARK    6  A    between atoms: C_16  and  C_18 
REMARK    7  A    between atoms: C_21  and  O_22 
ROOT
HETATM    1  C   UNL     1      -7.241   2.226 -33.433  1.00  0.00     0.255 C 
HETATM    2  N   UNL     1      -6.682   1.937 -32.211  1.00  0.00    -0.350 N 
HETATM    3  O   UNL     1      -6.578   2.226 -34.467  1.00  0.00    -0.268 OA
HETATM    4  H   UNL     1      -7.241   1.963 -31.372  1.00  0.00     0.163 HD
ENDROOT
BRANCH   2   5
HETATM    5  C   UNL     1      -5.240   1.704 -32.055  1.00  0.00     0.114 C 
HETATM    6  C   UNL     1      -4.644   2.797 -31.165  1.00  0.00     0.035 C 
BRANCH   5   7
HETATM    7  C   UNL     1      -4.987   0.266 -31.520  1.00  0.00     0.173 C 
BRANCH   7   8
HETATM    8  O   UNL     1      -3.737   0.190 -30.827  1.00  0.00    -0.389 OA
HETATM    9  H   UNL     1      -3.887  -0.353 -30.034  1.00  0.00     0.210 HD
ENDBRANCH   7   8
BRANCH   7  10
HETATM   10  C   UNL     1      -5.097  -0.806 -32.588  1.00  0.00    -0.028 A 
HETATM   11  C   UNL     1      -6.355  -1.117 -33.122  1.00  0.00     0.012 A 
HETATM   12  C   UNL     1      -6.484  -2.079 -34.127  1.00  0.00     0.037 A 
HETATM   13  C   UNL     1      -5.363  -2.742 -34.626  1.00  0.00     0.068 A 
HETATM   14  C   UNL     1      -4.106  -2.443 -34.100  1.00  0.00     0.037 A 
HETATM   15  C   UNL     1      -3.975  -1.483 -33.088  1.00  0.00     0.012 A 
BRANCH  13  16
HETATM   16  O   UNL     1      -5.631  -3.649 -35.614  1.00  0.00    -0.356 OA
HETATM   17  C   UNL     1      -6.652  -4.601 -35.352  1.00  0.00     0.210 C 
ENDBRANCH  13  16
ENDBRANCH   7  10
ENDBRANCH   5   7
ENDBRANCH   2   5
BRANCH   1  18
HETATM   18  C   UNL     1      -8.675   2.477 -33.465  1.00  0.00     0.075 C 
HETATM   19  C   UNL     1      -9.784   1.687 -33.168  1.00  0.00     0.051 C 
HETATM   20  C   UNL     1      -9.892   0.315 -32.601  1.00  0.00     0.071 C 
HETATM   21  N   UNL     1     -10.910   2.460 -33.480  1.00  0.00    -0.220 N 
HETATM   22  N   UNL     1     -10.559   3.740 -33.786  1.00  0.00    -0.177 NA
HETATM   23  C   UNL     1      -9.231   3.730 -33.798  1.00  0.00     0.158 C 
BRANCH  21  24
HETATM   24  C   UNL     1     -12.293   2.070 -33.522  1.00  0.00     0.150 A 
HETATM   25  N   UNL     1     -12.696   1.126 -34.416  1.00  0.00    -0.241 NA
HETATM   26  C   UNL     1     -14.009   0.805 -34.435  1.00  0.00     0.119 A 
HETATM   27  C   UNL     1     -14.956   1.374 -33.602  1.00  0.00     0.019 A 
HETATM   28  C   UNL     1     -14.537   2.338 -32.696  1.00  0.00     0.005 A 
HETATM   29  C   UNL     1     -13.191   2.696 -32.654  1.00  0.00     0.052 A 
ENDBRANCH  21  24
ENDBRANCH   1  18
TORSDOF 7
ENDMDL
MODEL 8
REMARK VINA RESULT:      -7.4      2.628      4.085
REMARK  7 active torsions:
REMARK  status: ('A' for Active; 'I' for Inactive)
REMARK    1  A    between atoms: N_3  and  C_4 
REMARK    2  A    between atoms: C_12  and  C_13 
REMARK       I    between atoms: C_13  and  N_14 
REMARK    3  A    between atoms: N_14  and  C_15 
REMARK    4  A    between atoms: C_15  and  C_16 
REMARK    5  A    between atoms: C_16  and  O_17 
REMARK    6  A    between atoms: C_16  and  C_18 
REMARK    7  A    between atoms: C_21  and  O_22 
ROOT
HETATM    1  C   UNL     1      -5.798   3.321 -33.512  1.00  0.00     0.255 C 
HETATM    2  N   UNL     1      -6.336   2.072 -33.312  1.00  0.00    -0.350 N 
HETATM    3  O   UNL     1      -6.317   4.138 -34.267  1.00  0.00    -0.268 OA
HETATM    4  H   UNL     1      -5.880   1.409 -32.703  1.00  0.00     0.163 HD
ENDROOT
BRANCH   2   5
HETATM    5  C   UNL     1      -7.510   1.606 -34.060  1.00  0.00     0.114 C 
HETATM    6  C   UNL     1      -7.051   0.721 -35.223  1.00  0.00     0.035 C 
BRANCH   5   7
HETATM    7  C   UNL     1      -8.507   0.897 -33.101  1.00  0.00     0.173 C 
BRANCH   7   8
HETATM    8  O   UNL     1      -8.138  -0.471 -32.898  1.00  0.00    -0.389 OA
HETATM    9  H   UNL     1      -7.497  -0.697 -33.595  1.00  0.00     0.210 HD
ENDBRANCH   7   8
BRANCH   7  10
HETATM   10  C   UNL     1      -9.956   1.024 -33.531  1.00  0.00    -0.028 A 
HETATM   11  C   UNL     1     -10.334   2.082 -34.370  1.00  0.00     0.012 A 
HETATM   12  C   UNL     1     -11.654   2.209 -34.806  1.00  0.00     0.037 A 
HETATM   13  C   UNL     1     -12.623   1.280 -34.424  1.00  0.00     0.068 A 
HETATM   14  C   UNL     1     -12.260   0.226 -33.586  1.00  0.00     0.037 A 
HETATM   15  C   UNL     1     -10.937   0.100 -33.142  1.00  0.00     0.012 A 
BRANCH  13  16
HETATM   16  O   UNL     1     -13.870   1.518 -34.930  1.00  0.00    -0.356 OA
HETATM   17  C   UNL     1     -14.950   0.811 -34.336  1.00  0.00     0.210 C 
ENDBRANCH  13  16
ENDBRANCH   7  10
ENDBRANCH   5   7
ENDBRANCH   2   5
BRANCH   1  18
HETATM   18  C   UNL     1      -4.610   3.664 -32.743  1.00  0.00     0.075 C 
HETATM   19  C   UNL     1      -4.067   4.878 -32.324  1.00  0.00     0.051 C 
HETATM   20  C   UNL     1      -4.578   6.272 -32.427  1.00  0.00     0.071 C 
HETATM   21  N   UNL     1      -2.856   4.567 -31.693  1.00  0.00    -0.220 N 
HETATM   22  N   UNL     1      -2.708   3.222 -31.544  1.00  0.00    -0.177 NA
HETATM   23  C   UNL     1      -3.741   2.697 -32.193  1.00  0.00     0.158 C 
BRANCH  21  24
HETATM   24  C   UNL     1      -1.823   5.454 -31.231  1.00  0.00     0.150 A 
HETATM   25  N   UNL     1      -2.111   6.378 -30.273  1.00  0.00    -0.241 NA
HETATM   26  C   UNL     1      -1.115   7.204 -29.884  1.00  0.00     0.119 A 
HETATM   27  C   UNL     1       0.170   7.163 -30.397  1.00  0.00     0.019 A 
HETATM   28  C   UNL     1       0.454   6.220 -31.375  1.00  0.00     0.005 A 
HETATM   29  C   UNL     1      -0.552   5.355 -31.803  1.00  0.00     0.052 A 
ENDBRANCH  21  24
ENDBRANCH   1  18
TORSDOF 7
ENDMDL
MODEL 9
REMARK VINA RESULT:      -7.2      3.084      3.834
REMARK  7 active torsions:
REMARK  status: ('A' for Active; 'I' for Inactive)
REMARK    1  A    between atoms: N_3  and  C_4 
REMARK    2  A    between atoms: C_12  and  C_13 
REMARK       I    between atoms: C_13  and  N_14 
REMARK    3  A    between atoms: N_14  and  C_15 
REMARK    4  A    between atoms: C_15  and  C_16 
REMARK    5  A    between atoms: C_16  and  O_17 
REMARK    6  A    between atoms: C_16  and  C_18 
REMARK    7  A    between atoms: C_21  and  O_22 
ROOT
HETATM    1  C   UNL     1      -7.397   1.772 -31.073  1.00  0.00     0.255 C 
HETATM    2  N   UNL     1      -8.261   1.722 -32.141  1.00  0.00    -0.350 N 
HETATM    3  O   UNL     1      -6.738   0.796 -30.724  1.00  0.00    -0.268 OA
HETATM    4  H   UNL     1      -8.808   2.530 -32.396  1.00  0.00     0.163 HD
ENDROOT
BRANCH   2   5
HETATM    5  C   UNL     1      -8.518   0.474 -32.871  1.00  0.00     0.114 C 
HETATM    6  C   UNL     1     -10.020   0.346 -33.141  1.00  0.00     0.035 C 
BRANCH   5   7
HETATM    7  C   UNL     1      -7.652   0.421 -34.160  1.00  0.00     0.173 C 
BRANCH   7   8
HETATM    8  O   UNL     1      -8.476   0.366 -35.330  1.00  0.00    -0.389 OA
HETATM    9  H   UNL     1      -8.023   0.883 -36.018  1.00  0.00     0.210 HD
ENDBRANCH   7   8
BRANCH   7  10
HETATM   10  C   UNL     1      -6.622  -0.693 -34.153  1.00  0.00    -0.028 A 
HETATM   11  C   UNL     1      -6.973  -1.957 -34.648  1.00  0.00     0.012 A 
HETATM   12  C   UNL     1      -6.038  -2.994 -34.681  1.00  0.00     0.037 A 
HETATM   13  C   UNL     1      -4.733  -2.791 -34.231  1.00  0.00     0.068 A 
HETATM   14  C   UNL     1      -4.374  -1.539 -33.732  1.00  0.00     0.037 A 
HETATM   15  C   UNL     1      -5.312  -0.499 -33.693  1.00  0.00     0.012 A 
BRANCH  13  16
HETATM   16  O   UNL     1      -3.920  -3.885 -34.330  1.00  0.00    -0.356 OA
HETATM   17  C   UNL     1      -4.528  -5.156 -34.149  1.00  0.00     0.210 C 
ENDBRANCH  13  16
ENDBRANCH   7  10
ENDBRANCH   5   7
ENDBRANCH   2   5
BRANCH   1  18
HETATM   18  C   UNL     1      -7.247   3.054 -30.400  1.00  0.00     0.075 C 
HETATM   19  C   UNL     1      -6.148   3.878 -30.160  1.00  0.00     0.051 C 
HETATM   20  C   UNL     1      -4.732   3.785 -30.608  1.00  0.00     0.071 C 
HETATM   21  N   UNL     1      -6.620   4.941 -29.378  1.00  0.00    -0.220 N 
HETATM   22  N   UNL     1      -7.977   4.910 -29.272  1.00  0.00    -0.177 NA
HETATM   23  C   UNL     1      -8.334   3.774 -29.860  1.00  0.00     0.158 C 
BRANCH  21  24
HETATM   24  C   UNL     1      -5.875   5.977 -28.714  1.00  0.00     0.150 A 
HETATM   25  N   UNL     1      -5.410   5.764 -27.453  1.00  0.00    -0.241 NA
HETATM   26  C   UNL     1      -4.734   6.773 -26.860  1.00  0.00     0.119 A 
HETATM   27  C   UNL     1      -4.487   7.996 -27.459  1.00  0.00     0.019 A 
HETATM   28  C   UNL     1      -4.968   8.205 -28.744  1.00  0.00     0.005 A 
HETATM   29  C   UNL     1      -5.674   7.187 -29.382  1.00  0.00     0.052 A 
ENDBRANCH  21  24
ENDBRANCH   1  18
TORSDOF 7
ENDMDL
MODEL 10
REMARK VINA RESULT:      -7.2      3.854      9.636
REMARK  7 active torsions:
REMARK  status: ('A' for Active; 'I' for Inactive)
REMARK    1  A    between atoms: N_3  and  C_4 
REMARK    2  A    between atoms: C_12  and  C_13 
REMARK       I    between atoms: C_13  and  N_14 
REMARK    3  A    between atoms: N_14  and  C_15 
REMARK    4  A    between atoms: C_15  and  C_16 
REMARK    5  A    between atoms: C_16  and  O_17 
REMARK    6  A    between atoms: C_16  and  C_18 
REMARK    7  A    between atoms: C_21  and  O_22 
ROOT
HETATM    1  C   UNL     1      -3.375   5.374 -31.731  1.00  0.00     0.255 C 
HETATM    2  N   UNL     1      -2.314   5.266 -30.864  1.00  0.00    -0.350 N 
HETATM    3  O   UNL     1      -3.680   6.442 -32.254  1.00  0.00    -0.268 OA
HETATM    4  H   UNL     1      -2.095   4.382 -30.430  1.00  0.00     0.163 HD
ENDROOT
BRANCH   2   5
HETATM    5  C   UNL     1      -1.541   6.439 -30.436  1.00  0.00     0.114 C 
HETATM    6  C   UNL     1      -2.352   7.232 -29.407  1.00  0.00     0.035 C 
BRANCH   5   7
HETATM    7  C   UNL     1      -0.145   5.997 -29.915  1.00  0.00     0.173 C 
BRANCH   7   8
HETATM    8  O   UNL     1      -0.074   4.573 -29.785  1.00  0.00    -0.389 OA
HETATM    9  H   UNL     1       0.863   4.350 -29.647  1.00  0.00     0.210 HD
ENDBRANCH   7   8
BRANCH   7  10
HETATM   10  C   UNL     1       0.272   6.694 -28.633  1.00  0.00    -0.028 A 
HETATM   11  C   UNL     1       0.987   7.897 -28.707  1.00  0.00     0.012 A 
HETATM   12  C   UNL     1       1.359   8.577 -27.545  1.00  0.00     0.037 A 
HETATM   13  C   UNL     1       1.018   8.077 -26.287  1.00  0.00     0.068 A 
HETATM   14  C   UNL     1       0.310   6.878 -26.202  1.00  0.00     0.037 A 
HETATM   15  C   UNL     1      -0.059   6.192 -27.366  1.00  0.00     0.012 A 
BRANCH  13  16
HETATM   16  O   UNL     1       1.435   8.846 -25.237  1.00  0.00    -0.356 OA
HETATM   17  C   UNL     1       2.835   8.919 -25.008  1.00  0.00     0.210 C 
ENDBRANCH  13  16
ENDBRANCH   7  10
ENDBRANCH   5   7
ENDBRANCH   2   5
BRANCH   1  18
HETATM   18  C   UNL     1      -4.094   4.150 -32.057  1.00  0.00     0.075 C 
HETATM   19  C   UNL     1      -4.858   3.761 -33.157  1.00  0.00     0.051 C 
HETATM   20  C   UNL     1      -5.125   4.434 -34.456  1.00  0.00     0.071 C 
HETATM   21  N   UNL     1      -5.369   2.494 -32.848  1.00  0.00    -0.220 N 
HETATM   22  N   UNL     1      -4.822   2.007 -31.700  1.00  0.00    -0.177 NA
HETATM   23  C   UNL     1      -4.089   3.008 -31.228  1.00  0.00     0.158 C 
BRANCH  21  24
HETATM   24  C   UNL     1      -6.349   1.716 -33.558  1.00  0.00     0.150 A 
HETATM   25  N   UNL     1      -7.622   2.184 -33.671  1.00  0.00    -0.241 NA
HETATM   26  C   UNL     1      -8.514   1.410 -34.328  1.00  0.00     0.119 A 
HETATM   27  C   UNL     1      -8.209   0.182 -34.889  1.00  0.00     0.019 A 
HETATM   28  C   UNL     1      -6.909  -0.288 -34.765  1.00  0.00     0.005 A 
HETATM   29  C   UNL     1      -5.965   0.483 -34.089  1.00  0.00     0.052 A 
ENDBRANCH  21  24
ENDBRANCH   1  18
TORSDOF 7
ENDMDL
