MODEL 1
REMARK VINA RESULT:      -7.9      0.000      0.000
REMARK  4 active torsions:
REMARK  status: ('A' for Active; 'I' for Inactive)
REMARK    1  A    between atoms: S_2  and  N_3 
REMARK    2  A    between atoms: N_3  and  N_4 
REMARK    3  A    between atoms: C_10  and  C_11 
REMARK    4  A    between atoms: C_12  and  O_13 
ROOT
HETATM    1  N   UNL     1      -5.468  -0.005 -33.214  1.00  0.00    -0.224 N 
HETATM    2  C   UNL     1      -4.514  -1.014 -33.334  1.00  0.00     0.276 C 
HETATM    3  O   UNL     1      -3.325  -0.911 -33.052  1.00  0.00    -0.266 OA
HETATM    4  C   UNL     1      -5.035  -2.304 -33.848  1.00  0.00     0.055 A 
HETATM    5  C   UNL     1      -6.390  -2.394 -34.203  1.00  0.00     0.026 A 
HETATM    6  N   UNL     1      -7.254  -1.283 -34.097  1.00  0.00    -0.265 NA
HETATM    7  C   UNL     1      -6.863  -0.370 -33.019  1.00  0.00     0.224 C 
HETATM    8  C   UNL     1      -4.173  -3.394 -34.017  1.00  0.00     0.019 A 
HETATM    9  C   UNL     1      -4.654  -4.577 -34.573  1.00  0.00     0.001 A 
HETATM   10  C   UNL     1      -5.985  -4.662 -34.977  1.00  0.00     0.002 A 
HETATM   11  C   UNL     1      -6.844  -3.572 -34.808  1.00  0.00     0.024 A 
HETATM   12  H   UNL     1      -8.222  -1.585 -33.994  1.00  0.00     0.130 HD
ENDROOT
BRANCH   7  13
HETATM   13  C   UNL     1      -7.830   0.801 -33.011  1.00  0.00     0.014 A 
HETATM   14  C   UNL     1      -8.309   1.380 -31.825  1.00  0.00     0.075 A 
HETATM   15  C   UNL     1      -9.246   2.410 -31.853  1.00  0.00     0.037 A 
HETATM   16  C   UNL     1      -9.721   2.886 -33.072  1.00  0.00     0.003 A 
HETATM   17  C   UNL     1      -9.261   2.329 -34.262  1.00  0.00     0.001 A 
HETATM   18  C   UNL     1      -8.325   1.293 -34.234  1.00  0.00     0.013 A 
BRANCH  14  19
HETATM   19  O   UNL     1      -7.897   0.967 -30.590  1.00  0.00    -0.360 OA
HETATM   20  H   UNL     1      -7.025   1.371 -30.392  1.00  0.00     0.217 HD
ENDBRANCH  14  19
ENDBRANCH   7  13
BRANCH   1  21
HETATM   21  N   UNL     1      -5.058   1.386 -32.878  1.00  0.00    -0.220 N 
HETATM   22  H   UNL     1      -4.600   1.923 -33.618  1.00  0.00     0.200 HD
BRANCH  21  23
HETATM   23  S   UNL     1      -4.444   1.707 -31.316  1.00  0.00     0.240 S 
HETATM   24  C   UNL     1      -5.209   3.283 -31.011  1.00  0.00     0.187 C 
HETATM   25  O   UNL     1      -3.020   1.950 -31.406  1.00  0.00    -0.205 OA
HETATM   26  O   UNL     1      -5.032   0.772 -30.382  1.00  0.00    -0.205 OA
ENDBRANCH  21  23
ENDBRANCH   1  21
TORSDOF 4
ENDMDL
MODEL 2
REMARK VINA RESULT:      -7.7      3.195      5.902
REMARK  4 active torsions:
REMARK  status: ('A' for Active; 'I' for Inactive)
REMARK    1  A    between atoms: S_2  and  N_3 
REMARK    2  A    between atoms: N_3  and  N_4 
REMARK    3  A    between atoms: C_10  and  C_11 
REMARK    4  A    between atoms: C_12  and  O_13 
ROOT
HETATM    1  N   UNL     1      -9.195   2.033 -33.953  1.00  0.00    -0.224 N 
HETATM    2  C   UNL     1     -10.360   2.571 -34.494  1.00  0.00     0.276 C 
HETATM    3  O   UNL     1     -10.449   3.649 -35.071  1.00  0.00    -0.266 OA
HETATM    4  C   UNL     1     -11.568   1.725 -34.334  1.00  0.00     0.055 A 
HETATM    5  C   UNL     1     -11.458   0.512 -33.637  1.00  0.00     0.026 A 
HETATM    6  N   UNL     1     -10.232   0.094 -33.075  1.00  0.00    -0.265 NA
HETATM    7  C   UNL     1      -9.075   0.587 -33.827  1.00  0.00     0.224 C 
HETATM    8  C   UNL     1     -12.803   2.159 -34.833  1.00  0.00     0.019 A 
HETATM    9  C   UNL     1     -13.946   1.395 -34.609  1.00  0.00     0.001 A 
HETATM   10  C   UNL     1     -13.858   0.214 -33.874  1.00  0.00     0.002 A 
HETATM   11  C   UNL     1     -12.625  -0.217 -33.377  1.00  0.00     0.024 A 
HETATM   12  H   UNL     1     -10.205  -0.920 -32.976  1.00  0.00     0.130 HD
ENDROOT
BRANCH   7  13
HETATM   13  C   UNL     1      -7.813   0.114 -33.126  1.00  0.00     0.014 A 
HETATM   14  C   UNL     1      -7.601   0.287 -31.750  1.00  0.00     0.075 A 
HETATM   15  C   UNL     1      -6.405  -0.100 -31.150  1.00  0.00     0.037 A 
HETATM   16  C   UNL     1      -5.396  -0.674 -31.918  1.00  0.00     0.003 A 
HETATM   17  C   UNL     1      -5.582  -0.858 -33.285  1.00  0.00     0.001 A 
HETATM   18  C   UNL     1      -6.780  -0.465 -33.887  1.00  0.00     0.013 A 
BRANCH  14  19
HETATM   19  O   UNL     1      -8.539   0.847 -30.929  1.00  0.00    -0.360 OA
HETATM   20  H   UNL     1      -9.228   0.178 -30.728  1.00  0.00     0.217 HD
ENDBRANCH  14  19
ENDBRANCH   7  13
BRANCH   1  21
HETATM   21  N   UNL     1      -7.948   2.844 -33.886  1.00  0.00    -0.220 N 
HETATM   22  H   UNL     1      -7.072   2.359 -34.092  1.00  0.00     0.200 HD
BRANCH  21  23
HETATM   23  S   UNL     1      -7.806   4.034 -32.668  1.00  0.00     0.240 S 
HETATM   24  C   UNL     1      -6.157   3.690 -32.102  1.00  0.00     0.187 C 
HETATM   25  O   UNL     1      -8.695   3.703 -31.575  1.00  0.00    -0.205 OA
HETATM   26  O   UNL     1      -7.768   5.339 -33.292  1.00  0.00    -0.205 OA
ENDBRANCH  21  23
ENDBRANCH   1  21
TORSDOF 4
ENDMDL
MODEL 3
REMARK VINA RESULT:      -7.6      3.100      4.286
REMARK  4 active torsions:
REMARK  status: ('A' for Active; 'I' for Inactive)
REMARK    1  A    between atoms: S_2  and  N_3 
REMARK    2  A    between atoms: N_3  and  N_4 
REMARK    3  A    between atoms: C_10  and  C_11 
REMARK    4  A    between atoms: C_12  and  O_13 
ROOT
HETATM    1  N   UNL     1      -8.956   1.128 -32.085  1.00  0.00    -0.224 N 
HETATM    2  C   UNL     1      -7.704   0.864 -31.532  1.00  0.00     0.276 C 
HETATM    3  O   UNL     1      -7.285   1.306 -30.469  1.00  0.00    -0.266 OA
HETATM    4  C   UNL     1      -6.847  -0.038 -32.339  1.00  0.00     0.055 A 
HETATM    5  C   UNL     1      -7.326  -0.505 -33.572  1.00  0.00     0.026 A 
HETATM    6  N   UNL     1      -8.592  -0.120 -34.063  1.00  0.00    -0.265 NA
HETATM    7  C   UNL     1      -9.550   0.154 -32.989  1.00  0.00     0.224 C 
HETATM    8  C   UNL     1      -5.564  -0.376 -31.891  1.00  0.00     0.019 A 
HETATM    9  C   UNL     1      -4.736  -1.160 -32.691  1.00  0.00     0.001 A 
HETATM   10  C   UNL     1      -5.181  -1.587 -33.941  1.00  0.00     0.002 A 
HETATM   11  C   UNL     1      -6.462  -1.249 -34.386  1.00  0.00     0.024 A 
HETATM   12  H   UNL     1      -8.955  -0.814 -34.715  1.00  0.00     0.130 HD
ENDROOT
BRANCH   7  13
HETATM   13  C   UNL     1     -10.862   0.590 -33.618  1.00  0.00     0.014 A 
HETATM   14  C   UNL     1     -10.955   1.680 -34.496  1.00  0.00     0.075 A 
HETATM   15  C   UNL     1     -12.185   2.094 -35.004  1.00  0.00     0.037 A 
HETATM   16  C   UNL     1     -13.348   1.419 -34.646  1.00  0.00     0.003 A 
HETATM   17  C   UNL     1     -13.282   0.333 -33.777  1.00  0.00     0.001 A 
HETATM   18  C   UNL     1     -12.050  -0.079 -33.264  1.00  0.00     0.013 A 
BRANCH  14  19
HETATM   19  O   UNL     1      -9.862   2.398 -34.892  1.00  0.00    -0.360 OA
HETATM   20  H   UNL     1      -9.183   1.781 -35.239  1.00  0.00     0.217 HD
ENDBRANCH  14  19
ENDBRANCH   7  13
BRANCH   1  21
HETATM   21  N   UNL     1      -9.850   2.150 -31.475  1.00  0.00    -0.220 N 
HETATM   22  H   UNL     1     -10.839   1.905 -31.390  1.00  0.00     0.200 HD
BRANCH  21  23
HETATM   23  S   UNL     1      -9.580   3.799 -31.834  1.00  0.00     0.240 S 
HETATM   24  C   UNL     1      -9.015   4.364 -30.246  1.00  0.00     0.187 C 
HETATM   25  O   UNL     1     -10.851   4.447 -32.074  1.00  0.00    -0.205 OA
HETATM   26  O   UNL     1      -8.454   3.902 -32.737  1.00  0.00    -0.205 OA
ENDBRANCH  21  23
ENDBRANCH   1  21
TORSDOF 4
ENDMDL
MODEL 4
REMARK VINA RESULT:      -7.6      1.974      3.747
REMARK  4 active torsions:
REMARK  status: ('A' for Active; 'I' for Inactive)
REMARK    1  A    between atoms: S_2  and  N_3 
REMARK    2  A    between atoms: N_3  and  N_4 
REMARK    3  A    between atoms: C_10  and  C_11 
REMARK    4  A    between atoms: C_12  and  O_13 
ROOT
HETATM    1  N   UNL     1      -5.567   0.052 -33.460  1.00  0.00    -0.224 N 
HETATM    2  C   UNL     1      -5.588  -1.156 -34.155  1.00  0.00     0.276 C 
HETATM    3  O   UNL     1      -6.286  -1.407 -35.131  1.00  0.00    -0.266 OA
HETATM    4  C   UNL     1      -4.666  -2.192 -33.628  1.00  0.00     0.055 A 
HETATM    5  C   UNL     1      -3.903  -1.903 -32.487  1.00  0.00     0.026 A 
HETATM    6  N   UNL     1      -4.010  -0.660 -31.826  1.00  0.00    -0.265 NA
HETATM    7  C   UNL     1      -4.362   0.431 -32.738  1.00  0.00     0.224 C 
HETATM    8  C   UNL     1      -4.599  -3.450 -34.239  1.00  0.00     0.019 A 
HETATM    9  C   UNL     1      -3.790  -4.442 -33.691  1.00  0.00     0.001 A 
HETATM   10  C   UNL     1      -3.066  -4.184 -32.528  1.00  0.00     0.002 A 
HETATM   11  C   UNL     1      -3.135  -2.927 -31.921  1.00  0.00     0.024 A 
HETATM   12  H   UNL     1      -3.157  -0.450 -31.308  1.00  0.00     0.130 HD
ENDROOT
BRANCH   7  13
HETATM   13  C   UNL     1      -4.484   1.710 -31.928  1.00  0.00     0.014 A 
HETATM   14  C   UNL     1      -5.225   1.786 -30.738  1.00  0.00     0.075 A 
HETATM   15  C   UNL     1      -5.370   2.990 -30.055  1.00  0.00     0.037 A 
HETATM   16  C   UNL     1      -4.771   4.146 -30.546  1.00  0.00     0.003 A 
HETATM   17  C   UNL     1      -4.030   4.098 -31.724  1.00  0.00     0.001 A 
HETATM   18  C   UNL     1      -3.888   2.890 -32.412  1.00  0.00     0.013 A 
BRANCH  14  19
HETATM   19  O   UNL     1      -5.847   0.698 -30.193  1.00  0.00    -0.360 OA
HETATM   20  H   UNL     1      -6.092   0.903 -29.265  1.00  0.00     0.217 HD
ENDBRANCH  14  19
ENDBRANCH   7  13
BRANCH   1  21
HETATM   21  N   UNL     1      -6.561   1.117 -33.767  1.00  0.00    -0.220 N 
HETATM   22  H   UNL     1      -6.213   2.078 -33.792  1.00  0.00     0.200 HD
BRANCH  21  23
HETATM   23  S   UNL     1      -8.141   0.974 -33.132  1.00  0.00     0.240 S 
HETATM   24  C   UNL     1      -8.408   2.653 -32.611  1.00  0.00     0.187 C 
HETATM   25  O   UNL     1      -8.099   0.171 -31.929  1.00  0.00    -0.205 OA
HETATM   26  O   UNL     1      -9.061   0.726 -34.220  1.00  0.00    -0.205 OA
ENDBRANCH  21  23
ENDBRANCH   1  21
TORSDOF 4
ENDMDL
MODEL 5
REMARK VINA RESULT:      -7.3      2.467      3.346
REMARK  4 active torsions:
REMARK  status: ('A' for Active; 'I' for Inactive)
REMARK    1  A    between atoms: S_2  and  N_3 
REMARK    2  A    between atoms: N_3  and  N_4 
REMARK    3  A    between atoms: C_10  and  C_11 
REMARK    4  A    between atoms: C_12  and  O_13 
ROOT
HETATM    1  N   UNL     1      -8.102   0.739 -31.839  1.00  0.00    -0.224 N 
HETATM    2  C   UNL     1      -6.914   0.196 -31.356  1.00  0.00     0.276 C 
HETATM    3  O   UNL     1      -6.474   0.332 -30.220  1.00  0.00    -0.266 OA
HETATM    4  C   UNL     1      -6.154  -0.611 -32.343  1.00  0.00     0.055 A 
HETATM    5  C   UNL     1      -6.650  -0.726 -33.650  1.00  0.00     0.026 A 
HETATM    6  N   UNL     1      -7.840  -0.077 -34.045  1.00  0.00    -0.265 NA
HETATM    7  C   UNL     1      -8.788   0.076 -32.939  1.00  0.00     0.224 C 
HETATM    8  C   UNL     1      -4.940  -1.207 -31.979  1.00  0.00     0.019 A 
HETATM    9  C   UNL     1      -4.195  -1.897 -32.932  1.00  0.00     0.001 A 
HETATM   10  C   UNL     1      -4.652  -1.974 -34.247  1.00  0.00     0.002 A 
HETATM   11  C   UNL     1      -5.864  -1.379 -34.608  1.00  0.00     0.024 A 
HETATM   12  H   UNL     1      -8.269  -0.556 -34.837  1.00  0.00     0.130 HD
ENDROOT
BRANCH   7  13
HETATM   13  C   UNL     1     -10.013   0.810 -33.457  1.00  0.00     0.014 A 
HETATM   14  C   UNL     1     -11.310   0.283 -33.360  1.00  0.00     0.075 A 
HETATM   15  C   UNL     1     -12.403   0.952 -33.905  1.00  0.00     0.037 A 
HETATM   16  C   UNL     1     -12.220   2.169 -34.555  1.00  0.00     0.003 A 
HETATM   17  C   UNL     1     -10.943   2.714 -34.664  1.00  0.00     0.001 A 
HETATM   18  C   UNL     1      -9.847   2.040 -34.122  1.00  0.00     0.013 A 
BRANCH  14  19
HETATM   19  O   UNL     1     -11.573  -0.907 -32.743  1.00  0.00    -0.360 OA
HETATM   20  H   UNL     1     -11.625  -0.760 -31.774  1.00  0.00     0.217 HD
ENDBRANCH  14  19
ENDBRANCH   7  13
BRANCH   1  21
HETATM   21  N   UNL     1      -8.877   1.710 -31.018  1.00  0.00    -0.220 N 
HETATM   22  H   UNL     1      -9.896   1.659 -31.083  1.00  0.00     0.200 HD
BRANCH  21  23
HETATM   23  S   UNL     1      -8.279   3.301 -30.845  1.00  0.00     0.240 S 
HETATM   24  C   UNL     1      -9.806   4.207 -30.923  1.00  0.00     0.187 C 
HETATM   25  O   UNL     1      -7.527   3.657 -32.029  1.00  0.00    -0.205 OA
HETATM   26  O   UNL     1      -7.768   3.465 -29.502  1.00  0.00    -0.205 OA
ENDBRANCH  21  23
ENDBRANCH   1  21
TORSDOF 4
ENDMDL
MODEL 6
REMARK VINA RESULT:      -7.3      3.858      7.174
REMARK  4 active torsions:
REMARK  status: ('A' for Active; 'I' for Inactive)
REMARK    1  A    between atoms: S_2  and  N_3 
REMARK    2  A    between atoms: N_3  and  N_4 
REMARK    3  A    between atoms: C_10  and  C_11 
REMARK    4  A    between atoms: C_12  and  O_13 
ROOT
HETATM    1  N   UNL     1      -4.103   4.216 -32.654  1.00  0.00    -0.224 N 
HETATM    2  C   UNL     1      -3.521   5.421 -33.043  1.00  0.00     0.276 C 
HETATM    3  O   UNL     1      -3.979   6.201 -33.870  1.00  0.00    -0.266 OA
HETATM    4  C   UNL     1      -2.241   5.740 -32.365  1.00  0.00     0.055 A 
HETATM    5  C   UNL     1      -1.710   4.819 -31.450  1.00  0.00     0.026 A 
HETATM    6  N   UNL     1      -2.359   3.595 -31.178  1.00  0.00    -0.265 NA
HETATM    7  C   UNL     1      -3.814   3.686 -31.329  1.00  0.00     0.224 C 
HETATM    8  C   UNL     1      -1.557   6.923 -32.674  1.00  0.00     0.019 A 
HETATM    9  C   UNL     1      -0.318   7.177 -32.092  1.00  0.00     0.001 A 
HETATM   10  C   UNL     1       0.243   6.245 -31.220  1.00  0.00     0.002 A 
HETATM   11  C   UNL     1      -0.441   5.066 -30.913  1.00  0.00     0.024 A 
HETATM   12  H   UNL     1      -2.104   3.246 -30.255  1.00  0.00     0.130 HD
ENDROOT
BRANCH   7  13
HETATM   13  C   UNL     1      -4.410   2.318 -31.049  1.00  0.00     0.014 A 
HETATM   14  C   UNL     1      -5.484   2.126 -30.166  1.00  0.00     0.075 A 
HETATM   15  C   UNL     1      -5.965   0.850 -29.881  1.00  0.00     0.037 A 
HETATM   16  C   UNL     1      -5.381  -0.263 -30.480  1.00  0.00     0.003 A 
HETATM   17  C   UNL     1      -4.315  -0.099 -31.361  1.00  0.00     0.001 A 
HETATM   18  C   UNL     1      -3.830   1.181 -31.642  1.00  0.00     0.013 A 
BRANCH  14  19
HETATM   19  O   UNL     1      -6.108   3.164 -29.534  1.00  0.00    -0.360 OA
HETATM   20  H   UNL     1      -6.013   3.052 -28.564  1.00  0.00     0.217 HD
ENDBRANCH  14  19
ENDBRANCH   7  13
BRANCH   1  21
HETATM   21  N   UNL     1      -5.293   3.685 -33.372  1.00  0.00    -0.220 N 
HETATM   22  H   UNL     1      -5.157   3.403 -34.345  1.00  0.00     0.200 HD
BRANCH  21  23
HETATM   23  S   UNL     1      -6.819   4.394 -33.070  1.00  0.00     0.240 S 
HETATM   24  C   UNL     1      -7.813   2.925 -32.941  1.00  0.00     0.187 C 
HETATM   25  O   UNL     1      -7.263   5.089 -34.259  1.00  0.00    -0.205 OA
HETATM   26  O   UNL     1      -6.801   5.000 -31.757  1.00  0.00    -0.205 OA
ENDBRANCH  21  23
ENDBRANCH   1  21
TORSDOF 4
ENDMDL
MODEL 7
REMARK VINA RESULT:      -7.3      2.236      3.050
REMARK  4 active torsions:
REMARK  status: ('A' for Active; 'I' for Inactive)
REMARK    1  A    between atoms: S_2  and  N_3 
REMARK    2  A    between atoms: N_3  and  N_4 
REMARK    3  A    between atoms: C_10  and  C_11 
REMARK    4  A    between atoms: C_12  and  O_13 
ROOT
HETATM    1  N   UNL     1      -4.694   1.612 -31.569  1.00  0.00    -0.224 N 
HETATM    2  C   UNL     1      -3.944   0.488 -31.910  1.00  0.00     0.276 C 
HETATM    3  O   UNL     1      -2.797   0.256 -31.545  1.00  0.00    -0.266 OA
HETATM    4  C   UNL     1      -4.643  -0.482 -32.788  1.00  0.00     0.055 A 
HETATM    5  C   UNL     1      -5.942  -0.184 -33.229  1.00  0.00     0.026 A 
HETATM    6  N   UNL     1      -6.582   1.021 -32.868  1.00  0.00    -0.265 NA
HETATM    7  C   UNL     1      -6.146   1.518 -31.560  1.00  0.00     0.224 C 
HETATM    8  C   UNL     1      -3.993  -1.651 -33.203  1.00  0.00     0.019 A 
HETATM    9  C   UNL     1      -4.627  -2.517 -34.090  1.00  0.00     0.001 A 
HETATM   10  C   UNL     1      -5.897  -2.206 -34.575  1.00  0.00     0.002 A 
HETATM   11  C   UNL     1      -6.544  -1.039 -34.159  1.00  0.00     0.024 A 
HETATM   12  H   UNL     1      -7.596   0.919 -32.906  1.00  0.00     0.130 HD
ENDROOT
BRANCH   7  13
HETATM   13  C   UNL     1      -6.865   2.827 -31.282  1.00  0.00     0.014 A 
HETATM   14  C   UNL     1      -6.960   3.855 -32.233  1.00  0.00     0.075 A 
HETATM   15  C   UNL     1      -7.570   5.069 -31.924  1.00  0.00     0.037 A 
HETATM   16  C   UNL     1      -8.103   5.276 -30.654  1.00  0.00     0.003 A 
HETATM   17  C   UNL     1      -8.022   4.271 -29.694  1.00  0.00     0.001 A 
HETATM   18  C   UNL     1      -7.406   3.056 -30.003  1.00  0.00     0.013 A 
BRANCH  14  19
HETATM   19  O   UNL     1      -6.459   3.733 -33.498  1.00  0.00    -0.360 OA
HETATM   20  H   UNL     1      -5.912   2.920 -33.547  1.00  0.00     0.217 HD
ENDBRANCH  14  19
ENDBRANCH   7  13
BRANCH   1  21
HETATM   21  N   UNL     1      -4.064   2.747 -30.840  1.00  0.00    -0.220 N 
HETATM   22  H   UNL     1      -4.598   3.151 -30.068  1.00  0.00     0.200 HD
BRANCH  21  23
HETATM   23  S   UNL     1      -3.164   3.897 -31.729  1.00  0.00     0.240 S 
HETATM   24  C   UNL     1      -3.829   5.396 -31.041  1.00  0.00     0.187 C 
HETATM   25  O   UNL     1      -3.581   3.858 -33.114  1.00  0.00    -0.205 OA
HETATM   26  O   UNL     1      -1.780   3.828 -31.314  1.00  0.00    -0.205 OA
ENDBRANCH  21  23
ENDBRANCH   1  21
TORSDOF 4
ENDMDL
MODEL 8
REMARK VINA RESULT:      -7.2      1.870      2.307
REMARK  4 active torsions:
REMARK  status: ('A' for Active; 'I' for Inactive)
REMARK    1  A    between atoms: S_2  and  N_3 
REMARK    2  A    between atoms: N_3  and  N_4 
REMARK    3  A    between atoms: C_10  and  C_11 
REMARK    4  A    between atoms: C_12  and  O_13 
ROOT
HETATM    1  N   UNL     1      -5.959   0.929 -32.618  1.00  0.00    -0.224 N 
HETATM    2  C   UNL     1      -4.906   0.049 -32.858  1.00  0.00     0.276 C 
HETATM    3  O   UNL     1      -3.728   0.252 -32.588  1.00  0.00    -0.266 OA
HETATM    4  C   UNL     1      -5.300  -1.233 -33.493  1.00  0.00     0.055 A 
HETATM    5  C   UNL     1      -6.647  -1.435 -33.831  1.00  0.00     0.026 A 
HETATM    6  N   UNL     1      -7.622  -0.442 -33.596  1.00  0.00    -0.265 NA
HETATM    7  C   UNL     1      -7.301   0.395 -32.436  1.00  0.00     0.224 C 
HETATM    8  C   UNL     1      -4.331  -2.199 -33.789  1.00  0.00     0.019 A 
HETATM    9  C   UNL     1      -4.698  -3.365 -34.456  1.00  0.00     0.001 A 
HETATM   10  C   UNL     1      -6.024  -3.555 -34.843  1.00  0.00     0.002 A 
HETATM   11  C   UNL     1      -6.990  -2.589 -34.547  1.00  0.00     0.024 A 
HETATM   12  H   UNL     1      -8.549  -0.857 -33.507  1.00  0.00     0.130 HD
ENDROOT
BRANCH   7  13
HETATM   13  C   UNL     1      -8.388   1.445 -32.290  1.00  0.00     0.014 A 
HETATM   14  C   UNL     1      -9.015   2.045 -33.393  1.00  0.00     0.075 A 
HETATM   15  C   UNL     1      -9.962   3.053 -33.224  1.00  0.00     0.037 A 
HETATM   16  C   UNL     1     -10.304   3.478 -31.944  1.00  0.00     0.003 A 
HETATM   17  C   UNL     1      -9.697   2.899 -30.833  1.00  0.00     0.001 A 
HETATM   18  C   UNL     1      -8.744   1.892 -31.003  1.00  0.00     0.013 A 
BRANCH  14  19
HETATM   19  O   UNL     1      -8.731   1.688 -34.681  1.00  0.00    -0.360 OA
HETATM   20  H   UNL     1      -9.118   0.804 -34.859  1.00  0.00     0.217 HD
ENDBRANCH  14  19
ENDBRANCH   7  13
BRANCH   1  21
HETATM   21  N   UNL     1      -5.691   2.316 -32.147  1.00  0.00    -0.220 N 
HETATM   22  H   UNL     1      -6.191   2.622 -31.310  1.00  0.00     0.200 HD
BRANCH  21  23
HETATM   23  S   UNL     1      -5.474   3.550 -33.309  1.00  0.00     0.240 S 
HETATM   24  C   UNL     1      -6.577   4.780 -32.650  1.00  0.00     0.187 C 
HETATM   25  O   UNL     1      -6.040   3.121 -34.569  1.00  0.00    -0.205 OA
HETATM   26  O   UNL     1      -4.135   4.082 -33.180  1.00  0.00    -0.205 OA
ENDBRANCH  21  23
ENDBRANCH   1  21
TORSDOF 4
ENDMDL
MODEL 9
REMARK VINA RESULT:      -7.2      2.341      2.917
REMARK  4 active torsions:
REMARK  status: ('A' for Active; 'I' for Inactive)
REMARK    1  A    between atoms: S_2  and  N_3 
REMARK    2  A    between atoms: N_3  and  N_4 
REMARK    3  A    between atoms: C_10  and  C_11 
REMARK    4  A    between atoms: C_12  and  O_13 
ROOT
HETATM    1  N   UNL     1      -6.785   2.001 -32.916  1.00  0.00    -0.224 N 
HETATM    2  C   UNL     1      -5.581   1.301 -32.883  1.00  0.00     0.276 C 
HETATM    3  O   UNL     1      -4.521   1.722 -32.436  1.00  0.00    -0.266 OA
HETATM    4  C   UNL     1      -5.644  -0.070 -33.449  1.00  0.00     0.055 A 
HETATM    5  C   UNL     1      -6.855  -0.524 -33.993  1.00  0.00     0.026 A 
HETATM    6  N   UNL     1      -8.000   0.300 -34.027  1.00  0.00    -0.265 NA
HETATM    7  C   UNL     1      -8.036   1.257 -32.917  1.00  0.00     0.224 C 
HETATM    8  C   UNL     1      -4.496  -0.872 -33.477  1.00  0.00     0.019 A 
HETATM    9  C   UNL     1      -4.545  -2.127 -34.080  1.00  0.00     0.001 A 
HETATM   10  C   UNL     1      -5.728  -2.568 -34.669  1.00  0.00     0.002 A 
HETATM   11  C   UNL     1      -6.872  -1.765 -34.640  1.00  0.00     0.024 A 
HETATM   12  H   UNL     1      -8.850  -0.261 -34.060  1.00  0.00     0.130 HD
ENDROOT
BRANCH   7  13
HETATM   13  C   UNL     1      -9.283   2.112 -33.064  1.00  0.00     0.014 A 
HETATM   14  C   UNL     1      -9.969   2.647 -31.963  1.00  0.00     0.075 A 
HETATM   15  C   UNL     1     -11.146   3.372 -32.129  1.00  0.00     0.037 A 
HETATM   16  C   UNL     1     -11.659   3.582 -33.406  1.00  0.00     0.003 A 
HETATM   17  C   UNL     1     -10.997   3.063 -34.515  1.00  0.00     0.001 A 
HETATM   18  C   UNL     1      -9.819   2.331 -34.347  1.00  0.00     0.013 A 
BRANCH  14  19
HETATM   19  O   UNL     1      -9.534   2.481 -30.678  1.00  0.00    -0.360 OA
HETATM   20  H   UNL     1      -8.686   1.988 -30.689  1.00  0.00     0.217 HD
ENDBRANCH  14  19
ENDBRANCH   7  13
BRANCH   1  21
HETATM   21  N   UNL     1      -6.831   3.441 -32.544  1.00  0.00    -0.220 N 
HETATM   22  H   UNL     1      -7.528   3.716 -31.848  1.00  0.00     0.200 HD
BRANCH  21  23
HETATM   23  S   UNL     1      -6.579   4.613 -33.762  1.00  0.00     0.240 S 
HETATM   24  C   UNL     1      -5.824   5.898 -32.793  1.00  0.00     0.187 C 
HETATM   25  O   UNL     1      -7.859   5.125 -34.201  1.00  0.00    -0.205 OA
HETATM   26  O   UNL     1      -5.564   4.129 -34.673  1.00  0.00    -0.205 OA
ENDBRANCH  21  23
ENDBRANCH   1  21
TORSDOF 4
ENDMDL
MODEL 10
REMARK VINA RESULT:      -7.0      8.424     10.845
REMARK  4 active torsions:
REMARK  status: ('A' for Active; 'I' for Inactive)
REMARK    1  A    between atoms: S_2  and  N_3 
REMARK    2  A    between atoms: N_3  and  N_4 
REMARK    3  A    between atoms: C_10  and  C_11 
REMARK    4  A    between atoms: C_12  and  O_13 
ROOT
HETATM    1  N   UNL     1      -1.433   8.521 -30.005  1.00  0.00    -0.224 N 
HETATM    2  C   UNL     1      -2.077   8.534 -31.241  1.00  0.00     0.276 C 
HETATM    3  O   UNL     1      -2.820   9.419 -31.650  1.00  0.00    -0.266 OA
HETATM    4  C   UNL     1      -1.801   7.355 -32.097  1.00  0.00     0.055 A 
HETATM    5  C   UNL     1      -0.978   6.333 -31.599  1.00  0.00     0.026 A 
HETATM    6  N   UNL     1      -0.428   6.398 -30.301  1.00  0.00    -0.265 NA
HETATM    7  C   UNL     1      -0.190   7.777 -29.862  1.00  0.00     0.224 C 
HETATM    8  C   UNL     1      -2.393   7.251 -33.362  1.00  0.00     0.019 A 
HETATM    9  C   UNL     1      -2.191   6.104 -34.127  1.00  0.00     0.001 A 
HETATM   10  C   UNL     1      -1.418   5.060 -33.622  1.00  0.00     0.002 A 
HETATM   11  C   UNL     1      -0.828   5.167 -32.359  1.00  0.00     0.024 A 
HETATM   12  H   UNL     1       0.422   5.838 -30.238  1.00  0.00     0.130 HD
ENDROOT
BRANCH   7  13
HETATM   13  C   UNL     1       0.368   7.738 -28.450  1.00  0.00     0.014 A 
HETATM   14  C   UNL     1      -0.207   6.965 -27.429  1.00  0.00     0.075 A 
HETATM   15  C   UNL     1       0.291   7.004 -26.129  1.00  0.00     0.037 A 
HETATM   16  C   UNL     1       1.380   7.815 -25.824  1.00  0.00     0.003 A 
HETATM   17  C   UNL     1       1.968   8.591 -26.820  1.00  0.00     0.001 A 
HETATM   18  C   UNL     1       1.466   8.556 -28.122  1.00  0.00     0.013 A 
BRANCH  14  19
HETATM   19  O   UNL     1      -1.280   6.148 -27.645  1.00  0.00    -0.360 OA
HETATM   20  H   UNL     1      -2.090   6.590 -27.313  1.00  0.00     0.217 HD
ENDBRANCH  14  19
ENDBRANCH   7  13
BRANCH   1  21
HETATM   21  N   UNL     1      -1.752   9.549 -28.976  1.00  0.00    -0.220 N 
HETATM   22  H   UNL     1      -0.963   9.945 -28.460  1.00  0.00     0.200 HD
BRANCH  21  23
HETATM   23  S   UNL     1      -3.163   9.356 -28.031  1.00  0.00     0.240 S 
HETATM   24  C   UNL     1      -2.497   9.704 -26.421  1.00  0.00     0.187 C 
HETATM   25  O   UNL     1      -3.545   7.960 -28.027  1.00  0.00    -0.205 OA
HETATM   26  O   UNL     1      -4.083  10.429 -28.341  1.00  0.00    -0.205 OA
ENDBRANCH  21  23
ENDBRANCH   1  21
TORSDOF 4
ENDMDL
