MODEL 1
REMARK VINA RESULT:      -9.5      0.000      0.000
REMARK  6 active torsions:
REMARK  status: ('A' for Active; 'I' for Inactive)
REMARK    1  A    between atoms: O_2  and  C_3 
REMARK    2  A    between atoms: C_6  and  C_7 
REMARK    3  A    between atoms: C_11  and  C_12 
REMARK       I    between atoms: C_12  and  N_13 
REMARK    4  A    between atoms: N_13  and  N_14 
REMARK       I    between atoms: N_14  and  C_15 
REMARK    5  A    between atoms: C_15  and  C_16 
REMARK    6  A    between atoms: C_17  and  C_18 
ROOT
HETATM    1  C   UNL     1      -2.009   4.625 -31.579  1.00  0.00     0.288 C 
HETATM    2  N   UNL     1      -3.092   3.955 -31.051  1.00  0.00    -0.262 N 
HETATM    3  O   UNL     1      -1.726   4.566 -32.775  1.00  0.00    -0.264 OA
HETATM    4  H   UNL     1      -3.398   4.041 -30.086  1.00  0.00     0.190 HD
ENDROOT
BRANCH   1   5
HETATM    5  C   UNL     1      -1.228   5.382 -30.642  1.00  0.00     0.121 A 
HETATM    6  N   UNL     1      -0.199   4.813 -29.946  1.00  0.00    -0.272 N 
HETATM    7  N   UNL     1       0.399   5.636 -29.075  1.00  0.00    -0.174 NA
HETATM    8  H   UNL     1       0.126   3.853 -30.018  1.00  0.00     0.189 HD
HETATM    9  C   UNL     1      -0.249   6.805 -29.210  1.00  0.00     0.089 A 
HETATM   10  C   UNL     1      -1.271   6.688 -30.195  1.00  0.00     0.071 A 
BRANCH   9  11
HETATM   11  C   UNL     1       0.095   7.972 -28.391  1.00  0.00    -0.005 A 
HETATM   12  C   UNL     1      -0.843   8.977 -28.126  1.00  0.00     0.016 A 
HETATM   13  C   UNL     1      -0.504  10.067 -27.317  1.00  0.00     0.037 A 
HETATM   14  C   UNL     1       0.770  10.173 -26.753  1.00  0.00     0.068 A 
HETATM   15  C   UNL     1       1.714   9.185 -27.025  1.00  0.00     0.037 A 
HETATM   16  C   UNL     1       1.378   8.095 -27.839  1.00  0.00     0.016 A 
BRANCH  14  17
HETATM   17  O   UNL     1       0.963  11.279 -25.973  1.00  0.00    -0.356 OA
HETATM   18  C   UNL     1       1.864  11.141 -24.881  1.00  0.00     0.210 C 
ENDBRANCH  14  17
ENDBRANCH   9  11
ENDBRANCH   1   5
BRANCH   2  19
HETATM   19  N   UNL     1      -3.902   3.205 -31.905  1.00  0.00    -0.267 N 
HETATM   20  C   UNL     1      -3.768   1.838 -31.922  1.00  0.00     0.240 C 
HETATM   21  O   UNL     1      -2.973   1.213 -31.229  1.00  0.00    -0.271 OA
HETATM   22  H   UNL     1      -4.526   3.714 -32.530  1.00  0.00     0.190 HD
BRANCH  20  23
HETATM   23  C   UNL     1      -4.665   1.169 -32.893  1.00  0.00     0.089 A 
HETATM   24  C   UNL     1      -5.474  -0.025 -32.406  1.00  0.00     0.036 A 
HETATM   25  C   UNL     1      -6.165   1.254 -32.801  1.00  0.00     0.025 A 
BRANCH  24  26
HETATM   26  C   UNL     1      -5.497  -1.263 -33.268  1.00  0.00    -0.015 A 
HETATM   27  C   UNL     1      -4.363  -2.084 -33.376  1.00  0.00     0.123 A 
HETATM   28  F   UNL     1      -3.241  -1.739 -32.723  1.00  0.00    -0.206 F 
HETATM   29  C   UNL     1      -4.354  -3.246 -34.143  1.00  0.00     0.043 A 
HETATM   30  C   UNL     1      -5.502  -3.620 -34.836  1.00  0.00     0.003 A 
HETATM   31  C   UNL     1      -6.647  -2.829 -34.749  1.00  0.00     0.001 A 
HETATM   32  C   UNL     1      -6.644  -1.667 -33.970  1.00  0.00     0.011 A 
ENDBRANCH  24  26
ENDBRANCH  20  23
ENDBRANCH   2  19
TORSDOF 6
ENDMDL
MODEL 2
REMARK VINA RESULT:      -9.2      2.892     11.531
REMARK  6 active torsions:
REMARK  status: ('A' for Active; 'I' for Inactive)
REMARK    1  A    between atoms: O_2  and  C_3 
REMARK    2  A    between atoms: C_6  and  C_7 
REMARK    3  A    between atoms: C_11  and  C_12 
REMARK       I    between atoms: C_12  and  N_13 
REMARK    4  A    between atoms: N_13  and  N_14 
REMARK       I    between atoms: N_14  and  C_15 
REMARK    5  A    between atoms: C_15  and  C_16 
REMARK    6  A    between atoms: C_17  and  C_18 
ROOT
HETATM    1  C   UNL     1      -4.318   4.186 -31.685  1.00  0.00     0.288 C 
HETATM    2  N   UNL     1      -3.138   4.061 -30.983  1.00  0.00    -0.262 N 
HETATM    3  O   UNL     1      -4.800   5.284 -31.960  1.00  0.00    -0.264 OA
HETATM    4  H   UNL     1      -2.674   3.175 -30.804  1.00  0.00     0.190 HD
ENDROOT
BRANCH   1   5
HETATM    5  C   UNL     1      -4.953   2.953 -32.060  1.00  0.00     0.121 A 
HETATM    6  N   UNL     1      -6.177   2.602 -31.564  1.00  0.00    -0.272 N 
HETATM    7  N   UNL     1      -6.611   1.402 -31.970  1.00  0.00    -0.174 NA
HETATM    8  H   UNL     1      -6.754   3.144 -30.928  1.00  0.00     0.189 HD
HETATM    9  C   UNL     1      -5.643   0.944 -32.780  1.00  0.00     0.089 A 
HETATM   10  C   UNL     1      -4.589   1.898 -32.872  1.00  0.00     0.071 A 
BRANCH   9  11
HETATM   11  C   UNL     1      -5.730  -0.377 -33.411  1.00  0.00    -0.005 A 
HETATM   12  C   UNL     1      -4.592  -1.171 -33.598  1.00  0.00     0.016 A 
HETATM   13  C   UNL     1      -4.701  -2.442 -34.174  1.00  0.00     0.037 A 
HETATM   14  C   UNL     1      -5.943  -2.946 -34.568  1.00  0.00     0.068 A 
HETATM   15  C   UNL     1      -7.078  -2.156 -34.399  1.00  0.00     0.037 A 
HETATM   16  C   UNL     1      -6.970  -0.882 -33.827  1.00  0.00     0.016 A 
BRANCH  14  17
HETATM   17  O   UNL     1      -5.909  -4.203 -35.102  1.00  0.00    -0.356 OA
HETATM   18  C   UNL     1      -5.016  -5.131 -34.498  1.00  0.00     0.210 C 
ENDBRANCH  14  17
ENDBRANCH   9  11
ENDBRANCH   1   5
BRANCH   2  19
HETATM   19  N   UNL     1      -2.461   5.217 -30.594  1.00  0.00    -0.267 N 
HETATM   20  C   UNL     1      -1.244   5.502 -31.165  1.00  0.00     0.240 C 
HETATM   21  O   UNL     1      -0.697   4.803 -32.010  1.00  0.00    -0.271 OA
HETATM   22  H   UNL     1      -2.875   5.778 -29.850  1.00  0.00     0.190 HD
BRANCH  20  23
HETATM   23  C   UNL     1      -0.622   6.740 -30.640  1.00  0.00     0.089 A 
HETATM   24  C   UNL     1       0.499   6.593 -29.620  1.00  0.00     0.036 A 
HETATM   25  C   UNL     1       0.784   7.151 -30.991  1.00  0.00     0.025 A 
BRANCH  24  26
HETATM   26  C   UNL     1       0.449   7.457 -28.385  1.00  0.00    -0.015 A 
HETATM   27  C   UNL     1      -0.548   7.264 -27.415  1.00  0.00     0.123 A 
HETATM   28  F   UNL     1      -1.480   6.317 -27.613  1.00  0.00    -0.206 F 
HETATM   29  C   UNL     1      -0.613   8.026 -26.250  1.00  0.00     0.043 A 
HETATM   30  C   UNL     1       0.335   9.019 -26.027  1.00  0.00     0.003 A 
HETATM   31  C   UNL     1       1.341   9.236 -26.968  1.00  0.00     0.001 A 
HETATM   32  C   UNL     1       1.398   8.459 -28.130  1.00  0.00     0.011 A 
ENDBRANCH  24  26
ENDBRANCH  20  23
ENDBRANCH   2  19
TORSDOF 6
ENDMDL
MODEL 3
REMARK VINA RESULT:      -9.1      1.140      1.477
REMARK  6 active torsions:
REMARK  status: ('A' for Active; 'I' for Inactive)
REMARK    1  A    between atoms: O_2  and  C_3 
REMARK    2  A    between atoms: C_6  and  C_7 
REMARK    3  A    between atoms: C_11  and  C_12 
REMARK       I    between atoms: C_12  and  N_13 
REMARK    4  A    between atoms: N_13  and  N_14 
REMARK       I    between atoms: N_14  and  C_15 
REMARK    5  A    between atoms: C_15  and  C_16 
REMARK    6  A    between atoms: C_17  and  C_18 
ROOT
HETATM    1  C   UNL     1      -2.247   4.338 -32.384  1.00  0.00     0.288 C 
HETATM    2  N   UNL     1      -3.100   3.499 -31.700  1.00  0.00    -0.262 N 
HETATM    3  O   UNL     1      -2.176   4.334 -33.612  1.00  0.00    -0.264 OA
HETATM    4  H   UNL     1      -3.239   3.527 -30.694  1.00  0.00     0.190 HD
ENDROOT
BRANCH   1   5
HETATM    5  C   UNL     1      -1.440   5.203 -31.570  1.00  0.00     0.121 A 
HETATM    6  N   UNL     1      -0.076   5.115 -31.571  1.00  0.00    -0.272 N 
HETATM    7  N   UNL     1       0.530   5.956 -30.723  1.00  0.00    -0.174 NA
HETATM    8  H   UNL     1       0.492   4.481 -32.125  1.00  0.00     0.189 HD
HETATM    9  C   UNL     1      -0.471   6.642 -30.147  1.00  0.00     0.089 A 
HETATM   10  C   UNL     1      -1.724   6.206 -30.664  1.00  0.00     0.071 A 
BRANCH   9  11
HETATM   11  C   UNL     1      -0.216   7.654 -29.117  1.00  0.00    -0.005 A 
HETATM   12  C   UNL     1       1.023   7.740 -28.471  1.00  0.00     0.016 A 
HETATM   13  C   UNL     1       1.255   8.733 -27.513  1.00  0.00     0.037 A 
HETATM   14  C   UNL     1       0.263   9.660 -27.186  1.00  0.00     0.068 A 
HETATM   15  C   UNL     1      -0.978   9.572 -27.813  1.00  0.00     0.037 A 
HETATM   16  C   UNL     1      -1.214   8.575 -28.769  1.00  0.00     0.016 A 
BRANCH  14  17
HETATM   17  O   UNL     1       0.627  10.583 -26.246  1.00  0.00    -0.356 OA
HETATM   18  C   UNL     1       1.183  10.081 -25.037  1.00  0.00     0.210 C 
ENDBRANCH  14  17
ENDBRANCH   9  11
ENDBRANCH   1   5
BRANCH   2  19
HETATM   19  N   UNL     1      -3.922   2.636 -32.426  1.00  0.00    -0.267 N 
HETATM   20  C   UNL     1      -5.270   2.620 -32.162  1.00  0.00     0.240 C 
HETATM   21  O   UNL     1      -5.818   3.321 -31.320  1.00  0.00    -0.271 OA
HETATM   22  H   UNL     1      -3.473   2.004 -33.088  1.00  0.00     0.190 HD
BRANCH  20  23
HETATM   23  C   UNL     1      -6.020   1.639 -32.981  1.00  0.00     0.089 A 
HETATM   24  C   UNL     1      -6.257   0.256 -32.391  1.00  0.00     0.036 A 
HETATM   25  C   UNL     1      -7.414   1.190 -32.634  1.00  0.00     0.025 A 
BRANCH  24  26
HETATM   26  C   UNL     1      -5.983  -0.943 -33.265  1.00  0.00    -0.015 A 
HETATM   27  C   UNL     1      -4.676  -1.433 -33.421  1.00  0.00     0.123 A 
HETATM   28  F   UNL     1      -3.663  -0.804 -32.804  1.00  0.00    -0.206 F 
HETATM   29  C   UNL     1      -4.388  -2.551 -34.200  1.00  0.00     0.043 A 
HETATM   30  C   UNL     1      -5.419  -3.215 -34.857  1.00  0.00     0.003 A 
HETATM   31  C   UNL     1      -6.729  -2.757 -34.722  1.00  0.00     0.001 A 
HETATM   32  C   UNL     1      -7.006  -1.637 -33.931  1.00  0.00     0.011 A 
ENDBRANCH  24  26
ENDBRANCH  20  23
ENDBRANCH   2  19
TORSDOF 6
ENDMDL
MODEL 4
REMARK VINA RESULT:      -8.3      3.058     11.495
REMARK  6 active torsions:
REMARK  status: ('A' for Active; 'I' for Inactive)
REMARK    1  A    between atoms: O_2  and  C_3 
REMARK    2  A    between atoms: C_6  and  C_7 
REMARK    3  A    between atoms: C_11  and  C_12 
REMARK       I    between atoms: C_12  and  N_13 
REMARK    4  A    between atoms: N_13  and  N_14 
REMARK       I    between atoms: N_14  and  C_15 
REMARK    5  A    between atoms: C_15  and  C_16 
REMARK    6  A    between atoms: C_17  and  C_18 
ROOT
HETATM    1  C   UNL     1      -4.033   4.373 -31.722  1.00  0.00     0.288 C 
HETATM    2  N   UNL     1      -2.835   4.203 -31.062  1.00  0.00    -0.262 N 
HETATM    3  O   UNL     1      -4.564   5.477 -31.836  1.00  0.00    -0.264 OA
HETATM    4  H   UNL     1      -2.332   3.321 -31.015  1.00  0.00     0.190 HD
ENDROOT
BRANCH   1   5
HETATM    5  C   UNL     1      -4.625   3.178 -32.255  1.00  0.00     0.121 A 
HETATM    6  N   UNL     1      -5.961   3.107 -32.534  1.00  0.00    -0.272 N 
HETATM    7  N   UNL     1      -6.369   1.911 -32.977  1.00  0.00    -0.174 NA
HETATM    8  H   UNL     1      -6.646   3.849 -32.421  1.00  0.00     0.189 HD
HETATM    9  C   UNL     1      -5.255   1.161 -33.009  1.00  0.00     0.089 A 
HETATM   10  C   UNL     1      -4.136   1.927 -32.575  1.00  0.00     0.071 A 
BRANCH   9  11
HETATM   11  C   UNL     1      -5.289  -0.248 -33.417  1.00  0.00    -0.005 A 
HETATM   12  C   UNL     1      -6.452  -0.828 -33.936  1.00  0.00     0.016 A 
HETATM   13  C   UNL     1      -6.454  -2.166 -34.347  1.00  0.00     0.037 A 
HETATM   14  C   UNL     1      -5.300  -2.946 -34.253  1.00  0.00     0.068 A 
HETATM   15  C   UNL     1      -4.142  -2.381 -33.722  1.00  0.00     0.037 A 
HETATM   16  C   UNL     1      -4.140  -1.043 -33.306  1.00  0.00     0.016 A 
BRANCH  14  17
HETATM   17  O   UNL     1      -5.436  -4.230 -34.702  1.00  0.00    -0.356 OA
HETATM   18  C   UNL     1      -6.606  -4.522 -35.457  1.00  0.00     0.210 C 
ENDBRANCH  14  17
ENDBRANCH   9  11
ENDBRANCH   1   5
BRANCH   2  19
HETATM   19  N   UNL     1      -2.196   5.322 -30.527  1.00  0.00    -0.267 N 
HETATM   20  C   UNL     1      -0.863   5.521 -30.793  1.00  0.00     0.240 C 
HETATM   21  O   UNL     1      -0.178   4.774 -31.482  1.00  0.00    -0.271 OA
HETATM   22  H   UNL     1      -2.738   5.920 -29.904  1.00  0.00     0.190 HD
BRANCH  20  23
HETATM   23  C   UNL     1      -0.305   6.727 -30.140  1.00  0.00     0.089 A 
HETATM   24  C   UNL     1      -0.969   7.212 -28.859  1.00  0.00     0.036 A 
HETATM   25  C   UNL     1       0.436   6.669 -28.831  1.00  0.00     0.025 A 
BRANCH  24  26
HETATM   26  C   UNL     1      -1.275   8.685 -28.734  1.00  0.00    -0.015 A 
HETATM   27  C   UNL     1      -2.153   9.313 -29.632  1.00  0.00     0.123 A 
HETATM   28  F   UNL     1      -2.698   8.593 -30.626  1.00  0.00    -0.206 F 
HETATM   29  C   UNL     1      -2.478  10.664 -29.534  1.00  0.00     0.043 A 
HETATM   30  C   UNL     1      -1.919  11.433 -28.519  1.00  0.00     0.003 A 
HETATM   31  C   UNL     1      -1.044  10.840 -27.608  1.00  0.00     0.001 A 
HETATM   32  C   UNL     1      -0.732   9.481 -27.713  1.00  0.00     0.011 A 
ENDBRANCH  24  26
ENDBRANCH  20  23
ENDBRANCH   2  19
TORSDOF 6
ENDMDL
MODEL 5
REMARK VINA RESULT:      -8.2      1.749      2.302
REMARK  6 active torsions:
REMARK  status: ('A' for Active; 'I' for Inactive)
REMARK    1  A    between atoms: O_2  and  C_3 
REMARK    2  A    between atoms: C_6  and  C_7 
REMARK    3  A    between atoms: C_11  and  C_12 
REMARK       I    between atoms: C_12  and  N_13 
REMARK    4  A    between atoms: N_13  and  N_14 
REMARK       I    between atoms: N_14  and  C_15 
REMARK    5  A    between atoms: C_15  and  C_16 
REMARK    6  A    between atoms: C_17  and  C_18 
ROOT
HETATM    1  C   UNL     1      -3.506   3.686 -32.325  1.00  0.00     0.288 C 
HETATM    2  N   UNL     1      -4.716   3.806 -32.973  1.00  0.00    -0.262 N 
HETATM    3  O   UNL     1      -2.914   2.610 -32.245  1.00  0.00    -0.264 OA
HETATM    4  H   UNL     1      -5.195   4.690 -33.123  1.00  0.00     0.190 HD
ENDROOT
BRANCH   1   5
HETATM    5  C   UNL     1      -2.991   4.892 -31.739  1.00  0.00     0.121 A 
HETATM    6  N   UNL     1      -3.267   6.118 -32.274  1.00  0.00    -0.272 N 
HETATM    7  N   UNL     1      -2.673   7.140 -31.644  1.00  0.00    -0.174 NA
HETATM    8  H   UNL     1      -3.846   6.311 -33.086  1.00  0.00     0.189 HD
HETATM    9  C   UNL     1      -1.988   6.570 -30.639  1.00  0.00     0.089 A 
HETATM   10  C   UNL     1      -2.173   5.158 -30.658  1.00  0.00     0.071 A 
BRANCH   9  11
HETATM   11  C   UNL     1      -1.165   7.366 -29.722  1.00  0.00    -0.005 A 
HETATM   12  C   UNL     1      -1.712   8.418 -28.979  1.00  0.00     0.016 A 
HETATM   13  C   UNL     1      -0.916   9.145 -28.086  1.00  0.00     0.037 A 
HETATM   14  C   UNL     1       0.435   8.834 -27.914  1.00  0.00     0.068 A 
HETATM   15  C   UNL     1       0.991   7.798 -28.662  1.00  0.00     0.037 A 
HETATM   16  C   UNL     1       0.197   7.072 -29.559  1.00  0.00     0.016 A 
BRANCH  14  17
HETATM   17  O   UNL     1       1.092   9.612 -27.003  1.00  0.00    -0.356 OA
HETATM   18  C   UNL     1       1.423   9.001 -25.761  1.00  0.00     0.210 C 
ENDBRANCH  14  17
ENDBRANCH   9  11
ENDBRANCH   1   5
BRANCH   2  19
HETATM   19  N   UNL     1      -5.274   2.677 -33.574  1.00  0.00    -0.267 N 
HETATM   20  C   UNL     1      -6.555   2.308 -33.241  1.00  0.00     0.240 C 
HETATM   21  O   UNL     1      -7.260   2.908 -32.439  1.00  0.00    -0.271 OA
HETATM   22  H   UNL     1      -4.679   2.134 -34.199  1.00  0.00     0.190 HD
BRANCH  20  23
HETATM   23  C   UNL     1      -7.011   1.077 -33.928  1.00  0.00     0.089 A 
HETATM   24  C   UNL     1      -7.020  -0.219 -33.130  1.00  0.00     0.036 A 
HETATM   25  C   UNL     1      -8.313   0.400 -33.595  1.00  0.00     0.025 A 
BRANCH  24  26
HETATM   26  C   UNL     1      -6.430  -1.450 -33.773  1.00  0.00    -0.015 A 
HETATM   27  C   UNL     1      -5.038  -1.606 -33.879  1.00  0.00     0.123 A 
HETATM   28  F   UNL     1      -4.234  -0.630 -33.427  1.00  0.00    -0.206 F 
HETATM   29  C   UNL     1      -4.456  -2.738 -34.444  1.00  0.00     0.043 A 
HETATM   30  C   UNL     1      -5.269  -3.758 -34.928  1.00  0.00     0.003 A 
HETATM   31  C   UNL     1      -6.655  -3.638 -34.836  1.00  0.00     0.001 A 
HETATM   32  C   UNL     1      -7.227  -2.498 -34.260  1.00  0.00     0.011 A 
ENDBRANCH  24  26
ENDBRANCH  20  23
ENDBRANCH   2  19
TORSDOF 6
ENDMDL
MODEL 6
REMARK VINA RESULT:      -8.0      4.316     11.678
REMARK  6 active torsions:
REMARK  status: ('A' for Active; 'I' for Inactive)
REMARK    1  A    between atoms: O_2  and  C_3 
REMARK    2  A    between atoms: C_6  and  C_7 
REMARK    3  A    between atoms: C_11  and  C_12 
REMARK       I    between atoms: C_12  and  N_13 
REMARK    4  A    between atoms: N_13  and  N_14 
REMARK       I    between atoms: N_14  and  C_15 
REMARK    5  A    between atoms: C_15  and  C_16 
REMARK    6  A    between atoms: C_17  and  C_18 
ROOT
HETATM    1  C   UNL     1      -5.169   5.064 -32.749  1.00  0.00     0.288 C 
HETATM    2  N   UNL     1      -4.498   4.872 -31.561  1.00  0.00    -0.262 N 
HETATM    3  O   UNL     1      -4.849   5.947 -33.544  1.00  0.00    -0.264 OA
HETATM    4  H   UNL     1      -4.686   4.108 -30.918  1.00  0.00     0.190 HD
ENDROOT
BRANCH   1   5
HETATM    5  C   UNL     1      -6.271   4.176 -32.992  1.00  0.00     0.121 A 
HETATM    6  N   UNL     1      -6.123   2.819 -32.920  1.00  0.00    -0.272 N 
HETATM    7  N   UNL     1      -7.230   2.127 -33.221  1.00  0.00    -0.174 NA
HETATM    8  H   UNL     1      -5.275   2.312 -32.684  1.00  0.00     0.189 HD
HETATM    9  C   UNL     1      -8.155   3.063 -33.488  1.00  0.00     0.089 A 
HETATM   10  C   UNL     1      -7.594   4.364 -33.342  1.00  0.00     0.071 A 
BRANCH   9  11
HETATM   11  C   UNL     1      -9.517   2.702 -33.897  1.00  0.00    -0.005 A 
HETATM   12  C   UNL     1     -10.279   3.544 -34.715  1.00  0.00     0.016 A 
HETATM   13  C   UNL     1     -11.565   3.167 -35.119  1.00  0.00     0.037 A 
HETATM   14  C   UNL     1     -12.111   1.945 -34.720  1.00  0.00     0.068 A 
HETATM   15  C   UNL     1     -11.366   1.108 -33.893  1.00  0.00     0.037 A 
HETATM   16  C   UNL     1     -10.080   1.487 -33.484  1.00  0.00     0.016 A 
BRANCH  14  17
HETATM   17  O   UNL     1     -13.367   1.696 -35.197  1.00  0.00    -0.356 OA
HETATM   18  C   UNL     1     -14.242   0.967 -34.344  1.00  0.00     0.210 C 
ENDBRANCH  14  17
ENDBRANCH   9  11
ENDBRANCH   1   5
BRANCH   2  19
HETATM   19  N   UNL     1      -3.410   5.693 -31.262  1.00  0.00    -0.267 N 
HETATM   20  C   UNL     1      -2.138   5.200 -31.426  1.00  0.00     0.240 C 
HETATM   21  O   UNL     1      -1.880   4.070 -31.825  1.00  0.00    -0.271 OA
HETATM   22  H   UNL     1      -3.607   6.615 -30.874  1.00  0.00     0.190 HD
BRANCH  20  23
HETATM   23  C   UNL     1      -1.078   6.163 -31.045  1.00  0.00     0.089 A 
HETATM   24  C   UNL     1      -0.377   5.955 -29.710  1.00  0.00     0.036 A 
HETATM   25  C   UNL     1       0.379   5.788 -31.002  1.00  0.00     0.025 A 
BRANCH  24  26
HETATM   26  C   UNL     1      -0.198   7.153 -28.811  1.00  0.00    -0.015 A 
HETATM   27  C   UNL     1      -1.284   7.681 -28.094  1.00  0.00     0.123 A 
HETATM   28  F   UNL     1      -2.497   7.124 -28.241  1.00  0.00    -0.206 F 
HETATM   29  C   UNL     1      -1.152   8.771 -27.237  1.00  0.00     0.043 A 
HETATM   30  C   UNL     1       0.093   9.370 -27.075  1.00  0.00     0.003 A 
HETATM   31  C   UNL     1       1.194   8.870 -27.769  1.00  0.00     0.001 A 
HETATM   32  C   UNL     1       1.049   7.771 -28.623  1.00  0.00     0.011 A 
ENDBRANCH  24  26
ENDBRANCH  20  23
ENDBRANCH   2  19
TORSDOF 6
ENDMDL
MODEL 7
REMARK VINA RESULT:      -8.0      3.171     11.851
REMARK  6 active torsions:
REMARK  status: ('A' for Active; 'I' for Inactive)
REMARK    1  A    between atoms: O_2  and  C_3 
REMARK    2  A    between atoms: C_6  and  C_7 
REMARK    3  A    between atoms: C_11  and  C_12 
REMARK       I    between atoms: C_12  and  N_13 
REMARK    4  A    between atoms: N_13  and  N_14 
REMARK       I    between atoms: N_14  and  C_15 
REMARK    5  A    between atoms: C_15  and  C_16 
REMARK    6  A    between atoms: C_17  and  C_18 
ROOT
HETATM    1  C   UNL     1      -2.987   4.021 -31.401  1.00  0.00     0.288 C 
HETATM    2  N   UNL     1      -3.585   5.007 -30.645  1.00  0.00    -0.262 N 
HETATM    3  O   UNL     1      -1.787   4.046 -31.672  1.00  0.00    -0.264 OA
HETATM    4  H   UNL     1      -4.554   4.979 -30.340  1.00  0.00     0.190 HD
ENDROOT
BRANCH   1   5
HETATM    5  C   UNL     1      -3.856   2.975 -31.861  1.00  0.00     0.121 A 
HETATM    6  N   UNL     1      -5.158   2.898 -31.451  1.00  0.00    -0.272 N 
HETATM    7  N   UNL     1      -5.823   1.838 -31.929  1.00  0.00    -0.174 NA
HETATM    8  H   UNL     1      -5.638   3.540 -30.827  1.00  0.00     0.189 HD
HETATM    9  C   UNL     1      -4.932   1.194 -32.700  1.00  0.00     0.089 A 
HETATM   10  C   UNL     1      -3.687   1.886 -32.693  1.00  0.00     0.071 A 
BRANCH   9  11
HETATM   11  C   UNL     1      -5.273  -0.056 -33.387  1.00  0.00    -0.005 A 
HETATM   12  C   UNL     1      -4.367  -1.121 -33.452  1.00  0.00     0.016 A 
HETATM   13  C   UNL     1      -4.723  -2.317 -34.086  1.00  0.00     0.037 A 
HETATM   14  C   UNL     1      -5.986  -2.475 -34.661  1.00  0.00     0.068 A 
HETATM   15  C   UNL     1      -6.888  -1.414 -34.615  1.00  0.00     0.037 A 
HETATM   16  C   UNL     1      -6.531  -0.214 -33.985  1.00  0.00     0.016 A 
BRANCH  14  17
HETATM   17  O   UNL     1      -6.208  -3.695 -35.234  1.00  0.00    -0.356 OA
HETATM   18  C   UNL     1      -5.532  -4.805 -34.656  1.00  0.00     0.210 C 
ENDBRANCH  14  17
ENDBRANCH   9  11
ENDBRANCH   1   5
BRANCH   2  19
HETATM   19  N   UNL     1      -2.800   6.051 -30.156  1.00  0.00    -0.267 N 
HETATM   20  C   UNL     1      -3.307   6.861 -29.169  1.00  0.00     0.240 C 
HETATM   21  O   UNL     1      -4.421   6.733 -28.675  1.00  0.00    -0.271 OA
HETATM   22  H   UNL     1      -1.895   6.206 -30.598  1.00  0.00     0.190 HD
BRANCH  20  23
HETATM   23  C   UNL     1      -2.383   7.946 -28.764  1.00  0.00     0.089 A 
HETATM   24  C   UNL     1      -1.330   7.625 -27.712  1.00  0.00     0.036 A 
HETATM   25  C   UNL     1      -0.922   7.944 -29.128  1.00  0.00     0.025 A 
BRANCH  24  26
HETATM   26  C   UNL     1      -1.146   8.598 -26.574  1.00  0.00    -0.015 A 
HETATM   27  C   UNL     1      -1.871   8.450 -25.381  1.00  0.00     0.123 A 
HETATM   28  F   UNL     1      -2.755   7.445 -25.272  1.00  0.00    -0.206 F 
HETATM   29  C   UNL     1      -1.712   9.314 -24.300  1.00  0.00     0.043 A 
HETATM   30  C   UNL     1      -0.808  10.368 -24.391  1.00  0.00     0.003 A 
HETATM   31  C   UNL     1      -0.070  10.544 -25.561  1.00  0.00     0.001 A 
HETATM   32  C   UNL     1      -0.235   9.664 -26.637  1.00  0.00     0.011 A 
ENDBRANCH  24  26
ENDBRANCH  20  23
ENDBRANCH   2  19
TORSDOF 6
ENDMDL
MODEL 8
REMARK VINA RESULT:      -7.8      3.352     11.487
REMARK  6 active torsions:
REMARK  status: ('A' for Active; 'I' for Inactive)
REMARK    1  A    between atoms: O_2  and  C_3 
REMARK    2  A    between atoms: C_6  and  C_7 
REMARK    3  A    between atoms: C_11  and  C_12 
REMARK       I    between atoms: C_12  and  N_13 
REMARK    4  A    between atoms: N_13  and  N_14 
REMARK       I    between atoms: N_14  and  C_15 
REMARK    5  A    between atoms: C_15  and  C_16 
REMARK    6  A    between atoms: C_17  and  C_18 
ROOT
HETATM    1  C   UNL     1      -4.420   5.103 -31.322  1.00  0.00     0.288 C 
HETATM    2  N   UNL     1      -3.091   4.977 -30.980  1.00  0.00    -0.262 N 
HETATM    3  O   UNL     1      -5.109   6.042 -30.926  1.00  0.00    -0.264 OA
HETATM    4  H   UNL     1      -2.474   4.258 -31.348  1.00  0.00     0.190 HD
ENDROOT
BRANCH   1   5
HETATM    5  C   UNL     1      -4.948   4.061 -32.157  1.00  0.00     0.121 A 
HETATM    6  N   UNL     1      -5.793   4.339 -33.195  1.00  0.00    -0.272 N 
HETATM    7  N   UNL     1      -6.238   3.257 -33.848  1.00  0.00    -0.174 NA
HETATM    8  H   UNL     1      -6.113   5.257 -33.490  1.00  0.00     0.189 HD
HETATM    9  C   UNL     1      -5.652   2.219 -33.228  1.00  0.00     0.089 A 
HETATM   10  C   UNL     1      -4.823   2.686 -32.168  1.00  0.00     0.071 A 
BRANCH   9  11
HETATM   11  C   UNL     1      -5.915   0.835 -33.634  1.00  0.00    -0.005 A 
HETATM   12  C   UNL     1      -6.904   0.527 -34.575  1.00  0.00     0.016 A 
HETATM   13  C   UNL     1      -7.119  -0.798 -34.971  1.00  0.00     0.037 A 
HETATM   14  C   UNL     1      -6.349  -1.837 -34.442  1.00  0.00     0.068 A 
HETATM   15  C   UNL     1      -5.373  -1.541 -33.494  1.00  0.00     0.037 A 
HETATM   16  C   UNL     1      -5.161  -0.216 -33.093  1.00  0.00     0.016 A 
BRANCH  14  17
HETATM   17  O   UNL     1      -6.652  -3.079 -34.925  1.00  0.00    -0.356 OA
HETATM   18  C   UNL     1      -5.624  -4.060 -34.857  1.00  0.00     0.210 C 
ENDBRANCH  14  17
ENDBRANCH   9  11
ENDBRANCH   1   5
BRANCH   2  19
HETATM   19  N   UNL     1      -2.506   5.958 -30.177  1.00  0.00    -0.267 N 
HETATM   20  C   UNL     1      -1.198   6.313 -30.403  1.00  0.00     0.240 C 
HETATM   21  O   UNL     1      -0.491   5.823 -31.276  1.00  0.00    -0.271 OA
HETATM   22  H   UNL     1      -3.063   6.332 -29.410  1.00  0.00     0.190 HD
BRANCH  20  23
HETATM   23  C   UNL     1      -0.695   7.341 -29.463  1.00  0.00     0.089 A 
HETATM   24  C   UNL     1      -0.213   6.876 -28.095  1.00  0.00     0.036 A 
HETATM   25  C   UNL     1       0.759   7.455 -29.090  1.00  0.00     0.025 A 
BRANCH  24  26
HETATM   26  C   UNL     1      -0.686   7.638 -26.882  1.00  0.00    -0.015 A 
HETATM   27  C   UNL     1       0.179   8.512 -26.202  1.00  0.00     0.123 A 
HETATM   28  F   UNL     1       1.446   8.640 -26.627  1.00  0.00    -0.206 F 
HETATM   29  C   UNL     1      -0.228   9.251 -25.094  1.00  0.00     0.043 A 
HETATM   30  C   UNL     1      -1.534   9.127 -24.629  1.00  0.00     0.003 A 
HETATM   31  C   UNL     1      -2.420   8.271 -25.282  1.00  0.00     0.001 A 
HETATM   32  C   UNL     1      -2.000   7.540 -26.398  1.00  0.00     0.011 A 
ENDBRANCH  24  26
ENDBRANCH  20  23
ENDBRANCH   2  19
TORSDOF 6
ENDMDL
MODEL 9
REMARK VINA RESULT:      -7.8      3.881      5.247
REMARK  6 active torsions:
REMARK  status: ('A' for Active; 'I' for Inactive)
REMARK    1  A    between atoms: O_2  and  C_3 
REMARK    2  A    between atoms: C_6  and  C_7 
REMARK    3  A    between atoms: C_11  and  C_12 
REMARK       I    between atoms: C_12  and  N_13 
REMARK    4  A    between atoms: N_13  and  N_14 
REMARK       I    between atoms: N_14  and  C_15 
REMARK    5  A    between atoms: C_15  and  C_16 
REMARK    6  A    between atoms: C_17  and  C_18 
ROOT
HETATM    1  C   UNL     1      -5.421   3.507 -32.517  1.00  0.00     0.288 C 
HETATM    2  N   UNL     1      -6.325   3.348 -31.489  1.00  0.00    -0.262 N 
HETATM    3  O   UNL     1      -5.690   3.191 -33.676  1.00  0.00    -0.264 OA
HETATM    4  H   UNL     1      -6.164   3.667 -30.537  1.00  0.00     0.190 HD
ENDROOT
BRANCH   1   5
HETATM    5  C   UNL     1      -4.144   4.050 -32.146  1.00  0.00     0.121 A 
HETATM    6  N   UNL     1      -2.985   3.593 -32.707  1.00  0.00    -0.272 N 
HETATM    7  N   UNL     1      -1.875   4.165 -32.220  1.00  0.00    -0.174 NA
HETATM    8  H   UNL     1      -2.896   2.874 -33.419  1.00  0.00     0.189 HD
HETATM    9  C   UNL     1      -2.317   5.049 -31.311  1.00  0.00     0.089 A 
HETATM   10  C   UNL     1      -3.740   5.015 -31.245  1.00  0.00     0.071 A 
BRANCH   9  11
HETATM   11  C   UNL     1      -1.391   5.866 -30.521  1.00  0.00    -0.005 A 
HETATM   12  C   UNL     1      -0.112   5.404 -30.190  1.00  0.00     0.016 A 
HETATM   13  C   UNL     1       0.768   6.212 -29.461  1.00  0.00     0.037 A 
HETATM   14  C   UNL     1       0.393   7.495 -29.054  1.00  0.00     0.068 A 
HETATM   15  C   UNL     1      -0.884   7.957 -29.366  1.00  0.00     0.037 A 
HETATM   16  C   UNL     1      -1.768   7.147 -30.091  1.00  0.00     0.016 A 
BRANCH  14  17
HETATM   17  O   UNL     1       1.351   8.181 -28.364  1.00  0.00    -0.356 OA
HETATM   18  C   UNL     1       1.433   7.933 -26.965  1.00  0.00     0.210 C 
ENDBRANCH  14  17
ENDBRANCH   9  11
ENDBRANCH   1   5
BRANCH   2  19
HETATM   19  N   UNL     1      -7.590   2.834 -31.777  1.00  0.00    -0.267 N 
HETATM   20  C   UNL     1      -7.844   1.508 -31.525  1.00  0.00     0.240 C 
HETATM   21  O   UNL     1      -7.026   0.725 -31.056  1.00  0.00    -0.271 OA
HETATM   22  H   UNL     1      -8.262   3.459 -32.221  1.00  0.00     0.190 HD
BRANCH  20  23
HETATM   23  C   UNL     1      -9.213   1.087 -31.904  1.00  0.00     0.089 A 
HETATM   24  C   UNL     1      -9.505   0.871 -33.382  1.00  0.00     0.036 A 
HETATM   25  C   UNL     1      -9.522  -0.291 -32.424  1.00  0.00     0.025 A 
BRANCH  24  26
HETATM   26  C   UNL     1     -10.765   1.476 -33.950  1.00  0.00    -0.015 A 
HETATM   27  C   UNL     1     -10.739   2.731 -34.578  1.00  0.00     0.123 A 
HETATM   28  F   UNL     1      -9.579   3.406 -34.643  1.00  0.00    -0.206 F 
HETATM   29  C   UNL     1     -11.876   3.310 -35.135  1.00  0.00     0.043 A 
HETATM   30  C   UNL     1     -13.091   2.635 -35.072  1.00  0.00     0.003 A 
HETATM   31  C   UNL     1     -13.154   1.385 -34.458  1.00  0.00     0.001 A 
HETATM   32  C   UNL     1     -12.001   0.811 -33.908  1.00  0.00     0.011 A 
ENDBRANCH  24  26
ENDBRANCH  20  23
ENDBRANCH   2  19
TORSDOF 6
ENDMDL
MODEL 10
REMARK VINA RESULT:      -7.8      3.274     11.639
REMARK  6 active torsions:
REMARK  status: ('A' for Active; 'I' for Inactive)
REMARK    1  A    between atoms: O_2  and  C_3 
REMARK    2  A    between atoms: C_6  and  C_7 
REMARK    3  A    between atoms: C_11  and  C_12 
REMARK       I    between atoms: C_12  and  N_13 
REMARK    4  A    between atoms: N_13  and  N_14 
REMARK       I    between atoms: N_14  and  C_15 
REMARK    5  A    between atoms: C_15  and  C_16 
REMARK    6  A    between atoms: C_17  and  C_18 
ROOT
HETATM    1  C   UNL     1      -5.837   3.774 -32.693  1.00  0.00     0.288 C 
HETATM    2  N   UNL     1      -4.542   3.987 -32.271  1.00  0.00    -0.262 N 
HETATM    3  O   UNL     1      -6.696   4.653 -32.628  1.00  0.00    -0.264 OA
HETATM    4  H   UNL     1      -3.791   3.311 -32.378  1.00  0.00     0.190 HD
ENDROOT
BRANCH   1   5
HETATM    5  C   UNL     1      -6.119   2.460 -33.197  1.00  0.00     0.121 A 
HETATM    6  N   UNL     1      -7.353   2.134 -33.686  1.00  0.00    -0.272 N 
HETATM    7  N   UNL     1      -7.472   0.856 -34.072  1.00  0.00    -0.174 NA
HETATM    8  H   UNL     1      -8.159   2.747 -33.763  1.00  0.00     0.189 HD
HETATM    9  C   UNL     1      -6.263   0.316 -33.845  1.00  0.00     0.089 A 
HETATM   10  C   UNL     1      -5.382   1.297 -33.307  1.00  0.00     0.071 A 
BRANCH   9  11
HETATM   11  C   UNL     1      -5.992  -1.100 -34.113  1.00  0.00    -0.005 A 
HETATM   12  C   UNL     1      -4.724  -1.651 -33.897  1.00  0.00     0.016 A 
HETATM   13  C   UNL     1      -4.494  -3.012 -34.130  1.00  0.00     0.037 A 
HETATM   14  C   UNL     1      -5.521  -3.847 -34.575  1.00  0.00     0.068 A 
HETATM   15  C   UNL     1      -6.782  -3.303 -34.807  1.00  0.00     0.037 A 
HETATM   16  C   UNL     1      -7.013  -1.939 -34.579  1.00  0.00     0.016 A 
BRANCH  14  17
HETATM   17  O   UNL     1      -5.165  -5.155 -34.748  1.00  0.00    -0.356 OA
HETATM   18  C   UNL     1      -4.035  -5.612 -34.013  1.00  0.00     0.210 C 
ENDBRANCH  14  17
ENDBRANCH   9  11
ENDBRANCH   1   5
BRANCH   2  19
HETATM   19  N   UNL     1      -4.193   5.244 -31.777  1.00  0.00    -0.267 N 
HETATM   20  C   UNL     1      -3.029   5.832 -32.211  1.00  0.00     0.240 C 
HETATM   21  O   UNL     1      -2.257   5.324 -33.016  1.00  0.00    -0.271 OA
HETATM   22  H   UNL     1      -4.794   5.654 -31.063  1.00  0.00     0.190 HD
BRANCH  20  23
HETATM   23  C   UNL     1      -2.764   7.148 -31.586  1.00  0.00     0.089 A 
HETATM   24  C   UNL     1      -1.368   7.403 -31.032  1.00  0.00     0.036 A 
HETATM   25  C   UNL     1      -1.871   8.181 -32.221  1.00  0.00     0.025 A 
BRANCH  24  26
HETATM   26  C   UNL     1      -1.253   8.007 -29.655  1.00  0.00    -0.015 A 
HETATM   27  C   UNL     1      -0.609   7.311 -28.618  1.00  0.00     0.123 A 
HETATM   28  F   UNL     1      -0.119   6.084 -28.860  1.00  0.00    -0.206 F 
HETATM   29  C   UNL     1      -0.462   7.846 -27.341  1.00  0.00     0.043 A 
HETATM   30  C   UNL     1      -0.969   9.112 -27.064  1.00  0.00     0.003 A 
HETATM   31  C   UNL     1      -1.613   9.832 -28.070  1.00  0.00     0.001 A 
HETATM   32  C   UNL     1      -1.747   9.285 -29.351  1.00  0.00     0.011 A 
ENDBRANCH  24  26
ENDBRANCH  20  23
ENDBRANCH   2  19
TORSDOF 6
ENDMDL
