MODEL 1
REMARK VINA RESULT:      -9.1      0.000      0.000
REMARK  7 active torsions:
REMARK  status: ('A' for Active; 'I' for Inactive)
REMARK    1  A    between atoms: C_4  and  N_5 
REMARK    2  A    between atoms: N_5  and  C_6 
REMARK    3  A    between atoms: C_6  and  C_7 
REMARK    4  A    between atoms: C_7  and  N_8 
REMARK       I    between atoms: N_8  and  C_9 
REMARK    5  A    between atoms: C_9  and  C_10 
REMARK       I    between atoms: C_10  and  N_11 
REMARK    6  A    between atoms: N_11  and  C_12 
REMARK    7  A    between atoms: N_15  and  C_16 
ROOT
HETATM    1  C   UNL     1      -2.584   3.933 -32.260  1.00  0.00     0.314 C 
HETATM    2  N   UNL     1      -3.163   2.906 -31.557  1.00  0.00    -0.313 N 
HETATM    3  O   UNL     1      -2.600   4.154 -33.462  1.00  0.00    -0.262 OA
HETATM    4  H   UNL     1      -3.012   2.938 -30.545  1.00  0.00     0.169 HD
ENDROOT
BRANCH   1   5
HETATM    5  C   UNL     1      -1.846   4.930 -31.337  1.00  0.00     0.309 C 
HETATM    6  N   UNL     1      -0.476   4.822 -31.387  1.00  0.00    -0.351 N 
HETATM    7  H   UNL     1      -0.098   4.086 -31.980  1.00  0.00     0.162 HD
HETATM    8  O   UNL     1      -2.483   5.731 -30.670  1.00  0.00    -0.262 OA
BRANCH   6   9
HETATM    9  C   UNL     1       0.407   5.714 -30.667  1.00  0.00     0.142 C 
BRANCH   9  10
HETATM   10  C   UNL     1       0.750   5.224 -29.250  1.00  0.00     0.139 C 
BRANCH  10  11
HETATM   11  N   UNL     1      -0.149   5.841 -28.275  1.00  0.00    -0.388 N 
HETATM   12  H   UNL     1      -1.137   5.713 -28.486  1.00  0.00     0.159 HD
BRANCH  11  13
HETATM   13  C   UNL     1       0.100   7.132 -27.801  1.00  0.00     0.028 A 
HETATM   14  C   UNL     1      -0.769   8.215 -27.981  1.00  0.00     0.035 A 
HETATM   15  C   UNL     1      -0.436   9.508 -27.541  1.00  0.00    -0.060 A 
HETATM   16  C   UNL     1      -1.394  10.649 -27.704  1.00  0.00     0.048 C 
HETATM   17  C   UNL     1       0.804   9.725 -26.931  1.00  0.00     0.007 A 
HETATM   18  C   UNL     1       1.701   8.672 -26.784  1.00  0.00     0.003 A 
HETATM   19  C   UNL     1       1.354   7.394 -27.228  1.00  0.00     0.029 A 
ENDBRANCH  11  13
ENDBRANCH  10  11
ENDBRANCH   9  10
ENDBRANCH   6   9
ENDBRANCH   1   5
BRANCH   2  20
HETATM   20  C   UNL     1      -3.912   1.847 -31.989  1.00  0.00     0.124 A 
HETATM   21  C   UNL     1      -3.426   0.456 -31.709  1.00  0.00     0.291 A 
HETATM   22  O   UNL     1      -2.366   0.241 -31.137  1.00  0.00    -0.264 OA
HETATM   23  N   UNL     1      -4.356  -0.415 -32.278  1.00  0.00    -0.234 N 
HETATM   24  N   UNL     1      -5.420   0.345 -32.841  1.00  0.00    -0.193 NA
HETATM   25  C   UNL     1      -6.754  -0.089 -32.385  1.00  0.00     0.143 C 
HETATM   26  C   UNL     1      -5.067   1.700 -32.661  1.00  0.00     0.037 A 
HETATM   27  C   UNL     1      -5.964   2.772 -33.190  1.00  0.00     0.066 C 
BRANCH  23  28
HETATM   28  C   UNL     1      -4.094  -1.751 -32.680  1.00  0.00     0.055 A 
HETATM   29  C   UNL     1      -3.347  -2.613 -31.866  1.00  0.00     0.031 A 
HETATM   30  C   UNL     1      -3.088  -3.931 -32.258  1.00  0.00     0.002 A 
HETATM   31  C   UNL     1      -3.566  -4.405 -33.475  1.00  0.00     0.000 A 
HETATM   32  C   UNL     1      -4.301  -3.562 -34.303  1.00  0.00     0.002 A 
HETATM   33  C   UNL     1      -4.563  -2.246 -33.907  1.00  0.00     0.031 A 
ENDBRANCH  23  28
ENDBRANCH   2  20
TORSDOF 7
ENDMDL
MODEL 2
REMARK VINA RESULT:      -9.0      6.290      9.522
REMARK  7 active torsions:
REMARK  status: ('A' for Active; 'I' for Inactive)
REMARK    1  A    between atoms: C_4  and  N_5 
REMARK    2  A    between atoms: N_5  and  C_6 
REMARK    3  A    between atoms: C_6  and  C_7 
REMARK    4  A    between atoms: C_7  and  N_8 
REMARK       I    between atoms: N_8  and  C_9 
REMARK    5  A    between atoms: C_9  and  C_10 
REMARK       I    between atoms: C_10  and  N_11 
REMARK    6  A    between atoms: N_11  and  C_12 
REMARK    7  A    between atoms: N_15  and  C_16 
ROOT
HETATM    1  C   UNL     1      -7.558   4.395 -33.000  1.00  0.00     0.314 C 
HETATM    2  N   UNL     1      -7.822   3.074 -33.261  1.00  0.00    -0.313 N 
HETATM    3  O   UNL     1      -6.639   4.890 -32.363  1.00  0.00    -0.262 OA
HETATM    4  H   UNL     1      -8.658   2.905 -33.828  1.00  0.00     0.169 HD
ENDROOT
BRANCH   1   5
HETATM    5  C   UNL     1      -8.593   5.338 -33.655  1.00  0.00     0.309 C 
HETATM    6  N   UNL     1      -9.308   4.754 -34.675  1.00  0.00    -0.351 N 
HETATM    7  H   UNL     1      -9.060   3.797 -34.915  1.00  0.00     0.162 HD
HETATM    8  O   UNL     1      -8.728   6.479 -33.240  1.00  0.00    -0.262 OA
BRANCH   6   9
HETATM    9  C   UNL     1     -10.383   5.433 -35.366  1.00  0.00     0.142 C 
BRANCH   9  10
HETATM   10  C   UNL     1     -11.713   4.661 -35.337  1.00  0.00     0.139 C 
BRANCH  10  11
HETATM   11  N   UNL     1     -11.511   3.295 -35.817  1.00  0.00    -0.388 N 
HETATM   12  H   UNL     1     -11.870   3.130 -36.755  1.00  0.00     0.159 HD
BRANCH  11  13
HETATM   13  C   UNL     1     -11.770   2.205 -34.980  1.00  0.00     0.028 A 
HETATM   14  C   UNL     1     -10.789   1.536 -34.238  1.00  0.00     0.035 A 
HETATM   15  C   UNL     1     -11.097   0.403 -33.464  1.00  0.00    -0.060 A 
HETATM   16  C   UNL     1     -10.044  -0.278 -32.642  1.00  0.00     0.048 C 
HETATM   17  C   UNL     1     -12.408  -0.083 -33.454  1.00  0.00     0.007 A 
HETATM   18  C   UNL     1     -13.387   0.538 -34.222  1.00  0.00     0.003 A 
HETATM   19  C   UNL     1     -13.064   1.662 -34.985  1.00  0.00     0.029 A 
ENDBRANCH  11  13
ENDBRANCH  10  11
ENDBRANCH   9  10
ENDBRANCH   6   9
ENDBRANCH   1   5
BRANCH   2  20
HETATM   20  C   UNL     1      -7.147   1.944 -32.891  1.00  0.00     0.124 A 
HETATM   21  C   UNL     1      -6.689   0.994 -33.957  1.00  0.00     0.291 A 
HETATM   22  O   UNL     1      -6.929   1.183 -35.141  1.00  0.00    -0.264 OA
HETATM   23  N   UNL     1      -6.063  -0.069 -33.305  1.00  0.00    -0.234 N 
HETATM   24  N   UNL     1      -6.050   0.188 -31.905  1.00  0.00    -0.193 NA
HETATM   25  C   UNL     1      -4.711   0.069 -31.300  1.00  0.00     0.143 C 
HETATM   26  C   UNL     1      -6.752   1.400 -31.726  1.00  0.00     0.037 A 
HETATM   27  C   UNL     1      -6.961   1.936 -30.347  1.00  0.00     0.066 C 
BRANCH  23  28
HETATM   28  C   UNL     1      -5.910  -1.380 -33.827  1.00  0.00     0.055 A 
HETATM   29  C   UNL     1      -4.637  -1.937 -34.006  1.00  0.00     0.031 A 
HETATM   30  C   UNL     1      -4.480  -3.230 -34.519  1.00  0.00     0.002 A 
HETATM   31  C   UNL     1      -5.597  -3.982 -34.868  1.00  0.00     0.000 A 
HETATM   32  C   UNL     1      -6.870  -3.444 -34.707  1.00  0.00     0.002 A 
HETATM   33  C   UNL     1      -7.023  -2.153 -34.190  1.00  0.00     0.031 A 
ENDBRANCH  23  28
ENDBRANCH   2  20
TORSDOF 7
ENDMDL
MODEL 3
REMARK VINA RESULT:      -8.9      2.611      9.850
REMARK  7 active torsions:
REMARK  status: ('A' for Active; 'I' for Inactive)
REMARK    1  A    between atoms: C_4  and  N_5 
REMARK    2  A    between atoms: N_5  and  C_6 
REMARK    3  A    between atoms: C_6  and  C_7 
REMARK    4  A    between atoms: C_7  and  N_8 
REMARK       I    between atoms: N_8  and  C_9 
REMARK    5  A    between atoms: C_9  and  C_10 
REMARK       I    between atoms: C_10  and  N_11 
REMARK    6  A    between atoms: N_11  and  C_12 
REMARK    7  A    between atoms: N_15  and  C_16 
ROOT
HETATM    1  C   UNL     1      -6.152   2.462 -30.836  1.00  0.00     0.314 C 
HETATM    2  N   UNL     1      -5.451   2.769 -31.975  1.00  0.00    -0.313 N 
HETATM    3  O   UNL     1      -6.211   3.069 -29.777  1.00  0.00    -0.262 OA
HETATM    4  H   UNL     1      -5.565   2.102 -32.744  1.00  0.00     0.169 HD
ENDROOT
BRANCH   1   5
HETATM    5  C   UNL     1      -6.984   1.169 -30.992  1.00  0.00     0.309 C 
HETATM    6  N   UNL     1      -8.149   1.341 -31.702  1.00  0.00    -0.351 N 
HETATM    7  H   UNL     1      -8.360   2.289 -32.009  1.00  0.00     0.162 HD
HETATM    8  O   UNL     1      -6.573   0.118 -30.524  1.00  0.00    -0.262 OA
BRANCH   6   9
HETATM    9  C   UNL     1      -9.034   0.245 -32.036  1.00  0.00     0.142 C 
BRANCH   9  10
HETATM   10  C   UNL     1      -8.988  -0.148 -33.522  1.00  0.00     0.139 C 
BRANCH  10  11
HETATM   11  N   UNL     1      -7.664   0.136 -34.075  1.00  0.00    -0.388 N 
HETATM   12  H   UNL     1      -7.679   0.745 -34.889  1.00  0.00     0.159 HD
BRANCH  11  13
HETATM   13  C   UNL     1      -6.728  -0.891 -34.233  1.00  0.00     0.028 A 
HETATM   14  C   UNL     1      -7.044  -2.174 -34.699  1.00  0.00     0.035 A 
HETATM   15  C   UNL     1      -6.073  -3.188 -34.775  1.00  0.00    -0.060 A 
HETATM   16  C   UNL     1      -6.417  -4.545 -35.314  1.00  0.00     0.048 C 
HETATM   17  C   UNL     1      -4.768  -2.920 -34.352  1.00  0.00     0.007 A 
HETATM   18  C   UNL     1      -4.445  -1.667 -33.842  1.00  0.00     0.003 A 
HETATM   19  C   UNL     1      -5.421  -0.671 -33.773  1.00  0.00     0.029 A 
ENDBRANCH  11  13
ENDBRANCH  10  11
ENDBRANCH   9  10
ENDBRANCH   6   9
ENDBRANCH   1   5
BRANCH   2  20
HETATM   20  C   UNL     1      -4.627   3.824 -32.254  1.00  0.00     0.124 A 
HETATM   21  C   UNL     1      -3.234   3.819 -31.699  1.00  0.00     0.291 A 
HETATM   22  O   UNL     1      -2.824   2.918 -30.981  1.00  0.00    -0.264 OA
HETATM   23  N   UNL     1      -2.635   5.011 -32.109  1.00  0.00    -0.234 N 
HETATM   24  N   UNL     1      -3.547   5.729 -32.934  1.00  0.00    -0.193 NA
HETATM   25  C   UNL     1      -2.971   6.133 -34.229  1.00  0.00     0.143 C 
HETATM   26  C   UNL     1      -4.738   4.971 -32.946  1.00  0.00     0.037 A 
HETATM   27  C   UNL     1      -5.927   5.479 -33.695  1.00  0.00     0.066 C 
BRANCH  23  28
HETATM   28  C   UNL     1      -1.547   5.651 -31.461  1.00  0.00     0.055 A 
HETATM   29  C   UNL     1      -0.231   5.216 -31.667  1.00  0.00     0.031 A 
HETATM   30  C   UNL     1       0.845   5.845 -31.032  1.00  0.00     0.002 A 
HETATM   31  C   UNL     1       0.620   6.916 -30.173  1.00  0.00     0.000 A 
HETATM   32  C   UNL     1      -0.680   7.358 -29.947  1.00  0.00     0.002 A 
HETATM   33  C   UNL     1      -1.754   6.730 -30.587  1.00  0.00     0.031 A 
ENDBRANCH  23  28
ENDBRANCH   2  20
TORSDOF 7
ENDMDL
MODEL 4
REMARK VINA RESULT:      -8.8      6.189      9.601
REMARK  7 active torsions:
REMARK  status: ('A' for Active; 'I' for Inactive)
REMARK    1  A    between atoms: C_4  and  N_5 
REMARK    2  A    between atoms: N_5  and  C_6 
REMARK    3  A    between atoms: C_6  and  C_7 
REMARK    4  A    between atoms: C_7  and  N_8 
REMARK       I    between atoms: N_8  and  C_9 
REMARK    5  A    between atoms: C_9  and  C_10 
REMARK       I    between atoms: C_10  and  N_11 
REMARK    6  A    between atoms: N_11  and  C_12 
REMARK    7  A    between atoms: N_15  and  C_16 
ROOT
HETATM    1  C   UNL     1      -7.545   4.332 -32.661  1.00  0.00     0.314 C 
HETATM    2  N   UNL     1      -7.805   3.011 -32.924  1.00  0.00    -0.313 N 
HETATM    3  O   UNL     1      -6.582   4.834 -32.099  1.00  0.00    -0.262 OA
HETATM    4  H   UNL     1      -8.686   2.835 -33.418  1.00  0.00     0.169 HD
ENDROOT
BRANCH   1   5
HETATM    5  C   UNL     1      -8.653   5.266 -33.201  1.00  0.00     0.309 C 
HETATM    6  N   UNL     1      -9.078   4.945 -34.469  1.00  0.00    -0.351 N 
HETATM    7  H   UNL     1      -8.602   4.171 -34.927  1.00  0.00     0.162 HD
HETATM    8  O   UNL     1      -9.083   6.171 -32.502  1.00  0.00    -0.262 OA
BRANCH   6   9
HETATM    9  C   UNL     1     -10.164   5.638 -35.130  1.00  0.00     0.142 C 
BRANCH   9  10
HETATM   10  C   UNL     1     -11.413   4.764 -35.333  1.00  0.00     0.139 C 
BRANCH  10  11
HETATM   11  N   UNL     1     -11.019   3.399 -35.678  1.00  0.00    -0.388 N 
HETATM   12  H   UNL     1     -10.947   3.231 -36.680  1.00  0.00     0.159 HD
BRANCH  11  13
HETATM   13  C   UNL     1     -11.603   2.308 -35.027  1.00  0.00     0.028 A 
HETATM   14  C   UNL     1     -12.977   2.036 -35.032  1.00  0.00     0.035 A 
HETATM   15  C   UNL     1     -13.516   0.961 -34.303  1.00  0.00    -0.060 A 
HETATM   16  C   UNL     1     -14.984   0.657 -34.351  1.00  0.00     0.048 C 
HETATM   17  C   UNL     1     -12.666   0.159 -33.535  1.00  0.00     0.007 A 
HETATM   18  C   UNL     1     -11.306   0.441 -33.480  1.00  0.00     0.003 A 
HETATM   19  C   UNL     1     -10.786   1.513 -34.209  1.00  0.00     0.029 A 
ENDBRANCH  11  13
ENDBRANCH  10  11
ENDBRANCH   9  10
ENDBRANCH   6   9
ENDBRANCH   1   5
BRANCH   2  20
HETATM   20  C   UNL     1      -7.078   1.889 -32.640  1.00  0.00     0.124 A 
HETATM   21  C   UNL     1      -6.685   0.978 -33.765  1.00  0.00     0.291 A 
HETATM   22  O   UNL     1      -7.023   1.191 -34.921  1.00  0.00    -0.264 OA
HETATM   23  N   UNL     1      -5.986  -0.086 -33.194  1.00  0.00    -0.234 N 
HETATM   24  N   UNL     1      -5.867   0.136 -31.793  1.00  0.00    -0.193 NA
HETATM   25  C   UNL     1      -4.481   0.035 -31.300  1.00  0.00     0.143 C 
HETATM   26  C   UNL     1      -6.580   1.325 -31.526  1.00  0.00     0.037 A 
HETATM   27  C   UNL     1      -6.690   1.820 -30.120  1.00  0.00     0.066 C 
BRANCH  23  28
HETATM   28  C   UNL     1      -5.845  -1.378 -33.763  1.00  0.00     0.055 A 
HETATM   29  C   UNL     1      -4.576  -1.932 -33.983  1.00  0.00     0.031 A 
HETATM   30  C   UNL     1      -4.433  -3.207 -34.541  1.00  0.00     0.002 A 
HETATM   31  C   UNL     1      -5.557  -3.945 -34.896  1.00  0.00     0.000 A 
HETATM   32  C   UNL     1      -6.826  -3.410 -34.694  1.00  0.00     0.002 A 
HETATM   33  C   UNL     1      -6.967  -2.137 -34.132  1.00  0.00     0.031 A 
ENDBRANCH  23  28
ENDBRANCH   2  20
TORSDOF 7
ENDMDL
MODEL 5
REMARK VINA RESULT:      -8.8      1.670      2.278
REMARK  7 active torsions:
REMARK  status: ('A' for Active; 'I' for Inactive)
REMARK    1  A    between atoms: C_4  and  N_5 
REMARK    2  A    between atoms: N_5  and  C_6 
REMARK    3  A    between atoms: C_6  and  C_7 
REMARK    4  A    between atoms: C_7  and  N_8 
REMARK       I    between atoms: N_8  and  C_9 
REMARK    5  A    between atoms: C_9  and  C_10 
REMARK       I    between atoms: C_10  and  N_11 
REMARK    6  A    between atoms: N_11  and  C_12 
REMARK    7  A    between atoms: N_15  and  C_16 
ROOT
HETATM    1  C   UNL     1      -3.259   4.001 -32.777  1.00  0.00     0.314 C 
HETATM    2  N   UNL     1      -3.329   2.809 -32.101  1.00  0.00    -0.313 N 
HETATM    3  O   UNL     1      -4.049   4.486 -33.575  1.00  0.00    -0.262 OA
HETATM    4  H   UNL     1      -2.539   2.622 -31.475  1.00  0.00     0.169 HD
ENDROOT
BRANCH   1   5
HETATM    5  C   UNL     1      -1.992   4.809 -32.411  1.00  0.00     0.309 C 
HETATM    6  N   UNL     1      -1.920   6.036 -33.028  1.00  0.00    -0.351 N 
HETATM    7  H   UNL     1      -2.669   6.264 -33.678  1.00  0.00     0.162 HD
HETATM    8  O   UNL     1      -1.182   4.349 -31.620  1.00  0.00    -0.262 OA
BRANCH   6   9
HETATM    9  C   UNL     1      -0.861   6.986 -32.761  1.00  0.00     0.142 C 
BRANCH   9  10
HETATM   10  C   UNL     1      -0.877   7.534 -31.324  1.00  0.00     0.139 C 
BRANCH  10  11
HETATM   11  N   UNL     1       0.330   7.114 -30.614  1.00  0.00    -0.388 N 
HETATM   12  H   UNL     1       0.731   6.244 -30.960  1.00  0.00     0.159 HD
BRANCH  11  13
HETATM   13  C   UNL     1       0.387   7.173 -29.218  1.00  0.00     0.028 A 
HETATM   14  C   UNL     1       1.186   8.074 -28.503  1.00  0.00     0.035 A 
HETATM   15  C   UNL     1       1.254   8.043 -27.100  1.00  0.00    -0.060 A 
HETATM   16  C   UNL     1       2.082   9.041 -26.346  1.00  0.00     0.048 C 
HETATM   17  C   UNL     1       0.527   7.075 -26.400  1.00  0.00     0.007 A 
HETATM   18  C   UNL     1      -0.236   6.141 -27.093  1.00  0.00     0.003 A 
HETATM   19  C   UNL     1      -0.292   6.185 -28.488  1.00  0.00     0.029 A 
ENDBRANCH  11  13
ENDBRANCH  10  11
ENDBRANCH   9  10
ENDBRANCH   6   9
ENDBRANCH   1   5
BRANCH   2  20
HETATM   20  C   UNL     1      -4.283   1.831 -32.122  1.00  0.00     0.124 A 
HETATM   21  C   UNL     1      -3.913   0.471 -32.635  1.00  0.00     0.291 A 
HETATM   22  O   UNL     1      -2.795   0.221 -33.063  1.00  0.00    -0.264 OA
HETATM   23  N   UNL     1      -5.068  -0.309 -32.571  1.00  0.00    -0.234 N 
HETATM   24  N   UNL     1      -6.118   0.461 -31.995  1.00  0.00    -0.193 NA
HETATM   25  C   UNL     1      -6.780  -0.207 -30.860  1.00  0.00     0.143 C 
HETATM   26  C   UNL     1      -5.582   1.750 -31.784  1.00  0.00     0.037 A 
HETATM   27  C   UNL     1      -6.453   2.829 -31.225  1.00  0.00     0.066 C 
BRANCH  23  28
HETATM   28  C   UNL     1      -5.329  -1.460 -33.360  1.00  0.00     0.055 A 
HETATM   29  C   UNL     1      -6.584  -1.655 -33.951  1.00  0.00     0.031 A 
HETATM   30  C   UNL     1      -6.845  -2.787 -34.732  1.00  0.00     0.002 A 
HETATM   31  C   UNL     1      -5.856  -3.745 -34.926  1.00  0.00     0.000 A 
HETATM   32  C   UNL     1      -4.605  -3.574 -34.340  1.00  0.00     0.002 A 
HETATM   33  C   UNL     1      -4.345  -2.440 -33.564  1.00  0.00     0.031 A 
ENDBRANCH  23  28
ENDBRANCH   2  20
TORSDOF 7
ENDMDL
MODEL 6
REMARK VINA RESULT:      -8.7      2.205      3.096
REMARK  7 active torsions:
REMARK  status: ('A' for Active; 'I' for Inactive)
REMARK    1  A    between atoms: C_4  and  N_5 
REMARK    2  A    between atoms: N_5  and  C_6 
REMARK    3  A    between atoms: C_6  and  C_7 
REMARK    4  A    between atoms: C_7  and  N_8 
REMARK       I    between atoms: N_8  and  C_9 
REMARK    5  A    between atoms: C_9  and  C_10 
REMARK       I    between atoms: C_10  and  N_11 
REMARK    6  A    between atoms: N_11  and  C_12 
REMARK    7  A    between atoms: N_15  and  C_16 
ROOT
HETATM    1  C   UNL     1      -2.654   5.882 -33.067  1.00  0.00     0.314 C 
HETATM    2  N   UNL     1      -3.307   4.930 -32.324  1.00  0.00    -0.313 N 
HETATM    3  O   UNL     1      -2.986   6.403 -34.122  1.00  0.00    -0.262 OA
HETATM    4  H   UNL     1      -2.826   4.651 -31.464  1.00  0.00     0.169 HD
ENDROOT
BRANCH   1   5
HETATM    5  C   UNL     1      -1.332   6.335 -32.406  1.00  0.00     0.309 C 
HETATM    6  N   UNL     1      -0.652   5.320 -31.773  1.00  0.00    -0.351 N 
HETATM    7  H   UNL     1      -1.100   4.405 -31.769  1.00  0.00     0.162 HD
HETATM    8  O   UNL     1      -0.970   7.498 -32.497  1.00  0.00    -0.262 OA
BRANCH   6   9
HETATM    9  C   UNL     1       0.646   5.507 -31.162  1.00  0.00     0.142 C 
BRANCH   9  10
HETATM   10  C   UNL     1       0.758   4.889 -29.759  1.00  0.00     0.139 C 
BRANCH  10  11
HETATM   11  N   UNL     1      -0.210   5.513 -28.858  1.00  0.00    -0.388 N 
HETATM   12  H   UNL     1      -1.176   5.431 -29.168  1.00  0.00     0.159 HD
BRANCH  11  13
HETATM   13  C   UNL     1       0.038   6.780 -28.320  1.00  0.00     0.028 A 
HETATM   14  C   UNL     1       1.030   7.047 -27.369  1.00  0.00     0.035 A 
HETATM   15  C   UNL     1       1.191   8.329 -26.814  1.00  0.00    -0.060 A 
HETATM   16  C   UNL     1       2.285   8.610 -25.826  1.00  0.00     0.048 C 
HETATM   17  C   UNL     1       0.325   9.356 -27.201  1.00  0.00     0.007 A 
HETATM   18  C   UNL     1      -0.696   9.100 -28.109  1.00  0.00     0.003 A 
HETATM   19  C   UNL     1      -0.842   7.822 -28.651  1.00  0.00     0.029 A 
ENDBRANCH  11  13
ENDBRANCH  10  11
ENDBRANCH   9  10
ENDBRANCH   6   9
ENDBRANCH   1   5
BRANCH   2  20
HETATM   20  C   UNL     1      -4.498   4.297 -32.543  1.00  0.00     0.124 A 
HETATM   21  C   UNL     1      -4.520   2.798 -32.599  1.00  0.00     0.291 A 
HETATM   22  O   UNL     1      -3.502   2.130 -32.488  1.00  0.00    -0.264 OA
HETATM   23  N   UNL     1      -5.839   2.426 -32.859  1.00  0.00    -0.234 N 
HETATM   24  N   UNL     1      -6.650   3.595 -32.909  1.00  0.00    -0.193 NA
HETATM   25  C   UNL     1      -7.833   3.525 -32.031  1.00  0.00     0.143 C 
HETATM   26  C   UNL     1      -5.768   4.686 -32.746  1.00  0.00     0.037 A 
HETATM   27  C   UNL     1      -6.304   6.081 -32.796  1.00  0.00     0.066 C 
BRANCH  23  28
HETATM   28  C   UNL     1      -6.248   1.205 -33.456  1.00  0.00     0.055 A 
HETATM   29  C   UNL     1      -6.804   1.185 -34.742  1.00  0.00     0.031 A 
HETATM   30  C   UNL     1      -7.206  -0.016 -35.336  1.00  0.00     0.002 A 
HETATM   31  C   UNL     1      -7.066  -1.217 -34.647  1.00  0.00     0.000 A 
HETATM   32  C   UNL     1      -6.524  -1.218 -33.365  1.00  0.00     0.002 A 
HETATM   33  C   UNL     1      -6.119  -0.016 -32.776  1.00  0.00     0.031 A 
ENDBRANCH  23  28
ENDBRANCH   2  20
TORSDOF 7
ENDMDL
MODEL 7
REMARK VINA RESULT:      -8.7      2.468     10.478
REMARK  7 active torsions:
REMARK  status: ('A' for Active; 'I' for Inactive)
REMARK    1  A    between atoms: C_4  and  N_5 
REMARK    2  A    between atoms: N_5  and  C_6 
REMARK    3  A    between atoms: C_6  and  C_7 
REMARK    4  A    between atoms: C_7  and  N_8 
REMARK       I    between atoms: N_8  and  C_9 
REMARK    5  A    between atoms: C_9  and  C_10 
REMARK       I    between atoms: C_10  and  N_11 
REMARK    6  A    between atoms: N_11  and  C_12 
REMARK    7  A    between atoms: N_15  and  C_16 
ROOT
HETATM    1  C   UNL     1      -5.146   4.316 -33.571  1.00  0.00     0.314 C 
HETATM    2  N   UNL     1      -4.361   4.432 -32.452  1.00  0.00    -0.313 N 
HETATM    3  O   UNL     1      -5.131   4.978 -34.600  1.00  0.00    -0.262 OA
HETATM    4  H   UNL     1      -4.562   3.751 -31.713  1.00  0.00     0.169 HD
ENDROOT
BRANCH   1   5
HETATM    5  C   UNL     1      -6.154   3.148 -33.462  1.00  0.00     0.309 C 
HETATM    6  N   UNL     1      -6.688   2.993 -32.204  1.00  0.00    -0.351 N 
HETATM    7  H   UNL     1      -6.342   3.622 -31.481  1.00  0.00     0.162 HD
HETATM    8  O   UNL     1      -6.424   2.480 -34.448  1.00  0.00    -0.262 OA
BRANCH   6   9
HETATM    9  C   UNL     1      -7.711   2.015 -31.902  1.00  0.00     0.142 C 
BRANCH   9  10
HETATM   10  C   UNL     1      -7.177   0.575 -31.823  1.00  0.00     0.139 C 
BRANCH  10  11
HETATM   11  N   UNL     1      -7.512  -0.151 -33.047  1.00  0.00    -0.388 N 
HETATM   12  H   UNL     1      -8.467  -0.502 -33.071  1.00  0.00     0.159 HD
BRANCH  11  13
HETATM   13  C   UNL     1      -6.619  -1.086 -33.580  1.00  0.00     0.028 A 
HETATM   14  C   UNL     1      -7.012  -2.261 -34.233  1.00  0.00     0.035 A 
HETATM   15  C   UNL     1      -6.070  -3.199 -34.691  1.00  0.00    -0.060 A 
HETATM   16  C   UNL     1      -6.504  -4.433 -35.425  1.00  0.00     0.048 C 
HETATM   17  C   UNL     1      -4.710  -2.967 -34.469  1.00  0.00     0.007 A 
HETATM   18  C   UNL     1      -4.301  -1.829 -33.781  1.00  0.00     0.003 A 
HETATM   19  C   UNL     1      -5.250  -0.908 -33.332  1.00  0.00     0.029 A 
ENDBRANCH  11  13
ENDBRANCH  10  11
ENDBRANCH   9  10
ENDBRANCH   6   9
ENDBRANCH   1   5
BRANCH   2  20
HETATM   20  C   UNL     1      -3.350   5.305 -32.163  1.00  0.00     0.124 A 
HETATM   21  C   UNL     1      -3.452   6.144 -30.924  1.00  0.00     0.291 A 
HETATM   22  O   UNL     1      -4.424   6.094 -30.184  1.00  0.00    -0.264 OA
HETATM   23  N   UNL     1      -2.314   6.952 -30.893  1.00  0.00    -0.234 N 
HETATM   24  N   UNL     1      -1.483   6.627 -32.002  1.00  0.00    -0.193 NA
HETATM   25  C   UNL     1      -0.090   6.332 -31.622  1.00  0.00     0.143 C 
HETATM   26  C   UNL     1      -2.188   5.653 -32.742  1.00  0.00     0.037 A 
HETATM   27  C   UNL     1      -1.602   5.125 -34.012  1.00  0.00     0.066 C 
BRANCH  23  28
HETATM   28  C   UNL     1      -2.205   8.193 -30.213  1.00  0.00     0.055 A 
HETATM   29  C   UNL     1      -1.689   8.255 -28.911  1.00  0.00     0.031 A 
HETATM   30  C   UNL     1      -1.577   9.476 -28.237  1.00  0.00     0.002 A 
HETATM   31  C   UNL     1      -1.987  10.654 -28.853  1.00  0.00     0.000 A 
HETATM   32  C   UNL     1      -2.511  10.613 -30.142  1.00  0.00     0.002 A 
HETATM   33  C   UNL     1      -2.617   9.391 -30.815  1.00  0.00     0.031 A 
ENDBRANCH  23  28
ENDBRANCH   2  20
TORSDOF 7
ENDMDL
MODEL 8
REMARK VINA RESULT:      -8.7      1.980      3.029
REMARK  7 active torsions:
REMARK  status: ('A' for Active; 'I' for Inactive)
REMARK    1  A    between atoms: C_4  and  N_5 
REMARK    2  A    between atoms: N_5  and  C_6 
REMARK    3  A    between atoms: C_6  and  C_7 
REMARK    4  A    between atoms: C_7  and  N_8 
REMARK       I    between atoms: N_8  and  C_9 
REMARK    5  A    between atoms: C_9  and  C_10 
REMARK       I    between atoms: C_10  and  N_11 
REMARK    6  A    between atoms: N_11  and  C_12 
REMARK    7  A    between atoms: N_15  and  C_16 
ROOT
HETATM    1  C   UNL     1      -2.041   4.917 -31.946  1.00  0.00     0.314 C 
HETATM    2  N   UNL     1      -2.817   4.160 -31.106  1.00  0.00    -0.313 N 
HETATM    3  O   UNL     1      -2.242   5.235 -33.110  1.00  0.00    -0.262 OA
HETATM    4  H   UNL     1      -2.436   4.034 -30.164  1.00  0.00     0.169 HD
ENDROOT
BRANCH   1   5
HETATM    5  C   UNL     1      -0.758   5.432 -31.253  1.00  0.00     0.309 C 
HETATM    6  N   UNL     1      -0.474   4.794 -30.068  1.00  0.00    -0.351 N 
HETATM    7  H   UNL     1      -1.144   4.094 -29.756  1.00  0.00     0.162 HD
HETATM    8  O   UNL     1      -0.091   6.310 -31.778  1.00  0.00    -0.262 OA
BRANCH   6   9
HETATM    9  C   UNL     1       0.723   5.062 -29.301  1.00  0.00     0.142 C 
BRANCH   9  10
HETATM   10  C   UNL     1       0.482   5.983 -28.093  1.00  0.00     0.139 C 
BRANCH  10  11
HETATM   11  N   UNL     1       0.777   7.369 -28.453  1.00  0.00    -0.388 N 
HETATM   12  H   UNL     1       1.408   7.464 -29.245  1.00  0.00     0.159 HD
BRANCH  11  13
HETATM   13  C   UNL     1       1.070   8.310 -27.461  1.00  0.00     0.028 A 
HETATM   14  C   UNL     1       1.922   8.066 -26.376  1.00  0.00     0.035 A 
HETATM   15  C   UNL     1       2.128   9.028 -25.372  1.00  0.00    -0.060 A 
HETATM   16  C   UNL     1       3.075   8.768 -24.238  1.00  0.00     0.048 C 
HETATM   17  C   UNL     1       1.449  10.248 -25.443  1.00  0.00     0.007 A 
HETATM   18  C   UNL     1       0.563  10.492 -26.487  1.00  0.00     0.003 A 
HETATM   19  C   UNL     1       0.369   9.526 -27.476  1.00  0.00     0.029 A 
ENDBRANCH  11  13
ENDBRANCH  10  11
ENDBRANCH   9  10
ENDBRANCH   6   9
ENDBRANCH   1   5
BRANCH   2  20
HETATM   20  C   UNL     1      -4.022   3.550 -31.319  1.00  0.00     0.124 A 
HETATM   21  C   UNL     1      -4.041   2.196 -31.965  1.00  0.00     0.291 A 
HETATM   22  O   UNL     1      -3.018   1.638 -32.334  1.00  0.00    -0.264 OA
HETATM   23  N   UNL     1      -5.382   1.829 -32.085  1.00  0.00    -0.234 N 
HETATM   24  N   UNL     1      -6.195   2.842 -31.501  1.00  0.00    -0.193 NA
HETATM   25  C   UNL     1      -7.155   2.322 -30.509  1.00  0.00     0.143 C 
HETATM   26  C   UNL     1      -5.309   3.863 -31.093  1.00  0.00     0.037 A 
HETATM   27  C   UNL     1      -5.855   5.109 -30.474  1.00  0.00     0.066 C 
BRANCH  23  28
HETATM   28  C   UNL     1      -5.901   0.902 -33.026  1.00  0.00     0.055 A 
HETATM   29  C   UNL     1      -6.520   1.345 -34.203  1.00  0.00     0.031 A 
HETATM   30  C   UNL     1      -7.030   0.435 -35.135  1.00  0.00     0.002 A 
HETATM   31  C   UNL     1      -6.937  -0.933 -34.900  1.00  0.00     0.000 A 
HETATM   32  C   UNL     1      -6.334  -1.393 -33.733  1.00  0.00     0.002 A 
HETATM   33  C   UNL     1      -5.820  -0.481 -32.805  1.00  0.00     0.031 A 
ENDBRANCH  23  28
ENDBRANCH   2  20
TORSDOF 7
ENDMDL
MODEL 9
REMARK VINA RESULT:      -8.6      2.110      3.001
REMARK  7 active torsions:
REMARK  status: ('A' for Active; 'I' for Inactive)
REMARK    1  A    between atoms: C_4  and  N_5 
REMARK    2  A    between atoms: N_5  and  C_6 
REMARK    3  A    between atoms: C_6  and  C_7 
REMARK    4  A    between atoms: C_7  and  N_8 
REMARK       I    between atoms: N_8  and  C_9 
REMARK    5  A    between atoms: C_9  and  C_10 
REMARK       I    between atoms: C_10  and  N_11 
REMARK    6  A    between atoms: N_11  and  C_12 
REMARK    7  A    between atoms: N_15  and  C_16 
ROOT
HETATM    1  C   UNL     1      -2.011   4.882 -31.956  1.00  0.00     0.314 C 
HETATM    2  N   UNL     1      -2.783   4.099 -31.134  1.00  0.00    -0.313 N 
HETATM    3  O   UNL     1      -2.226   5.247 -33.102  1.00  0.00    -0.262 OA
HETATM    4  H   UNL     1      -2.388   3.932 -30.204  1.00  0.00     0.169 HD
ENDROOT
BRANCH   1   5
HETATM    5  C   UNL     1      -0.713   5.356 -31.262  1.00  0.00     0.309 C 
HETATM    6  N   UNL     1      -0.448   4.707 -30.078  1.00  0.00    -0.351 N 
HETATM    7  H   UNL     1      -1.138   4.027 -29.767  1.00  0.00     0.162 HD
HETATM    8  O   UNL     1      -0.020   6.216 -31.785  1.00  0.00    -0.262 OA
BRANCH   6   9
HETATM    9  C   UNL     1       0.757   4.938 -29.311  1.00  0.00     0.142 C 
BRANCH   9  10
HETATM   10  C   UNL     1       0.648   6.130 -28.345  1.00  0.00     0.139 C 
BRANCH  10  11
HETATM   11  N   UNL     1      -0.324   5.835 -27.292  1.00  0.00    -0.388 N 
HETATM   12  H   UNL     1      -1.028   5.152 -27.561  1.00  0.00     0.159 HD
BRANCH  11  13
HETATM   13  C   UNL     1      -0.888   6.870 -26.540  1.00  0.00     0.028 A 
HETATM   14  C   UNL     1      -0.208   8.040 -26.183  1.00  0.00     0.035 A 
HETATM   15  C   UNL     1      -0.804   9.018 -25.368  1.00  0.00    -0.060 A 
HETATM   16  C   UNL     1      -0.078  10.285 -25.027  1.00  0.00     0.048 C 
HETATM   17  C   UNL     1      -2.098   8.808 -24.882  1.00  0.00     0.007 A 
HETATM   18  C   UNL     1      -2.773   7.631 -25.186  1.00  0.00     0.003 A 
HETATM   19  C   UNL     1      -2.166   6.669 -25.997  1.00  0.00     0.029 A 
ENDBRANCH  11  13
ENDBRANCH  10  11
ENDBRANCH   9  10
ENDBRANCH   6   9
ENDBRANCH   1   5
BRANCH   2  20
HETATM   20  C   UNL     1      -3.995   3.508 -31.354  1.00  0.00     0.124 A 
HETATM   21  C   UNL     1      -4.033   2.146 -31.981  1.00  0.00     0.291 A 
HETATM   22  O   UNL     1      -3.016   1.565 -32.331  1.00  0.00    -0.264 OA
HETATM   23  N   UNL     1      -5.380   1.803 -32.112  1.00  0.00    -0.234 N 
HETATM   24  N   UNL     1      -6.180   2.839 -31.552  1.00  0.00    -0.193 NA
HETATM   25  C   UNL     1      -7.161   2.351 -30.565  1.00  0.00     0.143 C 
HETATM   26  C   UNL     1      -5.280   3.848 -31.148  1.00  0.00     0.037 A 
HETATM   27  C   UNL     1      -5.809   5.113 -30.551  1.00  0.00     0.066 C 
BRANCH  23  28
HETATM   28  C   UNL     1      -5.905   0.874 -33.048  1.00  0.00     0.055 A 
HETATM   29  C   UNL     1      -6.562   1.313 -34.205  1.00  0.00     0.031 A 
HETATM   30  C   UNL     1      -7.079   0.400 -35.131  1.00  0.00     0.002 A 
HETATM   31  C   UNL     1      -6.954  -0.967 -34.909  1.00  0.00     0.000 A 
HETATM   32  C   UNL     1      -6.313  -1.424 -33.761  1.00  0.00     0.002 A 
HETATM   33  C   UNL     1      -5.792  -0.510 -32.840  1.00  0.00     0.031 A 
ENDBRANCH  23  28
ENDBRANCH   2  20
TORSDOF 7
ENDMDL
MODEL 10
REMARK VINA RESULT:      -8.4      1.336      2.068
REMARK  7 active torsions:
REMARK  status: ('A' for Active; 'I' for Inactive)
REMARK    1  A    between atoms: C_4  and  N_5 
REMARK    2  A    between atoms: N_5  and  C_6 
REMARK    3  A    between atoms: C_6  and  C_7 
REMARK    4  A    between atoms: C_7  and  N_8 
REMARK       I    between atoms: N_8  and  C_9 
REMARK    5  A    between atoms: C_9  and  C_10 
REMARK       I    between atoms: C_10  and  N_11 
REMARK    6  A    between atoms: N_11  and  C_12 
REMARK    7  A    between atoms: N_15  and  C_16 
ROOT
HETATM    1  C   UNL     1      -2.430   3.942 -32.081  1.00  0.00     0.314 C 
HETATM    2  N   UNL     1      -3.058   2.967 -31.349  1.00  0.00    -0.313 N 
HETATM    3  O   UNL     1      -2.413   4.111 -33.292  1.00  0.00    -0.262 OA
HETATM    4  H   UNL     1      -2.929   3.039 -30.335  1.00  0.00     0.169 HD
ENDROOT
BRANCH   1   5
HETATM    5  C   UNL     1      -1.678   4.954 -31.186  1.00  0.00     0.309 C 
HETATM    6  N   UNL     1      -2.437   6.042 -30.820  1.00  0.00    -0.351 N 
HETATM    7  H   UNL     1      -3.379   6.089 -31.202  1.00  0.00     0.162 HD
HETATM    8  O   UNL     1      -0.525   4.733 -30.849  1.00  0.00    -0.262 OA
BRANCH   6   9
HETATM    9  C   UNL     1      -1.955   7.065 -29.918  1.00  0.00     0.142 C 
BRANCH   9  10
HETATM   10  C   UNL     1      -2.701   7.096 -28.573  1.00  0.00     0.139 C 
BRANCH  10  11
HETATM   11  N   UNL     1      -1.811   6.664 -27.496  1.00  0.00    -0.388 N 
HETATM   12  H   UNL     1      -2.197   5.924 -26.914  1.00  0.00     0.159 HD
BRANCH  11  13
HETATM   13  C   UNL     1      -1.127   7.607 -26.723  1.00  0.00     0.028 A 
HETATM   14  C   UNL     1       0.261   7.609 -26.536  1.00  0.00     0.035 A 
HETATM   15  C   UNL     1       0.888   8.543 -25.694  1.00  0.00    -0.060 A 
HETATM   16  C   UNL     1       2.380   8.559 -25.535  1.00  0.00     0.048 C 
HETATM   17  C   UNL     1       0.108   9.477 -25.005  1.00  0.00     0.007 A 
HETATM   18  C   UNL     1      -1.276   9.462 -25.141  1.00  0.00     0.003 A 
HETATM   19  C   UNL     1      -1.884   8.527 -25.982  1.00  0.00     0.029 A 
ENDBRANCH  11  13
ENDBRANCH  10  11
ENDBRANCH   9  10
ENDBRANCH   6   9
ENDBRANCH   1   5
BRANCH   2  20
HETATM   20  C   UNL     1      -3.834   1.916 -31.751  1.00  0.00     0.124 A 
HETATM   21  C   UNL     1      -3.322   0.521 -31.551  1.00  0.00     0.291 A 
HETATM   22  O   UNL     1      -2.220   0.297 -31.070  1.00  0.00    -0.264 OA
HETATM   23  N   UNL     1      -4.290  -0.340 -32.070  1.00  0.00    -0.234 N 
HETATM   24  N   UNL     1      -5.398   0.429 -32.527  1.00  0.00    -0.193 NA
HETATM   25  C   UNL     1      -6.690  -0.027 -31.981  1.00  0.00     0.143 C 
HETATM   26  C   UNL     1      -5.037   1.780 -32.335  1.00  0.00     0.037 A 
HETATM   27  C   UNL     1      -5.978   2.861 -32.761  1.00  0.00     0.066 C 
BRANCH  23  28
HETATM   28  C   UNL     1      -4.054  -1.661 -32.531  1.00  0.00     0.055 A 
HETATM   29  C   UNL     1      -4.552  -2.090 -33.768  1.00  0.00     0.031 A 
HETATM   30  C   UNL     1      -4.320  -3.391 -34.228  1.00  0.00     0.002 A 
HETATM   31  C   UNL     1      -3.592  -4.287 -33.451  1.00  0.00     0.000 A 
HETATM   32  C   UNL     1      -3.097  -3.884 -32.215  1.00  0.00     0.002 A 
HETATM   33  C   UNL     1      -3.326  -2.581 -31.760  1.00  0.00     0.031 A 
ENDBRANCH  23  28
ENDBRANCH   2  20
TORSDOF 7
ENDMDL
