MODEL 1
REMARK VINA RESULT:      -9.5      0.000      0.000
REMARK  9 active torsions:
REMARK  status: ('A' for Active; 'I' for Inactive)
REMARK    1  A    between atoms: C_7  and  C_8 
REMARK    2  A    between atoms: C_9  and  O_10 
REMARK    3  A    between atoms: C_13  and  N_14 
REMARK    4  A    between atoms: N_14  and  C_15 
REMARK    5  A    between atoms: C_15  and  N_16 
REMARK       I    between atoms: N_16  and  C_17 
REMARK    6  A    between atoms: C_17  and  C_18 
REMARK    7  A    between atoms: C_21  and  O_22 
REMARK    8  A    between atoms: O_22  and  C_23 
REMARK    9  A    between atoms: C_23  and  C_24 
ROOT
HETATM    1  C   UNL     1      -8.090   1.838 -32.464  1.00  0.00     0.052 A 
HETATM    2  C   UNL     1      -9.003   1.751 -31.403  1.00  0.00     0.080 A 
HETATM    3  C   UNL     1      -9.544   2.899 -30.829  1.00  0.00     0.040 A 
HETATM    4  C   UNL     1      -9.157   4.161 -31.288  1.00  0.00     0.032 A 
HETATM    5  C   UNL     1      -8.252   4.279 -32.345  1.00  0.00     0.035 A 
HETATM    6  C   UNL     1      -7.726   3.117 -32.924  1.00  0.00     0.048 A 
ENDROOT
BRANCH   5   7
HETATM    7  N   UNL     1      -7.819   5.576 -32.705  1.00  0.00    -0.337 N 
HETATM    8  H   UNL     1      -8.443   6.101 -33.308  1.00  0.00     0.168 HD
BRANCH   7   9
HETATM    9  C   UNL     1      -6.633   6.191 -32.383  1.00  0.00     0.157 C 
HETATM   10  S   UNL     1      -6.179   6.731 -30.863  1.00  0.00    -0.047 SA
BRANCH   9  11
HETATM   11  N   UNL     1      -5.731   6.362 -33.411  1.00  0.00    -0.201 NA
HETATM   12  C   UNL     1      -4.980   5.315 -33.895  1.00  0.00     0.237 C 
HETATM   13  O   UNL     1      -5.324   4.654 -34.866  1.00  0.00    -0.274 OA
HETATM   14  H   UNL     1      -6.251   6.797 -34.166  1.00  0.00     0.139 HD
BRANCH  12  15
HETATM   15  C   UNL     1      -3.661   5.085 -33.258  1.00  0.00     0.026 A 
HETATM   16  C   UNL     1      -2.590   5.919 -33.594  1.00  0.00     0.019 A 
HETATM   17  C   UNL     1      -1.368   5.797 -32.922  1.00  0.00     0.038 A 
HETATM   18  C   UNL     1      -1.225   4.866 -31.893  1.00  0.00     0.068 A 
HETATM   19  C   UNL     1      -2.290   4.015 -31.581  1.00  0.00     0.038 A 
HETATM   20  C   UNL     1      -3.508   4.118 -32.260  1.00  0.00     0.019 A 
BRANCH  18  21
HETATM   21  O   UNL     1      -0.110   4.694 -31.119  1.00  0.00    -0.351 OA
BRANCH  21  22
HETATM   22  C   UNL     1       0.509   5.880 -30.611  1.00  0.00     0.179 C 
BRANCH  22  23
HETATM   23  C   UNL     1      -0.249   6.343 -29.356  1.00  0.00     0.002 C 
HETATM   24  C   UNL     1       0.666   6.293 -28.134  1.00  0.00     0.011 C 
HETATM   25  C   UNL     1      -0.809   7.756 -29.538  1.00  0.00     0.011 C 
ENDBRANCH  22  23
ENDBRANCH  21  22
ENDBRANCH  18  21
ENDBRANCH  12  15
ENDBRANCH   9  11
ENDBRANCH   7   9
ENDBRANCH   5   7
BRANCH   1  26
HETATM   26  C   UNL     1      -7.485   0.638 -33.032  1.00  0.00     0.183 A 
HETATM   27  O   UNL     1      -6.129   0.501 -32.907  1.00  0.00    -0.288 OA
HETATM   28  C   UNL     1      -5.861  -0.711 -33.474  1.00  0.00     0.112 A 
HETATM   29  C   UNL     1      -7.063  -1.242 -33.911  1.00  0.00     0.094 A 
HETATM   30  C   UNL     1      -4.617  -1.332 -33.591  1.00  0.00    -0.025 A 
HETATM   31  C   UNL     1      -7.073  -2.517 -34.492  1.00  0.00     0.041 A 
HETATM   32  N   UNL     1      -8.088  -0.358 -33.661  1.00  0.00    -0.221 NA
HETATM   33  C   UNL     1      -5.855  -3.210 -34.612  1.00  0.00    -0.059 A 
HETATM   34  C   UNL     1      -5.830  -4.606 -35.167  1.00  0.00     0.048 C 
HETATM   35  C   UNL     1      -4.658  -2.618 -34.166  1.00  0.00     0.016 A 
HETATM   36  C   UNL     1      -3.332  -0.732 -33.124  1.00  0.00     0.051 C 
ENDBRANCH   1  26
BRANCH   2  37
HETATM   37  O   UNL     1      -9.401   0.556 -30.861  1.00  0.00    -0.360 OA
HETATM   38  H   UNL     1      -9.306   0.610 -29.886  1.00  0.00     0.217 HD
ENDBRANCH   2  37
TORSDOF 9
ENDMDL
MODEL 2
REMARK VINA RESULT:      -9.4      2.592      5.325
REMARK  9 active torsions:
REMARK  status: ('A' for Active; 'I' for Inactive)
REMARK    1  A    between atoms: C_7  and  C_8 
REMARK    2  A    between atoms: C_9  and  O_10 
REMARK    3  A    between atoms: C_13  and  N_14 
REMARK    4  A    between atoms: N_14  and  C_15 
REMARK    5  A    between atoms: C_15  and  N_16 
REMARK       I    between atoms: N_16  and  C_17 
REMARK    6  A    between atoms: C_17  and  C_18 
REMARK    7  A    between atoms: C_21  and  O_22 
REMARK    8  A    between atoms: O_22  and  C_23 
REMARK    9  A    between atoms: C_23  and  C_24 
ROOT
HETATM    1  C   UNL     1      -4.822   1.399 -32.016  1.00  0.00     0.052 A 
HETATM    2  C   UNL     1      -5.887   1.906 -31.258  1.00  0.00     0.080 A 
HETATM    3  C   UNL     1      -5.754   3.092 -30.541  1.00  0.00     0.040 A 
HETATM    4  C   UNL     1      -4.537   3.779 -30.544  1.00  0.00     0.032 A 
HETATM    5  C   UNL     1      -3.459   3.300 -31.292  1.00  0.00     0.035 A 
HETATM    6  C   UNL     1      -3.611   2.114 -32.022  1.00  0.00     0.048 A 
ENDROOT
BRANCH   5   7
HETATM    7  N   UNL     1      -2.223   3.978 -31.182  1.00  0.00    -0.337 N 
HETATM    8  H   UNL     1      -1.651   3.729 -30.382  1.00  0.00     0.168 HD
BRANCH   7   9
HETATM    9  C   UNL     1      -1.728   4.969 -31.994  1.00  0.00     0.157 C 
HETATM   10  S   UNL     1      -0.637   6.160 -31.548  1.00  0.00    -0.047 SA
BRANCH   9  11
HETATM   11  N   UNL     1      -2.163   4.968 -33.302  1.00  0.00    -0.201 NA
HETATM   12  C   UNL     1      -3.023   5.932 -33.778  1.00  0.00     0.237 C 
HETATM   13  O   UNL     1      -2.627   6.940 -34.349  1.00  0.00    -0.274 OA
HETATM   14  H   UNL     1      -1.324   4.936 -33.873  1.00  0.00     0.139 HD
BRANCH  12  15
HETATM   15  C   UNL     1      -4.474   5.646 -33.674  1.00  0.00     0.026 A 
HETATM   16  C   UNL     1      -4.998   4.538 -34.348  1.00  0.00     0.019 A 
HETATM   17  C   UNL     1      -6.339   4.180 -34.173  1.00  0.00     0.038 A 
HETATM   18  C   UNL     1      -7.149   4.907 -33.300  1.00  0.00     0.068 A 
HETATM   19  C   UNL     1      -6.628   6.030 -32.651  1.00  0.00     0.038 A 
HETATM   20  C   UNL     1      -5.294   6.406 -32.835  1.00  0.00     0.019 A 
BRANCH  18  21
HETATM   21  O   UNL     1      -8.452   4.621 -32.993  1.00  0.00    -0.351 OA
BRANCH  21  22
HETATM   22  C   UNL     1      -9.192   3.876 -33.963  1.00  0.00     0.179 C 
BRANCH  22  23
HETATM   23  C   UNL     1      -9.555   2.503 -33.374  1.00  0.00     0.002 C 
HETATM   24  C   UNL     1     -11.070   2.366 -33.238  1.00  0.00     0.011 C 
HETATM   25  C   UNL     1      -8.997   1.366 -34.235  1.00  0.00     0.011 C 
ENDBRANCH  22  23
ENDBRANCH  21  22
ENDBRANCH  18  21
ENDBRANCH  12  15
ENDBRANCH   9  11
ENDBRANCH   7   9
ENDBRANCH   5   7
BRANCH   1  26
HETATM   26  C   UNL     1      -4.945   0.130 -32.727  1.00  0.00     0.183 A 
HETATM   27  O   UNL     1      -4.142  -0.899 -32.316  1.00  0.00    -0.288 OA
HETATM   28  C   UNL     1      -4.506  -1.946 -33.113  1.00  0.00     0.112 A 
HETATM   29  C   UNL     1      -5.506  -1.498 -33.960  1.00  0.00     0.094 A 
HETATM   30  C   UNL     1      -3.993  -3.243 -33.088  1.00  0.00    -0.025 A 
HETATM   31  C   UNL     1      -6.095  -2.401 -34.854  1.00  0.00     0.041 A 
HETATM   32  N   UNL     1      -5.752  -0.164 -33.735  1.00  0.00    -0.221 NA
HETATM   33  C   UNL     1      -5.644  -3.733 -34.859  1.00  0.00    -0.059 A 
HETATM   34  C   UNL     1      -6.295  -4.750 -35.754  1.00  0.00     0.048 C 
HETATM   35  C   UNL     1      -4.613  -4.133 -33.987  1.00  0.00     0.016 A 
HETATM   36  C   UNL     1      -2.904  -3.698 -32.174  1.00  0.00     0.051 C 
ENDBRANCH   1  26
BRANCH   2  37
HETATM   37  O   UNL     1      -7.099   1.272 -31.161  1.00  0.00    -0.360 OA
HETATM   38  H   UNL     1      -7.794   1.949 -31.015  1.00  0.00     0.217 HD
ENDBRANCH   2  37
TORSDOF 9
ENDMDL
MODEL 3
REMARK VINA RESULT:      -9.3      2.352      3.409
REMARK  9 active torsions:
REMARK  status: ('A' for Active; 'I' for Inactive)
REMARK    1  A    between atoms: C_7  and  C_8 
REMARK    2  A    between atoms: C_9  and  O_10 
REMARK    3  A    between atoms: C_13  and  N_14 
REMARK    4  A    between atoms: N_14  and  C_15 
REMARK    5  A    between atoms: C_15  and  N_16 
REMARK       I    between atoms: N_16  and  C_17 
REMARK    6  A    between atoms: C_17  and  C_18 
REMARK    7  A    between atoms: C_21  and  O_22 
REMARK    8  A    between atoms: O_22  and  C_23 
REMARK    9  A    between atoms: C_23  and  C_24 
ROOT
HETATM    1  C   UNL     1      -7.740   1.554 -31.525  1.00  0.00     0.052 A 
HETATM    2  C   UNL     1      -6.973   2.047 -30.460  1.00  0.00     0.080 A 
HETATM    3  C   UNL     1      -7.403   3.143 -29.715  1.00  0.00     0.040 A 
HETATM    4  C   UNL     1      -8.599   3.786 -30.044  1.00  0.00     0.032 A 
HETATM    5  C   UNL     1      -9.386   3.316 -31.098  1.00  0.00     0.035 A 
HETATM    6  C   UNL     1      -8.950   2.204 -31.829  1.00  0.00     0.048 A 
ENDROOT
BRANCH   5   7
HETATM    7  N   UNL     1     -10.535   4.061 -31.451  1.00  0.00    -0.337 N 
HETATM    8  H   UNL     1     -11.206   4.221 -30.707  1.00  0.00     0.168 HD
BRANCH   7   9
HETATM    9  C   UNL     1     -10.879   4.547 -32.689  1.00  0.00     0.157 C 
HETATM   10  S   UNL     1     -12.080   3.944 -33.690  1.00  0.00    -0.047 SA
BRANCH   9  11
HETATM   11  N   UNL     1     -10.176   5.645 -33.136  1.00  0.00    -0.201 NA
HETATM   12  C   UNL     1      -9.181   5.529 -34.081  1.00  0.00     0.237 C 
HETATM   13  O   UNL     1      -9.388   5.698 -35.276  1.00  0.00    -0.274 OA
HETATM   14  H   UNL     1     -10.873   6.315 -33.445  1.00  0.00     0.139 HD
BRANCH  12  15
HETATM   15  C   UNL     1      -7.804   5.302 -33.581  1.00  0.00     0.026 A 
HETATM   16  C   UNL     1      -7.312   6.113 -32.554  1.00  0.00     0.019 A 
HETATM   17  C   UNL     1      -6.062   5.846 -31.985  1.00  0.00     0.038 A 
HETATM   18  C   UNL     1      -5.316   4.748 -32.419  1.00  0.00     0.068 A 
HETATM   19  C   UNL     1      -5.800   3.958 -33.466  1.00  0.00     0.038 A 
HETATM   20  C   UNL     1      -7.040   4.230 -34.052  1.00  0.00     0.019 A 
BRANCH  18  21
HETATM   21  O   UNL     1      -4.116   4.343 -31.902  1.00  0.00    -0.351 OA
BRANCH  21  22
HETATM   22  C   UNL     1      -3.127   3.907 -32.839  1.00  0.00     0.179 C 
BRANCH  22  23
HETATM   23  C   UNL     1      -2.264   5.108 -33.254  1.00  0.00     0.002 C 
HETATM   24  C   UNL     1      -0.984   5.157 -32.421  1.00  0.00     0.011 C 
HETATM   25  C   UNL     1      -1.921   5.054 -34.745  1.00  0.00     0.011 C 
ENDBRANCH  22  23
ENDBRANCH  21  22
ENDBRANCH  18  21
ENDBRANCH  12  15
ENDBRANCH   9  11
ENDBRANCH   7   9
ENDBRANCH   5   7
BRANCH   1  26
HETATM   26  C   UNL     1      -7.265   0.438 -32.337  1.00  0.00     0.183 A 
HETATM   27  O   UNL     1      -5.918   0.197 -32.343  1.00  0.00    -0.288 OA
HETATM   28  C   UNL     1      -5.780  -0.910 -33.130  1.00  0.00     0.112 A 
HETATM   29  C   UNL     1      -7.045  -1.279 -33.557  1.00  0.00     0.094 A 
HETATM   30  C   UNL     1      -4.597  -1.577 -33.448  1.00  0.00    -0.025 A 
HETATM   31  C   UNL     1      -7.189  -2.427 -34.346  1.00  0.00     0.041 A 
HETATM   32  N   UNL     1      -7.981  -0.391 -33.079  1.00  0.00    -0.221 NA
HETATM   33  C   UNL     1      -6.037  -3.163 -34.678  1.00  0.00    -0.059 A 
HETATM   34  C   UNL     1      -6.154  -4.437 -35.466  1.00  0.00     0.048 C 
HETATM   35  C   UNL     1      -4.772  -2.736 -34.231  1.00  0.00     0.016 A 
HETATM   36  C   UNL     1      -3.242  -1.152 -32.986  1.00  0.00     0.051 C 
ENDBRANCH   1  26
BRANCH   2  37
HETATM   37  O   UNL     1      -5.765   1.507 -30.100  1.00  0.00    -0.360 OA
HETATM   38  H   UNL     1      -5.372   1.072 -30.887  1.00  0.00     0.217 HD
ENDBRANCH   2  37
TORSDOF 9
ENDMDL
MODEL 4
REMARK VINA RESULT:      -9.3      2.500      3.150
REMARK  9 active torsions:
REMARK  status: ('A' for Active; 'I' for Inactive)
REMARK    1  A    between atoms: C_7  and  C_8 
REMARK    2  A    between atoms: C_9  and  O_10 
REMARK    3  A    between atoms: C_13  and  N_14 
REMARK    4  A    between atoms: N_14  and  C_15 
REMARK    5  A    between atoms: C_15  and  N_16 
REMARK       I    between atoms: N_16  and  C_17 
REMARK    6  A    between atoms: C_17  and  C_18 
REMARK    7  A    between atoms: C_21  and  O_22 
REMARK    8  A    between atoms: O_22  and  C_23 
REMARK    9  A    between atoms: C_23  and  C_24 
ROOT
HETATM    1  C   UNL     1      -5.350   1.785 -32.197  1.00  0.00     0.052 A 
HETATM    2  C   UNL     1      -5.348   1.903 -30.800  1.00  0.00     0.080 A 
HETATM    3  C   UNL     1      -5.314   3.153 -30.188  1.00  0.00     0.040 A 
HETATM    4  C   UNL     1      -5.250   4.312 -30.966  1.00  0.00     0.032 A 
HETATM    5  C   UNL     1      -5.253   4.226 -32.361  1.00  0.00     0.035 A 
HETATM    6  C   UNL     1      -5.303   2.963 -32.964  1.00  0.00     0.048 A 
ENDROOT
BRANCH   5   7
HETATM    7  N   UNL     1      -5.087   5.421 -33.099  1.00  0.00    -0.337 N 
HETATM    8  H   UNL     1      -5.938   5.920 -33.331  1.00  0.00     0.168 HD
BRANCH   7   9
HETATM    9  C   UNL     1      -3.920   5.957 -33.587  1.00  0.00     0.157 C 
HETATM   10  S   UNL     1      -2.979   5.324 -34.819  1.00  0.00    -0.047 SA
BRANCH   9  11
HETATM   11  N   UNL     1      -3.499   7.137 -33.012  1.00  0.00    -0.201 NA
HETATM   12  C   UNL     1      -2.163   7.458 -32.918  1.00  0.00     0.237 C 
HETATM   13  O   UNL     1      -1.594   8.149 -33.754  1.00  0.00    -0.274 OA
HETATM   14  H   UNL     1      -4.002   7.876 -33.493  1.00  0.00     0.139 HD
BRANCH  12  15
HETATM   15  C   UNL     1      -1.454   7.027 -31.690  1.00  0.00     0.026 A 
HETATM   16  C   UNL     1      -0.075   6.803 -31.744  1.00  0.00     0.019 A 
HETATM   17  C   UNL     1       0.635   6.509 -30.576  1.00  0.00     0.038 A 
HETATM   18  C   UNL     1      -0.025   6.470 -29.346  1.00  0.00     0.068 A 
HETATM   19  C   UNL     1      -1.408   6.666 -29.302  1.00  0.00     0.038 A 
HETATM   20  C   UNL     1      -2.128   6.942 -30.468  1.00  0.00     0.019 A 
BRANCH  18  21
HETATM   21  O   UNL     1       0.564   6.259 -28.129  1.00  0.00    -0.351 OA
BRANCH  21  22
HETATM   22  C   UNL     1       0.199   7.154 -27.075  1.00  0.00     0.179 C 
BRANCH  22  23
HETATM   23  C   UNL     1       1.082   8.410 -27.154  1.00  0.00     0.002 C 
HETATM   24  C   UNL     1       0.224   9.671 -27.052  1.00  0.00     0.011 C 
HETATM   25  C   UNL     1       2.148   8.408 -26.056  1.00  0.00     0.011 C 
ENDBRANCH  22  23
ENDBRANCH  21  22
ENDBRANCH  18  21
ENDBRANCH  12  15
ENDBRANCH   9  11
ENDBRANCH   7   9
ENDBRANCH   5   7
BRANCH   1  26
HETATM   26  C   UNL     1      -5.334   0.474 -32.839  1.00  0.00     0.183 A 
HETATM   27  O   UNL     1      -4.452  -0.452 -32.351  1.00  0.00    -0.288 OA
HETATM   28  C   UNL     1      -4.694  -1.570 -33.096  1.00  0.00     0.112 A 
HETATM   29  C   UNL     1      -5.706  -1.264 -33.991  1.00  0.00     0.094 A 
HETATM   30  C   UNL     1      -4.065  -2.810 -32.985  1.00  0.00    -0.025 A 
HETATM   31  C   UNL     1      -6.182  -2.265 -34.847  1.00  0.00     0.041 A 
HETATM   32  N   UNL     1      -6.081   0.052 -33.847  1.00  0.00    -0.221 NA
HETATM   33  C   UNL     1      -5.611  -3.548 -34.765  1.00  0.00    -0.059 A 
HETATM   34  C   UNL     1      -6.138  -4.667 -35.617  1.00  0.00     0.048 C 
HETATM   35  C   UNL     1      -4.573  -3.802 -33.848  1.00  0.00     0.016 A 
HETATM   36  C   UNL     1      -2.966  -3.111 -32.020  1.00  0.00     0.051 C 
ENDBRANCH   1  26
BRANCH   2  37
HETATM   37  O   UNL     1      -5.362   0.818 -29.962  1.00  0.00    -0.360 OA
HETATM   38  H   UNL     1      -5.763   0.061 -30.440  1.00  0.00     0.217 HD
ENDBRANCH   2  37
TORSDOF 9
ENDMDL
MODEL 5
REMARK VINA RESULT:      -9.1      2.617      4.019
REMARK  9 active torsions:
REMARK  status: ('A' for Active; 'I' for Inactive)
REMARK    1  A    between atoms: C_7  and  C_8 
REMARK    2  A    between atoms: C_9  and  O_10 
REMARK    3  A    between atoms: C_13  and  N_14 
REMARK    4  A    between atoms: N_14  and  C_15 
REMARK    5  A    between atoms: C_15  and  N_16 
REMARK       I    between atoms: N_16  and  C_17 
REMARK    6  A    between atoms: C_17  and  C_18 
REMARK    7  A    between atoms: C_21  and  O_22 
REMARK    8  A    between atoms: O_22  and  C_23 
REMARK    9  A    between atoms: C_23  and  C_24 
ROOT
HETATM    1  C   UNL     1      -6.702   2.673 -30.750  1.00  0.00     0.052 A 
HETATM    2  C   UNL     1      -5.687   3.443 -30.165  1.00  0.00     0.080 A 
HETATM    3  C   UNL     1      -5.988   4.603 -29.455  1.00  0.00     0.040 A 
HETATM    4  C   UNL     1      -7.314   5.031 -29.343  1.00  0.00     0.032 A 
HETATM    5  C   UNL     1      -8.347   4.283 -29.913  1.00  0.00     0.035 A 
HETATM    6  C   UNL     1      -8.032   3.111 -30.612  1.00  0.00     0.048 A 
ENDROOT
BRANCH   5   7
HETATM    7  N   UNL     1      -9.657   4.812 -29.857  1.00  0.00    -0.337 N 
HETATM    8  H   UNL     1     -10.081   4.849 -28.936  1.00  0.00     0.168 HD
BRANCH   7   9
HETATM    9  C   UNL     1     -10.447   5.228 -30.901  1.00  0.00     0.157 C 
HETATM   10  S   UNL     1     -11.905   4.550 -31.371  1.00  0.00    -0.047 SA
BRANCH   9  11
HETATM   11  N   UNL     1      -9.996   6.317 -31.616  1.00  0.00    -0.201 NA
HETATM   12  C   UNL     1      -9.562   6.198 -32.917  1.00  0.00     0.237 C 
HETATM   13  O   UNL     1     -10.297   6.400 -33.875  1.00  0.00    -0.274 OA
HETATM   14  H   UNL     1     -10.734   7.012 -31.556  1.00  0.00     0.139 HD
BRANCH  12  15
HETATM   15  C   UNL     1      -8.120   5.923 -33.120  1.00  0.00     0.026 A 
HETATM   16  C   UNL     1      -7.177   6.740 -32.487  1.00  0.00     0.019 A 
HETATM   17  C   UNL     1      -5.815   6.433 -32.568  1.00  0.00     0.038 A 
HETATM   18  C   UNL     1      -5.394   5.292 -33.253  1.00  0.00     0.068 A 
HETATM   19  C   UNL     1      -6.338   4.495 -33.908  1.00  0.00     0.038 A 
HETATM   20  C   UNL     1      -7.700   4.806 -33.847  1.00  0.00     0.019 A 
BRANCH  18  21
HETATM   21  O   UNL     1      -4.104   4.848 -33.349  1.00  0.00    -0.351 OA
BRANCH  21  22
HETATM   22  C   UNL     1      -3.106   5.619 -32.674  1.00  0.00     0.179 C 
BRANCH  22  23
HETATM   23  C   UNL     1      -1.785   5.525 -33.453  1.00  0.00     0.002 C 
HETATM   24  C   UNL     1      -2.047   5.093 -34.895  1.00  0.00     0.011 C 
HETATM   25  C   UNL     1      -1.031   6.857 -33.430  1.00  0.00     0.011 C 
ENDBRANCH  22  23
ENDBRANCH  21  22
ENDBRANCH  18  21
ENDBRANCH  12  15
ENDBRANCH   9  11
ENDBRANCH   7   9
ENDBRANCH   5   7
BRANCH   1  26
HETATM   26  C   UNL     1      -6.383   1.486 -31.537  1.00  0.00     0.183 A 
HETATM   27  O   UNL     1      -7.088   1.294 -32.695  1.00  0.00    -0.288 OA
HETATM   28  C   UNL     1      -6.550   0.158 -33.229  1.00  0.00     0.112 A 
HETATM   29  C   UNL     1      -5.552  -0.275 -32.370  1.00  0.00     0.094 A 
HETATM   30  C   UNL     1      -6.908  -0.463 -34.425  1.00  0.00    -0.025 A 
HETATM   31  C   UNL     1      -4.802  -1.406 -32.716  1.00  0.00     0.041 A 
HETATM   32  N   UNL     1      -5.480   0.555 -31.275  1.00  0.00    -0.221 NA
HETATM   33  C   UNL     1      -5.093  -2.062 -33.925  1.00  0.00    -0.059 A 
HETATM   34  C   UNL     1      -4.268  -3.238 -34.366  1.00  0.00     0.048 C 
HETATM   35  C   UNL     1      -6.128  -1.589 -34.755  1.00  0.00     0.016 A 
HETATM   36  C   UNL     1      -7.997   0.017 -35.327  1.00  0.00     0.051 C 
ENDBRANCH   1  26
BRANCH   2  37
HETATM   37  O   UNL     1      -4.358   3.122 -30.266  1.00  0.00    -0.360 OA
HETATM   38  H   UNL     1      -4.243   2.508 -31.022  1.00  0.00     0.217 HD
ENDBRANCH   2  37
TORSDOF 9
ENDMDL
MODEL 6
REMARK VINA RESULT:      -9.0      2.771      6.264
REMARK  9 active torsions:
REMARK  status: ('A' for Active; 'I' for Inactive)
REMARK    1  A    between atoms: C_7  and  C_8 
REMARK    2  A    between atoms: C_9  and  O_10 
REMARK    3  A    between atoms: C_13  and  N_14 
REMARK    4  A    between atoms: N_14  and  C_15 
REMARK    5  A    between atoms: C_15  and  N_16 
REMARK       I    between atoms: N_16  and  C_17 
REMARK    6  A    between atoms: C_17  and  C_18 
REMARK    7  A    between atoms: C_21  and  O_22 
REMARK    8  A    between atoms: O_22  and  C_23 
REMARK    9  A    between atoms: C_23  and  C_24 
ROOT
HETATM    1  C   UNL     1      -4.579   1.568 -32.165  1.00  0.00     0.052 A 
HETATM    2  C   UNL     1      -4.355   0.334 -31.537  1.00  0.00     0.080 A 
HETATM    3  C   UNL     1      -5.333  -0.658 -31.538  1.00  0.00     0.040 A 
HETATM    4  C   UNL     1      -6.569  -0.421 -32.146  1.00  0.00     0.032 A 
HETATM    5  C   UNL     1      -6.820   0.797 -32.783  1.00  0.00     0.035 A 
HETATM    6  C   UNL     1      -5.823   1.781 -32.787  1.00  0.00     0.048 A 
ENDROOT
BRANCH   5   7
HETATM    7  N   UNL     1      -8.119   1.023 -33.294  1.00  0.00    -0.337 N 
HETATM    8  H   UNL     1      -8.220   0.937 -34.300  1.00  0.00     0.168 HD
BRANCH   7   9
HETATM    9  C   UNL     1      -9.246   1.397 -32.604  1.00  0.00     0.157 C 
HETATM   10  S   UNL     1     -10.792   1.537 -33.234  1.00  0.00    -0.047 SA
BRANCH   9  11
HETATM   11  N   UNL     1      -9.084   1.667 -31.262  1.00  0.00    -0.201 NA
HETATM   12  C   UNL     1      -9.124   2.954 -30.775  1.00  0.00     0.237 C 
HETATM   13  O   UNL     1     -10.147   3.453 -30.323  1.00  0.00    -0.274 OA
HETATM   14  H   UNL     1      -9.764   1.090 -30.779  1.00  0.00     0.139 HD
BRANCH  12  15
HETATM   15  C   UNL     1      -7.837   3.687 -30.708  1.00  0.00     0.026 A 
HETATM   16  C   UNL     1      -7.586   4.703 -31.636  1.00  0.00     0.019 A 
HETATM   17  C   UNL     1      -6.432   5.486 -31.523  1.00  0.00     0.038 A 
HETATM   18  C   UNL     1      -5.544   5.277 -30.466  1.00  0.00     0.068 A 
HETATM   19  C   UNL     1      -5.786   4.241 -29.559  1.00  0.00     0.038 A 
HETATM   20  C   UNL     1      -6.927   3.442 -29.675  1.00  0.00     0.019 A 
BRANCH  18  21
HETATM   21  O   UNL     1      -4.421   6.014 -30.208  1.00  0.00    -0.351 OA
BRANCH  21  22
HETATM   22  C   UNL     1      -4.234   7.197 -30.990  1.00  0.00     0.179 C 
BRANCH  22  23
HETATM   23  C   UNL     1      -3.486   8.243 -30.149  1.00  0.00     0.002 C 
HETATM   24  C   UNL     1      -2.699   7.562 -29.030  1.00  0.00     0.011 C 
HETATM   25  C   UNL     1      -2.548   9.085 -31.017  1.00  0.00     0.011 C 
ENDBRANCH  22  23
ENDBRANCH  21  22
ENDBRANCH  18  21
ENDBRANCH  12  15
ENDBRANCH   9  11
ENDBRANCH   7   9
ENDBRANCH   5   7
BRANCH   1  26
HETATM   26  C   UNL     1      -3.574   2.625 -32.120  1.00  0.00     0.183 A 
HETATM   27  O   UNL     1      -3.528   3.491 -33.178  1.00  0.00    -0.288 OA
HETATM   28  C   UNL     1      -2.548   4.380 -32.841  1.00  0.00     0.112 A 
HETATM   29  C   UNL     1      -2.055   4.007 -31.602  1.00  0.00     0.094 A 
HETATM   30  C   UNL     1      -2.115   5.480 -33.581  1.00  0.00    -0.025 A 
HETATM   31  C   UNL     1      -1.064   4.792 -31.000  1.00  0.00     0.041 A 
HETATM   32  N   UNL     1      -2.687   2.864 -31.167  1.00  0.00    -0.221 NA
HETATM   33  C   UNL     1      -0.604   5.933 -31.681  1.00  0.00    -0.059 A 
HETATM   34  C   UNL     1       0.409   6.840 -31.042  1.00  0.00     0.048 C 
HETATM   35  C   UNL     1      -1.128   6.260 -32.947  1.00  0.00     0.016 A 
HETATM   36  C   UNL     1      -2.654   5.854 -34.923  1.00  0.00     0.051 C 
ENDBRANCH   1  26
BRANCH   2  37
HETATM   37  O   UNL     1      -3.191   0.036 -30.877  1.00  0.00    -0.360 OA
HETATM   38  H   UNL     1      -3.404  -0.551 -30.120  1.00  0.00     0.217 HD
ENDBRANCH   2  37
TORSDOF 9
ENDMDL
MODEL 7
REMARK VINA RESULT:      -8.8      2.137      8.739
REMARK  9 active torsions:
REMARK  status: ('A' for Active; 'I' for Inactive)
REMARK    1  A    between atoms: C_7  and  C_8 
REMARK    2  A    between atoms: C_9  and  O_10 
REMARK    3  A    between atoms: C_13  and  N_14 
REMARK    4  A    between atoms: N_14  and  C_15 
REMARK    5  A    between atoms: C_15  and  N_16 
REMARK       I    between atoms: N_16  and  C_17 
REMARK    6  A    between atoms: C_17  and  C_18 
REMARK    7  A    between atoms: C_21  and  O_22 
REMARK    8  A    between atoms: O_22  and  C_23 
REMARK    9  A    between atoms: C_23  and  C_24 
ROOT
HETATM    1  C   UNL     1      -4.377   5.555 -31.964  1.00  0.00     0.052 A 
HETATM    2  C   UNL     1      -4.187   5.385 -33.343  1.00  0.00     0.080 A 
HETATM    3  C   UNL     1      -5.197   4.857 -34.144  1.00  0.00     0.040 A 
HETATM    4  C   UNL     1      -6.408   4.458 -33.572  1.00  0.00     0.032 A 
HETATM    5  C   UNL     1      -6.626   4.618 -32.202  1.00  0.00     0.035 A 
HETATM    6  C   UNL     1      -5.609   5.164 -31.409  1.00  0.00     0.048 A 
ENDROOT
BRANCH   5   7
HETATM    7  N   UNL     1      -7.829   4.108 -31.659  1.00  0.00    -0.337 N 
HETATM    8  H   UNL     1      -8.301   4.706 -30.989  1.00  0.00     0.168 HD
BRANCH   7   9
HETATM    9  C   UNL     1      -8.405   2.882 -31.884  1.00  0.00     0.157 C 
HETATM   10  S   UNL     1      -9.491   2.508 -33.103  1.00  0.00    -0.047 SA
BRANCH   9  11
HETATM   11  N   UNL     1      -8.037   1.863 -31.031  1.00  0.00    -0.201 NA
HETATM   12  C   UNL     1      -6.714   1.586 -30.765  1.00  0.00     0.237 C 
HETATM   13  O   UNL     1      -6.130   2.048 -29.793  1.00  0.00    -0.274 OA
HETATM   14  H   UNL     1      -8.539   2.032 -30.165  1.00  0.00     0.139 HD
BRANCH  12  15
HETATM   15  C   UNL     1      -6.045   0.602 -31.648  1.00  0.00     0.026 A 
HETATM   16  C   UNL     1      -4.658   0.443 -31.558  1.00  0.00     0.019 A 
HETATM   17  C   UNL     1      -4.017  -0.559 -32.296  1.00  0.00     0.038 A 
HETATM   18  C   UNL     1      -4.764  -1.424 -33.097  1.00  0.00     0.068 A 
HETATM   19  C   UNL     1      -6.146  -1.242 -33.205  1.00  0.00     0.038 A 
HETATM   20  C   UNL     1      -6.791  -0.231 -32.486  1.00  0.00     0.019 A 
BRANCH  18  21
HETATM   21  O   UNL     1      -4.268  -2.479 -33.813  1.00  0.00    -0.351 OA
BRANCH  21  22
HETATM   22  C   UNL     1      -4.925  -2.787 -35.045  1.00  0.00     0.179 C 
BRANCH  22  23
HETATM   23  C   UNL     1      -5.280  -4.282 -35.067  1.00  0.00     0.002 C 
HETATM   24  C   UNL     1      -4.479  -5.034 -34.005  1.00  0.00     0.011 C 
HETATM   25  C   UNL     1      -6.779  -4.498 -34.848  1.00  0.00     0.011 C 
ENDBRANCH  22  23
ENDBRANCH  21  22
ENDBRANCH  18  21
ENDBRANCH  12  15
ENDBRANCH   9  11
ENDBRANCH   7   9
ENDBRANCH   5   7
BRANCH   1  26
HETATM   26  C   UNL     1      -3.302   6.061 -31.117  1.00  0.00     0.183 A 
HETATM   27  O   UNL     1      -2.057   5.518 -31.292  1.00  0.00    -0.288 OA
HETATM   28  C   UNL     1      -1.266   6.207 -30.418  1.00  0.00     0.112 A 
HETATM   29  C   UNL     1      -2.069   7.126 -29.763  1.00  0.00     0.094 A 
HETATM   30  C   UNL     1       0.104   6.046 -30.214  1.00  0.00    -0.025 A 
HETATM   31  C   UNL     1      -1.486   8.002 -28.840  1.00  0.00     0.041 A 
HETATM   32  N   UNL     1      -3.372   7.000 -30.186  1.00  0.00    -0.221 NA
HETATM   33  C   UNL     1      -0.101   7.912 -28.609  1.00  0.00    -0.059 A 
HETATM   34  C   UNL     1       0.576   8.877 -27.677  1.00  0.00     0.048 C 
HETATM   35  C   UNL     1       0.667   6.949 -29.290  1.00  0.00     0.016 A 
HETATM   36  C   UNL     1       0.946   5.036 -30.923  1.00  0.00     0.051 C 
ENDBRANCH   1  26
BRANCH   2  37
HETATM   37  O   UNL     1      -3.015   5.705 -33.978  1.00  0.00    -0.360 OA
HETATM   38  H   UNL     1      -3.088   5.437 -34.919  1.00  0.00     0.217 HD
ENDBRANCH   2  37
TORSDOF 9
ENDMDL
MODEL 8
REMARK VINA RESULT:      -8.8      2.270      9.268
REMARK  9 active torsions:
REMARK  status: ('A' for Active; 'I' for Inactive)
REMARK    1  A    between atoms: C_7  and  C_8 
REMARK    2  A    between atoms: C_9  and  O_10 
REMARK    3  A    between atoms: C_13  and  N_14 
REMARK    4  A    between atoms: N_14  and  C_15 
REMARK    5  A    between atoms: C_15  and  N_16 
REMARK       I    between atoms: N_16  and  C_17 
REMARK    6  A    between atoms: C_17  and  C_18 
REMARK    7  A    between atoms: C_21  and  O_22 
REMARK    8  A    between atoms: O_22  and  C_23 
REMARK    9  A    between atoms: C_23  and  C_24 
ROOT
HETATM    1  C   UNL     1      -2.800   6.309 -32.660  1.00  0.00     0.052 A 
HETATM    2  C   UNL     1      -2.297   6.218 -33.966  1.00  0.00     0.080 A 
HETATM    3  C   UNL     1      -3.051   5.639 -34.984  1.00  0.00     0.040 A 
HETATM    4  C   UNL     1      -4.315   5.112 -34.706  1.00  0.00     0.032 A 
HETATM    5  C   UNL     1      -4.844   5.191 -33.415  1.00  0.00     0.035 A 
HETATM    6  C   UNL     1      -4.082   5.789 -32.403  1.00  0.00     0.048 A 
ENDROOT
BRANCH   5   7
HETATM    7  N   UNL     1      -6.082   4.555 -33.166  1.00  0.00    -0.337 N 
HETATM    8  H   UNL     1      -6.442   3.975 -33.917  1.00  0.00     0.168 HD
BRANCH   7   9
HETATM    9  C   UNL     1      -6.883   4.670 -32.056  1.00  0.00     0.157 C 
HETATM   10  S   UNL     1      -7.781   6.014 -31.618  1.00  0.00    -0.047 SA
BRANCH   9  11
HETATM   11  N   UNL     1      -6.962   3.563 -31.238  1.00  0.00    -0.201 NA
HETATM   12  C   UNL     1      -5.842   2.839 -30.893  1.00  0.00     0.237 C 
HETATM   13  O   UNL     1      -5.222   3.042 -29.857  1.00  0.00    -0.274 OA
HETATM   14  H   UNL     1      -7.449   3.870 -30.402  1.00  0.00     0.139 HD
BRANCH  12  15
HETATM   15  C   UNL     1      -5.476   1.709 -31.780  1.00  0.00     0.026 A 
HETATM   16  C   UNL     1      -4.129   1.353 -31.906  1.00  0.00     0.019 A 
HETATM   17  C   UNL     1      -3.769   0.220 -32.644  1.00  0.00     0.038 A 
HETATM   18  C   UNL     1      -4.754  -0.578 -33.228  1.00  0.00     0.068 A 
HETATM   19  C   UNL     1      -6.096  -0.201 -33.123  1.00  0.00     0.038 A 
HETATM   20  C   UNL     1      -6.463   0.940 -32.404  1.00  0.00     0.019 A 
BRANCH  18  21
HETATM   21  O   UNL     1      -4.537  -1.741 -33.915  1.00  0.00    -0.351 OA
BRANCH  21  22
HETATM   22  C   UNL     1      -5.646  -2.273 -34.645  1.00  0.00     0.179 C 
BRANCH  22  23
HETATM   23  C   UNL     1      -5.314  -3.706 -35.089  1.00  0.00     0.002 C 
HETATM   24  C   UNL     1      -4.324  -4.349 -34.118  1.00  0.00     0.011 C 
HETATM   25  C   UNL     1      -6.580  -4.561 -35.195  1.00  0.00     0.011 C 
ENDBRANCH  22  23
ENDBRANCH  21  22
ENDBRANCH  18  21
ENDBRANCH  12  15
ENDBRANCH   9  11
ENDBRANCH   7   9
ENDBRANCH   5   7
BRANCH   1  26
HETATM   26  C   UNL     1      -1.991   6.869 -31.583  1.00  0.00     0.183 A 
HETATM   27  O   UNL     1      -2.518   7.923 -30.886  1.00  0.00    -0.288 OA
HETATM   28  C   UNL     1      -1.580   8.196 -29.932  1.00  0.00     0.112 A 
HETATM   29  C   UNL     1      -0.540   7.297 -30.100  1.00  0.00     0.094 A 
HETATM   30  C   UNL     1      -1.641   9.181 -28.947  1.00  0.00    -0.025 A 
HETATM   31  C   UNL     1       0.539   7.331 -29.208  1.00  0.00     0.041 A 
HETATM   32  N   UNL     1      -0.791   6.481 -31.179  1.00  0.00    -0.221 NA
HETATM   33  C   UNL     1       0.525   8.282 -28.172  1.00  0.00    -0.059 A 
HETATM   34  C   UNL     1       1.629   8.308 -27.153  1.00  0.00     0.048 C 
HETATM   35  C   UNL     1      -0.551   9.183 -28.055  1.00  0.00     0.016 A 
HETATM   36  C   UNL     1      -2.769  10.148 -28.795  1.00  0.00     0.051 C 
ENDBRANCH   1  26
BRANCH   2  37
HETATM   37  O   UNL     1      -1.050   6.666 -34.316  1.00  0.00    -0.360 OA
HETATM   38  H   UNL     1      -1.086   6.998 -35.238  1.00  0.00     0.217 HD
ENDBRANCH   2  37
TORSDOF 9
ENDMDL
MODEL 9
REMARK VINA RESULT:      -8.7      3.222      5.780
REMARK  9 active torsions:
REMARK  status: ('A' for Active; 'I' for Inactive)
REMARK    1  A    between atoms: C_7  and  C_8 
REMARK    2  A    between atoms: C_9  and  O_10 
REMARK    3  A    between atoms: C_13  and  N_14 
REMARK    4  A    between atoms: N_14  and  C_15 
REMARK    5  A    between atoms: C_15  and  N_16 
REMARK       I    between atoms: N_16  and  C_17 
REMARK    6  A    between atoms: C_17  and  C_18 
REMARK    7  A    between atoms: C_21  and  O_22 
REMARK    8  A    between atoms: O_22  and  C_23 
REMARK    9  A    between atoms: C_23  and  C_24 
ROOT
HETATM    1  C   UNL     1      -7.257   1.516 -31.507  1.00  0.00     0.052 A 
HETATM    2  C   UNL     1      -8.607   1.855 -31.337  1.00  0.00     0.080 A 
HETATM    3  C   UNL     1      -8.980   2.922 -30.523  1.00  0.00     0.040 A 
HETATM    4  C   UNL     1      -8.006   3.653 -29.837  1.00  0.00     0.032 A 
HETATM    5  C   UNL     1      -6.652   3.340 -29.989  1.00  0.00     0.035 A 
HETATM    6  C   UNL     1      -6.290   2.274 -30.822  1.00  0.00     0.048 A 
ENDROOT
BRANCH   5   7
HETATM    7  N   UNL     1      -5.717   4.045 -29.198  1.00  0.00    -0.337 N 
HETATM    8  H   UNL     1      -5.167   3.484 -28.556  1.00  0.00     0.168 HD
BRANCH   7   9
HETATM    9  C   UNL     1      -5.501   5.401 -29.151  1.00  0.00     0.157 C 
HETATM   10  S   UNL     1      -5.577   6.369 -27.786  1.00  0.00    -0.047 SA
BRANCH   9  11
HETATM   11  N   UNL     1      -5.176   6.013 -30.343  1.00  0.00    -0.201 NA
HETATM   12  C   UNL     1      -6.037   6.891 -30.962  1.00  0.00     0.237 C 
HETATM   13  O   UNL     1      -5.966   8.103 -30.802  1.00  0.00    -0.274 OA
HETATM   14  H   UNL     1      -4.276   6.457 -30.190  1.00  0.00     0.139 HD
BRANCH  12  15
HETATM   15  C   UNL     1      -6.996   6.315 -31.935  1.00  0.00     0.026 A 
HETATM   16  C   UNL     1      -8.301   6.816 -31.979  1.00  0.00     0.019 A 
HETATM   17  C   UNL     1      -9.190   6.372 -32.964  1.00  0.00     0.038 A 
HETATM   18  C   UNL     1      -8.767   5.453 -33.926  1.00  0.00     0.068 A 
HETATM   19  C   UNL     1      -7.470   4.934 -33.859  1.00  0.00     0.038 A 
HETATM   20  C   UNL     1      -6.582   5.359 -32.867  1.00  0.00     0.019 A 
BRANCH  18  21
HETATM   21  O   UNL     1      -9.515   4.992 -34.975  1.00  0.00    -0.351 OA
BRANCH  21  22
HETATM   22  C   UNL     1     -10.319   3.834 -34.731  1.00  0.00     0.179 C 
BRANCH  22  23
HETATM   23  C   UNL     1     -11.547   3.871 -35.654  1.00  0.00     0.002 C 
HETATM   24  C   UNL     1     -12.393   2.613 -35.464  1.00  0.00     0.011 C 
HETATM   25  C   UNL     1     -12.394   5.120 -35.398  1.00  0.00     0.011 C 
ENDBRANCH  22  23
ENDBRANCH  21  22
ENDBRANCH  18  21
ENDBRANCH  12  15
ENDBRANCH   9  11
ENDBRANCH   7   9
ENDBRANCH   5   7
BRANCH   1  26
HETATM   26  C   UNL     1      -6.869   0.367 -32.319  1.00  0.00     0.183 A 
HETATM   27  O   UNL     1      -5.620  -0.153 -32.112  1.00  0.00    -0.288 OA
HETATM   28  C   UNL     1      -5.559  -1.223 -32.958  1.00  0.00     0.112 A 
HETATM   29  C   UNL     1      -6.769  -1.295 -33.629  1.00  0.00     0.094 A 
HETATM   30  C   UNL     1      -4.494  -2.108 -33.124  1.00  0.00    -0.025 A 
HETATM   31  C   UNL     1      -6.987  -2.345 -34.529  1.00  0.00     0.041 A 
HETATM   32  N   UNL     1      -7.583  -0.254 -33.245  1.00  0.00    -0.221 NA
HETATM   33  C   UNL     1      -5.963  -3.290 -34.720  1.00  0.00    -0.059 A 
HETATM   34  C   UNL     1      -6.180  -4.470 -35.625  1.00  0.00     0.048 C 
HETATM   35  C   UNL     1      -4.745  -3.163 -34.024  1.00  0.00     0.016 A 
HETATM   36  C   UNL     1      -3.193  -2.002 -32.398  1.00  0.00     0.051 C 
ENDBRANCH   1  26
BRANCH   2  37
HETATM   37  O   UNL     1      -9.628   1.162 -31.934  1.00  0.00    -0.360 OA
HETATM   38  H   UNL     1      -9.547   1.265 -32.907  1.00  0.00     0.217 HD
ENDBRANCH   2  37
TORSDOF 9
ENDMDL
MODEL 10
REMARK VINA RESULT:      -8.6      3.650      6.837
REMARK  9 active torsions:
REMARK  status: ('A' for Active; 'I' for Inactive)
REMARK    1  A    between atoms: C_7  and  C_8 
REMARK    2  A    between atoms: C_9  and  O_10 
REMARK    3  A    between atoms: C_13  and  N_14 
REMARK    4  A    between atoms: N_14  and  C_15 
REMARK    5  A    between atoms: C_15  and  N_16 
REMARK       I    between atoms: N_16  and  C_17 
REMARK    6  A    between atoms: C_17  and  C_18 
REMARK    7  A    between atoms: C_21  and  O_22 
REMARK    8  A    between atoms: O_22  and  C_23 
REMARK    9  A    between atoms: C_23  and  C_24 
ROOT
HETATM    1  C   UNL     1      -6.559   2.294 -31.852  1.00  0.00     0.052 A 
HETATM    2  C   UNL     1      -6.758   2.327 -30.465  1.00  0.00     0.080 A 
HETATM    3  C   UNL     1      -6.953   3.534 -29.798  1.00  0.00     0.040 A 
HETATM    4  C   UNL     1      -6.922   4.738 -30.507  1.00  0.00     0.032 A 
HETATM    5  C   UNL     1      -6.728   4.736 -31.891  1.00  0.00     0.035 A 
HETATM    6  C   UNL     1      -6.548   3.514 -32.551  1.00  0.00     0.048 A 
ENDROOT
BRANCH   5   7
HETATM    7  N   UNL     1      -6.607   5.985 -32.545  1.00  0.00    -0.337 N 
HETATM    8  H   UNL     1      -5.842   6.066 -33.206  1.00  0.00     0.168 HD
BRANCH   7   9
HETATM    9  C   UNL     1      -7.361   7.116 -32.353  1.00  0.00     0.157 C 
HETATM   10  S   UNL     1      -6.989   8.394 -31.336  1.00  0.00    -0.047 SA
BRANCH   9  11
HETATM   11  N   UNL     1      -8.528   7.207 -33.082  1.00  0.00    -0.201 NA
HETATM   12  C   UNL     1      -9.711   6.673 -32.622  1.00  0.00     0.237 C 
HETATM   13  O   UNL     1     -10.535   7.337 -32.007  1.00  0.00    -0.274 OA
HETATM   14  H   UNL     1      -8.649   8.194 -33.290  1.00  0.00     0.139 HD
BRANCH  12  15
HETATM   15  C   UNL     1     -10.007   5.272 -33.004  1.00  0.00     0.026 A 
HETATM   16  C   UNL     1     -10.544   4.406 -32.047  1.00  0.00     0.019 A 
HETATM   17  C   UNL     1     -10.940   3.114 -32.412  1.00  0.00     0.038 A 
HETATM   18  C   UNL     1     -10.831   2.698 -33.739  1.00  0.00     0.068 A 
HETATM   19  C   UNL     1     -10.266   3.558 -34.686  1.00  0.00     0.038 A 
HETATM   20  C   UNL     1      -9.851   4.843 -34.326  1.00  0.00     0.019 A 
BRANCH  18  21
HETATM   21  O   UNL     1     -11.241   1.490 -34.235  1.00  0.00    -0.351 OA
BRANCH  21  22
HETATM   22  C   UNL     1     -12.383   1.502 -35.096  1.00  0.00     0.179 C 
BRANCH  22  23
HETATM   23  C   UNL     1     -13.552   0.796 -34.391  1.00  0.00     0.002 C 
HETATM   24  C   UNL     1     -13.045  -0.404 -33.593  1.00  0.00     0.011 C 
HETATM   25  C   UNL     1     -14.309   1.759 -33.473  1.00  0.00     0.011 C 
ENDBRANCH  22  23
ENDBRANCH  21  22
ENDBRANCH  18  21
ENDBRANCH  12  15
ENDBRANCH   9  11
ENDBRANCH   7   9
ENDBRANCH   5   7
BRANCH   1  26
HETATM   26  C   UNL     1      -6.304   1.034 -32.543  1.00  0.00     0.183 A 
HETATM   27  O   UNL     1      -5.163   0.355 -32.208  1.00  0.00    -0.288 OA
HETATM   28  C   UNL     1      -5.218  -0.782 -32.961  1.00  0.00     0.112 A 
HETATM   29  C   UNL     1      -6.382  -0.733 -33.709  1.00  0.00     0.094 A 
HETATM   30  C   UNL     1      -4.292  -1.826 -32.981  1.00  0.00    -0.025 A 
HETATM   31  C   UNL     1      -6.705  -1.814 -34.538  1.00  0.00     0.041 A 
HETATM   32  N   UNL     1      -7.049   0.446 -33.466  1.00  0.00    -0.221 NA
HETATM   33  C   UNL     1      -5.828  -2.913 -34.581  1.00  0.00    -0.059 A 
HETATM   34  C   UNL     1      -6.169  -4.122 -35.405  1.00  0.00     0.048 C 
HETATM   35  C   UNL     1      -4.648  -2.906 -33.812  1.00  0.00     0.016 A 
HETATM   36  C   UNL     1      -3.035  -1.849 -32.174  1.00  0.00     0.051 C 
ENDBRANCH   1  26
BRANCH   2  37
HETATM   37  O   UNL     1      -6.755   1.198 -29.686  1.00  0.00    -0.360 OA
HETATM   38  H   UNL     1      -5.906   1.161 -29.195  1.00  0.00     0.217 HD
ENDBRANCH   2  37
TORSDOF 9
ENDMDL
