MODEL 1
REMARK VINA RESULT:      -8.0      0.000      0.000
REMARK  6 active torsions:
REMARK  status: ('A' for Active; 'I' for Inactive)
REMARK    1  A    between atoms: C_5  and  N_6 
REMARK    2  A    between atoms: N_6  and  C_7 
REMARK    3  A    between atoms: C_7  and  C_8 
REMARK    4  A    between atoms: N_10  and  C_12 
REMARK    5  A    between atoms: C_12  and  C_13 
REMARK    6  A    between atoms: C_14  and  O_15 
ROOT
HETATM    1  C   UNL     1      -7.184   0.803 -32.064  1.00  0.00     0.031 C 
HETATM    2  C   UNL     1      -6.295  -0.359 -31.645  1.00  0.00     0.241 C 
HETATM    3  N   UNL     1      -4.898   0.182 -31.838  1.00  0.00    -0.067 N 
HETATM    4  H   UNL     1      -4.298  -0.186 -31.076  1.00  0.00     0.280 HD
HETATM    5  C   UNL     1      -4.970   1.688 -31.741  1.00  0.00     0.235 C 
HETATM    6  C   UNL     1      -6.439   1.989 -31.462  1.00  0.00     0.035 C 
ENDROOT
BRANCH   1   7
HETATM    7  C   UNL     1      -8.638   0.687 -31.591  1.00  0.00     0.127 C 
BRANCH   7   8
HETATM    8  N   UNL     1      -9.433  -0.021 -32.585  1.00  0.00    -0.376 N 
HETATM    9  H   UNL     1      -8.876  -0.560 -33.257  1.00  0.00     0.161 HD
BRANCH   8  10
HETATM   10  C   UNL     1     -10.490   0.587 -33.270  1.00  0.00     0.101 A 
HETATM   11  N   UNL     1     -11.755   0.134 -33.221  1.00  0.00    -0.347 N 
HETATM   12  C   UNL     1     -12.782   0.714 -33.876  1.00  0.00     0.007 A 
HETATM   13  H   UNL     1     -11.958  -0.672 -32.644  1.00  0.00     0.167 HD
HETATM   14  C   UNL     1     -14.159   0.157 -33.706  1.00  0.00     0.068 C 
HETATM   15  C   UNL     1     -12.539   1.824 -34.683  1.00  0.00     0.025 A 
HETATM   16  C   UNL     1     -11.245   2.314 -34.792  1.00  0.00     0.006 A 
HETATM   17  C   UNL     1     -10.221   1.696 -34.083  1.00  0.00     0.048 A 
ENDBRANCH   8  10
ENDBRANCH   7   8
ENDBRANCH   1   7
BRANCH   3  18
HETATM   18  C   UNL     1      -4.189  -0.299 -33.085  1.00  0.00     0.276 C 
BRANCH  18  19
HETATM   19  C   UNL     1      -4.185  -1.795 -33.234  1.00  0.00     0.002 A 
HETATM   20  C   UNL     1      -3.333  -2.598 -32.465  1.00  0.00     0.073 A 
HETATM   21  C   UNL     1      -3.309  -3.983 -32.616  1.00  0.00     0.038 A 
HETATM   22  C   UNL     1      -4.153  -4.587 -33.549  1.00  0.00     0.022 A 
HETATM   23  C   UNL     1      -5.005  -3.802 -34.323  1.00  0.00     0.011 A 
HETATM   24 BR   UNL     1      -6.161  -4.618 -35.574  1.00  0.00    -0.051 Br
HETATM   25  C   UNL     1      -5.020  -2.413 -34.177  1.00  0.00     0.030 A 
BRANCH  20  26
HETATM   26  O   UNL     1      -2.534  -1.987 -31.535  1.00  0.00    -0.360 OA
HETATM   27  H   UNL     1      -2.903  -1.094 -31.369  1.00  0.00     0.217 HD
ENDBRANCH  20  26
ENDBRANCH  18  19
ENDBRANCH   3  18
TORSDOF 6
ENDMDL
MODEL 2
REMARK VINA RESULT:      -7.8      5.197      7.961
REMARK  6 active torsions:
REMARK  status: ('A' for Active; 'I' for Inactive)
REMARK    1  A    between atoms: C_5  and  N_6 
REMARK    2  A    between atoms: N_6  and  C_7 
REMARK    3  A    between atoms: C_7  and  C_8 
REMARK    4  A    between atoms: N_10  and  C_12 
REMARK    5  A    between atoms: C_12  and  C_13 
REMARK    6  A    between atoms: C_14  and  O_15 
ROOT
HETATM    1  C   UNL     1      -5.297   1.333 -32.079  1.00  0.00     0.031 C 
HETATM    2  C   UNL     1      -3.893   1.827 -32.395  1.00  0.00     0.241 C 
HETATM    3  N   UNL     1      -3.876   3.226 -31.825  1.00  0.00    -0.067 N 
HETATM    4  H   UNL     1      -2.936   3.404 -31.424  1.00  0.00     0.280 HD
HETATM    5  C   UNL     1      -4.913   3.287 -30.726  1.00  0.00     0.235 C 
HETATM    6  C   UNL     1      -5.501   1.880 -30.670  1.00  0.00     0.035 C 
ENDROOT
BRANCH   1   7
HETATM    7  C   UNL     1      -5.466  -0.188 -32.175  1.00  0.00     0.127 C 
BRANCH   7   8
HETATM    8  N   UNL     1      -5.533  -0.595 -33.573  1.00  0.00    -0.376 N 
HETATM    9  H   UNL     1      -6.233  -0.086 -34.122  1.00  0.00     0.161 HD
BRANCH   8  10
HETATM   10  C   UNL     1      -5.555  -1.939 -33.961  1.00  0.00     0.101 A 
HETATM   11  N   UNL     1      -4.505  -2.765 -33.813  1.00  0.00    -0.347 N 
HETATM   12  C   UNL     1      -4.516  -4.062 -34.182  1.00  0.00     0.007 A 
HETATM   13  H   UNL     1      -3.664  -2.404 -33.380  1.00  0.00     0.167 HD
HETATM   14  C   UNL     1      -3.308  -4.903 -33.919  1.00  0.00     0.068 C 
HETATM   15  C   UNL     1      -5.656  -4.592 -34.784  1.00  0.00     0.025 A 
HETATM   16  C   UNL     1      -6.759  -3.774 -34.987  1.00  0.00     0.006 A 
HETATM   17  C   UNL     1      -6.709  -2.448 -34.574  1.00  0.00     0.048 A 
ENDBRANCH   8  10
ENDBRANCH   7   8
ENDBRANCH   1   7
BRANCH   3  18
HETATM   18  C   UNL     1      -4.025   4.337 -32.841  1.00  0.00     0.276 C 
BRANCH  18  19
HETATM   19  C   UNL     1      -2.881   5.313 -32.833  1.00  0.00     0.002 A 
HETATM   20  C   UNL     1      -2.613   6.126 -33.942  1.00  0.00     0.073 A 
HETATM   21  C   UNL     1      -1.540   7.015 -33.948  1.00  0.00     0.038 A 
HETATM   22  C   UNL     1      -0.715   7.103 -32.825  1.00  0.00     0.022 A 
HETATM   23  C   UNL     1      -0.967   6.299 -31.716  1.00  0.00     0.011 A 
HETATM   24 BR   UNL     1       0.137   6.429 -30.188  1.00  0.00    -0.051 Br
HETATM   25  C   UNL     1      -2.036   5.402 -31.716  1.00  0.00     0.030 A 
BRANCH  20  26
HETATM   26  O   UNL     1      -3.453   6.045 -35.021  1.00  0.00    -0.360 OA
HETATM   27  H   UNL     1      -4.079   6.797 -34.965  1.00  0.00     0.217 HD
ENDBRANCH  20  26
ENDBRANCH  18  19
ENDBRANCH   3  18
TORSDOF 6
ENDMDL
MODEL 3
REMARK VINA RESULT:      -7.7      1.816      2.778
REMARK  6 active torsions:
REMARK  status: ('A' for Active; 'I' for Inactive)
REMARK    1  A    between atoms: C_5  and  N_6 
REMARK    2  A    between atoms: N_6  and  C_7 
REMARK    3  A    between atoms: C_7  and  C_8 
REMARK    4  A    between atoms: N_10  and  C_12 
REMARK    5  A    between atoms: C_12  and  C_13 
REMARK    6  A    between atoms: C_14  and  O_15 
ROOT
HETATM    1  C   UNL     1      -9.180   2.555 -33.234  1.00  0.00     0.031 C 
HETATM    2  C   UNL     1      -9.009   1.312 -34.095  1.00  0.00     0.241 C 
HETATM    3  N   UNL     1      -7.923   0.540 -33.383  1.00  0.00    -0.067 N 
HETATM    4  H   UNL     1      -8.142  -0.472 -33.454  1.00  0.00     0.280 HD
HETATM    5  C   UNL     1      -7.936   0.959 -31.931  1.00  0.00     0.235 C 
HETATM    6  C   UNL     1      -9.073   1.970 -31.830  1.00  0.00     0.035 C 
ENDROOT
BRANCH   1   7
HETATM    7  C   UNL     1     -10.486   3.319 -33.482  1.00  0.00     0.127 C 
BRANCH   7   8
HETATM    8  N   UNL     1     -11.513   2.869 -32.551  1.00  0.00    -0.376 N 
HETATM    9  H   UNL     1     -11.147   2.348 -31.748  1.00  0.00     0.161 HD
BRANCH   8  10
HETATM   10  C   UNL     1     -12.694   2.255 -32.979  1.00  0.00     0.101 A 
HETATM   11  N   UNL     1     -13.894   2.502 -32.425  1.00  0.00    -0.347 N 
HETATM   12  C   UNL     1     -15.039   1.917 -32.831  1.00  0.00     0.007 A 
HETATM   13  H   UNL     1     -13.950   3.182 -31.677  1.00  0.00     0.167 HD
HETATM   14  C   UNL     1     -16.326   2.308 -32.178  1.00  0.00     0.068 C 
HETATM   15  C   UNL     1     -14.999   0.974 -33.857  1.00  0.00     0.025 A 
HETATM   16  C   UNL     1     -13.781   0.660 -34.443  1.00  0.00     0.006 A 
HETATM   17  C   UNL     1     -12.628   1.303 -34.006  1.00  0.00     0.048 A 
ENDBRANCH   8  10
ENDBRANCH   7   8
ENDBRANCH   1   7
BRANCH   3  18
HETATM   18  C   UNL     1      -6.551   0.631 -34.015  1.00  0.00     0.276 C 
BRANCH  18  19
HETATM   19  C   UNL     1      -5.798  -0.670 -34.004  1.00  0.00     0.002 A 
HETATM   20  C   UNL     1      -4.527  -0.769 -33.424  1.00  0.00     0.073 A 
HETATM   21  C   UNL     1      -3.816  -1.968 -33.432  1.00  0.00     0.038 A 
HETATM   22  C   UNL     1      -4.381  -3.097 -34.027  1.00  0.00     0.022 A 
HETATM   23  C   UNL     1      -5.643  -3.014 -34.611  1.00  0.00     0.011 A 
HETATM   24 BR   UNL     1      -6.418  -4.546 -35.400  1.00  0.00    -0.051 Br
HETATM   25  C   UNL     1      -6.349  -1.810 -34.610  1.00  0.00     0.030 A 
BRANCH  20  26
HETATM   26  O   UNL     1      -4.005   0.343 -32.820  1.00  0.00    -0.360 OA
HETATM   27  H   UNL     1      -3.050   0.380 -33.041  1.00  0.00     0.217 HD
ENDBRANCH  20  26
ENDBRANCH  18  19
ENDBRANCH   3  18
TORSDOF 6
ENDMDL
MODEL 4
REMARK VINA RESULT:      -7.7      4.983      7.689
REMARK  6 active torsions:
REMARK  status: ('A' for Active; 'I' for Inactive)
REMARK    1  A    between atoms: C_5  and  N_6 
REMARK    2  A    between atoms: N_6  and  C_7 
REMARK    3  A    between atoms: C_7  and  C_8 
REMARK    4  A    between atoms: N_10  and  C_12 
REMARK    5  A    between atoms: C_12  and  C_13 
REMARK    6  A    between atoms: C_14  and  O_15 
ROOT
HETATM    1  C   UNL     1      -5.857   2.295 -33.447  1.00  0.00     0.031 C 
HETATM    2  C   UNL     1      -4.909   2.824 -32.381  1.00  0.00     0.241 C 
HETATM    3  N   UNL     1      -4.441   4.143 -32.951  1.00  0.00    -0.067 N 
HETATM    4  H   UNL     1      -4.345   4.820 -32.170  1.00  0.00     0.280 HD
HETATM    5  C   UNL     1      -5.500   4.630 -33.914  1.00  0.00     0.235 C 
HETATM    6  C   UNL     1      -6.593   3.567 -33.857  1.00  0.00     0.035 C 
ENDROOT
BRANCH   1   7
HETATM    7  C   UNL     1      -6.789   1.178 -32.964  1.00  0.00     0.127 C 
BRANCH   7   8
HETATM    8  N   UNL     1      -6.998   0.205 -34.029  1.00  0.00    -0.376 N 
HETATM    9  H   UNL     1      -7.983  -0.020 -34.200  1.00  0.00     0.161 HD
BRANCH   8  10
HETATM   10  C   UNL     1      -6.249  -0.972 -34.125  1.00  0.00     0.101 A 
HETATM   11  N   UNL     1      -6.736  -2.113 -34.643  1.00  0.00    -0.347 N 
HETATM   12  C   UNL     1      -6.023  -3.254 -34.742  1.00  0.00     0.007 A 
HETATM   13  H   UNL     1      -7.684  -2.116 -35.000  1.00  0.00     0.167 HD
HETATM   14  C   UNL     1      -6.650  -4.449 -35.385  1.00  0.00     0.068 C 
HETATM   15  C   UNL     1      -4.717  -3.287 -34.257  1.00  0.00     0.025 A 
HETATM   16  C   UNL     1      -4.175  -2.144 -33.686  1.00  0.00     0.006 A 
HETATM   17  C   UNL     1      -4.941  -0.986 -33.623  1.00  0.00     0.048 A 
ENDBRANCH   8  10
ENDBRANCH   7   8
ENDBRANCH   1   7
BRANCH   3  18
HETATM   18  C   UNL     1      -3.054   4.127 -33.554  1.00  0.00     0.276 C 
BRANCH  18  19
HETATM   19  C   UNL     1      -2.126   5.143 -32.951  1.00  0.00     0.002 A 
HETATM   20  C   UNL     1      -1.951   6.404 -33.535  1.00  0.00     0.073 A 
HETATM   21  C   UNL     1      -1.074   7.341 -32.992  1.00  0.00     0.038 A 
HETATM   22  C   UNL     1      -0.355   7.022 -31.839  1.00  0.00     0.022 A 
HETATM   23  C   UNL     1      -0.516   5.771 -31.247  1.00  0.00     0.011 A 
HETATM   24 BR   UNL     1       0.442   5.343 -29.677  1.00  0.00    -0.051 Br
HETATM   25  C   UNL     1      -1.387   4.830 -31.799  1.00  0.00     0.030 A 
BRANCH  20  26
HETATM   26  O   UNL     1      -2.688   6.708 -34.649  1.00  0.00    -0.360 OA
HETATM   27  H   UNL     1      -2.307   7.520 -35.044  1.00  0.00     0.217 HD
ENDBRANCH  20  26
ENDBRANCH  18  19
ENDBRANCH   3  18
TORSDOF 6
ENDMDL
MODEL 5
REMARK VINA RESULT:      -7.6      3.891      6.754
REMARK  6 active torsions:
REMARK  status: ('A' for Active; 'I' for Inactive)
REMARK    1  A    between atoms: C_5  and  N_6 
REMARK    2  A    between atoms: N_6  and  C_7 
REMARK    3  A    between atoms: C_7  and  C_8 
REMARK    4  A    between atoms: N_10  and  C_12 
REMARK    5  A    between atoms: C_12  and  C_13 
REMARK    6  A    between atoms: C_14  and  O_15 
ROOT
HETATM    1  C   UNL     1      -5.191   2.114 -30.893  1.00  0.00     0.031 C 
HETATM    2  C   UNL     1      -6.032   2.043 -32.160  1.00  0.00     0.241 C 
HETATM    3  N   UNL     1      -6.102   0.562 -32.452  1.00  0.00    -0.067 N 
HETATM    4  H   UNL     1      -7.046   0.348 -32.825  1.00  0.00     0.280 HD
HETATM    5  C   UNL     1      -5.894  -0.174 -31.149  1.00  0.00     0.235 C 
HETATM    6  C   UNL     1      -5.730   0.925 -30.104  1.00  0.00     0.035 C 
ENDROOT
BRANCH   1   7
HETATM    7  C   UNL     1      -5.294   3.446 -30.142  1.00  0.00     0.127 C 
BRANCH   7   8
HETATM    8  N   UNL     1      -4.930   4.547 -31.024  1.00  0.00    -0.376 N 
HETATM    9  H   UNL     1      -5.590   4.699 -31.794  1.00  0.00     0.161 HD
BRANCH   8  10
HETATM   10  C   UNL     1      -3.630   4.718 -31.512  1.00  0.00     0.101 A 
HETATM   11  N   UNL     1      -2.581   5.004 -30.722  1.00  0.00    -0.347 N 
HETATM   12  C   UNL     1      -1.323   5.169 -31.182  1.00  0.00     0.007 A 
HETATM   13  H   UNL     1      -2.733   5.080 -29.724  1.00  0.00     0.167 HD
HETATM   14  C   UNL     1      -0.222   5.432 -30.205  1.00  0.00     0.068 C 
HETATM   15  C   UNL     1      -1.078   5.075 -32.550  1.00  0.00     0.025 A 
HETATM   16  C   UNL     1      -2.132   4.810 -33.413  1.00  0.00     0.006 A 
HETATM   17  C   UNL     1      -3.408   4.629 -32.893  1.00  0.00     0.048 A 
ENDBRANCH   8  10
ENDBRANCH   7   8
ENDBRANCH   1   7
BRANCH   3  18
HETATM   18  C   UNL     1      -5.187   0.081 -33.557  1.00  0.00     0.276 C 
BRANCH  18  19
HETATM   19  C   UNL     1      -5.446  -1.340 -33.974  1.00  0.00     0.002 A 
HETATM   20  C   UNL     1      -6.661  -1.713 -34.562  1.00  0.00     0.073 A 
HETATM   21  C   UNL     1      -6.914  -3.034 -34.928  1.00  0.00     0.038 A 
HETATM   22  C   UNL     1      -5.938  -4.007 -34.710  1.00  0.00     0.022 A 
HETATM   23  C   UNL     1      -4.725  -3.651 -34.123  1.00  0.00     0.011 A 
HETATM   24 BR   UNL     1      -3.395  -4.963 -33.842  1.00  0.00    -0.051 Br
HETATM   25  C   UNL     1      -4.477  -2.330 -33.747  1.00  0.00     0.030 A 
BRANCH  20  26
HETATM   26  O   UNL     1      -7.593  -0.738 -34.795  1.00  0.00    -0.360 OA
HETATM   27  H   UNL     1      -7.667  -0.625 -35.766  1.00  0.00     0.217 HD
ENDBRANCH  20  26
ENDBRANCH  18  19
ENDBRANCH   3  18
TORSDOF 6
ENDMDL
MODEL 6
REMARK VINA RESULT:      -7.6      3.743      7.386
REMARK  6 active torsions:
REMARK  status: ('A' for Active; 'I' for Inactive)
REMARK    1  A    between atoms: C_5  and  N_6 
REMARK    2  A    between atoms: N_6  and  C_7 
REMARK    3  A    between atoms: C_7  and  C_8 
REMARK    4  A    between atoms: N_10  and  C_12 
REMARK    5  A    between atoms: C_12  and  C_13 
REMARK    6  A    between atoms: C_14  and  O_15 
ROOT
HETATM    1  C   UNL     1      -6.461   3.244 -30.365  1.00  0.00     0.031 C 
HETATM    2  C   UNL     1      -6.866   2.952 -31.803  1.00  0.00     0.241 C 
HETATM    3  N   UNL     1      -8.304   2.505 -31.678  1.00  0.00    -0.067 N 
HETATM    4  H   UNL     1      -8.830   2.869 -32.495  1.00  0.00     0.280 HD
HETATM    5  C   UNL     1      -8.864   3.104 -30.408  1.00  0.00     0.235 C 
HETATM    6  C   UNL     1      -7.716   3.924 -29.828  1.00  0.00     0.035 C 
ENDROOT
BRANCH   1   7
HETATM    7  C   UNL     1      -5.195   4.097 -30.227  1.00  0.00     0.127 C 
BRANCH   7   8
HETATM    8  N   UNL     1      -4.042   3.366 -30.738  1.00  0.00    -0.376 N 
HETATM    9  H   UNL     1      -3.580   2.776 -30.039  1.00  0.00     0.161 HD
BRANCH   8  10
HETATM   10  C   UNL     1      -3.059   3.975 -31.526  1.00  0.00     0.101 A 
HETATM   11  N   UNL     1      -1.985   4.596 -31.011  1.00  0.00    -0.347 N 
HETATM   12  C   UNL     1      -1.030   5.184 -31.761  1.00  0.00     0.007 A 
HETATM   13  H   UNL     1      -1.868   4.607 -30.005  1.00  0.00     0.167 HD
HETATM   14  C   UNL     1       0.151   5.800 -31.082  1.00  0.00     0.068 C 
HETATM   15  C   UNL     1      -1.160   5.192 -33.149  1.00  0.00     0.025 A 
HETATM   16  C   UNL     1      -2.266   4.589 -33.731  1.00  0.00     0.006 A 
HETATM   17  C   UNL     1      -3.215   3.978 -32.919  1.00  0.00     0.048 A 
ENDBRANCH   8  10
ENDBRANCH   7   8
ENDBRANCH   1   7
BRANCH   3  18
HETATM   18  C   UNL     1      -8.523   1.011 -31.775  1.00  0.00     0.276 C 
BRANCH  18  19
HETATM   19  C   UNL     1      -7.817   0.377 -32.941  1.00  0.00     0.002 A 
HETATM   20  C   UNL     1      -8.283   0.547 -34.251  1.00  0.00     0.073 A 
HETATM   21  C   UNL     1      -7.645  -0.059 -35.333  1.00  0.00     0.038 A 
HETATM   22  C   UNL     1      -6.517  -0.849 -35.110  1.00  0.00     0.022 A 
HETATM   23  C   UNL     1      -6.043  -1.031 -33.812  1.00  0.00     0.011 A 
HETATM   24 BR   UNL     1      -4.505  -2.085 -33.510  1.00  0.00    -0.051 Br
HETATM   25  C   UNL     1      -6.689  -0.431 -32.729  1.00  0.00     0.030 A 
BRANCH  20  26
HETATM   26  O   UNL     1      -9.374   1.350 -34.450  1.00  0.00    -0.360 OA
HETATM   27  H   UNL     1      -9.724   1.157 -35.345  1.00  0.00     0.217 HD
ENDBRANCH  20  26
ENDBRANCH  18  19
ENDBRANCH   3  18
TORSDOF 6
ENDMDL
MODEL 7
REMARK VINA RESULT:      -7.6      3.406      7.879
REMARK  6 active torsions:
REMARK  status: ('A' for Active; 'I' for Inactive)
REMARK    1  A    between atoms: C_5  and  N_6 
REMARK    2  A    between atoms: N_6  and  C_7 
REMARK    3  A    between atoms: C_7  and  C_8 
REMARK    4  A    between atoms: N_10  and  C_12 
REMARK    5  A    between atoms: C_12  and  C_13 
REMARK    6  A    between atoms: C_14  and  O_15 
ROOT
HETATM    1  C   UNL     1      -6.264   0.549 -32.560  1.00  0.00     0.031 C 
HETATM    2  C   UNL     1      -7.620  -0.141 -32.601  1.00  0.00     0.241 C 
HETATM    3  N   UNL     1      -8.451   0.770 -33.474  1.00  0.00    -0.067 N 
HETATM    4  H   UNL     1      -9.079   0.182 -34.053  1.00  0.00     0.280 HD
HETATM    5  C   UNL     1      -7.506   1.536 -34.371  1.00  0.00     0.235 C 
HETATM    6  C   UNL     1      -6.119   1.018 -34.004  1.00  0.00     0.035 C 
ENDROOT
BRANCH   1   7
HETATM    7  C   UNL     1      -5.113  -0.348 -32.089  1.00  0.00     0.127 C 
BRANCH   7   8
HETATM    8  N   UNL     1      -4.413  -0.908 -33.238  1.00  0.00    -0.376 N 
HETATM    9  H   UNL     1      -4.537  -0.371 -34.103  1.00  0.00     0.161 HD
BRANCH   8  10
HETATM   10  C   UNL     1      -4.456  -2.270 -33.551  1.00  0.00     0.101 A 
HETATM   11  N   UNL     1      -5.386  -2.811 -34.356  1.00  0.00    -0.347 N 
HETATM   12  C   UNL     1      -5.436  -4.123 -34.666  1.00  0.00     0.007 A 
HETATM   13  H   UNL     1      -6.077  -2.200 -34.775  1.00  0.00     0.167 HD
HETATM   14  C   UNL     1      -6.484  -4.606 -35.617  1.00  0.00     0.068 C 
HETATM   15  C   UNL     1      -4.503  -4.993 -34.105  1.00  0.00     0.025 A 
HETATM   16  C   UNL     1      -3.538  -4.491 -33.243  1.00  0.00     0.006 A 
HETATM   17  C   UNL     1      -3.513  -3.129 -32.968  1.00  0.00     0.048 A 
ENDBRANCH   8  10
ENDBRANCH   7   8
ENDBRANCH   1   7
BRANCH   3  18
HETATM   18  C   UNL     1      -9.419   1.665 -32.730  1.00  0.00     0.276 C 
BRANCH  18  19
HETATM   19  C   UNL     1     -10.733   1.843 -33.437  1.00  0.00     0.002 A 
HETATM   20  C   UNL     1     -11.652   0.790 -33.538  1.00  0.00     0.073 A 
HETATM   21  C   UNL     1     -12.862   0.944 -34.213  1.00  0.00     0.038 A 
HETATM   22  C   UNL     1     -13.170   2.173 -34.797  1.00  0.00     0.022 A 
HETATM   23  C   UNL     1     -12.266   3.229 -34.708  1.00  0.00     0.011 A 
HETATM   24 BR   UNL     1     -12.689   4.899 -35.483  1.00  0.00    -0.051 Br
HETATM   25  C   UNL     1     -11.050   3.070 -34.041  1.00  0.00     0.030 A 
BRANCH  20  26
HETATM   26  O   UNL     1     -11.342  -0.398 -32.931  1.00  0.00    -0.360 OA
HETATM   27  H   UNL     1     -11.779  -1.113 -33.440  1.00  0.00     0.217 HD
ENDBRANCH  20  26
ENDBRANCH  18  19
ENDBRANCH   3  18
TORSDOF 6
ENDMDL
MODEL 8
REMARK VINA RESULT:      -7.5      3.383      7.654
REMARK  6 active torsions:
REMARK  status: ('A' for Active; 'I' for Inactive)
REMARK    1  A    between atoms: C_5  and  N_6 
REMARK    2  A    between atoms: N_6  and  C_7 
REMARK    3  A    between atoms: C_7  and  C_8 
REMARK    4  A    between atoms: N_10  and  C_12 
REMARK    5  A    between atoms: C_12  and  C_13 
REMARK    6  A    between atoms: C_14  and  O_15 
ROOT
HETATM    1  C   UNL     1      -6.466   1.178 -32.178  1.00  0.00     0.031 C 
HETATM    2  C   UNL     1      -7.457   1.319 -33.325  1.00  0.00     0.241 C 
HETATM    3  N   UNL     1      -7.896   2.762 -33.234  1.00  0.00    -0.067 N 
HETATM    4  H   UNL     1      -8.023   3.125 -34.197  1.00  0.00     0.280 HD
HETATM    5  C   UNL     1      -6.797   3.535 -32.542  1.00  0.00     0.235 C 
HETATM    6  C   UNL     1      -5.710   2.500 -32.266  1.00  0.00     0.035 C 
ENDROOT
BRANCH   1   7
HETATM    7  C   UNL     1      -5.559  -0.054 -32.276  1.00  0.00     0.127 C 
BRANCH   7   8
HETATM    8  N   UNL     1      -5.477  -0.505 -33.660  1.00  0.00    -0.376 N 
HETATM    9  H   UNL     1      -6.072   0.024 -34.306  1.00  0.00     0.161 HD
BRANCH   8  10
HETATM   10  C   UNL     1      -5.533  -1.858 -34.010  1.00  0.00     0.101 A 
HETATM   11  N   UNL     1      -4.496  -2.700 -33.863  1.00  0.00    -0.347 N 
HETATM   12  C   UNL     1      -4.540  -4.006 -34.196  1.00  0.00     0.007 A 
HETATM   13  H   UNL     1      -3.638  -2.344 -33.459  1.00  0.00     0.167 HD
HETATM   14  C   UNL     1      -3.341  -4.862 -33.939  1.00  0.00     0.068 C 
HETATM   15  C   UNL     1      -5.703  -4.530 -34.758  1.00  0.00     0.025 A 
HETATM   16  C   UNL     1      -6.795  -3.697 -34.958  1.00  0.00     0.006 A 
HETATM   17  C   UNL     1      -6.711  -2.361 -34.582  1.00  0.00     0.048 A 
ENDBRANCH   8  10
ENDBRANCH   7   8
ENDBRANCH   1   7
BRANCH   3  18
HETATM   18  C   UNL     1      -9.257   2.981 -32.610  1.00  0.00     0.276 C 
BRANCH  18  19
HETATM   19  C   UNL     1     -10.392   2.858 -33.588  1.00  0.00     0.002 A 
HETATM   20  C   UNL     1     -10.546   3.771 -34.639  1.00  0.00     0.073 A 
HETATM   21  C   UNL     1     -11.610   3.675 -35.535  1.00  0.00     0.038 A 
HETATM   22  C   UNL     1     -12.541   2.646 -35.387  1.00  0.00     0.022 A 
HETATM   23  C   UNL     1     -12.403   1.732 -34.344  1.00  0.00     0.011 A 
HETATM   24 BR   UNL     1     -13.652   0.328 -34.152  1.00  0.00    -0.051 Br
HETATM   25  C   UNL     1     -11.343   1.836 -33.443  1.00  0.00     0.030 A 
BRANCH  20  26
HETATM   26  O   UNL     1      -9.604   4.754 -34.784  1.00  0.00    -0.360 OA
HETATM   27  H   UNL     1      -8.852   4.533 -34.196  1.00  0.00     0.217 HD
ENDBRANCH  20  26
ENDBRANCH  18  19
ENDBRANCH   3  18
TORSDOF 6
ENDMDL
MODEL 9
REMARK VINA RESULT:      -7.4      4.335      8.053
REMARK  6 active torsions:
REMARK  status: ('A' for Active; 'I' for Inactive)
REMARK    1  A    between atoms: C_5  and  N_6 
REMARK    2  A    between atoms: N_6  and  C_7 
REMARK    3  A    between atoms: C_7  and  C_8 
REMARK    4  A    between atoms: N_10  and  C_12 
REMARK    5  A    between atoms: C_12  and  C_13 
REMARK    6  A    between atoms: C_14  and  O_15 
ROOT
HETATM    1  C   UNL     1      -4.781   2.729 -31.533  1.00  0.00     0.031 C 
HETATM    2  C   UNL     1      -6.035   2.673 -32.394  1.00  0.00     0.241 C 
HETATM    3  N   UNL     1      -7.124   2.323 -31.407  1.00  0.00    -0.067 N 
HETATM    4  H   UNL     1      -7.984   2.836 -31.675  1.00  0.00     0.280 HD
HETATM    5  C   UNL     1      -6.669   2.780 -30.040  1.00  0.00     0.235 C 
HETATM    6  C   UNL     1      -5.306   3.422 -30.279  1.00  0.00     0.035 C 
ENDROOT
BRANCH   1   7
HETATM    7  C   UNL     1      -3.600   3.456 -32.186  1.00  0.00     0.127 C 
BRANCH   7   8
HETATM    8  N   UNL     1      -2.566   3.722 -31.193  1.00  0.00    -0.376 N 
HETATM    9  H   UNL     1      -2.888   3.635 -30.223  1.00  0.00     0.161 HD
BRANCH   8  10
HETATM   10  C   UNL     1      -1.709   4.824 -31.280  1.00  0.00     0.101 A 
HETATM   11  N   UNL     1      -1.071   5.345 -30.218  1.00  0.00    -0.347 N 
HETATM   12  C   UNL     1      -0.242   6.406 -30.291  1.00  0.00     0.007 A 
HETATM   13  H   UNL     1      -1.198   4.906 -29.314  1.00  0.00     0.167 HD
HETATM   14  C   UNL     1       0.458   6.868 -29.053  1.00  0.00     0.068 C 
HETATM   15  C   UNL     1      -0.045   7.037 -31.519  1.00  0.00     0.025 A 
HETATM   16  C   UNL     1      -0.704   6.557 -32.642  1.00  0.00     0.006 A 
HETATM   17  C   UNL     1      -1.534   5.448 -32.523  1.00  0.00     0.048 A 
ENDBRANCH   8  10
ENDBRANCH   7   8
ENDBRANCH   1   7
BRANCH   3  18
HETATM   18  C   UNL     1      -7.572   0.879 -31.430  1.00  0.00     0.276 C 
BRANCH  18  19
HETATM   19  C   UNL     1      -7.268   0.177 -32.724  1.00  0.00     0.002 A 
HETATM   20  C   UNL     1      -8.020   0.427 -33.879  1.00  0.00     0.073 A 
HETATM   21  C   UNL     1      -7.756  -0.239 -35.075  1.00  0.00     0.038 A 
HETATM   22  C   UNL     1      -6.719  -1.171 -35.128  1.00  0.00     0.022 A 
HETATM   23  C   UNL     1      -5.964  -1.433 -33.987  1.00  0.00     0.011 A 
HETATM   24 BR   UNL     1      -4.549  -2.682 -34.060  1.00  0.00    -0.051 Br
HETATM   25  C   UNL     1      -6.237  -0.773 -32.787  1.00  0.00     0.030 A 
BRANCH  20  26
HETATM   26  O   UNL     1      -9.013   1.367 -33.813  1.00  0.00    -0.360 OA
HETATM   27  H   UNL     1      -9.841   0.906 -33.563  1.00  0.00     0.217 HD
ENDBRANCH  20  26
ENDBRANCH  18  19
ENDBRANCH   3  18
TORSDOF 6
ENDMDL
MODEL 10
REMARK VINA RESULT:      -7.3      4.085      7.732
REMARK  6 active torsions:
REMARK  status: ('A' for Active; 'I' for Inactive)
REMARK    1  A    between atoms: C_5  and  N_6 
REMARK    2  A    between atoms: N_6  and  C_7 
REMARK    3  A    between atoms: C_7  and  C_8 
REMARK    4  A    between atoms: N_10  and  C_12 
REMARK    5  A    between atoms: C_12  and  C_13 
REMARK    6  A    between atoms: C_14  and  O_15 
ROOT
HETATM    1  C   UNL     1      -4.883   3.457 -31.847  1.00  0.00     0.031 C 
HETATM    2  C   UNL     1      -4.056   2.242 -32.242  1.00  0.00     0.241 C 
HETATM    3  N   UNL     1      -5.040   1.378 -32.995  1.00  0.00    -0.067 N 
HETATM    4  H   UNL     1      -4.539   0.920 -33.780  1.00  0.00     0.280 HD
HETATM    5  C   UNL     1      -6.120   2.282 -33.545  1.00  0.00     0.235 C 
HETATM    6  C   UNL     1      -5.711   3.685 -33.107  1.00  0.00     0.035 C 
ENDROOT
BRANCH   1   7
HETATM    7  C   UNL     1      -4.052   4.676 -31.430  1.00  0.00     0.127 C 
BRANCH   7   8
HETATM    8  N   UNL     1      -2.710   4.259 -31.044  1.00  0.00    -0.376 N 
HETATM    9  H   UNL     1      -2.683   3.665 -30.208  1.00  0.00     0.161 HD
BRANCH   8  10
HETATM   10  C   UNL     1      -1.635   5.151 -30.991  1.00  0.00     0.101 A 
HETATM   11  N   UNL     1      -1.007   5.479 -29.849  1.00  0.00    -0.347 N 
HETATM   12  C   UNL     1       0.032   6.337 -29.786  1.00  0.00     0.007 A 
HETATM   13  H   UNL     1      -1.312   5.043 -28.987  1.00  0.00     0.167 HD
HETATM   14  C   UNL     1       0.690   6.586 -28.467  1.00  0.00     0.068 C 
HETATM   15  C   UNL     1       0.477   6.958 -30.952  1.00  0.00     0.025 A 
HETATM   16  C   UNL     1      -0.156   6.677 -32.155  1.00  0.00     0.006 A 
HETATM   17  C   UNL     1      -1.211   5.771 -32.175  1.00  0.00     0.048 A 
ENDBRANCH   8  10
ENDBRANCH   7   8
ENDBRANCH   1   7
BRANCH   3  18
HETATM   18  C   UNL     1      -5.591   0.203 -32.217  1.00  0.00     0.276 C 
BRANCH  18  19
HETATM   19  C   UNL     1      -5.037  -1.122 -32.660  1.00  0.00     0.002 A 
HETATM   20  C   UNL     1      -3.831  -1.614 -32.145  1.00  0.00     0.073 A 
HETATM   21  C   UNL     1      -3.302  -2.831 -32.571  1.00  0.00     0.038 A 
HETATM   22  C   UNL     1      -3.988  -3.580 -33.528  1.00  0.00     0.022 A 
HETATM   23  C   UNL     1      -5.187  -3.103 -34.053  1.00  0.00     0.011 A 
HETATM   24 BR   UNL     1      -6.125  -4.124 -35.336  1.00  0.00    -0.051 Br
HETATM   25  C   UNL     1      -5.710  -1.879 -33.632  1.00  0.00     0.030 A 
BRANCH  20  26
HETATM   26  O   UNL     1      -3.191  -0.877 -31.185  1.00  0.00    -0.360 OA
HETATM   27  H   UNL     1      -3.878  -0.457 -30.626  1.00  0.00     0.217 HD
ENDBRANCH  20  26
ENDBRANCH  18  19
ENDBRANCH   3  18
TORSDOF 6
ENDMDL
