MODEL 1
REMARK VINA RESULT:      -8.4      0.000      0.000
REMARK  14 active torsions:
REMARK  status: ('A' for Active; 'I' for Inactive)
REMARK    1  A    between atoms: C_2  and  O_3 
REMARK    2  A    between atoms: O_3  and  C_4 
REMARK    3  A    between atoms: C_5  and  O_6 
REMARK    4  A    between atoms: C_9  and  C_10 
REMARK    5  A    between atoms: N_11  and  C_12 
REMARK    6  A    between atoms: C_12  and  C_13 
REMARK    7  A    between atoms: C_13  and  C_14 
REMARK    8  A    between atoms: C_14  and  N_15 
REMARK    9  A    between atoms: C_21  and  O_22 
REMARK   10  A    between atoms: C_23  and  C_24 
REMARK   11  A    between atoms: C_24  and  C_25 
REMARK   12  A    between atoms: C_29  and  O_30 
REMARK   13  A    between atoms: O_30  and  C_31 
REMARK   14  A    between atoms: C_31  and  C_32 
ROOT
HETATM    1  C   UNL     1      -7.125   1.577 -32.893  1.00  0.00     0.161 A 
HETATM    2  N   UNL     1      -8.137   1.491 -31.841  1.00  0.00    -0.333 N 
HETATM    3  C   UNL     1      -8.348   2.712 -31.244  1.00  0.00     0.278 A 
HETATM    4  O   UNL     1      -9.183   2.976 -30.392  1.00  0.00    -0.265 OA
HETATM    5  C   UNL     1      -7.372   3.662 -31.805  1.00  0.00     0.146 A 
HETATM    6  C   UNL     1      -6.693   3.014 -32.759  1.00  0.00     0.059 A 
ENDROOT
BRANCH   6   7
HETATM    7  C   UNL     1      -5.644   3.548 -33.653  1.00  0.00     0.193 C 
HETATM    8  O   UNL     1      -5.851   3.693 -34.853  1.00  0.00    -0.287 OA
BRANCH   7   9
HETATM    9  C   UNL     1      -4.333   3.937 -33.108  1.00  0.00     0.015 A 
HETATM   10  C   UNL     1      -3.491   4.788 -33.830  1.00  0.00     0.025 A 
HETATM   11  C   UNL     1      -2.222   5.110 -33.327  1.00  0.00    -0.028 A 
HETATM   12  C   UNL     1      -1.309   6.008 -34.116  1.00  0.00     0.051 C 
HETATM   13  C   UNL     1      -1.798   4.547 -32.109  1.00  0.00     0.074 A 
HETATM   14  C   UNL     1      -2.652   3.702 -31.392  1.00  0.00     0.038 A 
HETATM   15  C   UNL     1      -3.914   3.383 -31.898  1.00  0.00     0.018 A 
BRANCH  13  16
HETATM   16  O   UNL     1      -0.539   4.894 -31.701  1.00  0.00    -0.350 OA
BRANCH  16  17
HETATM   17  C   UNL     1      -0.408   5.424 -30.380  1.00  0.00     0.179 C 
BRANCH  17  18
HETATM   18  C   UNL     1      -0.113   6.931 -30.457  1.00  0.00     0.002 C 
HETATM   19  C   UNL     1      -1.402   7.732 -30.652  1.00  0.00     0.011 C 
HETATM   20  C   UNL     1       0.625   7.423 -29.211  1.00  0.00     0.011 C 
ENDBRANCH  17  18
ENDBRANCH  16  17
ENDBRANCH  13  16
ENDBRANCH   7   9
ENDBRANCH   6   7
BRANCH   1  21
HETATM   21  C   UNL     1      -6.069   0.501 -32.722  1.00  0.00    -0.028 A 
HETATM   22  C   UNL     1      -5.279   0.510 -31.555  1.00  0.00     0.012 A 
HETATM   23  C   UNL     1      -4.284  -0.445 -31.358  1.00  0.00     0.040 A 
HETATM   24  C   UNL     1      -4.087  -1.426 -32.317  1.00  0.00     0.099 A 
HETATM   25  C   UNL     1      -4.868  -1.479 -33.475  1.00  0.00     0.102 A 
HETATM   26  C   UNL     1      -5.838  -0.497 -33.690  1.00  0.00     0.049 A 
BRANCH  24  27
HETATM   27  O   UNL     1      -3.115  -2.360 -32.091  1.00  0.00    -0.358 OA
HETATM   28  H   UNL     1      -2.357  -2.086 -32.643  1.00  0.00     0.218 HD
ENDBRANCH  24  27
BRANCH  25  29
HETATM   29  O   UNL     1      -4.578  -2.512 -34.327  1.00  0.00    -0.349 OA
BRANCH  29  30
HETATM   30  C   UNL     1      -5.610  -2.873 -35.246  1.00  0.00     0.171 C 
HETATM   31  C   UNL     1      -6.161  -4.222 -34.820  1.00  0.00     0.034 C 
ENDBRANCH  29  30
ENDBRANCH  25  29
ENDBRANCH   1  21
BRANCH   5  32
HETATM   32  O   UNL     1      -7.259   4.953 -31.392  1.00  0.00    -0.355 OA
HETATM   33  H   UNL     1      -6.666   4.965 -30.616  1.00  0.00     0.218 HD
ENDBRANCH   5  32
BRANCH   2  34
HETATM   34  C   UNL     1      -9.038   0.361 -31.701  1.00  0.00     0.129 C 
BRANCH  34  35
HETATM   35  C   UNL     1      -9.828   0.028 -32.971  1.00  0.00     0.048 C 
BRANCH  35  36
HETATM   36  C   UNL     1     -11.028   0.916 -33.307  1.00  0.00     0.235 C 
BRANCH  36  37
HETATM   37  N   UNL     1     -10.927   1.625 -34.637  1.00  0.00    -0.079 N 
HETATM   38  H   UNL     1     -10.275   1.060 -35.220  1.00  0.00     0.278 HD
HETATM   39  C   UNL     1     -12.223   1.788 -35.370  1.00  0.00     0.269 C 
HETATM   40  C   UNL     1     -10.216   2.946 -34.502  1.00  0.00     0.269 C 
ENDBRANCH  36  37
ENDBRANCH  35  36
ENDBRANCH  34  35
ENDBRANCH   2  34
TORSDOF 14
ENDMDL
MODEL 2
REMARK VINA RESULT:      -7.9      2.464      7.916
REMARK  14 active torsions:
REMARK  status: ('A' for Active; 'I' for Inactive)
REMARK    1  A    between atoms: C_2  and  O_3 
REMARK    2  A    between atoms: O_3  and  C_4 
REMARK    3  A    between atoms: C_5  and  O_6 
REMARK    4  A    between atoms: C_9  and  C_10 
REMARK    5  A    between atoms: N_11  and  C_12 
REMARK    6  A    between atoms: C_12  and  C_13 
REMARK    7  A    between atoms: C_13  and  C_14 
REMARK    8  A    between atoms: C_14  and  N_15 
REMARK    9  A    between atoms: C_21  and  O_22 
REMARK   10  A    between atoms: C_23  and  C_24 
REMARK   11  A    between atoms: C_24  and  C_25 
REMARK   12  A    between atoms: C_29  and  O_30 
REMARK   13  A    between atoms: O_30  and  C_31 
REMARK   14  A    between atoms: C_31  and  C_32 
ROOT
HETATM    1  C   UNL     1      -6.168   4.022 -30.375  1.00  0.00     0.161 A 
HETATM    2  N   UNL     1      -7.218   5.036 -30.457  1.00  0.00    -0.333 N 
HETATM    3  C   UNL     1      -8.470   4.468 -30.430  1.00  0.00     0.278 A 
HETATM    4  O   UNL     1      -9.541   5.055 -30.404  1.00  0.00    -0.265 OA
HETATM    5  C   UNL     1      -8.301   3.004 -30.452  1.00  0.00     0.146 A 
HETATM    6  C   UNL     1      -6.986   2.758 -30.399  1.00  0.00     0.059 A 
ENDROOT
BRANCH   6   7
HETATM    7  C   UNL     1      -6.307   1.447 -30.340  1.00  0.00     0.193 C 
HETATM    8  O   UNL     1      -5.898   0.996 -29.275  1.00  0.00    -0.287 OA
BRANCH   7   9
HETATM    9  C   UNL     1      -6.131   0.647 -31.564  1.00  0.00     0.015 A 
HETATM   10  C   UNL     1      -6.924   0.891 -32.688  1.00  0.00     0.025 A 
HETATM   11  C   UNL     1      -6.785   0.090 -33.830  1.00  0.00    -0.028 A 
HETATM   12  C   UNL     1      -7.654   0.340 -35.032  1.00  0.00     0.051 C 
HETATM   13  C   UNL     1      -5.863  -0.975 -33.821  1.00  0.00     0.074 A 
HETATM   14  C   UNL     1      -5.070  -1.204 -32.691  1.00  0.00     0.038 A 
HETATM   15  C   UNL     1      -5.214  -0.405 -31.556  1.00  0.00     0.018 A 
BRANCH  13  16
HETATM   16  O   UNL     1      -5.806  -1.721 -34.966  1.00  0.00    -0.350 OA
BRANCH  16  17
HETATM   17  C   UNL     1      -4.824  -2.758 -35.016  1.00  0.00     0.179 C 
BRANCH  17  18
HETATM   18  C   UNL     1      -5.521  -4.125 -35.106  1.00  0.00     0.002 C 
HETATM   19  C   UNL     1      -4.793  -5.167 -34.254  1.00  0.00     0.011 C 
HETATM   20  C   UNL     1      -6.987  -4.036 -34.683  1.00  0.00     0.011 C 
ENDBRANCH  17  18
ENDBRANCH  16  17
ENDBRANCH  13  16
ENDBRANCH   7   9
ENDBRANCH   6   7
BRANCH   1  21
HETATM   21  C   UNL     1      -5.135   4.218 -31.468  1.00  0.00    -0.028 A 
HETATM   22  C   UNL     1      -5.579   4.383 -32.796  1.00  0.00     0.012 A 
HETATM   23  C   UNL     1      -4.672   4.549 -33.838  1.00  0.00     0.040 A 
HETATM   24  C   UNL     1      -3.314   4.569 -33.558  1.00  0.00     0.099 A 
HETATM   25  C   UNL     1      -2.839   4.432 -32.251  1.00  0.00     0.102 A 
HETATM   26  C   UNL     1      -3.749   4.226 -31.212  1.00  0.00     0.049 A 
BRANCH  24  27
HETATM   27  O   UNL     1      -2.446   4.750 -34.598  1.00  0.00    -0.358 OA
HETATM   28  H   UNL     1      -2.312   5.716 -34.662  1.00  0.00     0.218 HD
ENDBRANCH  24  27
BRANCH  25  29
HETATM   29  O   UNL     1      -1.476   4.490 -32.118  1.00  0.00    -0.349 OA
BRANCH  29  30
HETATM   30  C   UNL     1      -0.992   5.000 -30.875  1.00  0.00     0.171 C 
HETATM   31  C   UNL     1       0.426   5.495 -31.096  1.00  0.00     0.034 C 
ENDBRANCH  29  30
ENDBRANCH  25  29
ENDBRANCH   1  21
BRANCH   5  32
HETATM   32  O   UNL     1      -9.341   2.129 -30.495  1.00  0.00    -0.355 OA
HETATM   33  H   UNL     1      -8.978   1.247 -30.701  1.00  0.00     0.218 HD
ENDBRANCH   5  32
BRANCH   2  34
HETATM   34  C   UNL     1      -6.972   6.450 -30.235  1.00  0.00     0.129 C 
BRANCH  34  35
HETATM   35  C   UNL     1      -6.134   6.752 -28.990  1.00  0.00     0.048 C 
BRANCH  35  36
HETATM   36  C   UNL     1      -4.688   7.203 -29.205  1.00  0.00     0.235 C 
BRANCH  36  37
HETATM   37  N   UNL     1      -3.703   6.643 -28.208  1.00  0.00    -0.079 N 
HETATM   38  H   UNL     1      -3.549   5.649 -28.476  1.00  0.00     0.278 HD
HETATM   39  C   UNL     1      -2.381   7.345 -28.156  1.00  0.00     0.269 C 
HETATM   40  C   UNL     1      -4.312   6.541 -26.833  1.00  0.00     0.269 C 
ENDBRANCH  36  37
ENDBRANCH  35  36
ENDBRANCH  34  35
ENDBRANCH   2  34
TORSDOF 14
ENDMDL
MODEL 3
REMARK VINA RESULT:      -7.8      2.445      8.186
REMARK  14 active torsions:
REMARK  status: ('A' for Active; 'I' for Inactive)
REMARK    1  A    between atoms: C_2  and  O_3 
REMARK    2  A    between atoms: O_3  and  C_4 
REMARK    3  A    between atoms: C_5  and  O_6 
REMARK    4  A    between atoms: C_9  and  C_10 
REMARK    5  A    between atoms: N_11  and  C_12 
REMARK    6  A    between atoms: C_12  and  C_13 
REMARK    7  A    between atoms: C_13  and  C_14 
REMARK    8  A    between atoms: C_14  and  N_15 
REMARK    9  A    between atoms: C_21  and  O_22 
REMARK   10  A    between atoms: C_23  and  C_24 
REMARK   11  A    between atoms: C_24  and  C_25 
REMARK   12  A    between atoms: C_29  and  O_30 
REMARK   13  A    between atoms: O_30  and  C_31 
REMARK   14  A    between atoms: C_31  and  C_32 
ROOT
HETATM    1  C   UNL     1      -4.510   3.521 -32.210  1.00  0.00     0.161 A 
HETATM    2  N   UNL     1      -3.751   4.121 -33.306  1.00  0.00    -0.333 N 
HETATM    3  C   UNL     1      -4.543   4.932 -34.083  1.00  0.00     0.278 A 
HETATM    4  O   UNL     1      -4.184   5.628 -35.020  1.00  0.00    -0.265 OA
HETATM    5  C   UNL     1      -5.929   4.808 -33.596  1.00  0.00     0.146 A 
HETATM    6  C   UNL     1      -5.898   4.019 -32.515  1.00  0.00     0.059 A 
ENDROOT
BRANCH   6   7
HETATM    7  C   UNL     1      -7.022   3.637 -31.635  1.00  0.00     0.193 C 
HETATM    8  O   UNL     1      -6.968   3.825 -30.424  1.00  0.00    -0.287 OA
BRANCH   7   9
HETATM    9  C   UNL     1      -8.241   3.039 -32.206  1.00  0.00     0.015 A 
HETATM   10  C   UNL     1      -8.469   1.664 -32.102  1.00  0.00     0.025 A 
HETATM   11  C   UNL     1      -9.606   1.096 -32.696  1.00  0.00    -0.028 A 
HETATM   12  C   UNL     1      -9.840  -0.386 -32.602  1.00  0.00     0.051 C 
HETATM   13  C   UNL     1     -10.493   1.918 -33.417  1.00  0.00     0.074 A 
HETATM   14  C   UNL     1     -10.256   3.294 -33.507  1.00  0.00     0.038 A 
HETATM   15  C   UNL     1      -9.122   3.854 -32.917  1.00  0.00     0.018 A 
BRANCH  13  16
HETATM   16  O   UNL     1     -11.564   1.282 -33.983  1.00  0.00    -0.350 OA
BRANCH  16  17
HETATM   17  C   UNL     1     -12.853   1.855 -33.755  1.00  0.00     0.179 C 
BRANCH  17  18
HETATM   18  C   UNL     1     -13.858   0.743 -33.414  1.00  0.00     0.002 C 
HETATM   19  C   UNL     1     -15.140   0.893 -34.237  1.00  0.00     0.011 C 
HETATM   20  C   UNL     1     -13.257  -0.645 -33.634  1.00  0.00     0.011 C 
ENDBRANCH  17  18
ENDBRANCH  16  17
ENDBRANCH  13  16
ENDBRANCH   7   9
ENDBRANCH   6   7
BRANCH   1  21
HETATM   21  C   UNL     1      -4.292   2.021 -32.152  1.00  0.00    -0.028 A 
HETATM   22  C   UNL     1      -3.477   1.496 -31.129  1.00  0.00     0.012 A 
HETATM   23  C   UNL     1      -3.231   0.129 -31.041  1.00  0.00     0.040 A 
HETATM   24  C   UNL     1      -3.812  -0.725 -31.966  1.00  0.00     0.099 A 
HETATM   25  C   UNL     1      -4.644  -0.242 -32.979  1.00  0.00     0.102 A 
HETATM   26  C   UNL     1      -4.858   1.134 -33.089  1.00  0.00     0.049 A 
BRANCH  24  27
HETATM   27  O   UNL     1      -3.566  -2.064 -31.848  1.00  0.00    -0.358 OA
HETATM   28  H   UNL     1      -2.935  -2.278 -32.562  1.00  0.00     0.218 HD
ENDBRANCH  24  27
BRANCH  25  29
HETATM   29  O   UNL     1      -5.166  -1.198 -33.810  1.00  0.00    -0.349 OA
BRANCH  29  30
HETATM   30  C   UNL     1      -6.582  -1.376 -33.746  1.00  0.00     0.171 C 
HETATM   31  C   UNL     1      -7.175  -0.854 -35.043  1.00  0.00     0.034 C 
ENDBRANCH  29  30
ENDBRANCH  25  29
ENDBRANCH   1  21
BRANCH   5  32
HETATM   32  O   UNL     1      -6.988   5.432 -34.179  1.00  0.00    -0.355 OA
HETATM   33  H   UNL     1      -6.648   6.220 -34.644  1.00  0.00     0.218 HD
ENDBRANCH   5  32
BRANCH   2  34
HETATM   34  C   UNL     1      -2.299   4.137 -33.346  1.00  0.00     0.129 C 
BRANCH  34  35
HETATM   35  C   UNL     1      -1.661   5.251 -32.511  1.00  0.00     0.048 C 
BRANCH  35  36
HETATM   36  C   UNL     1      -1.141   4.879 -31.121  1.00  0.00     0.235 C 
BRANCH  36  37
HETATM   37  N   UNL     1       0.233   5.420 -30.803  1.00  0.00    -0.079 N 
HETATM   38  H   UNL     1       0.912   4.784 -31.270  1.00  0.00     0.278 HD
HETATM   39  C   UNL     1       0.484   6.824 -31.259  1.00  0.00     0.269 C 
HETATM   40  C   UNL     1       0.559   5.263 -29.340  1.00  0.00     0.269 C 
ENDBRANCH  36  37
ENDBRANCH  35  36
ENDBRANCH  34  35
ENDBRANCH   2  34
TORSDOF 14
ENDMDL
MODEL 4
REMARK VINA RESULT:      -7.6      2.966      6.929
REMARK  14 active torsions:
REMARK  status: ('A' for Active; 'I' for Inactive)
REMARK    1  A    between atoms: C_2  and  O_3 
REMARK    2  A    between atoms: O_3  and  C_4 
REMARK    3  A    between atoms: C_5  and  O_6 
REMARK    4  A    between atoms: C_9  and  C_10 
REMARK    5  A    between atoms: N_11  and  C_12 
REMARK    6  A    between atoms: C_12  and  C_13 
REMARK    7  A    between atoms: C_13  and  C_14 
REMARK    8  A    between atoms: C_14  and  N_15 
REMARK    9  A    between atoms: C_21  and  O_22 
REMARK   10  A    between atoms: C_23  and  C_24 
REMARK   11  A    between atoms: C_24  and  C_25 
REMARK   12  A    between atoms: C_29  and  O_30 
REMARK   13  A    between atoms: O_30  and  C_31 
REMARK   14  A    between atoms: C_31  and  C_32 
ROOT
HETATM    1  C   UNL     1     -10.058   3.332 -32.345  1.00  0.00     0.161 A 
HETATM    2  N   UNL     1     -10.434   4.627 -32.910  1.00  0.00    -0.333 N 
HETATM    3  C   UNL     1     -10.993   4.488 -34.159  1.00  0.00     0.278 A 
HETATM    4  O   UNL     1     -11.475   5.374 -34.848  1.00  0.00    -0.265 OA
HETATM    5  C   UNL     1     -10.899   3.068 -34.539  1.00  0.00     0.146 A 
HETATM    6  C   UNL     1     -10.385   2.412 -33.491  1.00  0.00     0.059 A 
ENDROOT
BRANCH   6   7
HETATM    7  C   UNL     1     -10.147   0.960 -33.354  1.00  0.00     0.193 C 
HETATM    8  O   UNL     1     -11.067   0.191 -33.098  1.00  0.00    -0.287 OA
BRANCH   7   9
HETATM    9  C   UNL     1      -8.795   0.408 -33.545  1.00  0.00     0.015 A 
HETATM   10  C   UNL     1      -7.987   0.121 -32.442  1.00  0.00     0.025 A 
HETATM   11  C   UNL     1      -6.681  -0.354 -32.635  1.00  0.00    -0.028 A 
HETATM   12  C   UNL     1      -5.805  -0.643 -31.447  1.00  0.00     0.051 C 
HETATM   13  C   UNL     1      -6.188  -0.508 -33.945  1.00  0.00     0.074 A 
HETATM   14  C   UNL     1      -7.009  -0.223 -35.041  1.00  0.00     0.038 A 
HETATM   15  C   UNL     1      -8.308   0.251 -34.843  1.00  0.00     0.018 A 
BRANCH  13  16
HETATM   16  O   UNL     1      -4.898  -0.954 -34.045  1.00  0.00    -0.350 OA
BRANCH  16  17
HETATM   17  C   UNL     1      -4.665  -2.080 -34.893  1.00  0.00     0.179 C 
BRANCH  17  18
HETATM   18  C   UNL     1      -5.138  -3.362 -34.188  1.00  0.00     0.002 C 
HETATM   19  C   UNL     1      -6.255  -4.042 -34.982  1.00  0.00     0.011 C 
HETATM   20  C   UNL     1      -3.984  -4.340 -33.967  1.00  0.00     0.011 C 
ENDBRANCH  17  18
ENDBRANCH  16  17
ENDBRANCH  13  16
ENDBRANCH   7   9
ENDBRANCH   6   7
BRANCH   1  21
HETATM   21  C   UNL     1      -8.628   3.353 -31.838  1.00  0.00    -0.028 A 
HETATM   22  C   UNL     1      -8.378   2.955 -30.509  1.00  0.00     0.012 A 
HETATM   23  C   UNL     1      -7.086   2.973 -29.989  1.00  0.00     0.040 A 
HETATM   24  C   UNL     1      -6.035   3.370 -30.801  1.00  0.00     0.099 A 
HETATM   25  C   UNL     1      -6.244   3.748 -32.129  1.00  0.00     0.102 A 
HETATM   26  C   UNL     1      -7.545   3.768 -32.637  1.00  0.00     0.049 A 
BRANCH  24  27
HETATM   27  O   UNL     1      -4.775   3.363 -30.270  1.00  0.00    -0.358 OA
HETATM   28  H   UNL     1      -4.280   4.046 -30.763  1.00  0.00     0.218 HD
ENDBRANCH  24  27
BRANCH  25  29
HETATM   29  O   UNL     1      -5.113   4.098 -32.820  1.00  0.00    -0.349 OA
BRANCH  29  30
HETATM   30  C   UNL     1      -5.290   4.368 -34.212  1.00  0.00     0.171 C 
HETATM   31  C   UNL     1      -4.089   5.165 -34.688  1.00  0.00     0.034 C 
ENDBRANCH  29  30
ENDBRANCH  25  29
ENDBRANCH   1  21
BRANCH   5  32
HETATM   32  O   UNL     1     -11.304   2.585 -35.745  1.00  0.00    -0.355 OA
HETATM   33  H   UNL     1     -12.261   2.403 -35.685  1.00  0.00     0.218 HD
ENDBRANCH   5  32
BRANCH   2  34
HETATM   34  C   UNL     1     -10.531   5.838 -32.116  1.00  0.00     0.129 C 
BRANCH  34  35
HETATM   35  C   UNL     1     -11.385   5.693 -30.853  1.00  0.00     0.048 C 
BRANCH  35  36
HETATM   36  C   UNL     1     -12.869   6.052 -30.960  1.00  0.00     0.235 C 
BRANCH  36  37
HETATM   37  N   UNL     1     -13.674   5.125 -31.839  1.00  0.00    -0.079 N 
HETATM   38  H   UNL     1     -13.225   5.150 -32.778  1.00  0.00     0.278 HD
HETATM   39  C   UNL     1     -13.743   3.705 -31.369  1.00  0.00     0.269 C 
HETATM   40  C   UNL     1     -15.053   5.673 -32.098  1.00  0.00     0.269 C 
ENDBRANCH  36  37
ENDBRANCH  35  36
ENDBRANCH  34  35
ENDBRANCH   2  34
TORSDOF 14
ENDMDL
MODEL 5
REMARK VINA RESULT:      -7.5      4.259      8.233
REMARK  14 active torsions:
REMARK  status: ('A' for Active; 'I' for Inactive)
REMARK    1  A    between atoms: C_2  and  O_3 
REMARK    2  A    between atoms: O_3  and  C_4 
REMARK    3  A    between atoms: C_5  and  O_6 
REMARK    4  A    between atoms: C_9  and  C_10 
REMARK    5  A    between atoms: N_11  and  C_12 
REMARK    6  A    between atoms: C_12  and  C_13 
REMARK    7  A    between atoms: C_13  and  C_14 
REMARK    8  A    between atoms: C_14  and  N_15 
REMARK    9  A    between atoms: C_21  and  O_22 
REMARK   10  A    between atoms: C_23  and  C_24 
REMARK   11  A    between atoms: C_24  and  C_25 
REMARK   12  A    between atoms: C_29  and  O_30 
REMARK   13  A    between atoms: O_30  and  C_31 
REMARK   14  A    between atoms: C_31  and  C_32 
ROOT
HETATM    1  C   UNL     1     -10.046   2.795 -34.272  1.00  0.00     0.161 A 
HETATM    2  N   UNL     1      -9.825   4.237 -34.382  1.00  0.00    -0.333 N 
HETATM    3  C   UNL     1      -8.795   4.652 -33.571  1.00  0.00     0.278 A 
HETATM    4  O   UNL     1      -8.325   5.777 -33.501  1.00  0.00    -0.265 OA
HETATM    5  C   UNL     1      -8.355   3.493 -32.774  1.00  0.00     0.146 A 
HETATM    6  C   UNL     1      -9.058   2.434 -33.195  1.00  0.00     0.059 A 
ENDROOT
BRANCH   6   7
HETATM    7  C   UNL     1      -8.944   1.030 -32.748  1.00  0.00     0.193 C 
HETATM    8  O   UNL     1      -9.822   0.512 -32.066  1.00  0.00    -0.287 OA
BRANCH   7   9
HETATM    9  C   UNL     1      -7.776   0.221 -33.134  1.00  0.00     0.015 A 
HETATM   10  C   UNL     1      -6.740  -0.005 -32.223  1.00  0.00     0.025 A 
HETATM   11  C   UNL     1      -5.607  -0.732 -32.617  1.00  0.00    -0.028 A 
HETATM   12  C   UNL     1      -4.484  -0.956 -31.643  1.00  0.00     0.051 C 
HETATM   13  C   UNL     1      -5.514  -1.202 -33.941  1.00  0.00     0.074 A 
HETATM   14  C   UNL     1      -6.560  -0.975 -34.841  1.00  0.00     0.038 A 
HETATM   15  C   UNL     1      -7.685  -0.249 -34.444  1.00  0.00     0.018 A 
BRANCH  13  16
HETATM   16  O   UNL     1      -4.367  -1.882 -34.250  1.00  0.00    -0.350 OA
BRANCH  16  17
HETATM   17  C   UNL     1      -4.491  -2.995 -35.138  1.00  0.00     0.179 C 
BRANCH  17  18
HETATM   18  C   UNL     1      -5.277  -4.121 -34.446  1.00  0.00     0.002 C 
HETATM   19  C   UNL     1      -6.362  -4.678 -35.370  1.00  0.00     0.011 C 
HETATM   20  C   UNL     1      -4.354  -5.248 -33.983  1.00  0.00     0.011 C 
ENDBRANCH  17  18
ENDBRANCH  16  17
ENDBRANCH  13  16
ENDBRANCH   7   9
ENDBRANCH   6   7
BRANCH   1  21
HETATM   21  C   UNL     1     -11.510   2.486 -34.025  1.00  0.00    -0.028 A 
HETATM   22  C   UNL     1     -12.189   1.658 -34.941  1.00  0.00     0.012 A 
HETATM   23  C   UNL     1     -13.538   1.357 -34.770  1.00  0.00     0.040 A 
HETATM   24  C   UNL     1     -14.211   1.867 -33.670  1.00  0.00     0.099 A 
HETATM   25  C   UNL     1     -13.563   2.671 -32.729  1.00  0.00     0.102 A 
HETATM   26  C   UNL     1     -12.221   3.005 -32.924  1.00  0.00     0.049 A 
BRANCH  24  27
HETATM   27  O   UNL     1     -15.530   1.543 -33.517  1.00  0.00    -0.358 OA
HETATM   28  H   UNL     1     -15.535   0.659 -33.099  1.00  0.00     0.218 HD
ENDBRANCH  24  27
BRANCH  25  29
HETATM   29  O   UNL     1     -14.344   3.089 -31.684  1.00  0.00    -0.349 OA
BRANCH  29  30
HETATM   30  C   UNL     1     -14.225   4.467 -31.327  1.00  0.00     0.171 C 
HETATM   31  C   UNL     1     -15.103   5.270 -32.270  1.00  0.00     0.034 C 
ENDBRANCH  29  30
ENDBRANCH  25  29
ENDBRANCH   1  21
BRANCH   5  32
HETATM   32  O   UNL     1      -7.389   3.563 -31.819  1.00  0.00    -0.355 OA
HETATM   33  H   UNL     1      -7.817   3.419 -30.953  1.00  0.00     0.218 HD
ENDBRANCH   5  32
BRANCH   2  34
HETATM   34  C   UNL     1     -10.375   5.041 -35.458  1.00  0.00     0.129 C 
BRANCH  34  35
HETATM   35  C   UNL     1     -11.513   5.971 -35.027  1.00  0.00     0.048 C 
BRANCH  35  36
HETATM   36  C   UNL     1     -11.164   7.439 -34.770  1.00  0.00     0.235 C 
BRANCH  36  37
HETATM   37  N   UNL     1     -10.710   7.735 -33.360  1.00  0.00    -0.079 N 
HETATM   38  H   UNL     1      -9.759   7.325 -33.268  1.00  0.00     0.278 HD
HETATM   39  C   UNL     1     -10.653   9.189 -33.004  1.00  0.00     0.269 C 
HETATM   40  C   UNL     1     -11.521   6.966 -32.350  1.00  0.00     0.269 C 
ENDBRANCH  36  37
ENDBRANCH  35  36
ENDBRANCH  34  35
ENDBRANCH   2  34
TORSDOF 14
ENDMDL
MODEL 6
REMARK VINA RESULT:      -7.5      2.489      7.510
REMARK  14 active torsions:
REMARK  status: ('A' for Active; 'I' for Inactive)
REMARK    1  A    between atoms: C_2  and  O_3 
REMARK    2  A    between atoms: O_3  and  C_4 
REMARK    3  A    between atoms: C_5  and  O_6 
REMARK    4  A    between atoms: C_9  and  C_10 
REMARK    5  A    between atoms: N_11  and  C_12 
REMARK    6  A    between atoms: C_12  and  C_13 
REMARK    7  A    between atoms: C_13  and  C_14 
REMARK    8  A    between atoms: C_14  and  N_15 
REMARK    9  A    between atoms: C_21  and  O_22 
REMARK   10  A    between atoms: C_23  and  C_24 
REMARK   11  A    between atoms: C_24  and  C_25 
REMARK   12  A    between atoms: C_29  and  O_30 
REMARK   13  A    between atoms: O_30  and  C_31 
REMARK   14  A    between atoms: C_31  and  C_32 
ROOT
HETATM    1  C   UNL     1      -7.281   3.922 -31.188  1.00  0.00     0.161 A 
HETATM    2  N   UNL     1      -8.632   4.365 -31.533  1.00  0.00    -0.333 N 
HETATM    3  C   UNL     1      -9.528   3.323 -31.495  1.00  0.00     0.278 A 
HETATM    4  O   UNL     1     -10.737   3.391 -31.656  1.00  0.00    -0.265 OA
HETATM    5  C   UNL     1      -8.771   2.086 -31.234  1.00  0.00     0.146 A 
HETATM    6  C   UNL     1      -7.494   2.438 -31.040  1.00  0.00     0.059 A 
ENDROOT
BRANCH   6   7
HETATM    7  C   UNL     1      -6.353   1.567 -30.690  1.00  0.00     0.193 C 
HETATM    8  O   UNL     1      -5.829   1.628 -29.584  1.00  0.00    -0.287 OA
BRANCH   7   9
HETATM    9  C   UNL     1      -5.839   0.591 -31.666  1.00  0.00     0.015 A 
HETATM   10  C   UNL     1      -4.808  -0.284 -31.314  1.00  0.00     0.025 A 
HETATM   11  C   UNL     1      -4.289  -1.173 -32.266  1.00  0.00    -0.028 A 
HETATM   12  C   UNL     1      -3.165  -2.100 -31.892  1.00  0.00     0.051 C 
HETATM   13  C   UNL     1      -4.795  -1.153 -33.580  1.00  0.00     0.074 A 
HETATM   14  C   UNL     1      -5.832  -0.277 -33.917  1.00  0.00     0.038 A 
HETATM   15  C   UNL     1      -6.344   0.608 -32.966  1.00  0.00     0.018 A 
BRANCH  13  16
HETATM   16  O   UNL     1      -4.219  -2.036 -34.452  1.00  0.00    -0.350 OA
BRANCH  16  17
HETATM   17  C   UNL     1      -5.096  -2.762 -35.315  1.00  0.00     0.179 C 
BRANCH  17  18
HETATM   18  C   UNL     1      -5.658  -3.983 -34.570  1.00  0.00     0.002 C 
HETATM   19  C   UNL     1      -6.716  -4.699 -35.413  1.00  0.00     0.011 C 
HETATM   20  C   UNL     1      -4.551  -4.962 -34.180  1.00  0.00     0.011 C 
ENDBRANCH  17  18
ENDBRANCH  16  17
ENDBRANCH  13  16
ENDBRANCH   7   9
ENDBRANCH   6   7
BRANCH   1  21
HETATM   21  C   UNL     1      -6.273   4.393 -32.219  1.00  0.00    -0.028 A 
HETATM   22  C   UNL     1      -6.449   4.002 -33.562  1.00  0.00     0.012 A 
HETATM   23  C   UNL     1      -5.543   4.393 -34.545  1.00  0.00     0.040 A 
HETATM   24  C   UNL     1      -4.466   5.193 -34.194  1.00  0.00     0.099 A 
HETATM   25  C   UNL     1      -4.274   5.618 -32.877  1.00  0.00     0.102 A 
HETATM   26  C   UNL     1      -5.162   5.192 -31.885  1.00  0.00     0.049 A 
BRANCH  24  27
HETATM   27  O   UNL     1      -3.601   5.575 -35.181  1.00  0.00    -0.358 OA
HETATM   28  H   UNL     1      -3.991   6.382 -35.571  1.00  0.00     0.218 HD
ENDBRANCH  24  27
BRANCH  25  29
HETATM   29  O   UNL     1      -3.181   6.419 -32.676  1.00  0.00    -0.349 OA
BRANCH  29  30
HETATM   30  C   UNL     1      -2.230   5.951 -31.718  1.00  0.00     0.171 C 
HETATM   31  C   UNL     1      -1.130   5.225 -32.471  1.00  0.00     0.034 C 
ENDBRANCH  29  30
ENDBRANCH  25  29
ENDBRANCH   1  21
BRANCH   5  32
HETATM   32  O   UNL     1      -9.342   0.852 -31.192  1.00  0.00    -0.355 OA
HETATM   33  H   UNL     1     -10.020   0.863 -30.490  1.00  0.00     0.218 HD
ENDBRANCH   5  32
BRANCH   2  34
HETATM   34  C   UNL     1      -9.023   5.763 -31.557  1.00  0.00     0.129 C 
BRANCH  34  35
HETATM   35  C   UNL     1      -9.528   6.296 -30.213  1.00  0.00     0.048 C 
BRANCH  35  36
HETATM   36  C   UNL     1      -8.646   6.061 -28.985  1.00  0.00     0.235 C 
BRANCH  36  37
HETATM   37  N   UNL     1      -8.296   7.314 -28.218  1.00  0.00    -0.079 N 
HETATM   38  H   UNL     1      -8.665   7.178 -27.255  1.00  0.00     0.278 HD
HETATM   39  C   UNL     1      -6.833   7.624 -28.142  1.00  0.00     0.269 C 
HETATM   40  C   UNL     1      -9.071   8.502 -28.725  1.00  0.00     0.269 C 
ENDBRANCH  36  37
ENDBRANCH  35  36
ENDBRANCH  34  35
ENDBRANCH   2  34
TORSDOF 14
ENDMDL
MODEL 7
REMARK VINA RESULT:      -7.4      2.661      7.829
REMARK  14 active torsions:
REMARK  status: ('A' for Active; 'I' for Inactive)
REMARK    1  A    between atoms: C_2  and  O_3 
REMARK    2  A    between atoms: O_3  and  C_4 
REMARK    3  A    between atoms: C_5  and  O_6 
REMARK    4  A    between atoms: C_9  and  C_10 
REMARK    5  A    between atoms: N_11  and  C_12 
REMARK    6  A    between atoms: C_12  and  C_13 
REMARK    7  A    between atoms: C_13  and  C_14 
REMARK    8  A    between atoms: C_14  and  N_15 
REMARK    9  A    between atoms: C_21  and  O_22 
REMARK   10  A    between atoms: C_23  and  C_24 
REMARK   11  A    between atoms: C_24  and  C_25 
REMARK   12  A    between atoms: C_29  and  O_30 
REMARK   13  A    between atoms: O_30  and  C_31 
REMARK   14  A    between atoms: C_31  and  C_32 
ROOT
HETATM    1  C   UNL     1      -5.723   3.690 -31.055  1.00  0.00     0.161 A 
HETATM    2  N   UNL     1      -4.719   4.642 -31.527  1.00  0.00    -0.333 N 
HETATM    3  C   UNL     1      -5.258   5.893 -31.712  1.00  0.00     0.278 A 
HETATM    4  O   UNL     1      -4.659   6.911 -32.024  1.00  0.00    -0.265 OA
HETATM    5  C   UNL     1      -6.710   5.796 -31.480  1.00  0.00     0.146 A 
HETATM    6  C   UNL     1      -6.964   4.542 -31.085  1.00  0.00     0.059 A 
ENDROOT
BRANCH   6   7
HETATM    7  C   UNL     1      -8.260   3.960 -30.678  1.00  0.00     0.193 C 
HETATM    8  O   UNL     1      -8.665   4.066 -29.526  1.00  0.00    -0.287 OA
BRANCH   7   9
HETATM    9  C   UNL     1      -9.100   3.259 -31.664  1.00  0.00     0.015 A 
HETATM   10  C   UNL     1      -9.123   1.862 -31.706  1.00  0.00     0.025 A 
HETATM   11  C   UNL     1      -9.884   1.203 -32.682  1.00  0.00    -0.028 A 
HETATM   12  C   UNL     1      -9.891  -0.300 -32.740  1.00  0.00     0.051 C 
HETATM   13  C   UNL     1     -10.598   1.960 -33.630  1.00  0.00     0.074 A 
HETATM   14  C   UNL     1     -10.573   3.358 -33.573  1.00  0.00     0.038 A 
HETATM   15  C   UNL     1      -9.811   4.009 -32.600  1.00  0.00     0.018 A 
BRANCH  13  16
HETATM   16  O   UNL     1     -11.297   1.241 -34.561  1.00  0.00    -0.350 OA
BRANCH  16  17
HETATM   17  C   UNL     1     -12.671   1.585 -34.749  1.00  0.00     0.179 C 
BRANCH  17  18
HETATM   18  C   UNL     1     -13.527   0.897 -33.674  1.00  0.00     0.002 C 
HETATM   19  C   UNL     1     -15.014   1.187 -33.890  1.00  0.00     0.011 C 
HETATM   20  C   UNL     1     -13.287  -0.612 -33.645  1.00  0.00     0.011 C 
ENDBRANCH  17  18
ENDBRANCH  16  17
ENDBRANCH  13  16
ENDBRANCH   7   9
ENDBRANCH   6   7
BRANCH   1  21
HETATM   21  C   UNL     1      -5.711   2.424 -31.892  1.00  0.00    -0.028 A 
HETATM   22  C   UNL     1      -6.130   2.500 -33.235  1.00  0.00     0.012 A 
HETATM   23  C   UNL     1      -6.155   1.366 -34.042  1.00  0.00     0.040 A 
HETATM   24  C   UNL     1      -5.743   0.151 -33.515  1.00  0.00     0.099 A 
HETATM   25  C   UNL     1      -5.299   0.044 -32.195  1.00  0.00     0.102 A 
HETATM   26  C   UNL     1      -5.313   1.175 -31.376  1.00  0.00     0.049 A 
BRANCH  24  27
HETATM   27  O   UNL     1      -5.762  -0.944 -34.333  1.00  0.00    -0.358 OA
HETATM   28  H   UNL     1      -5.189  -1.605 -33.897  1.00  0.00     0.218 HD
ENDBRANCH  24  27
BRANCH  25  29
HETATM   29  O   UNL     1      -4.904  -1.211 -31.813  1.00  0.00    -0.349 OA
BRANCH  29  30
HETATM   30  C   UNL     1      -3.494  -1.441 -31.784  1.00  0.00     0.171 C 
HETATM   31  C   UNL     1      -3.250  -2.890 -32.167  1.00  0.00     0.034 C 
ENDBRANCH  29  30
ENDBRANCH  25  29
ENDBRANCH   1  21
BRANCH   5  32
HETATM   32  O   UNL     1      -7.567   6.840 -31.638  1.00  0.00    -0.355 OA
HETATM   33  H   UNL     1      -7.051   7.664 -31.543  1.00  0.00     0.218 HD
ENDBRANCH   5  32
BRANCH   2  34
HETATM   34  C   UNL     1      -3.292   4.383 -31.462  1.00  0.00     0.129 C 
BRANCH  34  35
HETATM   35  C   UNL     1      -2.673   3.938 -32.791  1.00  0.00     0.048 C 
BRANCH  35  36
HETATM   36  C   UNL     1      -1.567   4.814 -33.383  1.00  0.00     0.235 C 
BRANCH  36  37
HETATM   37  N   UNL     1      -2.024   5.733 -34.491  1.00  0.00    -0.079 N 
HETATM   38  H   UNL     1      -1.302   5.670 -35.237  1.00  0.00     0.278 HD
HETATM   39  C   UNL     1      -3.363   5.405 -35.076  1.00  0.00     0.269 C 
HETATM   40  C   UNL     1      -1.962   7.177 -34.067  1.00  0.00     0.269 C 
ENDBRANCH  36  37
ENDBRANCH  35  36
ENDBRANCH  34  35
ENDBRANCH   2  34
TORSDOF 14
ENDMDL
MODEL 8
REMARK VINA RESULT:      -7.4      2.516      7.055
REMARK  14 active torsions:
REMARK  status: ('A' for Active; 'I' for Inactive)
REMARK    1  A    between atoms: C_2  and  O_3 
REMARK    2  A    between atoms: O_3  and  C_4 
REMARK    3  A    between atoms: C_5  and  O_6 
REMARK    4  A    between atoms: C_9  and  C_10 
REMARK    5  A    between atoms: N_11  and  C_12 
REMARK    6  A    between atoms: C_12  and  C_13 
REMARK    7  A    between atoms: C_13  and  C_14 
REMARK    8  A    between atoms: C_14  and  N_15 
REMARK    9  A    between atoms: C_21  and  O_22 
REMARK   10  A    between atoms: C_23  and  C_24 
REMARK   11  A    between atoms: C_24  and  C_25 
REMARK   12  A    between atoms: C_29  and  O_30 
REMARK   13  A    between atoms: O_30  and  C_31 
REMARK   14  A    between atoms: C_31  and  C_32 
ROOT
HETATM    1  C   UNL     1      -7.920   4.030 -32.199  1.00  0.00     0.161 A 
HETATM    2  N   UNL     1      -8.180   5.135 -33.120  1.00  0.00    -0.333 N 
HETATM    3  C   UNL     1      -9.020   4.754 -34.140  1.00  0.00     0.278 A 
HETATM    4  O   UNL     1      -9.481   5.470 -35.016  1.00  0.00    -0.265 OA
HETATM    5  C   UNL     1      -9.265   3.307 -34.005  1.00  0.00     0.146 A 
HETATM    6  C   UNL     1      -8.652   2.906 -32.884  1.00  0.00     0.059 A 
ENDROOT
BRANCH   6   7
HETATM    7  C   UNL     1      -8.648   1.557 -32.282  1.00  0.00     0.193 C 
HETATM    8  O   UNL     1      -9.455   1.253 -31.410  1.00  0.00    -0.287 OA
BRANCH   7   9
HETATM    9  C   UNL     1      -7.682   0.544 -32.738  1.00  0.00     0.015 A 
HETATM   10  C   UNL     1      -6.489   0.339 -32.038  1.00  0.00     0.025 A 
HETATM   11  C   UNL     1      -5.551  -0.591 -32.511  1.00  0.00    -0.028 A 
HETATM   12  C   UNL     1      -4.259  -0.795 -31.769  1.00  0.00     0.051 C 
HETATM   13  C   UNL     1      -5.810  -1.288 -33.706  1.00  0.00     0.074 A 
HETATM   14  C   UNL     1      -7.011  -1.079 -34.393  1.00  0.00     0.038 A 
HETATM   15  C   UNL     1      -7.940  -0.151 -33.920  1.00  0.00     0.018 A 
BRANCH  13  16
HETATM   16  O   UNL     1      -4.835  -2.159 -34.109  1.00  0.00    -0.350 OA
BRANCH  16  17
HETATM   17  C   UNL     1      -5.048  -2.846 -35.344  1.00  0.00     0.179 C 
BRANCH  17  18
HETATM   18  C   UNL     1      -5.297  -4.338 -35.067  1.00  0.00     0.002 C 
HETATM   19  C   UNL     1      -4.414  -4.836 -33.921  1.00  0.00     0.011 C 
HETATM   20  C   UNL     1      -6.767  -4.613 -34.751  1.00  0.00     0.011 C 
ENDBRANCH  17  18
ENDBRANCH  16  17
ENDBRANCH  13  16
ENDBRANCH   7   9
ENDBRANCH   6   7
BRANCH   1  21
HETATM   21  C   UNL     1      -6.432   3.862 -31.954  1.00  0.00    -0.028 A 
HETATM   22  C   UNL     1      -5.993   3.563 -30.649  1.00  0.00     0.012 A 
HETATM   23  C   UNL     1      -4.637   3.416 -30.368  1.00  0.00     0.040 A 
HETATM   24  C   UNL     1      -3.714   3.550 -31.393  1.00  0.00     0.099 A 
HETATM   25  C   UNL     1      -4.116   3.824 -32.703  1.00  0.00     0.102 A 
HETATM   26  C   UNL     1      -5.473   4.010 -32.976  1.00  0.00     0.049 A 
BRANCH  24  27
HETATM   27  O   UNL     1      -2.390   3.385 -31.092  1.00  0.00    -0.358 OA
HETATM   28  H   UNL     1      -2.351   3.319 -30.118  1.00  0.00     0.218 HD
ENDBRANCH  24  27
BRANCH  25  29
HETATM   29  O   UNL     1      -3.100   3.910 -33.619  1.00  0.00    -0.349 OA
BRANCH  29  30
HETATM   30  C   UNL     1      -2.945   5.176 -34.262  1.00  0.00     0.171 C 
HETATM   31  C   UNL     1      -1.486   5.324 -34.655  1.00  0.00     0.034 C 
ENDBRANCH  29  30
ENDBRANCH  25  29
ENDBRANCH   1  21
BRANCH   5  32
HETATM   32  O   UNL     1     -10.007   2.586 -34.887  1.00  0.00    -0.355 OA
HETATM   33  H   UNL     1      -9.511   2.543 -35.727  1.00  0.00     0.218 HD
ENDBRANCH   5  32
BRANCH   2  34
HETATM   34  C   UNL     1      -7.882   6.520 -32.799  1.00  0.00     0.129 C 
BRANCH  34  35
HETATM   35  C   UNL     1      -8.633   7.055 -31.576  1.00  0.00     0.048 C 
BRANCH  35  36
HETATM   36  C   UNL     1     -10.151   7.209 -31.693  1.00  0.00     0.235 C 
BRANCH  36  37
HETATM   37  N   UNL     1     -10.939   6.427 -30.670  1.00  0.00    -0.079 N 
HETATM   38  H   UNL     1     -10.266   6.168 -29.920  1.00  0.00     0.278 HD
HETATM   39  C   UNL     1     -12.093   7.161 -30.060  1.00  0.00     0.269 C 
HETATM   40  C   UNL     1     -11.380   5.094 -31.218  1.00  0.00     0.269 C 
ENDBRANCH  36  37
ENDBRANCH  35  36
ENDBRANCH  34  35
ENDBRANCH   2  34
TORSDOF 14
ENDMDL
MODEL 9
REMARK VINA RESULT:      -7.4      2.778      5.633
REMARK  14 active torsions:
REMARK  status: ('A' for Active; 'I' for Inactive)
REMARK    1  A    between atoms: C_2  and  O_3 
REMARK    2  A    between atoms: O_3  and  C_4 
REMARK    3  A    between atoms: C_5  and  O_6 
REMARK    4  A    between atoms: C_9  and  C_10 
REMARK    5  A    between atoms: N_11  and  C_12 
REMARK    6  A    between atoms: C_12  and  C_13 
REMARK    7  A    between atoms: C_13  and  C_14 
REMARK    8  A    between atoms: C_14  and  N_15 
REMARK    9  A    between atoms: C_21  and  O_22 
REMARK   10  A    between atoms: C_23  and  C_24 
REMARK   11  A    between atoms: C_24  and  C_25 
REMARK   12  A    between atoms: C_29  and  O_30 
REMARK   13  A    between atoms: O_30  and  C_31 
REMARK   14  A    between atoms: C_31  and  C_32 
ROOT
HETATM    1  C   UNL     1      -6.086   4.001 -32.495  1.00  0.00     0.161 A 
HETATM    2  N   UNL     1      -6.193   2.562 -32.263  1.00  0.00    -0.333 N 
HETATM    3  C   UNL     1      -6.627   2.288 -30.988  1.00  0.00     0.278 A 
HETATM    4  O   UNL     1      -6.887   1.189 -30.523  1.00  0.00    -0.265 OA
HETATM    5  C   UNL     1      -6.715   3.565 -30.258  1.00  0.00     0.146 A 
HETATM    6  C   UNL     1      -6.426   4.539 -31.130  1.00  0.00     0.059 A 
ENDROOT
BRANCH   6   7
HETATM    7  C   UNL     1      -6.433   5.998 -30.900  1.00  0.00     0.193 C 
HETATM    8  O   UNL     1      -7.435   6.668 -31.126  1.00  0.00    -0.287 OA
BRANCH   7   9
HETATM    9  C   UNL     1      -5.234   6.671 -30.371  1.00  0.00     0.015 A 
HETATM   10  C   UNL     1      -4.359   7.337 -31.234  1.00  0.00     0.025 A 
HETATM   11  C   UNL     1      -3.193   7.929 -30.728  1.00  0.00    -0.028 A 
HETATM   12  C   UNL     1      -2.241   8.626 -31.660  1.00  0.00     0.051 C 
HETATM   13  C   UNL     1      -2.902   7.821 -29.355  1.00  0.00     0.074 A 
HETATM   14  C   UNL     1      -3.790   7.159 -28.501  1.00  0.00     0.038 A 
HETATM   15  C   UNL     1      -4.949   6.569 -29.010  1.00  0.00     0.018 A 
BRANCH  13  16
HETATM   16  O   UNL     1      -1.734   8.407 -28.947  1.00  0.00    -0.350 OA
BRANCH  16  17
HETATM   17  C   UNL     1      -0.829   7.595 -28.196  1.00  0.00     0.179 C 
BRANCH  17  18
HETATM   18  C   UNL     1       0.059   8.491 -27.318  1.00  0.00     0.002 C 
HETATM   19  C   UNL     1       1.495   8.525 -27.846  1.00  0.00     0.011 C 
HETATM   20  C   UNL     1      -0.496   9.912 -27.222  1.00  0.00     0.011 C 
ENDBRANCH  17  18
ENDBRANCH  16  17
ENDBRANCH  13  16
ENDBRANCH   7   9
ENDBRANCH   6   7
BRANCH   1  21
HETATM   21  C   UNL     1      -4.734   4.360 -33.083  1.00  0.00    -0.028 A 
HETATM   22  C   UNL     1      -4.684   4.876 -34.393  1.00  0.00     0.012 A 
HETATM   23  C   UNL     1      -3.467   5.205 -34.985  1.00  0.00     0.040 A 
HETATM   24  C   UNL     1      -2.295   5.038 -34.264  1.00  0.00     0.099 A 
HETATM   25  C   UNL     1      -2.311   4.551 -32.954  1.00  0.00     0.102 A 
HETATM   26  C   UNL     1      -3.528   4.184 -32.376  1.00  0.00     0.049 A 
BRANCH  24  27
HETATM   27  O   UNL     1      -1.116   5.383 -34.864  1.00  0.00    -0.358 OA
HETATM   28  H   UNL     1      -0.740   4.546 -35.200  1.00  0.00     0.218 HD
ENDBRANCH  24  27
BRANCH  25  29
HETATM   29  O   UNL     1      -1.082   4.455 -32.354  1.00  0.00    -0.349 OA
BRANCH  29  30
HETATM   30  C   UNL     1      -0.946   5.124 -31.100  1.00  0.00     0.171 C 
HETATM   31  C   UNL     1       0.455   5.705 -31.032  1.00  0.00     0.034 C 
ENDBRANCH  29  30
ENDBRANCH  25  29
ENDBRANCH   1  21
BRANCH   5  32
HETATM   32  O   UNL     1      -7.056   3.657 -28.944  1.00  0.00    -0.355 OA
HETATM   33  H   UNL     1      -7.273   4.591 -28.760  1.00  0.00     0.218 HD
ENDBRANCH   5  32
BRANCH   2  34
HETATM   34  C   UNL     1      -6.186   1.585 -33.338  1.00  0.00     0.129 C 
BRANCH  34  35
HETATM   35  C   UNL     1      -5.061   0.550 -33.237  1.00  0.00     0.048 C 
BRANCH  35  36
HETATM   36  C   UNL     1      -5.361  -0.867 -33.729  1.00  0.00     0.235 C 
BRANCH  36  37
HETATM   37  N   UNL     1      -4.175  -1.802 -33.701  1.00  0.00    -0.079 N 
HETATM   38  H   UNL     1      -3.454  -1.376 -34.319  1.00  0.00     0.278 HD
HETATM   39  C   UNL     1      -3.583  -2.037 -32.346  1.00  0.00     0.269 C 
HETATM   40  C   UNL     1      -4.491  -3.108 -34.383  1.00  0.00     0.269 C 
ENDBRANCH  36  37
ENDBRANCH  35  36
ENDBRANCH  34  35
ENDBRANCH   2  34
TORSDOF 14
ENDMDL
MODEL 10
REMARK VINA RESULT:      -7.4      2.197      5.421
REMARK  14 active torsions:
REMARK  status: ('A' for Active; 'I' for Inactive)
REMARK    1  A    between atoms: C_2  and  O_3 
REMARK    2  A    between atoms: O_3  and  C_4 
REMARK    3  A    between atoms: C_5  and  O_6 
REMARK    4  A    between atoms: C_9  and  C_10 
REMARK    5  A    between atoms: N_11  and  C_12 
REMARK    6  A    between atoms: C_12  and  C_13 
REMARK    7  A    between atoms: C_13  and  C_14 
REMARK    8  A    between atoms: C_14  and  N_15 
REMARK    9  A    between atoms: C_21  and  O_22 
REMARK   10  A    between atoms: C_23  and  C_24 
REMARK   11  A    between atoms: C_24  and  C_25 
REMARK   12  A    between atoms: C_29  and  O_30 
REMARK   13  A    between atoms: O_30  and  C_31 
REMARK   14  A    between atoms: C_31  and  C_32 
ROOT
HETATM    1  C   UNL     1      -7.995   1.176 -31.640  1.00  0.00     0.161 A 
HETATM    2  N   UNL     1      -8.507   0.337 -32.724  1.00  0.00    -0.333 N 
HETATM    3  C   UNL     1      -7.613  -0.652 -33.060  1.00  0.00     0.278 A 
HETATM    4  O   UNL     1      -7.785  -1.551 -33.869  1.00  0.00    -0.265 OA
HETATM    5  C   UNL     1      -6.384  -0.434 -32.276  1.00  0.00     0.146 A 
HETATM    6  C   UNL     1      -6.618   0.596 -31.454  1.00  0.00     0.059 A 
ENDROOT
BRANCH   6   7
HETATM    7  C   UNL     1      -5.718   1.165 -30.429  1.00  0.00     0.193 C 
HETATM    8  O   UNL     1      -5.664   0.687 -29.301  1.00  0.00    -0.287 OA
BRANCH   7   9
HETATM    9  C   UNL     1      -4.851   2.310 -30.756  1.00  0.00     0.015 A 
HETATM   10  C   UNL     1      -5.201   3.600 -30.348  1.00  0.00     0.025 A 
HETATM   11  C   UNL     1      -4.397   4.691 -30.709  1.00  0.00    -0.028 A 
HETATM   12  C   UNL     1      -4.785   6.081 -30.288  1.00  0.00     0.051 C 
HETATM   13  C   UNL     1      -3.258   4.475 -31.508  1.00  0.00     0.074 A 
HETATM   14  C   UNL     1      -2.915   3.178 -31.905  1.00  0.00     0.038 A 
HETATM   15  C   UNL     1      -3.720   2.096 -31.543  1.00  0.00     0.018 A 
BRANCH  13  16
HETATM   16  O   UNL     1      -2.541   5.594 -31.835  1.00  0.00    -0.350 OA
BRANCH  16  17
HETATM   17  C   UNL     1      -1.237   5.393 -32.384  1.00  0.00     0.179 C 
BRANCH  17  18
HETATM   18  C   UNL     1      -1.148   6.070 -33.761  1.00  0.00     0.002 C 
HETATM   19  C   UNL     1      -1.660   5.139 -34.863  1.00  0.00     0.011 C 
HETATM   20  C   UNL     1      -1.921   7.388 -33.790  1.00  0.00     0.011 C 
ENDBRANCH  17  18
ENDBRANCH  16  17
ENDBRANCH  13  16
ENDBRANCH   7   9
ENDBRANCH   6   7
BRANCH   1  21
HETATM   21  C   UNL     1      -8.103   2.647 -31.992  1.00  0.00    -0.028 A 
HETATM   22  C   UNL     1      -7.467   3.110 -33.161  1.00  0.00     0.012 A 
HETATM   23  C   UNL     1      -7.520   4.454 -33.521  1.00  0.00     0.040 A 
HETATM   24  C   UNL     1      -8.226   5.341 -32.723  1.00  0.00     0.099 A 
HETATM   25  C   UNL     1      -8.889   4.913 -31.569  1.00  0.00     0.102 A 
HETATM   26  C   UNL     1      -8.801   3.571 -31.189  1.00  0.00     0.049 A 
BRANCH  24  27
HETATM   27  O   UNL     1      -8.276   6.652 -33.107  1.00  0.00    -0.358 OA
HETATM   28  H   UNL     1      -7.894   6.675 -34.006  1.00  0.00     0.218 HD
ENDBRANCH  24  27
BRANCH  25  29
HETATM   29  O   UNL     1      -9.563   5.892 -30.887  1.00  0.00    -0.349 OA
BRANCH  29  30
HETATM   30  C   UNL     1      -9.103   6.160 -29.562  1.00  0.00     0.171 C 
HETATM   31  C   UNL     1      -8.258   7.420 -29.609  1.00  0.00     0.034 C 
ENDBRANCH  29  30
ENDBRANCH  25  29
ENDBRANCH   1  21
BRANCH   5  32
HETATM   32  O   UNL     1      -5.266  -1.198 -32.405  1.00  0.00    -0.355 OA
HETATM   33  H   UNL     1      -4.569  -0.639 -32.797  1.00  0.00     0.218 HD
ENDBRANCH   5  32
BRANCH   2  34
HETATM   34  C   UNL     1      -9.900   0.335 -33.131  1.00  0.00     0.129 C 
BRANCH  34  35
HETATM   35  C   UNL     1     -10.203   1.230 -34.337  1.00  0.00     0.048 C 
BRANCH  35  36
HETATM   36  C   UNL     1     -11.034   2.490 -34.087  1.00  0.00     0.235 C 
BRANCH  36  37
HETATM   37  N   UNL     1     -12.052   2.358 -32.980  1.00  0.00    -0.079 N 
HETATM   38  H   UNL     1     -11.654   1.681 -32.297  1.00  0.00     0.278 HD
HETATM   39  C   UNL     1     -12.384   3.633 -32.267  1.00  0.00     0.269 C 
HETATM   40  C   UNL     1     -13.303   1.672 -33.463  1.00  0.00     0.269 C 
ENDBRANCH  36  37
ENDBRANCH  35  36
ENDBRANCH  34  35
ENDBRANCH   2  34
TORSDOF 14
ENDMDL
