MODEL 1
REMARK VINA RESULT:      -9.0      0.000      0.000
REMARK  7 active torsions:
REMARK  status: ('A' for Active; 'I' for Inactive)
REMARK    1  A    between atoms: O_2  and  C_3 
REMARK    2  A    between atoms: C_4  and  C_5 
REMARK    3  A    between atoms: C_5  and  N_6 
REMARK    4  A    between atoms: C_5  and  C_12 
REMARK    5  A    between atoms: C_12  and  N_13 
REMARK       I    between atoms: N_13  and  C_14 
REMARK       I    between atoms: C_14  and  N_15 
REMARK    6  A    between atoms: N_15  and  C_16 
REMARK    7  A    between atoms: C_17  and  O_18 
ROOT
HETATM    1  N   UNL     1      -4.855   1.971 -32.728  1.00  0.00    -0.341 N 
HETATM    2  C   UNL     1      -3.693   2.622 -32.451  1.00  0.00     0.316 C 
HETATM    3  N   UNL     1      -3.553   3.785 -33.135  1.00  0.00    -0.332 N 
HETATM    4  O   UNL     1      -2.875   2.178 -31.652  1.00  0.00    -0.247 OA
HETATM    5  H   UNL     1      -5.483   2.410 -33.391  1.00  0.00     0.164 HD
HETATM    6  H   UNL     1      -4.058   3.885 -34.006  1.00  0.00     0.165 HD
ENDROOT
BRANCH   1   7
HETATM    7  C   UNL     1      -5.116   0.584 -32.349  1.00  0.00     0.162 C 
BRANCH   7   8
HETATM    8  C   UNL     1      -5.206  -0.444 -33.527  1.00  0.00     0.241 C 
BRANCH   8   9
HETATM    9  C   UNL     1      -4.461  -1.741 -33.216  1.00  0.00     0.007 A 
HETATM   10  C   UNL     1      -4.590  -2.866 -34.061  1.00  0.00     0.076 A 
HETATM   11  C   UNL     1      -3.942  -4.063 -33.739  1.00  0.00     0.037 A 
HETATM   12  C   UNL     1      -3.135  -4.150 -32.606  1.00  0.00     0.003 A 
HETATM   13  C   UNL     1      -2.962  -3.040 -31.789  1.00  0.00     0.001 A 
HETATM   14  C   UNL     1      -3.614  -1.846 -32.094  1.00  0.00     0.012 A 
BRANCH  10  15
HETATM   15  O   UNL     1      -5.382  -2.703 -35.169  1.00  0.00    -0.355 OA
HETATM   16  C   UNL     1      -6.238  -3.792 -35.515  1.00  0.00     0.210 C 
ENDBRANCH  10  15
ENDBRANCH   8   9
BRANCH   8  17
HETATM   17  N   UNL     1      -6.657  -0.635 -33.981  1.00  0.00    -0.061 N 
HETATM   18  H   UNL     1      -6.710  -1.636 -34.262  1.00  0.00     0.280 HD
HETATM   19  C   UNL     1      -7.152   0.106 -35.197  1.00  0.00     0.236 C 
HETATM   20  C   UNL     1      -8.206   1.049 -34.658  1.00  0.00     0.029 C 
HETATM   21  C   UNL     1      -8.862   0.218 -33.574  1.00  0.00     0.029 C 
HETATM   22  C   UNL     1      -7.683  -0.445 -32.886  1.00  0.00     0.236 C 
ENDBRANCH   8  17
ENDBRANCH   7   8
ENDBRANCH   1   7
BRANCH   3  23
HETATM   23  C   UNL     1      -2.290   4.506 -33.112  1.00  0.00     0.149 C 
HETATM   24  C   UNL     1      -1.911   5.103 -34.504  1.00  0.00     0.149 C 
HETATM   25  C   UNL     1      -1.187   6.434 -34.234  1.00  0.00     0.073 C 
HETATM   26  C   UNL     1      -1.737   6.823 -32.893  1.00  0.00    -0.047 A 
HETATM   27  C   UNL     1      -2.352   5.740 -32.256  1.00  0.00    -0.026 A 
HETATM   28  C   UNL     1      -1.636   8.058 -32.274  1.00  0.00     0.008 A 
HETATM   29  C   UNL     1      -2.870   5.875 -30.975  1.00  0.00     0.010 A 
HETATM   30  C   UNL     1      -2.781   7.119 -30.347  1.00  0.00     0.001 A 
HETATM   31  C   UNL     1      -2.170   8.204 -30.995  1.00  0.00     0.001 A 
BRANCH  24  32
HETATM   32  O   UNL     1      -3.081   5.365 -35.300  1.00  0.00    -0.393 OA
HETATM   33  H   UNL     1      -2.795   5.921 -36.043  1.00  0.00     0.210 HD
ENDBRANCH  24  32
ENDBRANCH   3  23
TORSDOF 7
ENDMDL
MODEL 2
REMARK VINA RESULT:      -8.7      4.897      9.011
REMARK  7 active torsions:
REMARK  status: ('A' for Active; 'I' for Inactive)
REMARK    1  A    between atoms: O_2  and  C_3 
REMARK    2  A    between atoms: C_4  and  C_5 
REMARK    3  A    between atoms: C_5  and  N_6 
REMARK    4  A    between atoms: C_5  and  C_12 
REMARK    5  A    between atoms: C_12  and  N_13 
REMARK       I    between atoms: N_13  and  C_14 
REMARK       I    between atoms: C_14  and  N_15 
REMARK    6  A    between atoms: N_15  and  C_16 
REMARK    7  A    between atoms: C_17  and  O_18 
ROOT
HETATM    1  N   UNL     1      -9.488   0.629 -32.893  1.00  0.00    -0.341 N 
HETATM    2  C   UNL     1      -8.412   0.512 -33.718  1.00  0.00     0.316 C 
HETATM    3  N   UNL     1      -7.714  -0.636 -33.529  1.00  0.00    -0.332 N 
HETATM    4  O   UNL     1      -8.132   1.373 -34.546  1.00  0.00    -0.247 OA
HETATM    5  H   UNL     1      -9.658  -0.132 -32.246  1.00  0.00     0.164 HD
HETATM    6  H   UNL     1      -7.779  -1.085 -32.626  1.00  0.00     0.165 HD
ENDROOT
BRANCH   1   7
HETATM    7  C   UNL     1     -10.228   1.875 -32.700  1.00  0.00     0.162 C 
BRANCH   7   8
HETATM    8  C   UNL     1     -11.351   2.175 -33.749  1.00  0.00     0.241 C 
BRANCH   8   9
HETATM    9  C   UNL     1     -12.706   2.421 -33.088  1.00  0.00     0.007 A 
HETATM   10  C   UNL     1     -13.808   1.585 -33.370  1.00  0.00     0.076 A 
HETATM   11  C   UNL     1     -15.055   1.850 -32.794  1.00  0.00     0.037 A 
HETATM   12  C   UNL     1     -15.217   2.916 -31.911  1.00  0.00     0.003 A 
HETATM   13  C   UNL     1     -14.133   3.722 -31.589  1.00  0.00     0.001 A 
HETATM   14  C   UNL     1     -12.888   3.474 -32.166  1.00  0.00     0.012 A 
BRANCH  10  15
HETATM   15  O   UNL     1     -13.573   0.543 -34.230  1.00  0.00    -0.355 OA
HETATM   16  C   UNL     1     -13.335  -0.737 -33.644  1.00  0.00     0.210 C 
ENDBRANCH  10  15
ENDBRANCH   8   9
BRANCH   8  17
HETATM   17  N   UNL     1     -10.912   3.271 -34.727  1.00  0.00    -0.061 N 
HETATM   18  H   UNL     1     -10.375   2.763 -35.460  1.00  0.00     0.280 HD
HETATM   19  C   UNL     1      -9.958   4.338 -34.256  1.00  0.00     0.236 C 
HETATM   20  C   UNL     1     -10.765   5.617 -34.317  1.00  0.00     0.029 C 
HETATM   21  C   UNL     1     -11.608   5.410 -35.559  1.00  0.00     0.029 C 
HETATM   22  C   UNL     1     -12.052   3.965 -35.440  1.00  0.00     0.236 C 
ENDBRANCH   8  17
ENDBRANCH   7   8
ENDBRANCH   1   7
BRANCH   3  23
HETATM   23  C   UNL     1      -6.429  -0.832 -34.183  1.00  0.00     0.149 C 
HETATM   24  C   UNL     1      -5.232  -0.303 -33.331  1.00  0.00     0.149 C 
HETATM   25  C   UNL     1      -4.048  -1.249 -33.595  1.00  0.00     0.073 C 
HETATM   26  C   UNL     1      -4.743  -2.517 -33.994  1.00  0.00    -0.047 A 
HETATM   27  C   UNL     1      -6.081  -2.286 -34.332  1.00  0.00    -0.026 A 
HETATM   28  C   UNL     1      -4.184  -3.781 -34.096  1.00  0.00     0.008 A 
HETATM   29  C   UNL     1      -6.883  -3.322 -34.791  1.00  0.00     0.010 A 
HETATM   30  C   UNL     1      -6.330  -4.601 -34.887  1.00  0.00     0.001 A 
HETATM   31  C   UNL     1      -4.990  -4.829 -34.539  1.00  0.00     0.001 A 
BRANCH  24  32
HETATM   32  O   UNL     1      -5.538  -0.324 -31.924  1.00  0.00    -0.393 OA
HETATM   33  H   UNL     1      -6.036  -1.141 -31.759  1.00  0.00     0.210 HD
ENDBRANCH  24  32
ENDBRANCH   3  23
TORSDOF 7
ENDMDL
MODEL 3
REMARK VINA RESULT:      -8.7      4.917      9.147
REMARK  7 active torsions:
REMARK  status: ('A' for Active; 'I' for Inactive)
REMARK    1  A    between atoms: O_2  and  C_3 
REMARK    2  A    between atoms: C_4  and  C_5 
REMARK    3  A    between atoms: C_5  and  N_6 
REMARK    4  A    between atoms: C_5  and  C_12 
REMARK    5  A    between atoms: C_12  and  N_13 
REMARK       I    between atoms: N_13  and  C_14 
REMARK       I    between atoms: C_14  and  N_15 
REMARK    6  A    between atoms: N_15  and  C_16 
REMARK    7  A    between atoms: C_17  and  O_18 
ROOT
HETATM    1  N   UNL     1      -9.504   0.516 -33.055  1.00  0.00    -0.341 N 
HETATM    2  C   UNL     1      -8.423   0.356 -33.865  1.00  0.00     0.316 C 
HETATM    3  N   UNL     1      -7.634  -0.688 -33.506  1.00  0.00    -0.332 N 
HETATM    4  O   UNL     1      -8.214   1.094 -34.822  1.00  0.00    -0.247 OA
HETATM    5  H   UNL     1      -9.611  -0.143 -32.292  1.00  0.00     0.164 HD
HETATM    6  H   UNL     1      -7.662  -0.992 -32.542  1.00  0.00     0.165 HD
ENDROOT
BRANCH   1   7
HETATM    7  C   UNL     1     -10.342   1.714 -33.051  1.00  0.00     0.162 C 
BRANCH   7   8
HETATM    8  C   UNL     1     -11.317   1.873 -34.266  1.00  0.00     0.241 C 
BRANCH   8   9
HETATM    9  C   UNL     1     -12.782   1.791 -33.842  1.00  0.00     0.007 A 
HETATM   10  C   UNL     1     -13.273   2.592 -32.788  1.00  0.00     0.076 A 
HETATM   11  C   UNL     1     -14.605   2.474 -32.378  1.00  0.00     0.037 A 
HETATM   12  C   UNL     1     -15.471   1.593 -33.025  1.00  0.00     0.003 A 
HETATM   13  C   UNL     1     -15.016   0.831 -34.092  1.00  0.00     0.001 A 
HETATM   14  C   UNL     1     -13.687   0.933 -34.501  1.00  0.00     0.012 A 
BRANCH  10  15
HETATM   15  O   UNL     1     -12.372   3.451 -32.210  1.00  0.00    -0.355 OA
HETATM   16  C   UNL     1     -12.885   4.372 -31.247  1.00  0.00     0.210 C 
ENDBRANCH  10  15
ENDBRANCH   8   9
BRANCH   8  17
HETATM   17  N   UNL     1     -10.962   3.110 -35.099  1.00  0.00    -0.061 N 
HETATM   18  H   UNL     1     -10.470   2.728 -35.932  1.00  0.00     0.280 HD
HETATM   19  C   UNL     1      -9.994   4.121 -34.540  1.00  0.00     0.236 C 
HETATM   20  C   UNL     1     -10.822   5.374 -34.358  1.00  0.00     0.029 C 
HETATM   21  C   UNL     1     -11.746   5.330 -35.558  1.00  0.00     0.029 C 
HETATM   22  C   UNL     1     -12.160   3.872 -35.624  1.00  0.00     0.236 C 
ENDBRANCH   8  17
ENDBRANCH   7   8
ENDBRANCH   1   7
BRANCH   3  23
HETATM   23  C   UNL     1      -6.338  -0.883 -34.137  1.00  0.00     0.149 C 
HETATM   24  C   UNL     1      -5.155  -0.376 -33.254  1.00  0.00     0.149 C 
HETATM   25  C   UNL     1      -3.971  -1.326 -33.510  1.00  0.00     0.073 C 
HETATM   26  C   UNL     1      -4.667  -2.583 -33.943  1.00  0.00    -0.047 A 
HETATM   27  C   UNL     1      -5.997  -2.337 -34.303  1.00  0.00    -0.026 A 
HETATM   28  C   UNL     1      -4.114  -3.849 -34.055  1.00  0.00     0.008 A 
HETATM   29  C   UNL     1      -6.796  -3.359 -34.795  1.00  0.00     0.010 A 
HETATM   30  C   UNL     1      -6.251  -4.640 -34.902  1.00  0.00     0.001 A 
HETATM   31  C   UNL     1      -4.919  -4.883 -34.531  1.00  0.00     0.001 A 
BRANCH  24  32
HETATM   32  O   UNL     1      -5.488  -0.418 -31.854  1.00  0.00    -0.393 OA
HETATM   33  H   UNL     1      -6.457  -0.432 -31.798  1.00  0.00     0.210 HD
ENDBRANCH  24  32
ENDBRANCH   3  23
TORSDOF 7
ENDMDL
MODEL 4
REMARK VINA RESULT:      -8.4      2.002      3.193
REMARK  7 active torsions:
REMARK  status: ('A' for Active; 'I' for Inactive)
REMARK    1  A    between atoms: O_2  and  C_3 
REMARK    2  A    between atoms: C_4  and  C_5 
REMARK    3  A    between atoms: C_5  and  N_6 
REMARK    4  A    between atoms: C_5  and  C_12 
REMARK    5  A    between atoms: C_12  and  N_13 
REMARK       I    between atoms: N_13  and  C_14 
REMARK       I    between atoms: C_14  and  N_15 
REMARK    6  A    between atoms: N_15  and  C_16 
REMARK    7  A    between atoms: C_17  and  O_18 
ROOT
HETATM    1  N   UNL     1      -5.602   0.798 -31.202  1.00  0.00    -0.341 N 
HETATM    2  C   UNL     1      -5.558   2.073 -31.674  1.00  0.00     0.316 C 
HETATM    3  N   UNL     1      -4.764   2.891 -30.938  1.00  0.00    -0.332 N 
HETATM    4  O   UNL     1      -6.180   2.417 -32.674  1.00  0.00    -0.247 OA
HETATM    5  H   UNL     1      -5.050   0.592 -30.377  1.00  0.00     0.164 HD
HETATM    6  H   UNL     1      -4.601   2.645 -29.971  1.00  0.00     0.165 HD
ENDROOT
BRANCH   1   7
HETATM    7  C   UNL     1      -6.586  -0.192 -31.635  1.00  0.00     0.162 C 
BRANCH   7   8
HETATM    8  C   UNL     1      -6.830  -0.286 -33.179  1.00  0.00     0.241 C 
BRANCH   8   9
HETATM    9  C   UNL     1      -6.272  -1.579 -33.772  1.00  0.00     0.007 A 
HETATM   10  C   UNL     1      -4.879  -1.797 -33.842  1.00  0.00     0.076 A 
HETATM   11  C   UNL     1      -4.380  -2.964 -34.431  1.00  0.00     0.037 A 
HETATM   12  C   UNL     1      -5.248  -3.937 -34.922  1.00  0.00     0.003 A 
HETATM   13  C   UNL     1      -6.621  -3.758 -34.821  1.00  0.00     0.001 A 
HETATM   14  C   UNL     1      -7.129  -2.594 -34.247  1.00  0.00     0.012 A 
BRANCH  10  15
HETATM   15  O   UNL     1      -4.084  -0.807 -33.322  1.00  0.00    -0.355 OA
HETATM   16  C   UNL     1      -3.099  -1.205 -32.368  1.00  0.00     0.210 C 
ENDBRANCH  10  15
ENDBRANCH   8   9
BRANCH   8  17
HETATM   17  N   UNL     1      -8.298  -0.010 -33.522  1.00  0.00    -0.061 N 
HETATM   18  H   UNL     1      -8.680  -0.939 -33.790  1.00  0.00     0.280 HD
HETATM   19  C   UNL     1      -8.626   0.869 -34.702  1.00  0.00     0.236 C 
HETATM   20  C   UNL     1      -9.293   2.083 -34.093  1.00  0.00     0.029 C 
HETATM   21  C   UNL     1     -10.092   1.479 -32.957  1.00  0.00     0.029 C 
HETATM   22  C   UNL     1      -9.131   0.472 -32.354  1.00  0.00     0.236 C 
ENDBRANCH   8  17
ENDBRANCH   7   8
ENDBRANCH   1   7
BRANCH   3  23
HETATM   23  C   UNL     1      -4.757   4.325 -31.181  1.00  0.00     0.149 C 
HETATM   24  C   UNL     1      -5.304   5.144 -29.970  1.00  0.00     0.149 C 
HETATM   25  C   UNL     1      -4.505   6.459 -29.927  1.00  0.00     0.073 C 
HETATM   26  C   UNL     1      -3.225   6.070 -30.607  1.00  0.00    -0.047 A 
HETATM   27  C   UNL     1      -3.364   4.874 -31.320  1.00  0.00    -0.026 A 
HETATM   28  C   UNL     1      -2.037   6.782 -30.623  1.00  0.00     0.008 A 
HETATM   29  C   UNL     1      -2.312   4.373 -32.074  1.00  0.00     0.010 A 
HETATM   30  C   UNL     1      -1.107   5.080 -32.087  1.00  0.00     0.001 A 
HETATM   31  C   UNL     1      -0.970   6.274 -31.364  1.00  0.00     0.001 A 
BRANCH  24  32
HETATM   32  O   UNL     1      -5.109   4.442 -28.729  1.00  0.00    -0.393 OA
HETATM   33  H   UNL     1      -5.486   5.000 -28.030  1.00  0.00     0.210 HD
ENDBRANCH  24  32
ENDBRANCH   3  23
TORSDOF 7
ENDMDL
MODEL 5
REMARK VINA RESULT:      -8.3      3.747      8.384
REMARK  7 active torsions:
REMARK  status: ('A' for Active; 'I' for Inactive)
REMARK    1  A    between atoms: O_2  and  C_3 
REMARK    2  A    between atoms: C_4  and  C_5 
REMARK    3  A    between atoms: C_5  and  N_6 
REMARK    4  A    between atoms: C_5  and  C_12 
REMARK    5  A    between atoms: C_12  and  N_13 
REMARK       I    between atoms: N_13  and  C_14 
REMARK       I    between atoms: C_14  and  N_15 
REMARK    6  A    between atoms: N_15  and  C_16 
REMARK    7  A    between atoms: C_17  and  O_18 
ROOT
HETATM    1  N   UNL     1      -9.542   0.369 -33.027  1.00  0.00    -0.341 N 
HETATM    2  C   UNL     1      -8.496   0.126 -33.862  1.00  0.00     0.316 C 
HETATM    3  N   UNL     1      -7.548  -0.675 -33.314  1.00  0.00    -0.332 N 
HETATM    4  O   UNL     1      -8.447   0.592 -34.995  1.00  0.00    -0.247 OA
HETATM    5  H   UNL     1      -9.512  -0.063 -32.111  1.00  0.00     0.164 HD
HETATM    6  H   UNL     1      -7.479  -0.704 -32.305  1.00  0.00     0.165 HD
ENDROOT
BRANCH   1   7
HETATM    7  C   UNL     1     -10.540   1.411 -33.264  1.00  0.00     0.162 C 
BRANCH   7   8
HETATM    8  C   UNL     1     -10.426   2.687 -32.363  1.00  0.00     0.241 C 
BRANCH   8   9
HETATM    9  C   UNL     1      -9.087   3.400 -32.542  1.00  0.00     0.007 A 
HETATM   10  C   UNL     1      -8.836   4.184 -33.689  1.00  0.00     0.076 A 
HETATM   11  C   UNL     1      -7.589   4.793 -33.865  1.00  0.00     0.037 A 
HETATM   12  C   UNL     1      -6.594   4.663 -32.896  1.00  0.00     0.003 A 
HETATM   13  C   UNL     1      -6.840   3.932 -31.742  1.00  0.00     0.001 A 
HETATM   14  C   UNL     1      -8.076   3.311 -31.563  1.00  0.00     0.012 A 
BRANCH  10  15
HETATM   15  O   UNL     1      -9.865   4.286 -34.590  1.00  0.00    -0.355 OA
HETATM   16  C   UNL     1     -10.106   5.575 -35.153  1.00  0.00     0.210 C 
ENDBRANCH  10  15
ENDBRANCH   8   9
BRANCH   8  17
HETATM   17  N   UNL     1     -11.655   3.588 -32.528  1.00  0.00    -0.061 N 
HETATM   18  H   UNL     1     -11.365   4.292 -33.237  1.00  0.00     0.280 HD
HETATM   19  C   UNL     1     -12.118   4.422 -31.361  1.00  0.00     0.236 C 
HETATM   20  C   UNL     1     -13.478   3.858 -31.013  1.00  0.00     0.029 C 
HETATM   21  C   UNL     1     -14.048   3.518 -32.375  1.00  0.00     0.029 C 
HETATM   22  C   UNL     1     -12.870   2.887 -33.095  1.00  0.00     0.236 C 
ENDBRANCH   8  17
ENDBRANCH   7   8
ENDBRANCH   1   7
BRANCH   3  23
HETATM   23  C   UNL     1      -6.274  -0.876 -33.987  1.00  0.00     0.149 C 
HETATM   24  C   UNL     1      -5.054  -0.454 -33.109  1.00  0.00     0.149 C 
HETATM   25  C   UNL     1      -3.909  -1.425 -33.444  1.00  0.00     0.073 C 
HETATM   26  C   UNL     1      -4.654  -2.635 -33.924  1.00  0.00    -0.047 A 
HETATM   27  C   UNL     1      -5.984  -2.330 -34.237  1.00  0.00    -0.026 A 
HETATM   28  C   UNL     1      -4.145  -3.910 -34.116  1.00  0.00     0.008 A 
HETATM   29  C   UNL     1      -6.827  -3.299 -34.761  1.00  0.00     0.010 A 
HETATM   30  C   UNL     1      -6.325  -4.589 -34.948  1.00  0.00     0.001 A 
HETATM   31  C   UNL     1      -4.994  -4.892 -34.624  1.00  0.00     0.001 A 
BRANCH  24  32
HETATM   32  O   UNL     1      -5.355  -0.559 -31.705  1.00  0.00    -0.393 OA
HETATM   33  H   UNL     1      -5.504  -1.501 -31.522  1.00  0.00     0.210 HD
ENDBRANCH  24  32
ENDBRANCH   3  23
TORSDOF 7
ENDMDL
MODEL 6
REMARK VINA RESULT:      -8.3      2.277      8.477
REMARK  7 active torsions:
REMARK  status: ('A' for Active; 'I' for Inactive)
REMARK    1  A    between atoms: O_2  and  C_3 
REMARK    2  A    between atoms: C_4  and  C_5 
REMARK    3  A    between atoms: C_5  and  N_6 
REMARK    4  A    between atoms: C_5  and  C_12 
REMARK    5  A    between atoms: C_12  and  N_13 
REMARK       I    between atoms: N_13  and  C_14 
REMARK       I    between atoms: C_14  and  N_15 
REMARK    6  A    between atoms: N_15  and  C_16 
REMARK    7  A    between atoms: C_17  and  O_18 
ROOT
HETATM    1  N   UNL     1      -2.979   2.988 -32.050  1.00  0.00    -0.341 N 
HETATM    2  C   UNL     1      -4.010   2.174 -31.696  1.00  0.00     0.316 C 
HETATM    3  N   UNL     1      -4.318   1.256 -32.646  1.00  0.00    -0.332 N 
HETATM    4  O   UNL     1      -4.579   2.279 -30.615  1.00  0.00    -0.247 OA
HETATM    5  H   UNL     1      -2.554   2.828 -32.955  1.00  0.00     0.164 HD
HETATM    6  H   UNL     1      -4.073   1.468 -33.605  1.00  0.00     0.165 HD
ENDROOT
BRANCH   1   7
HETATM    7  C   UNL     1      -2.642   4.221 -31.340  1.00  0.00     0.162 C 
BRANCH   7   8
HETATM    8  C   UNL     1      -2.922   5.555 -32.111  1.00  0.00     0.241 C 
BRANCH   8   9
HETATM    9  C   UNL     1      -4.415   5.869 -32.193  1.00  0.00     0.007 A 
HETATM   10  C   UNL     1      -5.204   5.350 -33.242  1.00  0.00     0.076 A 
HETATM   11  C   UNL     1      -6.560   5.684 -33.333  1.00  0.00     0.037 A 
HETATM   12  C   UNL     1      -7.154   6.501 -32.372  1.00  0.00     0.003 A 
HETATM   13  C   UNL     1      -6.403   6.983 -31.309  1.00  0.00     0.001 A 
HETATM   14  C   UNL     1      -5.048   6.666 -31.217  1.00  0.00     0.012 A 
BRANCH  10  15
HETATM   15  O   UNL     1      -4.559   4.537 -34.139  1.00  0.00    -0.355 OA
HETATM   16  C   UNL     1      -3.934   5.173 -35.254  1.00  0.00     0.210 C 
ENDBRANCH  10  15
ENDBRANCH   8   9
BRANCH   8  17
HETATM   17  N   UNL     1      -2.060   6.698 -31.564  1.00  0.00    -0.061 N 
HETATM   18  H   UNL     1      -2.690   7.525 -31.576  1.00  0.00     0.280 HD
HETATM   19  C   UNL     1      -0.855   7.152 -32.348  1.00  0.00     0.236 C 
HETATM   20  C   UNL     1       0.321   6.807 -31.462  1.00  0.00     0.029 C 
HETATM   21  C   UNL     1      -0.220   7.093 -30.076  1.00  0.00     0.029 C 
HETATM   22  C   UNL     1      -1.623   6.517 -30.127  1.00  0.00     0.236 C 
ENDBRANCH   8  17
ENDBRANCH   7   8
ENDBRANCH   1   7
BRANCH   3  23
HETATM   23  C   UNL     1      -5.515   0.439 -32.521  1.00  0.00     0.149 C 
HETATM   24  C   UNL     1      -6.772   1.109 -33.161  1.00  0.00     0.149 C 
HETATM   25  C   UNL     1      -7.629  -0.027 -33.747  1.00  0.00     0.073 C 
HETATM   26  C   UNL     1      -6.606  -1.095 -33.996  1.00  0.00    -0.047 A 
HETATM   27  C   UNL     1      -5.418  -0.841 -33.303  1.00  0.00    -0.026 A 
HETATM   28  C   UNL     1      -6.765  -2.245 -34.754  1.00  0.00     0.008 A 
HETATM   29  C   UNL     1      -4.365  -1.745 -33.348  1.00  0.00     0.010 A 
HETATM   30  C   UNL     1      -4.513  -2.901 -34.117  1.00  0.00     0.001 A 
HETATM   31  C   UNL     1      -5.704  -3.147 -34.818  1.00  0.00     0.001 A 
BRANCH  24  32
HETATM   32  O   UNL     1      -6.405   2.009 -34.223  1.00  0.00    -0.393 OA
HETATM   33  H   UNL     1      -6.119   1.457 -34.969  1.00  0.00     0.210 HD
ENDBRANCH  24  32
ENDBRANCH   3  23
TORSDOF 7
ENDMDL
MODEL 7
REMARK VINA RESULT:      -8.3      2.194      8.802
REMARK  7 active torsions:
REMARK  status: ('A' for Active; 'I' for Inactive)
REMARK    1  A    between atoms: O_2  and  C_3 
REMARK    2  A    between atoms: C_4  and  C_5 
REMARK    3  A    between atoms: C_5  and  N_6 
REMARK    4  A    between atoms: C_5  and  C_12 
REMARK    5  A    between atoms: C_12  and  N_13 
REMARK       I    between atoms: N_13  and  C_14 
REMARK       I    between atoms: C_14  and  N_15 
REMARK    6  A    between atoms: N_15  and  C_16 
REMARK    7  A    between atoms: C_17  and  O_18 
ROOT
HETATM    1  N   UNL     1      -3.248   3.195 -32.300  1.00  0.00    -0.341 N 
HETATM    2  C   UNL     1      -3.895   2.048 -31.960  1.00  0.00     0.316 C 
HETATM    3  N   UNL     1      -4.959   1.775 -32.757  1.00  0.00    -0.332 N 
HETATM    4  O   UNL     1      -3.525   1.347 -31.025  1.00  0.00    -0.247 OA
HETATM    5  H   UNL     1      -3.610   3.711 -33.094  1.00  0.00     0.164 HD
HETATM    6  H   UNL     1      -5.402   2.549 -33.234  1.00  0.00     0.165 HD
ENDROOT
BRANCH   1   7
HETATM    7  C   UNL     1      -2.262   3.853 -31.444  1.00  0.00     0.162 C 
BRANCH   7   8
HETATM    8  C   UNL     1      -2.298   5.418 -31.435  1.00  0.00     0.241 C 
BRANCH   8   9
HETATM    9  C   UNL     1      -1.333   6.010 -30.410  1.00  0.00     0.007 A 
HETATM   10  C   UNL     1      -1.529   7.313 -29.903  1.00  0.00     0.076 A 
HETATM   11  C   UNL     1      -0.610   7.861 -29.001  1.00  0.00     0.037 A 
HETATM   12  C   UNL     1       0.486   7.118 -28.565  1.00  0.00     0.003 A 
HETATM   13  C   UNL     1       0.669   5.819 -29.020  1.00  0.00     0.001 A 
HETATM   14  C   UNL     1      -0.234   5.268 -29.928  1.00  0.00     0.012 A 
BRANCH  10  15
HETATM   15  O   UNL     1      -2.638   7.979 -30.358  1.00  0.00    -0.355 OA
HETATM   16  C   UNL     1      -2.421   9.247 -30.978  1.00  0.00     0.210 C 
ENDBRANCH  10  15
ENDBRANCH   8   9
BRANCH   8  17
HETATM   17  N   UNL     1      -2.145   5.981 -32.852  1.00  0.00    -0.061 N 
HETATM   18  H   UNL     1      -1.740   6.929 -32.712  1.00  0.00     0.280 HD
HETATM   19  C   UNL     1      -3.379   6.235 -33.681  1.00  0.00     0.236 C 
HETATM   20  C   UNL     1      -3.264   5.263 -34.834  1.00  0.00     0.029 C 
HETATM   21  C   UNL     1      -1.774   5.259 -35.110  1.00  0.00     0.029 C 
HETATM   22  C   UNL     1      -1.165   5.223 -33.721  1.00  0.00     0.236 C 
ENDBRANCH   8  17
ENDBRANCH   7   8
ENDBRANCH   1   7
BRANCH   3  23
HETATM   23  C   UNL     1      -5.878   0.700 -32.417  1.00  0.00     0.149 C 
HETATM   24  C   UNL     1      -7.360   1.040 -32.772  1.00  0.00     0.149 C 
HETATM   25  C   UNL     1      -8.025  -0.279 -33.206  1.00  0.00     0.073 C 
HETATM   26  C   UNL     1      -6.850  -1.079 -33.685  1.00  0.00    -0.047 A 
HETATM   27  C   UNL     1      -5.641  -0.536 -33.238  1.00  0.00    -0.026 A 
HETATM   28  C   UNL     1      -6.882  -2.249 -34.427  1.00  0.00     0.008 A 
HETATM   29  C   UNL     1      -4.436  -1.165 -33.519  1.00  0.00     0.010 A 
HETATM   30  C   UNL     1      -4.458  -2.339 -34.275  1.00  0.00     0.001 A 
HETATM   31  C   UNL     1      -5.673  -2.875 -34.729  1.00  0.00     0.001 A 
BRANCH  24  32
HETATM   32  O   UNL     1      -7.438   1.979 -33.861  1.00  0.00    -0.393 OA
HETATM   33  H   UNL     1      -6.683   1.795 -34.442  1.00  0.00     0.210 HD
ENDBRANCH  24  32
ENDBRANCH   3  23
TORSDOF 7
ENDMDL
MODEL 8
REMARK VINA RESULT:      -8.2      4.736      8.550
REMARK  7 active torsions:
REMARK  status: ('A' for Active; 'I' for Inactive)
REMARK    1  A    between atoms: O_2  and  C_3 
REMARK    2  A    between atoms: C_4  and  C_5 
REMARK    3  A    between atoms: C_5  and  N_6 
REMARK    4  A    between atoms: C_5  and  C_12 
REMARK    5  A    between atoms: C_12  and  N_13 
REMARK       I    between atoms: N_13  and  C_14 
REMARK       I    between atoms: C_14  and  N_15 
REMARK    6  A    between atoms: N_15  and  C_16 
REMARK    7  A    between atoms: C_17  and  O_18 
ROOT
HETATM    1  N   UNL     1     -10.325   0.412 -33.373  1.00  0.00    -0.341 N 
HETATM    2  C   UNL     1      -9.005   0.616 -33.633  1.00  0.00     0.316 C 
HETATM    3  N   UNL     1      -8.183   0.012 -32.738  1.00  0.00    -0.332 N 
HETATM    4  O   UNL     1      -8.627   1.279 -34.592  1.00  0.00    -0.247 OA
HETATM    5  H   UNL     1     -10.554  -0.158 -32.567  1.00  0.00     0.164 HD
HETATM    6  H   UNL     1      -8.550  -0.183 -31.816  1.00  0.00     0.165 HD
ENDROOT
BRANCH   1   7
HETATM    7  C   UNL     1     -11.401   1.173 -34.006  1.00  0.00     0.162 C 
BRANCH   7   8
HETATM    8  C   UNL     1     -11.845   2.478 -33.264  1.00  0.00     0.241 C 
BRANCH   8   9
HETATM    9  C   UNL     1     -10.972   3.676 -33.633  1.00  0.00     0.007 A 
HETATM   10  C   UNL     1     -10.165   4.306 -32.661  1.00  0.00     0.076 A 
HETATM   11  C   UNL     1      -9.406   5.432 -33.001  1.00  0.00     0.037 A 
HETATM   12  C   UNL     1      -9.409   5.921 -34.306  1.00  0.00     0.003 A 
HETATM   13  C   UNL     1     -10.163   5.285 -35.285  1.00  0.00     0.001 A 
HETATM   14  C   UNL     1     -10.932   4.171 -34.953  1.00  0.00     0.012 A 
BRANCH  10  15
HETATM   15  O   UNL     1     -10.194   3.760 -31.403  1.00  0.00    -0.355 OA
HETATM   16  C   UNL     1      -8.984   3.174 -30.926  1.00  0.00     0.210 C 
ENDBRANCH  10  15
ENDBRANCH   8   9
BRANCH   8  17
HETATM   17  N   UNL     1     -13.352   2.716 -33.422  1.00  0.00    -0.061 N 
HETATM   18  H   UNL     1     -13.456   3.073 -34.394  1.00  0.00     0.280 HD
HETATM   19  C   UNL     1     -14.024   3.768 -32.578  1.00  0.00     0.236 C 
HETATM   20  C   UNL     1     -14.973   2.990 -31.693  1.00  0.00     0.029 C 
HETATM   21  C   UNL     1     -15.459   1.895 -32.621  1.00  0.00     0.029 C 
HETATM   22  C   UNL     1     -14.193   1.461 -33.336  1.00  0.00     0.236 C 
ENDBRANCH   8  17
ENDBRANCH   7   8
ENDBRANCH   1   7
BRANCH   3  23
HETATM   23  C   UNL     1      -6.755   0.287 -32.747  1.00  0.00     0.149 C 
HETATM   24  C   UNL     1      -6.170   0.487 -31.314  1.00  0.00     0.149 C 
HETATM   25  C   UNL     1      -4.743  -0.088 -31.333  1.00  0.00     0.073 C 
HETATM   26  C   UNL     1      -4.824  -1.092 -32.445  1.00  0.00    -0.047 A 
HETATM   27  C   UNL     1      -5.951  -0.881 -33.247  1.00  0.00    -0.026 A 
HETATM   28  C   UNL     1      -3.910  -2.091 -32.739  1.00  0.00     0.008 A 
HETATM   29  C   UNL     1      -6.177  -1.664 -34.371  1.00  0.00     0.010 A 
HETATM   30  C   UNL     1      -5.265  -2.680 -34.669  1.00  0.00     0.001 A 
HETATM   31  C   UNL     1      -4.142  -2.893 -33.856  1.00  0.00     0.001 A 
BRANCH  24  32
HETATM   32  O   UNL     1      -6.942  -0.222 -30.327  1.00  0.00    -0.393 OA
HETATM   33  H   UNL     1      -6.315  -0.753 -29.811  1.00  0.00     0.210 HD
ENDBRANCH  24  32
ENDBRANCH   3  23
TORSDOF 7
ENDMDL
MODEL 9
REMARK VINA RESULT:      -8.2      4.648      9.073
REMARK  7 active torsions:
REMARK  status: ('A' for Active; 'I' for Inactive)
REMARK    1  A    between atoms: O_2  and  C_3 
REMARK    2  A    between atoms: C_4  and  C_5 
REMARK    3  A    between atoms: C_5  and  N_6 
REMARK    4  A    between atoms: C_5  and  C_12 
REMARK    5  A    between atoms: C_12  and  N_13 
REMARK       I    between atoms: N_13  and  C_14 
REMARK       I    between atoms: C_14  and  N_15 
REMARK    6  A    between atoms: N_15  and  C_16 
REMARK    7  A    between atoms: C_17  and  O_18 
ROOT
HETATM    1  N   UNL     1      -9.083   1.363 -32.236  1.00  0.00    -0.341 N 
HETATM    2  C   UNL     1      -8.128   1.163 -33.185  1.00  0.00     0.316 C 
HETATM    3  N   UNL     1      -7.437   0.007 -33.015  1.00  0.00    -0.332 N 
HETATM    4  O   UNL     1      -7.940   1.962 -34.095  1.00  0.00    -0.247 OA
HETATM    5  H   UNL     1      -9.183   0.649 -31.524  1.00  0.00     0.164 HD
HETATM    6  H   UNL     1      -7.393  -0.384 -32.083  1.00  0.00     0.165 HD
ENDROOT
BRANCH   1   7
HETATM    7  C   UNL     1      -9.762   2.641 -32.029  1.00  0.00     0.162 C 
BRANCH   7   8
HETATM    8  C   UNL     1     -11.171   2.785 -32.698  1.00  0.00     0.241 C 
BRANCH   8   9
HETATM    9  C   UNL     1     -12.077   3.745 -31.929  1.00  0.00     0.007 A 
HETATM   10  C   UNL     1     -13.478   3.575 -31.938  1.00  0.00     0.076 A 
HETATM   11  C   UNL     1     -14.301   4.489 -31.270  1.00  0.00     0.037 A 
HETATM   12  C   UNL     1     -13.747   5.553 -30.560  1.00  0.00     0.003 A 
HETATM   13  C   UNL     1     -12.368   5.709 -30.505  1.00  0.00     0.001 A 
HETATM   14  C   UNL     1     -11.541   4.811 -31.178  1.00  0.00     0.012 A 
BRANCH  10  15
HETATM   15  O   UNL     1     -13.953   2.495 -32.638  1.00  0.00    -0.355 OA
HETATM   16  C   UNL     1     -15.287   2.076 -32.351  1.00  0.00     0.210 C 
ENDBRANCH  10  15
ENDBRANCH   8   9
BRANCH   8  17
HETATM   17  N   UNL     1     -11.040   3.092 -34.194  1.00  0.00    -0.061 N 
HETATM   18  H   UNL     1     -10.030   2.953 -34.399  1.00  0.00     0.280 HD
HETATM   19  C   UNL     1     -11.319   4.489 -34.686  1.00  0.00     0.236 C 
HETATM   20  C   UNL     1     -12.545   4.342 -35.561  1.00  0.00     0.029 C 
HETATM   21  C   UNL     1     -12.308   3.002 -36.229  1.00  0.00     0.029 C 
HETATM   22  C   UNL     1     -11.793   2.136 -35.094  1.00  0.00     0.236 C 
ENDBRANCH   8  17
ENDBRANCH   7   8
ENDBRANCH   1   7
BRANCH   3  23
HETATM   23  C   UNL     1      -6.254  -0.269 -33.815  1.00  0.00     0.149 C 
HETATM   24  C   UNL     1      -4.926   0.028 -33.050  1.00  0.00     0.149 C 
HETATM   25  C   UNL     1      -3.900  -1.017 -33.523  1.00  0.00     0.073 C 
HETATM   26  C   UNL     1      -4.783  -2.149 -33.959  1.00  0.00    -0.047 A 
HETATM   27  C   UNL     1      -6.107  -1.730 -34.132  1.00  0.00    -0.026 A 
HETATM   28  C   UNL     1      -4.400  -3.451 -34.234  1.00  0.00     0.008 A 
HETATM   29  C   UNL     1      -7.073  -2.613 -34.596  1.00  0.00     0.010 A 
HETATM   30  C   UNL     1      -6.697  -3.931 -34.866  1.00  0.00     0.001 A 
HETATM   31  C   UNL     1      -5.370  -4.347 -34.683  1.00  0.00     0.001 A 
BRANCH  24  32
HETATM   32  O   UNL     1      -5.098  -0.103 -31.627  1.00  0.00    -0.393 OA
HETATM   33  H   UNL     1      -4.703  -0.953 -31.375  1.00  0.00     0.210 HD
ENDBRANCH  24  32
ENDBRANCH   3  23
TORSDOF 7
ENDMDL
MODEL 10
REMARK VINA RESULT:      -8.2      2.124      8.403
REMARK  7 active torsions:
REMARK  status: ('A' for Active; 'I' for Inactive)
REMARK    1  A    between atoms: O_2  and  C_3 
REMARK    2  A    between atoms: C_4  and  C_5 
REMARK    3  A    between atoms: C_5  and  N_6 
REMARK    4  A    between atoms: C_5  and  C_12 
REMARK    5  A    between atoms: C_12  and  N_13 
REMARK       I    between atoms: N_13  and  C_14 
REMARK       I    between atoms: C_14  and  N_15 
REMARK    6  A    between atoms: N_15  and  C_16 
REMARK    7  A    between atoms: C_17  and  O_18 
ROOT
HETATM    1  N   UNL     1      -3.541   1.823 -32.402  1.00  0.00    -0.341 N 
HETATM    2  C   UNL     1      -4.339   0.763 -32.100  1.00  0.00     0.316 C 
HETATM    3  N   UNL     1      -4.677   0.021 -33.185  1.00  0.00    -0.332 N 
HETATM    4  O   UNL     1      -4.693   0.524 -30.951  1.00  0.00    -0.247 OA
HETATM    5  H   UNL     1      -3.282   1.944 -33.375  1.00  0.00     0.164 HD
HETATM    6  H   UNL     1      -4.663   0.473 -34.089  1.00  0.00     0.165 HD
ENDROOT
BRANCH   1   7
HETATM    7  C   UNL     1      -3.271   2.922 -31.477  1.00  0.00     0.162 C 
BRANCH   7   8
HETATM    8  C   UNL     1      -3.873   4.313 -31.872  1.00  0.00     0.241 C 
BRANCH   8   9
HETATM    9  C   UNL     1      -2.871   5.177 -32.636  1.00  0.00     0.007 A 
HETATM   10  C   UNL     1      -2.593   6.497 -32.219  1.00  0.00     0.076 A 
HETATM   11  C   UNL     1      -1.710   7.295 -32.955  1.00  0.00     0.037 A 
HETATM   12  C   UNL     1      -1.069   6.787 -34.084  1.00  0.00     0.003 A 
HETATM   13  C   UNL     1      -1.298   5.476 -34.482  1.00  0.00     0.001 A 
HETATM   14  C   UNL     1      -2.185   4.677 -33.762  1.00  0.00     0.012 A 
BRANCH  10  15
HETATM   15  O   UNL     1      -3.242   6.925 -31.089  1.00  0.00    -0.355 OA
HETATM   16  C   UNL     1      -4.217   7.955 -31.255  1.00  0.00     0.210 C 
ENDBRANCH  10  15
ENDBRANCH   8   9
BRANCH   8  17
HETATM   17  N   UNL     1      -5.231   4.149 -32.564  1.00  0.00    -0.061 N 
HETATM   18  H   UNL     1      -5.124   3.290 -33.140  1.00  0.00     0.280 HD
HETATM   19  C   UNL     1      -5.684   5.192 -33.553  1.00  0.00     0.236 C 
HETATM   20  C   UNL     1      -6.902   5.817 -32.908  1.00  0.00     0.029 C 
HETATM   21  C   UNL     1      -7.558   4.629 -32.233  1.00  0.00     0.029 C 
HETATM   22  C   UNL     1      -6.384   3.889 -31.620  1.00  0.00     0.236 C 
ENDBRANCH   8  17
ENDBRANCH   7   8
ENDBRANCH   1   7
BRANCH   3  23
HETATM   23  C   UNL     1      -5.680  -1.027 -33.076  1.00  0.00     0.149 C 
HETATM   24  C   UNL     1      -6.911  -0.783 -34.005  1.00  0.00     0.149 C 
HETATM   25  C   UNL     1      -7.391  -2.167 -34.477  1.00  0.00     0.073 C 
HETATM   26  C   UNL     1      -6.140  -2.987 -34.368  1.00  0.00    -0.047 A 
HETATM   27  C   UNL     1      -5.177  -2.353 -33.574  1.00  0.00    -0.026 A 
HETATM   28  C   UNL     1      -5.914  -4.244 -34.904  1.00  0.00     0.008 A 
HETATM   29  C   UNL     1      -3.969  -2.977 -33.294  1.00  0.00     0.010 A 
HETATM   30  C   UNL     1      -3.730  -4.240 -33.839  1.00  0.00     0.001 A 
HETATM   31  C   UNL     1      -4.695  -4.868 -34.641  1.00  0.00     0.001 A 
BRANCH  24  32
HETATM   32  O   UNL     1      -6.552   0.002 -35.157  1.00  0.00    -0.393 OA
HETATM   33  H   UNL     1      -6.153  -0.609 -35.798  1.00  0.00     0.210 HD
ENDBRANCH  24  32
ENDBRANCH   3  23
TORSDOF 7
ENDMDL
