MODEL 1
REMARK VINA RESULT:      -9.1      0.000      0.000
REMARK  2 active torsions:
REMARK  status: ('A' for Active; 'I' for Inactive)
REMARK       I    between atoms: N_4  and  C_5 
REMARK       I    between atoms: C_5  and  N_6 
REMARK    1  A    between atoms: N_6  and  C_7 
REMARK    2  A    between atoms: C_20  and  C_21 
ROOT
HETATM    1  C   UNL     1     -10.110   1.289 -34.253  1.00  0.00     0.011 C 
HETATM    2  C   UNL     1     -10.124   1.506 -32.744  1.00  0.00     0.002 C 
HETATM    3  C   UNL     1      -9.251   2.681 -32.318  1.00  0.00     0.132 C 
HETATM    4  N   UNL     1      -7.959   2.109 -31.966  1.00  0.00    -0.325 N 
HETATM    5  C   UNL     1      -6.811   2.801 -31.628  1.00  0.00     0.323 C 
HETATM    6  N   UNL     1      -6.934   4.171 -31.696  1.00  0.00    -0.309 N 
HETATM    7  O   UNL     1      -5.775   2.221 -31.317  1.00  0.00    -0.247 OA
HETATM    8  C   UNL     1      -8.030   0.653 -31.816  1.00  0.00     0.125 C 
HETATM    9  C   UNL     1      -9.529   0.333 -31.957  1.00  0.00     0.036 C 
HETATM   10  H   UNL     1      -7.847   4.540 -31.483  1.00  0.00     0.170 HD
ENDROOT
BRANCH   6  11
HETATM   11  C   UNL     1      -5.872   5.096 -31.746  1.00  0.00     0.038 A 
HETATM   12  C   UNL     1      -4.801   4.968 -32.637  1.00  0.00     0.062 A 
HETATM   13  C   UNL     1      -3.810   5.951 -32.686  1.00  0.00     0.070 A 
HETATM   14  C   UNL     1      -3.871   7.059 -31.843  1.00  0.00     0.096 A 
HETATM   15  N   UNL     1      -2.786   5.839 -33.625  1.00  0.00    -0.323 N 
HETATM   16  O   UNL     1      -2.957   8.075 -31.853  1.00  0.00    -0.335 OA
HETATM   17  C   UNL     1      -4.939   7.194 -30.959  1.00  0.00     0.041 A 
HETATM   18  C   UNL     1      -1.766   7.818 -32.594  1.00  0.00     0.217 C 
HETATM   19  C   UNL     1      -1.789   6.767 -33.714  1.00  0.00     0.251 C 
HETATM   20  C   UNL     1      -0.662   7.455 -31.605  1.00  0.00     0.050 C 
HETATM   21  O   UNL     1      -0.934   6.705 -34.596  1.00  0.00    -0.270 OA
HETATM   22  C   UNL     1      -5.941   6.220 -30.916  1.00  0.00     0.032 A 
HETATM   23  H   UNL     1      -2.782   5.088 -34.304  1.00  0.00     0.169 HD
ENDBRANCH   6  11
BRANCH   8  24
HETATM   24  C   UNL     1      -7.174  -0.157 -32.772  1.00  0.00     0.003 A 
HETATM   25  C   UNL     1      -6.042  -0.806 -32.260  1.00  0.00     0.124 A 
HETATM   26  F   UNL     1      -5.764  -0.722 -30.950  1.00  0.00    -0.205 F 
HETATM   27  C   UNL     1      -5.186  -1.545 -33.074  1.00  0.00     0.043 A 
HETATM   28  C   UNL     1      -5.452  -1.648 -34.436  1.00  0.00     0.003 A 
HETATM   29  C   UNL     1      -6.572  -1.015 -34.971  1.00  0.00     0.001 A 
HETATM   30  C   UNL     1      -7.427  -0.275 -34.146  1.00  0.00     0.012 A 
ENDBRANCH   8  24
TORSDOF 2
ENDMDL
MODEL 2
REMARK VINA RESULT:      -9.0      4.870      7.704
REMARK  2 active torsions:
REMARK  status: ('A' for Active; 'I' for Inactive)
REMARK       I    between atoms: N_4  and  C_5 
REMARK       I    between atoms: C_5  and  N_6 
REMARK    1  A    between atoms: N_6  and  C_7 
REMARK    2  A    between atoms: C_20  and  C_21 
ROOT
HETATM    1  C   UNL     1      -9.025   5.776 -31.822  1.00  0.00     0.011 C 
HETATM    2  C   UNL     1      -9.357   4.722 -30.771  1.00  0.00     0.002 C 
HETATM    3  C   UNL     1      -8.476   3.483 -30.893  1.00  0.00     0.132 C 
HETATM    4  N   UNL     1      -9.228   2.540 -31.706  1.00  0.00    -0.325 N 
HETATM    5  C   UNL     1      -8.787   1.319 -32.179  1.00  0.00     0.323 C 
HETATM    6  N   UNL     1      -7.477   1.029 -31.869  1.00  0.00    -0.309 N 
HETATM    7  O   UNL     1      -9.514   0.579 -32.837  1.00  0.00    -0.247 OA
HETATM    8  C   UNL     1     -10.634   2.934 -31.840  1.00  0.00     0.125 C 
HETATM    9  C   UNL     1     -10.772   4.152 -30.909  1.00  0.00     0.036 C 
HETATM   10  H   UNL     1      -7.142   1.402 -30.995  1.00  0.00     0.170 HD
ENDROOT
BRANCH   6  11
HETATM   11  C   UNL     1      -6.675   0.051 -32.490  1.00  0.00     0.038 A 
HETATM   12  C   UNL     1      -7.211  -1.087 -33.102  1.00  0.00     0.062 A 
HETATM   13  C   UNL     1      -6.371  -1.989 -33.759  1.00  0.00     0.070 A 
HETATM   14  C   UNL     1      -4.995  -1.772 -33.801  1.00  0.00     0.096 A 
HETATM   15  N   UNL     1      -6.930  -3.083 -34.418  1.00  0.00    -0.323 N 
HETATM   16  O   UNL     1      -4.114  -2.592 -34.449  1.00  0.00    -0.335 OA
HETATM   17  C   UNL     1      -4.458  -0.636 -33.200  1.00  0.00     0.041 A 
HETATM   18  C   UNL     1      -4.642  -3.850 -34.863  1.00  0.00     0.217 C 
HETATM   19  C   UNL     1      -6.157  -3.999 -35.072  1.00  0.00     0.251 C 
HETATM   20  C   UNL     1      -4.179  -4.910 -33.866  1.00  0.00     0.050 C 
HETATM   21  O   UNL     1      -6.660  -4.916 -35.717  1.00  0.00    -0.270 OA
HETATM   22  C   UNL     1      -5.296   0.278 -32.553  1.00  0.00     0.032 A 
HETATM   23  H   UNL     1      -7.934  -3.201 -34.472  1.00  0.00     0.169 HD
ENDBRANCH   6  11
BRANCH   8  24
HETATM   24  C   UNL     1     -11.112   3.225 -33.249  1.00  0.00     0.003 A 
HETATM   25  C   UNL     1     -12.391   2.786 -33.620  1.00  0.00     0.124 A 
HETATM   26  F   UNL     1     -13.162   2.154 -32.721  1.00  0.00    -0.205 F 
HETATM   27  C   UNL     1     -12.895   2.985 -34.903  1.00  0.00     0.043 A 
HETATM   28  C   UNL     1     -12.116   3.639 -35.853  1.00  0.00     0.003 A 
HETATM   29  C   UNL     1     -10.842   4.088 -35.511  1.00  0.00     0.001 A 
HETATM   30  C   UNL     1     -10.344   3.883 -34.220  1.00  0.00     0.012 A 
ENDBRANCH   8  24
TORSDOF 2
ENDMDL
MODEL 3
REMARK VINA RESULT:      -8.9      1.774      2.036
REMARK  2 active torsions:
REMARK  status: ('A' for Active; 'I' for Inactive)
REMARK       I    between atoms: N_4  and  C_5 
REMARK       I    between atoms: C_5  and  N_6 
REMARK    1  A    between atoms: N_6  and  C_7 
REMARK    2  A    between atoms: C_20  and  C_21 
ROOT
HETATM    1  C   UNL     1      -9.950   3.254 -34.242  1.00  0.00     0.011 C 
HETATM    2  C   UNL     1      -9.869   3.320 -32.720  1.00  0.00     0.002 C 
HETATM    3  C   UNL     1      -8.675   4.136 -32.237  1.00  0.00     0.132 C 
HETATM    4  N   UNL     1      -7.609   3.174 -31.996  1.00  0.00    -0.325 N 
HETATM    5  C   UNL     1      -6.300   3.457 -31.655  1.00  0.00     0.323 C 
HETATM    6  N   UNL     1      -6.005   4.801 -31.600  1.00  0.00    -0.309 N 
HETATM    7  O   UNL     1      -5.481   2.567 -31.443  1.00  0.00    -0.247 OA
HETATM    8  C   UNL     1      -8.112   1.798 -31.968  1.00  0.00     0.125 C 
HETATM    9  C   UNL     1      -9.640   1.955 -32.064  1.00  0.00     0.036 C 
HETATM   10  H   UNL     1      -6.761   5.404 -31.314  1.00  0.00     0.170 HD
ENDROOT
BRANCH   6  11
HETATM   11  C   UNL     1      -4.715   5.368 -31.620  1.00  0.00     0.038 A 
HETATM   12  C   UNL     1      -3.589   4.700 -31.126  1.00  0.00     0.062 A 
HETATM   13  C   UNL     1      -2.326   5.285 -31.232  1.00  0.00     0.070 A 
HETATM   14  C   UNL     1      -2.175   6.541 -31.817  1.00  0.00     0.096 A 
HETATM   15  N   UNL     1      -1.209   4.577 -30.793  1.00  0.00    -0.323 N 
HETATM   16  O   UNL     1      -0.970   7.164 -31.984  1.00  0.00    -0.335 OA
HETATM   17  C   UNL     1      -3.292   7.207 -32.318  1.00  0.00     0.041 A 
HETATM   18  C   UNL     1       0.122   6.581 -31.277  1.00  0.00     0.217 C 
HETATM   19  C   UNL     1       0.049   5.102 -30.868  1.00  0.00     0.251 C 
HETATM   20  C   UNL     1       0.382   7.422 -30.030  1.00  0.00     0.050 C 
HETATM   21  O   UNL     1       1.038   4.442 -30.553  1.00  0.00    -0.270 OA
HETATM   22  C   UNL     1      -4.558   6.619 -32.227  1.00  0.00     0.032 A 
HETATM   23  H   UNL     1      -1.295   3.628 -30.451  1.00  0.00     0.169 HD
ENDBRANCH   6  11
BRANCH   8  24
HETATM   24  C   UNL     1      -7.558   0.865 -33.027  1.00  0.00     0.003 A 
HETATM   25  C   UNL     1      -6.864  -0.279 -32.607  1.00  0.00     0.124 A 
HETATM   26  F   UNL     1      -6.736  -0.533 -31.296  1.00  0.00    -0.205 F 
HETATM   27  C   UNL     1      -6.298  -1.171 -33.515  1.00  0.00     0.043 A 
HETATM   28  C   UNL     1      -6.417  -0.931 -34.880  1.00  0.00     0.003 A 
HETATM   29  C   UNL     1      -7.104   0.197 -35.326  1.00  0.00     0.001 A 
HETATM   30  C   UNL     1      -7.670   1.088 -34.407  1.00  0.00     0.012 A 
ENDBRANCH   8  24
TORSDOF 2
ENDMDL
MODEL 4
REMARK VINA RESULT:      -8.7      1.368      1.927
REMARK  2 active torsions:
REMARK  status: ('A' for Active; 'I' for Inactive)
REMARK       I    between atoms: N_4  and  C_5 
REMARK       I    between atoms: C_5  and  N_6 
REMARK    1  A    between atoms: N_6  and  C_7 
REMARK    2  A    between atoms: C_20  and  C_21 
ROOT
HETATM    1  C   UNL     1     -10.128   1.359 -34.210  1.00  0.00     0.011 C 
HETATM    2  C   UNL     1     -10.097   1.517 -32.693  1.00  0.00     0.002 C 
HETATM    3  C   UNL     1      -9.180   2.650 -32.246  1.00  0.00     0.132 C 
HETATM    4  N   UNL     1      -7.897   2.030 -31.952  1.00  0.00    -0.325 N 
HETATM    5  C   UNL     1      -6.722   2.676 -31.618  1.00  0.00     0.323 C 
HETATM    6  N   UNL     1      -6.807   4.050 -31.630  1.00  0.00    -0.309 N 
HETATM    7  O   UNL     1      -5.695   2.056 -31.357  1.00  0.00    -0.247 OA
HETATM    8  C   UNL     1      -8.005   0.571 -31.856  1.00  0.00     0.125 C 
HETATM    9  C   UNL     1      -9.516   0.298 -31.968  1.00  0.00     0.036 C 
HETATM   10  H   UNL     1      -7.704   4.436 -31.379  1.00  0.00     0.170 HD
ENDROOT
BRANCH   6  11
HETATM   11  C   UNL     1      -5.721   4.948 -31.673  1.00  0.00     0.038 A 
HETATM   12  C   UNL     1      -5.006   5.323 -30.529  1.00  0.00     0.062 A 
HETATM   13  C   UNL     1      -3.898   6.165 -30.641  1.00  0.00     0.070 A 
HETATM   14  C   UNL     1      -3.501   6.649 -31.887  1.00  0.00     0.096 A 
HETATM   15  N   UNL     1      -3.161   6.475 -29.500  1.00  0.00    -0.323 N 
HETATM   16  O   UNL     1      -2.412   7.451 -32.080  1.00  0.00    -0.335 OA
HETATM   17  C   UNL     1      -4.204   6.272 -33.029  1.00  0.00     0.041 A 
HETATM   18  C   UNL     1      -1.842   8.003 -30.895  1.00  0.00     0.217 C 
HETATM   19  C   UNL     1      -2.072   7.297 -29.550  1.00  0.00     0.251 C 
HETATM   20  C   UNL     1      -2.308   9.451 -30.775  1.00  0.00     0.050 C 
HETATM   21  O   UNL     1      -1.380   7.503 -28.555  1.00  0.00    -0.270 OA
HETATM   22  C   UNL     1      -5.306   5.417 -32.924  1.00  0.00     0.032 A 
HETATM   23  H   UNL     1      -3.384   6.057 -28.606  1.00  0.00     0.169 HD
ENDBRANCH   6  11
BRANCH   8  24
HETATM   24  C   UNL     1      -7.197  -0.223 -32.864  1.00  0.00     0.003 A 
HETATM   25  C   UNL     1      -6.060  -0.908 -32.411  1.00  0.00     0.124 A 
HETATM   26  F   UNL     1      -5.737  -0.870 -31.110  1.00  0.00    -0.205 F 
HETATM   27  C   UNL     1      -5.247  -1.636 -33.276  1.00  0.00     0.043 A 
HETATM   28  C   UNL     1      -5.561  -1.693 -34.631  1.00  0.00     0.003 A 
HETATM   29  C   UNL     1      -6.687  -1.024 -35.107  1.00  0.00     0.001 A 
HETATM   30  C   UNL     1      -7.498  -0.295 -34.232  1.00  0.00     0.012 A 
ENDBRANCH   8  24
TORSDOF 2
ENDMDL
MODEL 5
REMARK VINA RESULT:      -8.5      3.119      8.081
REMARK  2 active torsions:
REMARK  status: ('A' for Active; 'I' for Inactive)
REMARK       I    between atoms: N_4  and  C_5 
REMARK       I    between atoms: C_5  and  N_6 
REMARK    1  A    between atoms: N_6  and  C_7 
REMARK    2  A    between atoms: C_20  and  C_21 
ROOT
HETATM    1  C   UNL     1      -4.459   6.721 -28.800  1.00  0.00     0.011 C 
HETATM    2  C   UNL     1      -5.188   7.034 -30.103  1.00  0.00     0.002 C 
HETATM    3  C   UNL     1      -5.639   5.773 -30.833  1.00  0.00     0.132 C 
HETATM    4  N   UNL     1      -4.586   5.471 -31.792  1.00  0.00    -0.325 N 
HETATM    5  C   UNL     1      -4.499   4.355 -32.602  1.00  0.00     0.323 C 
HETATM    6  N   UNL     1      -5.506   3.435 -32.411  1.00  0.00    -0.309 N 
HETATM    7  O   UNL     1      -3.581   4.209 -33.404  1.00  0.00    -0.247 OA
HETATM    8  C   UNL     1      -3.668   6.600 -31.967  1.00  0.00     0.125 C 
HETATM    9  C   UNL     1      -4.303   7.733 -31.140  1.00  0.00     0.036 C 
HETATM   10  H   UNL     1      -6.399   3.814 -32.138  1.00  0.00     0.170 HD
ENDROOT
BRANCH   6  11
HETATM   11  C   UNL     1      -5.488   2.089 -32.828  1.00  0.00     0.038 A 
HETATM   12  C   UNL     1      -4.579   1.154 -32.322  1.00  0.00     0.062 A 
HETATM   13  C   UNL     1      -4.651  -0.181 -32.725  1.00  0.00     0.070 A 
HETATM   14  C   UNL     1      -5.617  -0.592 -33.641  1.00  0.00     0.096 A 
HETATM   15  N   UNL     1      -3.778  -1.110 -32.161  1.00  0.00    -0.323 N 
HETATM   16  O   UNL     1      -5.770  -1.884 -34.059  1.00  0.00    -0.335 OA
HETATM   17  C   UNL     1      -6.530   0.334 -34.141  1.00  0.00     0.041 A 
HETATM   18  C   UNL     1      -4.704  -2.767 -33.716  1.00  0.00     0.217 C 
HETATM   19  C   UNL     1      -3.800  -2.427 -32.521  1.00  0.00     0.251 C 
HETATM   20  C   UNL     1      -3.829  -2.957 -34.952  1.00  0.00     0.050 C 
HETATM   21  O   UNL     1      -3.083  -3.255 -31.963  1.00  0.00    -0.270 OA
HETATM   22  C   UNL     1      -6.471   1.669 -33.731  1.00  0.00     0.032 A 
HETATM   23  H   UNL     1      -3.134  -0.841 -31.428  1.00  0.00     0.169 HD
ENDBRANCH   6  11
BRANCH   8  24
HETATM   24  C   UNL     1      -2.222   6.346 -31.586  1.00  0.00     0.003 A 
HETATM   25  C   UNL     1      -1.234   7.167 -32.148  1.00  0.00     0.124 A 
HETATM   26  F   UNL     1      -1.589   8.162 -32.974  1.00  0.00    -0.205 F 
HETATM   27  C   UNL     1       0.120   6.982 -31.874  1.00  0.00     0.043 A 
HETATM   28  C   UNL     1       0.515   5.958 -31.019  1.00  0.00     0.003 A 
HETATM   29  C   UNL     1      -0.447   5.129 -30.444  1.00  0.00     0.001 A 
HETATM   30  C   UNL     1      -1.804   5.321 -30.724  1.00  0.00     0.012 A 
ENDBRANCH   8  24
TORSDOF 2
ENDMDL
MODEL 6
REMARK VINA RESULT:      -8.4      2.909      4.675
REMARK  2 active torsions:
REMARK  status: ('A' for Active; 'I' for Inactive)
REMARK       I    between atoms: N_4  and  C_5 
REMARK       I    between atoms: C_5  and  N_6 
REMARK    1  A    between atoms: N_6  and  C_7 
REMARK    2  A    between atoms: C_20  and  C_21 
ROOT
HETATM    1  C   UNL     1      -9.446   0.222 -32.287  1.00  0.00     0.011 C 
HETATM    2  C   UNL     1      -9.194   0.550 -33.754  1.00  0.00     0.002 C 
HETATM    3  C   UNL     1      -7.848   1.234 -33.973  1.00  0.00     0.132 C 
HETATM    4  N   UNL     1      -8.123   2.663 -33.966  1.00  0.00    -0.325 N 
HETATM    5  C   UNL     1      -7.195   3.685 -34.016  1.00  0.00     0.323 C 
HETATM    6  N   UNL     1      -5.884   3.263 -34.019  1.00  0.00    -0.309 N 
HETATM    7  O   UNL     1      -7.533   4.866 -34.035  1.00  0.00    -0.247 OA
HETATM    8  C   UNL     1      -9.557   2.944 -34.090  1.00  0.00     0.125 C 
HETATM    9  C   UNL     1     -10.190   1.562 -34.331  1.00  0.00     0.036 C 
HETATM   10  H   UNL     1      -5.711   2.378 -34.469  1.00  0.00     0.170 HD
ENDROOT
BRANCH   6  11
HETATM   11  C   UNL     1      -4.757   4.055 -33.723  1.00  0.00     0.038 A 
HETATM   12  C   UNL     1      -3.992   3.876 -32.565  1.00  0.00     0.062 A 
HETATM   13  C   UNL     1      -2.847   4.648 -32.356  1.00  0.00     0.070 A 
HETATM   14  C   UNL     1      -2.463   5.610 -33.289  1.00  0.00     0.096 A 
HETATM   15  N   UNL     1      -2.063   4.411 -31.229  1.00  0.00    -0.323 N 
HETATM   16  O   UNL     1      -1.341   6.381 -33.171  1.00  0.00    -0.335 OA
HETATM   17  C   UNL     1      -3.217   5.786 -34.448  1.00  0.00     0.041 A 
HETATM   18  C   UNL     1      -0.711   6.349 -31.892  1.00  0.00     0.217 C 
HETATM   19  C   UNL     1      -0.937   5.139 -30.972  1.00  0.00     0.251 C 
HETATM   20  C   UNL     1      -1.102   7.617 -31.138  1.00  0.00     0.050 C 
HETATM   21  O   UNL     1      -0.206   4.872 -30.020  1.00  0.00    -0.270 OA
HETATM   22  C   UNL     1      -4.356   5.005 -34.668  1.00  0.00     0.032 A 
HETATM   23  H   UNL     1      -2.281   3.655 -30.593  1.00  0.00     0.169 HD
ENDBRANCH   6  11
BRANCH   8  24
HETATM   24  C   UNL     1     -10.194   3.677 -32.925  1.00  0.00     0.003 A 
HETATM   25  C   UNL     1     -11.258   4.549 -33.193  1.00  0.00     0.124 A 
HETATM   26  F   UNL     1     -11.701   4.689 -34.452  1.00  0.00    -0.205 F 
HETATM   27  C   UNL     1     -11.879   5.284 -32.186  1.00  0.00     0.043 A 
HETATM   28  C   UNL     1     -11.440   5.157 -30.871  1.00  0.00     0.003 A 
HETATM   29  C   UNL     1     -10.385   4.295 -30.576  1.00  0.00     0.001 A 
HETATM   30  C   UNL     1      -9.767   3.561 -31.594  1.00  0.00     0.012 A 
ENDBRANCH   8  24
TORSDOF 2
ENDMDL
MODEL 7
REMARK VINA RESULT:      -8.2      3.198      8.537
REMARK  2 active torsions:
REMARK  status: ('A' for Active; 'I' for Inactive)
REMARK       I    between atoms: N_4  and  C_5 
REMARK       I    between atoms: C_5  and  N_6 
REMARK    1  A    between atoms: N_6  and  C_7 
REMARK    2  A    between atoms: C_20  and  C_21 
ROOT
HETATM    1  C   UNL     1      -3.957   9.909 -29.030  1.00  0.00     0.011 C 
HETATM    2  C   UNL     1      -3.650   9.769 -30.518  1.00  0.00     0.002 C 
HETATM    3  C   UNL     1      -4.318   8.545 -31.135  1.00  0.00     0.132 C 
HETATM    4  N   UNL     1      -3.323   7.485 -31.091  1.00  0.00    -0.325 N 
HETATM    5  C   UNL     1      -3.509   6.160 -31.437  1.00  0.00     0.323 C 
HETATM    6  N   UNL     1      -4.797   5.844 -31.805  1.00  0.00    -0.309 N 
HETATM    7  O   UNL     1      -2.591   5.345 -31.392  1.00  0.00    -0.247 OA
HETATM    8  C   UNL     1      -1.983   8.005 -30.804  1.00  0.00     0.125 C 
HETATM    9  C   UNL     1      -2.165   9.533 -30.811  1.00  0.00     0.036 C 
HETATM   10  H   UNL     1      -5.315   6.580 -32.260  1.00  0.00     0.170 HD
ENDROOT
BRANCH   6  11
HETATM   11  C   UNL     1      -5.347   4.548 -31.871  1.00  0.00     0.038 A 
HETATM   12  C   UNL     1      -5.670   3.926 -33.082  1.00  0.00     0.062 A 
HETATM   13  C   UNL     1      -6.151   2.615 -33.088  1.00  0.00     0.070 A 
HETATM   14  C   UNL     1      -6.327   1.920 -31.893  1.00  0.00     0.096 A 
HETATM   15  N   UNL     1      -6.406   1.989 -34.307  1.00  0.00    -0.323 N 
HETATM   16  O   UNL     1      -6.764   0.627 -31.820  1.00  0.00    -0.335 OA
HETATM   17  C   UNL     1      -6.000   2.533 -30.685  1.00  0.00     0.041 A 
HETATM   18  C   UNL     1      -7.300   0.095 -33.029  1.00  0.00     0.217 C 
HETATM   19  C   UNL     1      -6.882   0.711 -34.373  1.00  0.00     0.251 C 
HETATM   20  C   UNL     1      -8.823   0.128 -32.928  1.00  0.00     0.050 C 
HETATM   21  O   UNL     1      -7.029   0.138 -35.451  1.00  0.00    -0.270 OA
HETATM   22  C   UNL     1      -5.504   3.840 -30.674  1.00  0.00     0.032 A 
HETATM   23  H   UNL     1      -6.196   2.451 -35.183  1.00  0.00     0.169 HD
ENDBRANCH   6  11
BRANCH   8  24
HETATM   24  C   UNL     1      -1.334   7.505 -29.528  1.00  0.00     0.003 A 
HETATM   25  C   UNL     1       0.014   7.123 -29.574  1.00  0.00     0.124 A 
HETATM   26  F   UNL     1       0.696   7.236 -30.724  1.00  0.00    -0.205 F 
HETATM   27  C   UNL     1       0.677   6.625 -28.455  1.00  0.00     0.043 A 
HETATM   28  C   UNL     1      -0.008   6.499 -27.250  1.00  0.00     0.003 A 
HETATM   29  C   UNL     1      -1.349   6.874 -27.175  1.00  0.00     0.001 A 
HETATM   30  C   UNL     1      -2.007   7.373 -28.304  1.00  0.00     0.012 A 
ENDBRANCH   8  24
TORSDOF 2
ENDMDL
MODEL 8
REMARK VINA RESULT:      -8.2      4.222      6.638
REMARK  2 active torsions:
REMARK  status: ('A' for Active; 'I' for Inactive)
REMARK       I    between atoms: N_4  and  C_5 
REMARK       I    between atoms: C_5  and  N_6 
REMARK    1  A    between atoms: N_6  and  C_7 
REMARK    2  A    between atoms: C_20  and  C_21 
ROOT
HETATM    1  C   UNL     1     -10.829   5.803 -35.347  1.00  0.00     0.011 C 
HETATM    2  C   UNL     1     -10.445   6.038 -33.889  1.00  0.00     0.002 C 
HETATM    3  C   UNL     1      -9.164   5.308 -33.501  1.00  0.00     0.132 C 
HETATM    4  N   UNL     1      -9.588   4.044 -32.918  1.00  0.00    -0.325 N 
HETATM    5  C   UNL     1      -8.774   2.999 -32.522  1.00  0.00     0.323 C 
HETATM    6  N   UNL     1      -7.435   3.197 -32.773  1.00  0.00    -0.309 N 
HETATM    7  O   UNL     1      -9.232   1.981 -32.011  1.00  0.00    -0.247 OA
HETATM    8  C   UNL     1     -11.019   4.042 -32.602  1.00  0.00     0.125 C 
HETATM    9  C   UNL     1     -11.470   5.484 -32.894  1.00  0.00     0.036 C 
HETATM   10  H   UNL     1      -7.117   4.152 -32.727  1.00  0.00     0.170 HD
ENDROOT
BRANCH   6  11
HETATM   11  C   UNL     1      -6.440   2.199 -32.798  1.00  0.00     0.038 A 
HETATM   12  C   UNL     1      -6.645   0.944 -33.383  1.00  0.00     0.062 A 
HETATM   13  C   UNL     1      -5.601   0.018 -33.436  1.00  0.00     0.070 A 
HETATM   14  C   UNL     1      -4.353   0.327 -32.897  1.00  0.00     0.096 A 
HETATM   15  N   UNL     1      -5.805  -1.201 -34.080  1.00  0.00    -0.323 N 
HETATM   16  O   UNL     1      -3.276  -0.513 -32.937  1.00  0.00    -0.335 OA
HETATM   17  C   UNL     1      -4.142   1.578 -32.320  1.00  0.00     0.041 A 
HETATM   18  C   UNL     1      -3.564  -1.855 -33.324  1.00  0.00     0.217 C 
HETATM   19  C   UNL     1      -4.821  -2.145 -34.157  1.00  0.00     0.251 C 
HETATM   20  C   UNL     1      -3.602  -2.714 -32.063  1.00  0.00     0.050 C 
HETATM   21  O   UNL     1      -4.981  -3.184 -34.795  1.00  0.00    -0.270 OA
HETATM   22  C   UNL     1      -5.180   2.514 -32.278  1.00  0.00     0.032 A 
HETATM   23  H   UNL     1      -6.676  -1.400 -34.554  1.00  0.00     0.169 HD
ENDBRANCH   6  11
BRANCH   8  24
HETATM   24  C   UNL     1     -11.861   3.013 -33.332  1.00  0.00     0.003 A 
HETATM   25  C   UNL     1     -13.078   2.622 -32.755  1.00  0.00     0.124 A 
HETATM   26  F   UNL     1     -13.477   3.182 -31.603  1.00  0.00    -0.205 F 
HETATM   27  C   UNL     1     -13.897   1.661 -33.345  1.00  0.00     0.043 A 
HETATM   28  C   UNL     1     -13.506   1.066 -34.541  1.00  0.00     0.003 A 
HETATM   29  C   UNL     1     -12.303   1.438 -35.137  1.00  0.00     0.001 A 
HETATM   30  C   UNL     1     -11.487   2.404 -34.538  1.00  0.00     0.012 A 
ENDBRANCH   8  24
TORSDOF 2
ENDMDL
MODEL 9
REMARK VINA RESULT:      -8.2      2.653      4.388
REMARK  2 active torsions:
REMARK  status: ('A' for Active; 'I' for Inactive)
REMARK       I    between atoms: N_4  and  C_5 
REMARK       I    between atoms: C_5  and  N_6 
REMARK    1  A    between atoms: N_6  and  C_7 
REMARK    2  A    between atoms: C_20  and  C_21 
ROOT
HETATM    1  C   UNL     1      -7.025  -0.472 -32.391  1.00  0.00     0.011 C 
HETATM    2  C   UNL     1      -6.725   0.117 -33.765  1.00  0.00     0.002 C 
HETATM    3  C   UNL     1      -5.540   1.077 -33.739  1.00  0.00     0.132 C 
HETATM    4  N   UNL     1      -6.109   2.406 -33.577  1.00  0.00    -0.325 N 
HETATM    5  C   UNL     1      -5.416   3.587 -33.388  1.00  0.00     0.323 C 
HETATM    6  N   UNL     1      -4.051   3.435 -33.297  1.00  0.00    -0.309 N 
HETATM    7  O   UNL     1      -5.993   4.667 -33.291  1.00  0.00    -0.247 OA
HETATM    8  C   UNL     1      -7.554   2.415 -33.825  1.00  0.00     0.125 C 
HETATM    9  C   UNL     1      -7.860   0.988 -34.314  1.00  0.00     0.036 C 
HETATM   10  H   UNL     1      -3.657   2.679 -33.836  1.00  0.00     0.170 HD
ENDROOT
BRANCH   6  11
HETATM   11  C   UNL     1      -3.145   4.380 -32.774  1.00  0.00     0.038 A 
HETATM   12  C   UNL     1      -2.405   4.151 -31.609  1.00  0.00     0.062 A 
HETATM   13  C   UNL     1      -1.474   5.097 -31.174  1.00  0.00     0.070 A 
HETATM   14  C   UNL     1      -1.282   6.279 -31.887  1.00  0.00     0.096 A 
HETATM   15  N   UNL     1      -0.701   4.822 -30.048  1.00  0.00    -0.323 N 
HETATM   16  O   UNL     1      -0.370   7.237 -31.542  1.00  0.00    -0.335 OA
HETATM   17  C   UNL     1      -2.011   6.508 -33.052  1.00  0.00     0.041 A 
HETATM   18  C   UNL     1       0.202   7.096 -30.243  1.00  0.00     0.217 C 
HETATM   19  C   UNL     1       0.221   5.712 -29.575  1.00  0.00     0.251 C 
HETATM   20  C   UNL     1      -0.495   8.081 -29.309  1.00  0.00     0.050 C 
HETATM   21  O   UNL     1       0.955   5.431 -28.630  1.00  0.00    -0.270 OA
HETATM   22  C   UNL     1      -2.934   5.558 -33.499  1.00  0.00     0.032 A 
HETATM   23  H   UNL     1      -0.766   3.929 -29.576  1.00  0.00     0.169 HD
ENDBRANCH   6  11
BRANCH   8  24
HETATM   24  C   UNL     1      -8.428   2.825 -32.655  1.00  0.00     0.003 A 
HETATM   25  C   UNL     1      -9.685   3.381 -32.929  1.00  0.00     0.124 A 
HETATM   26  F   UNL     1     -10.092   3.507 -34.201  1.00  0.00    -0.205 F 
HETATM   27  C   UNL     1     -10.536   3.812 -31.914  1.00  0.00     0.043 A 
HETATM   28  C   UNL     1     -10.138   3.691 -30.585  1.00  0.00     0.003 A 
HETATM   29  C   UNL     1      -8.894   3.139 -30.285  1.00  0.00     0.001 A 
HETATM   30  C   UNL     1      -8.046   2.710 -31.310  1.00  0.00     0.012 A 
ENDBRANCH   8  24
TORSDOF 2
ENDMDL
MODEL 10
REMARK VINA RESULT:      -8.2      1.938      2.465
REMARK  2 active torsions:
REMARK  status: ('A' for Active; 'I' for Inactive)
REMARK       I    between atoms: N_4  and  C_5 
REMARK       I    between atoms: C_5  and  N_6 
REMARK    1  A    between atoms: N_6  and  C_7 
REMARK    2  A    between atoms: C_20  and  C_21 
ROOT
HETATM    1  C   UNL     1      -8.163   0.310 -35.379  1.00  0.00     0.011 C 
HETATM    2  C   UNL     1      -8.515   0.805 -33.980  1.00  0.00     0.002 C 
HETATM    3  C   UNL     1      -7.635   1.969 -33.538  1.00  0.00     0.132 C 
HETATM    4  N   UNL     1      -6.545   1.377 -32.776  1.00  0.00    -0.325 N 
HETATM    5  C   UNL     1      -5.438   2.030 -32.269  1.00  0.00     0.323 C 
HETATM    6  N   UNL     1      -5.374   3.369 -32.587  1.00  0.00    -0.309 N 
HETATM    7  O   UNL     1      -4.585   1.441 -31.611  1.00  0.00    -0.247 OA
HETATM    8  C   UNL     1      -6.825  -0.016 -32.417  1.00  0.00     0.125 C 
HETATM    9  C   UNL     1      -8.273  -0.241 -32.887  1.00  0.00     0.036 C 
HETATM   10  H   UNL     1      -6.260   3.839 -32.680  1.00  0.00     0.170 HD
ENDROOT
BRANCH   6  11
HETATM   11  C   UNL     1      -4.228   4.185 -32.509  1.00  0.00     0.038 A 
HETATM   12  C   UNL     1      -3.239   4.007 -31.534  1.00  0.00     0.062 A 
HETATM   13  C   UNL     1      -2.093   4.805 -31.546  1.00  0.00     0.070 A 
HETATM   14  C   UNL     1      -1.928   5.791 -32.516  1.00  0.00     0.096 A 
HETATM   15  N   UNL     1      -1.091   4.570 -30.606  1.00  0.00    -0.323 N 
HETATM   16  O   UNL     1      -0.823   6.590 -32.611  1.00  0.00    -0.335 OA
HETATM   17  C   UNL     1      -2.906   5.967 -33.493  1.00  0.00     0.041 A 
HETATM   18  C   UNL     1       0.055   6.552 -31.488  1.00  0.00     0.217 C 
HETATM   19  C   UNL     1       0.048   5.322 -30.568  1.00  0.00     0.251 C 
HETATM   20  C   UNL     1      -0.202   7.797 -30.643  1.00  0.00     0.050 C 
HETATM   21  O   UNL     1       0.962   5.059 -29.790  1.00  0.00    -0.270 OA
HETATM   22  C   UNL     1      -4.049   5.161 -33.495  1.00  0.00     0.032 A 
HETATM   23  H   UNL     1      -1.158   3.798 -29.955  1.00  0.00     0.169 HD
ENDBRANCH   6  11
BRANCH   8  24
HETATM   24  C   UNL     1      -5.868  -1.052 -32.974  1.00  0.00     0.003 A 
HETATM   25  C   UNL     1      -4.802  -1.473 -32.167  1.00  0.00     0.124 A 
HETATM   26  F   UNL     1      -4.673  -0.978 -30.927  1.00  0.00    -0.205 F 
HETATM   27  C   UNL     1      -3.861  -2.398 -32.613  1.00  0.00     0.043 A 
HETATM   28  C   UNL     1      -3.972  -2.927 -33.895  1.00  0.00     0.003 A 
HETATM   29  C   UNL     1      -5.024  -2.529 -34.718  1.00  0.00     0.001 A 
HETATM   30  C   UNL     1      -5.965  -1.600 -34.262  1.00  0.00     0.012 A 
ENDBRANCH   8  24
TORSDOF 2
ENDMDL
