MODEL 1
REMARK VINA RESULT:      -9.1      0.000      0.000
REMARK  6 active torsions:
REMARK  status: ('A' for Active; 'I' for Inactive)
REMARK    1  A    between atoms: C_5  and  C_6 
REMARK    2  A    between atoms: C_12  and  C_13 
REMARK       I    between atoms: C_13  and  N_14 
REMARK    3  A    between atoms: N_14  and  C_15 
REMARK    4  A    between atoms: C_18  and  C_19 
REMARK    5  A    between atoms: C_19  and  O_20 
REMARK    6  A    between atoms: C_25  and  C_26 
ROOT
HETATM    1  C   UNL     1      -7.534   0.406 -32.826  1.00  0.00     0.118 C 
HETATM    2  N   UNL     1      -6.849   1.695 -33.031  1.00  0.00    -0.365 N 
HETATM    3  C   UNL     1      -7.546   2.830 -32.731  1.00  0.00     0.138 A 
HETATM    4  N   UNL     1      -8.918   2.801 -32.598  1.00  0.00    -0.240 N 
HETATM    5  N   UNL     1      -9.448   3.972 -32.227  1.00  0.00    -0.181 NA
HETATM    6  C   UNL     1      -8.400   4.800 -32.229  1.00  0.00     0.160 A 
HETATM    7  C   UNL     1      -7.177   4.149 -32.532  1.00  0.00     0.096 A 
HETATM    8  C   UNL     1      -9.741   1.616 -32.767  1.00  0.00     0.221 C 
HETATM    9  C   UNL     1      -8.932   0.494 -33.446  1.00  0.00     0.066 C 
HETATM   10  H   UNL     1      -6.298   1.702 -33.894  1.00  0.00     0.161 HD
ENDROOT
BRANCH   7  11
HETATM   11  C   UNL     1      -5.870   4.787 -32.564  1.00  0.00     0.261 C 
HETATM   12  N   UNL     1      -5.088   4.531 -31.454  1.00  0.00    -0.323 N 
HETATM   13  H   UNL     1      -5.530   3.971 -30.733  1.00  0.00     0.169 HD
HETATM   14  O   UNL     1      -5.553   5.483 -33.522  1.00  0.00    -0.267 OA
BRANCH  12  15
HETATM   15  C   UNL     1      -3.773   4.973 -31.206  1.00  0.00     0.035 A 
HETATM   16  C   UNL     1      -2.631   4.301 -31.639  1.00  0.00     0.030 A 
HETATM   17  C   UNL     1      -1.356   4.797 -31.344  1.00  0.00     0.012 A 
HETATM   18  C   UNL     1      -1.186   5.972 -30.595  1.00  0.00    -0.030 A 
HETATM   19  C   UNL     1      -2.337   6.652 -30.178  1.00  0.00     0.012 A 
HETATM   20  C   UNL     1      -3.615   6.158 -30.481  1.00  0.00     0.030 A 
BRANCH  18  21
HETATM   21  C   UNL     1       0.221   6.447 -30.306  1.00  0.00     0.147 C 
HETATM   22  C   UNL     1       0.373   7.459 -29.175  1.00  0.00     0.044 C 
BRANCH  21  23
HETATM   23  O   UNL     1       0.740   7.020 -31.504  1.00  0.00    -0.391 OA
HETATM   24  H   UNL     1       0.060   6.917 -32.189  1.00  0.00     0.210 HD
ENDBRANCH  21  23
ENDBRANCH  18  21
ENDBRANCH  12  15
ENDBRANCH   7  11
BRANCH   1  25
HETATM   25  C   UNL     1      -6.649  -0.724 -33.322  1.00  0.00    -0.035 A 
HETATM   26  C   UNL     1      -5.316  -0.777 -32.878  1.00  0.00     0.010 A 
HETATM   27  C   UNL     1      -4.469  -1.824 -33.254  1.00  0.00     0.007 A 
HETATM   28  C   UNL     1      -4.932  -2.839 -34.095  1.00  0.00    -0.062 A 
HETATM   29  C   UNL     1      -4.051  -4.000 -34.449  1.00  0.00     0.048 C 
HETATM   30  C   UNL     1      -6.254  -2.793 -34.547  1.00  0.00     0.007 A 
HETATM   31  C   UNL     1      -7.100  -1.742 -34.173  1.00  0.00     0.010 A 
ENDBRANCH   1  25
BRANCH   8  32
HETATM   32  C   UNL     1     -10.985   1.900 -33.583  1.00  0.00     0.409 C 
HETATM   33  F   UNL     1     -11.930   2.591 -32.915  1.00  0.00    -0.169 F 
HETATM   34  F   UNL     1     -10.707   2.554 -34.733  1.00  0.00    -0.169 F 
HETATM   35  F   UNL     1     -11.565   0.722 -33.943  1.00  0.00    -0.169 F 
ENDBRANCH   8  32
TORSDOF 6
ENDMDL
MODEL 2
REMARK VINA RESULT:      -9.0      3.923      8.151
REMARK  6 active torsions:
REMARK  status: ('A' for Active; 'I' for Inactive)
REMARK    1  A    between atoms: C_5  and  C_6 
REMARK    2  A    between atoms: C_12  and  C_13 
REMARK       I    between atoms: C_13  and  N_14 
REMARK    3  A    between atoms: N_14  and  C_15 
REMARK    4  A    between atoms: C_18  and  C_19 
REMARK    5  A    between atoms: C_19  and  O_20 
REMARK    6  A    between atoms: C_25  and  C_26 
ROOT
HETATM    1  C   UNL     1      -4.155   1.989 -32.826  1.00  0.00     0.118 C 
HETATM    2  N   UNL     1      -5.533   2.334 -32.433  1.00  0.00    -0.365 N 
HETATM    3  C   UNL     1      -5.892   3.650 -32.492  1.00  0.00     0.138 A 
HETATM    4  N   UNL     1      -4.934   4.639 -32.557  1.00  0.00    -0.240 N 
HETATM    5  N   UNL     1      -5.441   5.871 -32.688  1.00  0.00    -0.181 NA
HETATM    6  C   UNL     1      -6.758   5.675 -32.595  1.00  0.00     0.160 A 
HETATM    7  C   UNL     1      -7.110   4.306 -32.474  1.00  0.00     0.096 A 
HETATM    8  C   UNL     1      -3.501   4.406 -32.558  1.00  0.00     0.221 C 
HETATM    9  C   UNL     1      -3.193   2.958 -32.130  1.00  0.00     0.066 C 
HETATM   10  H   UNL     1      -5.839   1.805 -31.611  1.00  0.00     0.161 HD
ENDROOT
BRANCH   7  11
HETATM   11  C   UNL     1      -8.468   3.790 -32.397  1.00  0.00     0.261 C 
HETATM   12  N   UNL     1      -8.774   2.858 -33.370  1.00  0.00    -0.323 N 
HETATM   13  H   UNL     1      -8.039   2.678 -34.045  1.00  0.00     0.169 HD
HETATM   14  O   UNL     1      -9.226   4.193 -31.523  1.00  0.00    -0.267 OA
BRANCH  12  15
HETATM   15  C   UNL     1      -9.985   2.156 -33.540  1.00  0.00     0.035 A 
HETATM   16  C   UNL     1     -10.210   0.865 -33.065  1.00  0.00     0.030 A 
HETATM   17  C   UNL     1     -11.437   0.228 -33.283  1.00  0.00     0.012 A 
HETATM   18  C   UNL     1     -12.470   0.859 -33.994  1.00  0.00    -0.030 A 
HETATM   19  C   UNL     1     -12.245   2.163 -34.452  1.00  0.00     0.012 A 
HETATM   20  C   UNL     1     -11.017   2.803 -34.227  1.00  0.00     0.030 A 
BRANCH  18  21
HETATM   21  C   UNL     1     -13.768   0.110 -34.199  1.00  0.00     0.147 C 
HETATM   22  C   UNL     1     -15.049   0.922 -34.041  1.00  0.00     0.044 C 
BRANCH  21  23
HETATM   23  O   UNL     1     -13.796  -0.973 -33.271  1.00  0.00    -0.391 OA
HETATM   24  H   UNL     1     -14.723  -1.110 -33.017  1.00  0.00     0.210 HD
ENDBRANCH  21  23
ENDBRANCH  18  21
ENDBRANCH  12  15
ENDBRANCH   7  11
BRANCH   1  25
HETATM   25  C   UNL     1      -3.911   0.511 -32.583  1.00  0.00    -0.035 A 
HETATM   26  C   UNL     1      -4.644  -0.423 -33.337  1.00  0.00     0.010 A 
HETATM   27  C   UNL     1      -4.424  -1.796 -33.200  1.00  0.00     0.007 A 
HETATM   28  C   UNL     1      -3.473  -2.272 -32.294  1.00  0.00    -0.062 A 
HETATM   29  C   UNL     1      -3.183  -3.740 -32.188  1.00  0.00     0.048 C 
HETATM   30  C   UNL     1      -2.743  -1.353 -31.535  1.00  0.00     0.007 A 
HETATM   31  C   UNL     1      -2.966   0.023 -31.670  1.00  0.00     0.010 A 
ENDBRANCH   1  25
BRANCH   8  32
HETATM   32  C   UNL     1      -2.769   5.365 -31.641  1.00  0.00     0.409 C 
HETATM   33  F   UNL     1      -2.440   6.533 -32.225  1.00  0.00    -0.169 F 
HETATM   34  F   UNL     1      -3.464   5.629 -30.512  1.00  0.00    -0.169 F 
HETATM   35  F   UNL     1      -1.595   4.799 -31.244  1.00  0.00    -0.169 F 
ENDBRANCH   8  32
TORSDOF 6
ENDMDL
MODEL 3
REMARK VINA RESULT:      -8.7      1.202      1.369
REMARK  6 active torsions:
REMARK  status: ('A' for Active; 'I' for Inactive)
REMARK    1  A    between atoms: C_5  and  C_6 
REMARK    2  A    between atoms: C_12  and  C_13 
REMARK       I    between atoms: C_13  and  N_14 
REMARK    3  A    between atoms: N_14  and  C_15 
REMARK    4  A    between atoms: C_18  and  C_19 
REMARK    5  A    between atoms: C_19  and  O_20 
REMARK    6  A    between atoms: C_25  and  C_26 
ROOT
HETATM    1  C   UNL     1      -7.802   0.015 -32.873  1.00  0.00     0.118 C 
HETATM    2  N   UNL     1      -7.077   1.209 -32.402  1.00  0.00    -0.365 N 
HETATM    3  C   UNL     1      -7.823   2.282 -32.009  1.00  0.00     0.138 A 
HETATM    4  N   UNL     1      -9.149   2.390 -32.370  1.00  0.00    -0.240 N 
HETATM    5  N   UNL     1      -9.766   3.455 -31.845  1.00  0.00    -0.181 NA
HETATM    6  C   UNL     1      -8.781   4.105 -31.220  1.00  0.00     0.160 A 
HETATM    7  C   UNL     1      -7.538   3.424 -31.281  1.00  0.00     0.096 A 
HETATM    8  C   UNL     1      -9.866   1.424 -33.183  1.00  0.00     0.221 C 
HETATM    9  C   UNL     1      -8.878   0.461 -33.869  1.00  0.00     0.066 C 
HETATM   10  H   UNL     1      -6.249   1.402 -32.973  1.00  0.00     0.161 HD
ENDROOT
BRANCH   7  11
HETATM   11  C   UNL     1      -6.303   3.871 -30.655  1.00  0.00     0.261 C 
HETATM   12  N   UNL     1      -5.386   4.412 -31.536  1.00  0.00    -0.323 N 
HETATM   13  H   UNL     1      -5.660   4.393 -32.512  1.00  0.00     0.169 HD
HETATM   14  O   UNL     1      -6.150   3.744 -29.446  1.00  0.00    -0.267 OA
BRANCH  12  15
HETATM   15  C   UNL     1      -4.122   4.960 -31.236  1.00  0.00     0.035 A 
HETATM   16  C   UNL     1      -2.913   4.366 -31.590  1.00  0.00     0.030 A 
HETATM   17  C   UNL     1      -1.696   4.966 -31.246  1.00  0.00     0.012 A 
HETATM   18  C   UNL     1      -1.654   6.169 -30.525  1.00  0.00    -0.030 A 
HETATM   19  C   UNL     1      -2.872   6.770 -30.187  1.00  0.00     0.012 A 
HETATM   20  C   UNL     1      -4.092   6.172 -30.539  1.00  0.00     0.030 A 
BRANCH  18  21
HETATM   21  C   UNL     1      -0.303   6.758 -30.180  1.00  0.00     0.147 C 
HETATM   22  C   UNL     1       0.725   6.794 -31.305  1.00  0.00     0.044 C 
BRANCH  21  23
HETATM   23  O   UNL     1       0.233   6.006 -29.094  1.00  0.00    -0.391 OA
HETATM   24  H   UNL     1       1.039   6.461 -28.800  1.00  0.00     0.210 HD
ENDBRANCH  21  23
ENDBRANCH  18  21
ENDBRANCH  12  15
ENDBRANCH   7  11
BRANCH   1  25
HETATM   25  C   UNL     1      -6.810  -1.019 -33.373  1.00  0.00    -0.035 A 
HETATM   26  C   UNL     1      -5.480  -0.946 -32.923  1.00  0.00     0.010 A 
HETATM   27  C   UNL     1      -4.534  -1.901 -33.303  1.00  0.00     0.007 A 
HETATM   28  C   UNL     1      -4.891  -2.949 -34.155  1.00  0.00    -0.062 A 
HETATM   29  C   UNL     1      -3.900  -4.016 -34.515  1.00  0.00     0.048 C 
HETATM   30  C   UNL     1      -6.210  -3.028 -34.614  1.00  0.00     0.007 A 
HETATM   31  C   UNL     1      -7.156  -2.068 -34.236  1.00  0.00     0.010 A 
ENDBRANCH   1  25
BRANCH   8  32
HETATM   32  C   UNL     1     -10.724   2.094 -34.238  1.00  0.00     0.409 C 
HETATM   33  F   UNL     1     -10.098   3.088 -34.898  1.00  0.00    -0.169 F 
HETATM   34  F   UNL     1     -11.208   1.214 -35.141  1.00  0.00    -0.169 F 
HETATM   35  F   UNL     1     -11.807   2.665 -33.640  1.00  0.00    -0.169 F 
ENDBRANCH   8  32
TORSDOF 6
ENDMDL
MODEL 4
REMARK VINA RESULT:      -8.4      3.169      6.282
REMARK  6 active torsions:
REMARK  status: ('A' for Active; 'I' for Inactive)
REMARK    1  A    between atoms: C_5  and  C_6 
REMARK    2  A    between atoms: C_12  and  C_13 
REMARK       I    between atoms: C_13  and  N_14 
REMARK    3  A    between atoms: N_14  and  C_15 
REMARK    4  A    between atoms: C_18  and  C_19 
REMARK    5  A    between atoms: C_19  and  O_20 
REMARK    6  A    between atoms: C_25  and  C_26 
ROOT
HETATM    1  C   UNL     1     -11.395   3.452 -35.045  1.00  0.00     0.118 C 
HETATM    2  N   UNL     1     -10.455   3.336 -33.916  1.00  0.00    -0.365 N 
HETATM    3  C   UNL     1     -10.266   2.094 -33.383  1.00  0.00     0.138 A 
HETATM    4  N   UNL     1     -11.161   1.076 -33.631  1.00  0.00    -0.240 N 
HETATM    5  N   UNL     1     -10.800  -0.100 -33.104  1.00  0.00    -0.181 NA
HETATM    6  C   UNL     1      -9.699   0.198 -32.410  1.00  0.00     0.160 A 
HETATM    7  C   UNL     1      -9.307   1.554 -32.543  1.00  0.00     0.096 A 
HETATM    8  C   UNL     1     -12.360   1.207 -34.440  1.00  0.00     0.221 C 
HETATM    9  C   UNL     1     -12.678   2.694 -34.691  1.00  0.00     0.066 C 
HETATM   10  H   UNL     1     -10.551   4.115 -33.258  1.00  0.00     0.161 HD
ENDROOT
BRANCH   7  11
HETATM   11  C   UNL     1      -8.127   2.152 -31.937  1.00  0.00     0.261 C 
HETATM   12  N   UNL     1      -7.081   2.357 -32.816  1.00  0.00    -0.323 N 
HETATM   13  H   UNL     1      -7.240   2.027 -33.762  1.00  0.00     0.169 HD
HETATM   14  O   UNL     1      -8.126   2.423 -30.741  1.00  0.00    -0.267 OA
BRANCH  12  15
HETATM   15  C   UNL     1      -5.829   2.944 -32.543  1.00  0.00     0.035 A 
HETATM   16  C   UNL     1      -4.683   2.219 -32.220  1.00  0.00     0.030 A 
HETATM   17  C   UNL     1      -3.477   2.875 -31.951  1.00  0.00     0.012 A 
HETATM   18  C   UNL     1      -3.384   4.275 -31.983  1.00  0.00    -0.030 A 
HETATM   19  C   UNL     1      -4.534   4.996 -32.327  1.00  0.00     0.012 A 
HETATM   20  C   UNL     1      -5.741   4.338 -32.604  1.00  0.00     0.030 A 
BRANCH  18  21
HETATM   21  C   UNL     1      -2.050   4.918 -31.675  1.00  0.00     0.147 C 
HETATM   22  C   UNL     1      -1.196   5.311 -32.875  1.00  0.00     0.044 C 
BRANCH  21  23
HETATM   23  O   UNL     1      -1.308   4.011 -30.862  1.00  0.00    -0.391 OA
HETATM   24  H   UNL     1      -1.895   3.267 -30.653  1.00  0.00     0.210 HD
ENDBRANCH  21  23
ENDBRANCH  18  21
ENDBRANCH  12  15
ENDBRANCH   7  11
BRANCH   1  25
HETATM   25  C   UNL     1     -11.561   4.914 -35.420  1.00  0.00    -0.035 A 
HETATM   26  C   UNL     1     -12.852   5.390 -35.711  1.00  0.00     0.010 A 
HETATM   27  C   UNL     1     -13.077   6.737 -36.007  1.00  0.00     0.007 A 
HETATM   28  C   UNL     1     -12.013   7.642 -36.033  1.00  0.00    -0.062 A 
HETATM   29  C   UNL     1     -12.255   9.101 -36.283  1.00  0.00     0.048 C 
HETATM   30  C   UNL     1     -10.725   7.178 -35.751  1.00  0.00     0.007 A 
HETATM   31  C   UNL     1     -10.499   5.828 -35.458  1.00  0.00     0.010 A 
ENDBRANCH   1  25
BRANCH   8  32
HETATM   32  C   UNL     1     -13.558   0.541 -33.794  1.00  0.00     0.409 C 
HETATM   33  F   UNL     1     -13.339  -0.736 -33.426  1.00  0.00    -0.169 F 
HETATM   34  F   UNL     1     -14.009   1.227 -32.720  1.00  0.00    -0.169 F 
HETATM   35  F   UNL     1     -14.587   0.504 -34.686  1.00  0.00    -0.169 F 
ENDBRANCH   8  32
TORSDOF 6
ENDMDL
MODEL 5
REMARK VINA RESULT:      -8.3      2.891      5.205
REMARK  6 active torsions:
REMARK  status: ('A' for Active; 'I' for Inactive)
REMARK    1  A    between atoms: C_5  and  C_6 
REMARK    2  A    between atoms: C_12  and  C_13 
REMARK       I    between atoms: C_13  and  N_14 
REMARK    3  A    between atoms: N_14  and  C_15 
REMARK    4  A    between atoms: C_18  and  C_19 
REMARK    5  A    between atoms: C_19  and  O_20 
REMARK    6  A    between atoms: C_25  and  C_26 
ROOT
HETATM    1  C   UNL     1      -7.714   0.735 -34.230  1.00  0.00     0.118 C 
HETATM    2  N   UNL     1      -6.804   1.175 -33.157  1.00  0.00    -0.365 N 
HETATM    3  C   UNL     1      -5.541   0.656 -33.153  1.00  0.00     0.138 A 
HETATM    4  N   UNL     1      -5.242  -0.478 -33.878  1.00  0.00    -0.240 N 
HETATM    5  N   UNL     1      -3.948  -0.818 -33.837  1.00  0.00    -0.181 NA
HETATM    6  C   UNL     1      -3.426   0.060 -32.976  1.00  0.00     0.160 A 
HETATM    7  C   UNL     1      -4.368   1.013 -32.513  1.00  0.00     0.096 A 
HETATM    8  C   UNL     1      -6.196  -1.223 -34.679  1.00  0.00     0.221 C 
HETATM    9  C   UNL     1      -7.636  -0.791 -34.339  1.00  0.00     0.066 C 
HETATM   10  H   UNL     1      -7.283   1.239 -32.253  1.00  0.00     0.161 HD
ENDROOT
BRANCH   7  11
HETATM   11  C   UNL     1      -4.075   2.111 -31.604  1.00  0.00     0.261 C 
HETATM   12  N   UNL     1      -3.257   3.087 -32.141  1.00  0.00    -0.323 N 
HETATM   13  H   UNL     1      -2.922   2.903 -33.080  1.00  0.00     0.169 HD
HETATM   14  O   UNL     1      -4.543   2.108 -30.471  1.00  0.00    -0.267 OA
BRANCH  12  15
HETATM   15  C   UNL     1      -2.825   4.281 -31.529  1.00  0.00     0.035 A 
HETATM   16  C   UNL     1      -3.684   5.289 -31.096  1.00  0.00     0.030 A 
HETATM   17  C   UNL     1      -3.177   6.454 -30.506  1.00  0.00     0.012 A 
HETATM   18  C   UNL     1      -1.797   6.649 -30.346  1.00  0.00    -0.030 A 
HETATM   19  C   UNL     1      -0.940   5.625 -30.766  1.00  0.00     0.012 A 
HETATM   20  C   UNL     1      -1.449   4.455 -31.350  1.00  0.00     0.030 A 
BRANCH  18  21
HETATM   21  C   UNL     1      -1.319   7.935 -29.707  1.00  0.00     0.147 C 
HETATM   22  C   UNL     1       0.015   7.867 -28.971  1.00  0.00     0.044 C 
BRANCH  21  23
HETATM   23  O   UNL     1      -2.325   8.366 -28.793  1.00  0.00    -0.391 OA
HETATM   24  H   UNL     1      -3.059   8.720 -29.320  1.00  0.00     0.210 HD
ENDBRANCH  21  23
ENDBRANCH  18  21
ENDBRANCH  12  15
ENDBRANCH   7  11
BRANCH   1  25
HETATM   25  C   UNL     1      -9.095   1.322 -33.998  1.00  0.00    -0.035 A 
HETATM   26  C   UNL     1      -9.285   2.698 -34.221  1.00  0.00     0.010 A 
HETATM   27  C   UNL     1     -10.545   3.285 -34.080  1.00  0.00     0.007 A 
HETATM   28  C   UNL     1     -11.646   2.514 -33.700  1.00  0.00    -0.062 A 
HETATM   29  C   UNL     1     -13.014   3.123 -33.612  1.00  0.00     0.048 C 
HETATM   30  C   UNL     1     -11.466   1.147 -33.471  1.00  0.00     0.007 A 
HETATM   31  C   UNL     1     -10.204   0.559 -33.608  1.00  0.00     0.010 A 
ENDBRANCH   1  25
BRANCH   8  32
HETATM   32  C   UNL     1      -6.062  -2.719 -34.477  1.00  0.00     0.409 C 
HETATM   33  F   UNL     1      -5.194  -3.062 -33.505  1.00  0.00    -0.169 F 
HETATM   34  F   UNL     1      -7.250  -3.311 -34.221  1.00  0.00    -0.169 F 
HETATM   35  F   UNL     1      -5.589  -3.287 -35.621  1.00  0.00    -0.169 F 
ENDBRANCH   8  32
TORSDOF 6
ENDMDL
MODEL 6
REMARK VINA RESULT:      -8.1      4.028      8.055
REMARK  6 active torsions:
REMARK  status: ('A' for Active; 'I' for Inactive)
REMARK    1  A    between atoms: C_5  and  C_6 
REMARK    2  A    between atoms: C_12  and  C_13 
REMARK       I    between atoms: C_13  and  N_14 
REMARK    3  A    between atoms: N_14  and  C_15 
REMARK    4  A    between atoms: C_18  and  C_19 
REMARK    5  A    between atoms: C_19  and  O_20 
REMARK    6  A    between atoms: C_25  and  C_26 
ROOT
HETATM    1  C   UNL     1     -10.057   4.377 -30.455  1.00  0.00     0.118 C 
HETATM    2  N   UNL     1      -9.018   3.432 -30.901  1.00  0.00    -0.365 N 
HETATM    3  C   UNL     1      -7.729   3.701 -30.541  1.00  0.00     0.138 A 
HETATM    4  N   UNL     1      -7.365   4.958 -30.109  1.00  0.00    -0.240 N 
HETATM    5  N   UNL     1      -6.087   5.045 -29.720  1.00  0.00    -0.181 NA
HETATM    6  C   UNL     1      -5.593   3.840 -30.013  1.00  0.00     0.160 A 
HETATM    7  C   UNL     1      -6.568   2.948 -30.528  1.00  0.00     0.096 A 
HETATM    8  C   UNL     1      -8.268   6.091 -30.004  1.00  0.00     0.221 C 
HETATM    9  C   UNL     1      -9.580   5.802 -30.758  1.00  0.00     0.066 C 
HETATM   10  H   UNL     1      -9.176   3.116 -31.862  1.00  0.00     0.161 HD
ENDROOT
BRANCH   7  11
HETATM   11  C   UNL     1      -6.329   1.560 -30.893  1.00  0.00     0.261 C 
HETATM   12  N   UNL     1      -6.270   1.335 -32.255  1.00  0.00    -0.323 N 
HETATM   13  H   UNL     1      -6.445   2.148 -32.836  1.00  0.00     0.169 HD
HETATM   14  O   UNL     1      -6.203   0.711 -30.018  1.00  0.00    -0.267 OA
BRANCH  12  15
HETATM   15  C   UNL     1      -6.021   0.116 -32.917  1.00  0.00     0.035 A 
HETATM   16  C   UNL     1      -4.756  -0.455 -33.046  1.00  0.00     0.030 A 
HETATM   17  C   UNL     1      -4.586  -1.665 -33.729  1.00  0.00     0.012 A 
HETATM   18  C   UNL     1      -5.674  -2.331 -34.314  1.00  0.00    -0.030 A 
HETATM   19  C   UNL     1      -6.945  -1.762 -34.165  1.00  0.00     0.012 A 
HETATM   20  C   UNL     1      -7.115  -0.553 -33.474  1.00  0.00     0.030 A 
BRANCH  18  21
HETATM   21  C   UNL     1      -5.418  -3.632 -35.044  1.00  0.00     0.147 C 
HETATM   22  C   UNL     1      -6.634  -4.517 -35.294  1.00  0.00     0.044 C 
BRANCH  21  23
HETATM   23  O   UNL     1      -4.461  -4.372 -34.288  1.00  0.00    -0.391 OA
HETATM   24  H   UNL     1      -4.835  -5.256 -34.139  1.00  0.00     0.210 HD
ENDBRANCH  21  23
ENDBRANCH  18  21
ENDBRANCH  12  15
ENDBRANCH   7  11
BRANCH   1  25
HETATM   25  C   UNL     1     -11.397   3.978 -31.047  1.00  0.00    -0.035 A 
HETATM   26  C   UNL     1     -11.412   3.330 -32.296  1.00  0.00     0.010 A 
HETATM   27  C   UNL     1     -12.609   2.887 -32.865  1.00  0.00     0.007 A 
HETATM   28  C   UNL     1     -13.823   3.092 -32.207  1.00  0.00    -0.062 A 
HETATM   29  C   UNL     1     -15.104   2.560 -32.779  1.00  0.00     0.048 C 
HETATM   30  C   UNL     1     -13.820   3.739 -30.968  1.00  0.00     0.007 A 
HETATM   31  C   UNL     1     -12.622   4.186 -30.398  1.00  0.00     0.010 A 
ENDBRANCH   1  25
BRANCH   8  32
HETATM   32  C   UNL     1      -7.649   7.363 -30.547  1.00  0.00     0.409 C 
HETATM   33  F   UNL     1      -6.854   8.001 -29.666  1.00  0.00    -0.169 F 
HETATM   34  F   UNL     1      -6.948   7.149 -31.683  1.00  0.00    -0.169 F 
HETATM   35  F   UNL     1      -8.638   8.243 -30.866  1.00  0.00    -0.169 F 
ENDBRANCH   8  32
TORSDOF 6
ENDMDL
MODEL 7
REMARK VINA RESULT:      -8.1      4.689      8.551
REMARK  6 active torsions:
REMARK  status: ('A' for Active; 'I' for Inactive)
REMARK    1  A    between atoms: C_5  and  C_6 
REMARK    2  A    between atoms: C_12  and  C_13 
REMARK       I    between atoms: C_13  and  N_14 
REMARK    3  A    between atoms: N_14  and  C_15 
REMARK    4  A    between atoms: C_18  and  C_19 
REMARK    5  A    between atoms: C_19  and  O_20 
REMARK    6  A    between atoms: C_25  and  C_26 
ROOT
HETATM    1  C   UNL     1     -12.245   4.485 -30.762  1.00  0.00     0.118 C 
HETATM    2  N   UNL     1     -11.260   3.591 -31.398  1.00  0.00    -0.365 N 
HETATM    3  C   UNL     1      -9.940   3.838 -31.153  1.00  0.00     0.138 A 
HETATM    4  N   UNL     1      -9.531   5.054 -30.650  1.00  0.00    -0.240 N 
HETATM    5  N   UNL     1      -8.219   5.116 -30.391  1.00  0.00    -0.181 NA
HETATM    6  C   UNL     1      -7.760   3.946 -30.842  1.00  0.00     0.160 A 
HETATM    7  C   UNL     1      -8.785   3.096 -31.330  1.00  0.00     0.096 A 
HETATM    8  C   UNL     1     -10.416   6.165 -30.349  1.00  0.00     0.221 C 
HETATM    9  C   UNL     1     -11.801   5.934 -30.984  1.00  0.00     0.066 C 
HETATM   10  H   UNL     1     -11.519   3.361 -32.362  1.00  0.00     0.161 HD
ENDROOT
BRANCH   7  11
HETATM   11  C   UNL     1      -8.587   1.749 -31.841  1.00  0.00     0.261 C 
HETATM   12  N   UNL     1      -7.412   1.578 -32.548  1.00  0.00    -0.323 N 
HETATM   13  H   UNL     1      -6.852   2.416 -32.666  1.00  0.00     0.169 HD
HETATM   14  O   UNL     1      -9.432   0.886 -31.631  1.00  0.00    -0.267 OA
BRANCH  12  15
HETATM   15  C   UNL     1      -6.924   0.393 -33.134  1.00  0.00     0.035 A 
HETATM   16  C   UNL     1      -5.861  -0.349 -32.621  1.00  0.00     0.030 A 
HETATM   17  C   UNL     1      -5.425  -1.512 -33.267  1.00  0.00     0.012 A 
HETATM   18  C   UNL     1      -6.030  -1.958 -34.452  1.00  0.00    -0.030 A 
HETATM   19  C   UNL     1      -7.108  -1.219 -34.952  1.00  0.00     0.012 A 
HETATM   20  C   UNL     1      -7.550  -0.058 -34.301  1.00  0.00     0.030 A 
BRANCH  18  21
HETATM   21  C   UNL     1      -5.503  -3.219 -35.101  1.00  0.00     0.147 C 
HETATM   22  C   UNL     1      -6.482  -4.383 -35.207  1.00  0.00     0.044 C 
BRANCH  21  23
HETATM   23  O   UNL     1      -4.363  -3.646 -34.358  1.00  0.00    -0.391 OA
HETATM   24  H   UNL     1      -4.461  -4.599 -34.205  1.00  0.00     0.210 HD
ENDBRANCH  21  23
ENDBRANCH  18  21
ENDBRANCH  12  15
ENDBRANCH   7  11
BRANCH   1  25
HETATM   25  C   UNL     1     -13.640   4.129 -31.244  1.00  0.00    -0.035 A 
HETATM   26  C   UNL     1     -13.882   2.816 -31.689  1.00  0.00     0.010 A 
HETATM   27  C   UNL     1     -15.158   2.413 -32.091  1.00  0.00     0.007 A 
HETATM   28  C   UNL     1     -16.224   3.315 -32.069  1.00  0.00    -0.062 A 
HETATM   29  C   UNL     1     -17.610   2.872 -32.434  1.00  0.00     0.048 C 
HETATM   30  C   UNL     1     -15.993   4.623 -31.633  1.00  0.00     0.007 A 
HETATM   31  C   UNL     1     -14.715   5.029 -31.234  1.00  0.00     0.010 A 
ENDBRANCH   1  25
BRANCH   8  32
HETATM   32  C   UNL     1      -9.856   7.486 -30.838  1.00  0.00     0.409 C 
HETATM   33  F   UNL     1      -9.155   7.390 -31.984  1.00  0.00    -0.169 F 
HETATM   34  F   UNL     1     -10.817   8.423 -30.998  1.00  0.00    -0.169 F 
HETATM   35  F   UNL     1      -8.991   7.979 -29.908  1.00  0.00    -0.169 F 
ENDBRANCH   8  32
TORSDOF 6
ENDMDL
MODEL 8
REMARK VINA RESULT:      -8.1      4.070      8.144
REMARK  6 active torsions:
REMARK  status: ('A' for Active; 'I' for Inactive)
REMARK    1  A    between atoms: C_5  and  C_6 
REMARK    2  A    between atoms: C_12  and  C_13 
REMARK       I    between atoms: C_13  and  N_14 
REMARK    3  A    between atoms: N_14  and  C_15 
REMARK    4  A    between atoms: C_18  and  C_19 
REMARK    5  A    between atoms: C_19  and  O_20 
REMARK    6  A    between atoms: C_25  and  C_26 
ROOT
HETATM    1  C   UNL     1      -5.938   2.216 -32.946  1.00  0.00     0.118 C 
HETATM    2  N   UNL     1      -7.253   2.721 -33.379  1.00  0.00    -0.365 N 
HETATM    3  C   UNL     1      -8.305   1.851 -33.336  1.00  0.00     0.138 A 
HETATM    4  N   UNL     1      -8.092   0.492 -33.247  1.00  0.00    -0.240 N 
HETATM    5  N   UNL     1      -9.218  -0.224 -33.136  1.00  0.00    -0.181 NA
HETATM    6  C   UNL     1     -10.180   0.693 -33.266  1.00  0.00     0.160 A 
HETATM    7  C   UNL     1      -9.677   2.013 -33.391  1.00  0.00     0.096 A 
HETATM    8  C   UNL     1      -6.785  -0.141 -33.205  1.00  0.00     0.221 C 
HETATM    9  C   UNL     1      -5.690   0.862 -33.618  1.00  0.00     0.066 C 
HETATM   10  H   UNL     1      -7.179   3.319 -34.207  1.00  0.00     0.161 HD
ENDROOT
BRANCH   7  11
HETATM   11  C   UNL     1     -10.490   3.215 -33.504  1.00  0.00     0.261 C 
HETATM   12  N   UNL     1     -10.478   3.790 -34.760  1.00  0.00    -0.323 N 
HETATM   13  H   UNL     1      -9.874   3.338 -35.438  1.00  0.00     0.169 HD
HETATM   14  O   UNL     1     -11.104   3.631 -32.528  1.00  0.00    -0.267 OA
BRANCH  12  15
HETATM   15  C   UNL     1     -11.185   4.931 -35.192  1.00  0.00     0.035 A 
HETATM   16  C   UNL     1     -12.548   4.939 -35.483  1.00  0.00     0.030 A 
HETATM   17  C   UNL     1     -13.177   6.112 -35.918  1.00  0.00     0.012 A 
HETATM   18  C   UNL     1     -12.459   7.305 -36.088  1.00  0.00    -0.030 A 
HETATM   19  C   UNL     1     -11.094   7.295 -35.777  1.00  0.00     0.012 A 
HETATM   20  C   UNL     1     -10.465   6.122 -35.333  1.00  0.00     0.030 A 
BRANCH  18  21
HETATM   21  C   UNL     1     -13.201   8.533 -36.569  1.00  0.00     0.147 C 
HETATM   22  C   UNL     1     -14.697   8.365 -36.812  1.00  0.00     0.044 C 
BRANCH  21  23
HETATM   23  O   UNL     1     -12.586   8.965 -37.780  1.00  0.00    -0.391 OA
HETATM   24  H   UNL     1     -11.898   8.317 -38.000  1.00  0.00     0.210 HD
ENDBRANCH  21  23
ENDBRANCH  18  21
ENDBRANCH  12  15
ENDBRANCH   7  11
BRANCH   1  25
HETATM   25  C   UNL     1      -4.883   3.283 -33.176  1.00  0.00    -0.035 A 
HETATM   26  C   UNL     1      -3.610   3.103 -32.604  1.00  0.00     0.010 A 
HETATM   27  C   UNL     1      -2.581   4.021 -32.827  1.00  0.00     0.007 A 
HETATM   28  C   UNL     1      -2.801   5.151 -33.618  1.00  0.00    -0.062 A 
HETATM   29  C   UNL     1      -1.683   6.106 -33.917  1.00  0.00     0.048 C 
HETATM   30  C   UNL     1      -4.064   5.343 -34.186  1.00  0.00     0.007 A 
HETATM   31  C   UNL     1      -5.096   4.425 -33.960  1.00  0.00     0.010 A 
ENDBRANCH   1  25
BRANCH   8  32
HETATM   32  C   UNL     1      -6.714  -1.358 -34.105  1.00  0.00     0.409 C 
HETATM   33  F   UNL     1      -5.466  -1.834 -34.278  1.00  0.00    -0.169 F 
HETATM   34  F   UNL     1      -7.503  -2.366 -33.669  1.00  0.00    -0.169 F 
HETATM   35  F   UNL     1      -7.166  -1.027 -35.346  1.00  0.00    -0.169 F 
ENDBRANCH   8  32
TORSDOF 6
ENDMDL
MODEL 9
REMARK VINA RESULT:      -8.0      4.121      8.485
REMARK  6 active torsions:
REMARK  status: ('A' for Active; 'I' for Inactive)
REMARK    1  A    between atoms: C_5  and  C_6 
REMARK    2  A    between atoms: C_12  and  C_13 
REMARK       I    between atoms: C_13  and  N_14 
REMARK    3  A    between atoms: N_14  and  C_15 
REMARK    4  A    between atoms: C_18  and  C_19 
REMARK    5  A    between atoms: C_19  and  O_20 
REMARK    6  A    between atoms: C_25  and  C_26 
ROOT
HETATM    1  C   UNL     1      -5.833   1.927 -32.719  1.00  0.00     0.118 C 
HETATM    2  N   UNL     1      -7.168   2.527 -32.893  1.00  0.00    -0.365 N 
HETATM    3  C   UNL     1      -8.242   1.685 -32.869  1.00  0.00     0.138 A 
HETATM    4  N   UNL     1      -8.078   0.328 -33.042  1.00  0.00    -0.240 N 
HETATM    5  N   UNL     1      -9.212  -0.372 -32.916  1.00  0.00    -0.181 NA
HETATM    6  C   UNL     1     -10.143   0.573 -32.766  1.00  0.00     0.160 A 
HETATM    7  C   UNL     1      -9.604   1.884 -32.724  1.00  0.00     0.096 A 
HETATM    8  C   UNL     1      -6.804  -0.329 -33.272  1.00  0.00     0.221 C 
HETATM    9  C   UNL     1      -5.725   0.707 -33.640  1.00  0.00     0.066 C 
HETATM   10  H   UNL     1      -7.167   3.260 -33.609  1.00  0.00     0.161 HD
ENDROOT
BRANCH   7  11
HETATM   11  C   UNL     1     -10.373   3.104 -32.527  1.00  0.00     0.261 C 
HETATM   12  N   UNL     1     -11.698   2.891 -32.200  1.00  0.00    -0.323 N 
HETATM   13  H   UNL     1     -11.989   1.919 -32.181  1.00  0.00     0.169 HD
HETATM   14  O   UNL     1      -9.831   4.195 -32.659  1.00  0.00    -0.267 OA
BRANCH  12  15
HETATM   15  C   UNL     1     -12.682   3.860 -31.916  1.00  0.00     0.035 A 
HETATM   16  C   UNL     1     -13.474   4.472 -32.886  1.00  0.00     0.030 A 
HETATM   17  C   UNL     1     -14.424   5.435 -32.526  1.00  0.00     0.012 A 
HETATM   18  C   UNL     1     -14.598   5.825 -31.189  1.00  0.00    -0.030 A 
HETATM   19  C   UNL     1     -13.812   5.193 -30.218  1.00  0.00     0.012 A 
HETATM   20  C   UNL     1     -12.865   4.222 -30.578  1.00  0.00     0.030 A 
BRANCH  18  21
HETATM   21  C   UNL     1     -15.638   6.877 -30.873  1.00  0.00     0.147 C 
HETATM   22  C   UNL     1     -16.587   6.564 -29.721  1.00  0.00     0.044 C 
BRANCH  21  23
HETATM   23  O   UNL     1     -16.407   7.096 -32.053  1.00  0.00    -0.391 OA
HETATM   24  H   UNL     1     -16.308   6.308 -32.611  1.00  0.00     0.210 HD
ENDBRANCH  21  23
ENDBRANCH  18  21
ENDBRANCH  12  15
ENDBRANCH   7  11
BRANCH   1  25
HETATM   25  C   UNL     1      -4.768   2.996 -32.892  1.00  0.00    -0.035 A 
HETATM   26  C   UNL     1      -5.096   4.159 -33.612  1.00  0.00     0.010 A 
HETATM   27  C   UNL     1      -4.178   5.202 -33.757  1.00  0.00     0.007 A 
HETATM   28  C   UNL     1      -2.902   5.104 -33.196  1.00  0.00    -0.062 A 
HETATM   29  C   UNL     1      -1.934   6.246 -33.289  1.00  0.00     0.048 C 
HETATM   30  C   UNL     1      -2.564   3.949 -32.484  1.00  0.00     0.007 A 
HETATM   31  C   UNL     1      -3.483   2.902 -32.342  1.00  0.00     0.010 A 
ENDBRANCH   1  25
BRANCH   8  32
HETATM   32  C   UNL     1      -6.892  -1.371 -34.369  1.00  0.00     0.409 C 
HETATM   33  F   UNL     1      -7.412  -2.546 -33.964  1.00  0.00    -0.169 F 
HETATM   34  F   UNL     1      -7.595  -0.934 -35.437  1.00  0.00    -0.169 F 
HETATM   35  F   UNL     1      -5.638  -1.651 -34.824  1.00  0.00    -0.169 F 
ENDBRANCH   8  32
TORSDOF 6
ENDMDL
MODEL 10
REMARK VINA RESULT:      -7.9      3.823      5.765
REMARK  6 active torsions:
REMARK  status: ('A' for Active; 'I' for Inactive)
REMARK    1  A    between atoms: C_5  and  C_6 
REMARK    2  A    between atoms: C_12  and  C_13 
REMARK       I    between atoms: C_13  and  N_14 
REMARK    3  A    between atoms: N_14  and  C_15 
REMARK    4  A    between atoms: C_18  and  C_19 
REMARK    5  A    between atoms: C_19  and  O_20 
REMARK    6  A    between atoms: C_25  and  C_26 
ROOT
HETATM    1  C   UNL     1      -7.872   1.406 -33.485  1.00  0.00     0.118 C 
HETATM    2  N   UNL     1      -7.545   2.074 -32.212  1.00  0.00    -0.365 N 
HETATM    3  C   UNL     1      -6.228   2.148 -31.862  1.00  0.00     0.138 A 
HETATM    4  N   UNL     1      -5.292   1.334 -32.464  1.00  0.00    -0.240 N 
HETATM    5  N   UNL     1      -4.035   1.577 -32.072  1.00  0.00    -0.181 NA
HETATM    6  C   UNL     1      -4.183   2.495 -31.114  1.00  0.00     0.160 A 
HETATM    7  C   UNL     1      -5.530   2.900 -30.934  1.00  0.00     0.096 A 
HETATM    8  C   UNL     1      -5.589   0.343 -33.483  1.00  0.00     0.221 C 
HETATM    9  C   UNL     1      -7.106   0.080 -33.549  1.00  0.00     0.066 C 
HETATM   10  H   UNL     1      -8.210   1.832 -31.472  1.00  0.00     0.161 HD
ENDROOT
BRANCH   7  11
HETATM   11  C   UNL     1      -5.985   3.914 -29.995  1.00  0.00     0.261 C 
HETATM   12  N   UNL     1      -5.030   4.861 -29.677  1.00  0.00    -0.323 N 
HETATM   13  H   UNL     1      -4.118   4.714 -30.096  1.00  0.00     0.169 HD
HETATM   14  O   UNL     1      -7.129   3.871 -29.557  1.00  0.00    -0.267 OA
BRANCH  12  15
HETATM   15  C   UNL     1      -5.174   5.979 -28.831  1.00  0.00     0.035 A 
HETATM   16  C   UNL     1      -4.838   5.981 -27.479  1.00  0.00     0.030 A 
HETATM   17  C   UNL     1      -5.020   7.129 -26.700  1.00  0.00     0.012 A 
HETATM   18  C   UNL     1      -5.557   8.304 -27.247  1.00  0.00    -0.030 A 
HETATM   19  C   UNL     1      -5.875   8.302 -28.610  1.00  0.00     0.012 A 
HETATM   20  C   UNL     1      -5.686   7.153 -29.393  1.00  0.00     0.030 A 
BRANCH  18  21
HETATM   21  C   UNL     1      -5.733   9.507 -26.346  1.00  0.00     0.147 C 
HETATM   22  C   UNL     1      -4.779   9.608 -25.160  1.00  0.00     0.044 C 
BRANCH  21  23
HETATM   23  O   UNL     1      -7.072   9.489 -25.855  1.00  0.00    -0.391 OA
HETATM   24  H   UNL     1      -7.602  10.045 -26.448  1.00  0.00     0.210 HD
ENDBRANCH  21  23
ENDBRANCH  18  21
ENDBRANCH  12  15
ENDBRANCH   7  11
BRANCH   1  25
HETATM   25  C   UNL     1      -9.379   1.319 -33.641  1.00  0.00    -0.035 A 
HETATM   26  C   UNL     1     -10.033   2.304 -34.404  1.00  0.00     0.010 A 
HETATM   27  C   UNL     1     -11.410   2.247 -34.631  1.00  0.00     0.007 A 
HETATM   28  C   UNL     1     -12.173   1.209 -34.091  1.00  0.00    -0.062 A 
HETATM   29  C   UNL     1     -13.640   1.102 -34.386  1.00  0.00     0.048 C 
HETATM   30  C   UNL     1     -11.534   0.228 -33.327  1.00  0.00     0.007 A 
HETATM   31  C   UNL     1     -10.155   0.287 -33.096  1.00  0.00     0.010 A 
ENDBRANCH   1  25
BRANCH   8  32
HETATM   32  C   UNL     1      -4.866  -0.965 -33.232  1.00  0.00     0.409 C 
HETATM   33  F   UNL     1      -4.735  -1.274 -31.927  1.00  0.00    -0.169 F 
HETATM   34  F   UNL     1      -5.452  -2.005 -33.864  1.00  0.00    -0.169 F 
HETATM   35  F   UNL     1      -3.599  -0.880 -33.727  1.00  0.00    -0.169 F 
ENDBRANCH   8  32
TORSDOF 6
ENDMDL
