MODEL 1
REMARK VINA RESULT:     -12.0      0.000      0.000
REMARK  8 active torsions:
REMARK  status: ('A' for Active; 'I' for Inactive)
REMARK    1  A    between atoms: C_4  and  C_5 
REMARK    2  A    between atoms: C_5  and  N_6 
REMARK    3  A    between atoms: C_5  and  C_36 
REMARK    4  A    between atoms: N_10  and  C_11 
REMARK    5  A    between atoms: C_13  and  C_14 
REMARK       I    between atoms: C_14  and  N_15 
REMARK    6  A    between atoms: N_15  and  C_16 
REMARK    7  A    between atoms: C_19  and  O_20 
REMARK    8  A    between atoms: O_20  and  C_21 
ROOT
HETATM    1  C   UNL     1      -3.562   3.615 -31.164  1.00  0.00     0.181 C 
HETATM    2  N   UNL     1      -2.228   3.631 -31.411  1.00  0.00    -0.249 NA
HETATM    3  C   UNL     1      -1.530   4.887 -31.700  1.00  0.00     0.164 C 
HETATM    4  C   UNL     1      -2.457   6.043 -31.958  1.00  0.00     0.134 C 
HETATM    5  C   UNL     1      -3.727   5.895 -31.172  1.00  0.00     0.247 C 
HETATM    6  O   UNL     1      -4.271   6.890 -30.701  1.00  0.00    -0.271 OA
HETATM    7  N   UNL     1      -4.317   4.658 -31.123  1.00  0.00    -0.185 NA
HETATM    8  H   UNL     1      -1.735   3.155 -30.648  1.00  0.00     0.131 HD
ENDROOT
BRANCH   1   9
HETATM    9  N   UNL     1      -4.066   2.344 -30.966  1.00  0.00    -0.353 N 
HETATM   10  C   UNL     1      -3.495   1.136 -31.584  1.00  0.00     0.153 C 
HETATM   11  C   UNL     1      -4.271   0.796 -32.869  1.00  0.00     0.256 C 
HETATM   12  N   UNL     1      -5.751   0.606 -32.532  1.00  0.00    -0.056 N 
HETATM   13  H   UNL     1      -5.784  -0.111 -31.802  1.00  0.00     0.281 HD
HETATM   14  C   UNL     1      -6.321   1.863 -31.861  1.00  0.00     0.256 C 
HETATM   15  C   UNL     1      -5.490   2.185 -30.596  1.00  0.00     0.153 C 
BRANCH  12  16
HETATM   16  C   UNL     1      -6.553   0.004 -33.687  1.00  0.00     0.254 C 
BRANCH  16  17
HETATM   17  C   UNL     1      -8.045   0.319 -33.656  1.00  0.00    -0.023 A 
HETATM   18  C   UNL     1      -8.869  -0.355 -32.731  1.00  0.00     0.009 A 
HETATM   19  C   UNL     1     -10.244  -0.118 -32.684  1.00  0.00     0.001 A 
HETATM   20  C   UNL     1     -10.824   0.797 -33.556  1.00  0.00     0.000 A 
HETATM   21  C   UNL     1     -10.028   1.482 -34.470  1.00  0.00     0.001 A 
HETATM   22  C   UNL     1      -8.651   1.247 -34.519  1.00  0.00     0.009 A 
ENDBRANCH  16  17
BRANCH  16  23
HETATM   23  C   UNL     1      -6.131  -1.428 -34.021  1.00  0.00    -0.023 A 
HETATM   24  C   UNL     1      -6.994  -2.377 -34.593  1.00  0.00     0.009 A 
HETATM   25  C   UNL     1      -6.545  -3.665 -34.901  1.00  0.00     0.001 A 
HETATM   26  C   UNL     1      -5.227  -4.031 -34.647  1.00  0.00     0.000 A 
HETATM   27  C   UNL     1      -4.350  -3.107 -34.093  1.00  0.00     0.001 A 
HETATM   28  C   UNL     1      -4.793  -1.818 -33.788  1.00  0.00     0.009 A 
ENDBRANCH  16  23
ENDBRANCH  12  16
ENDBRANCH   1   9
BRANCH   3  29
HETATM   29  C   UNL     1      -0.508   5.162 -30.580  1.00  0.00     0.240 C 
HETATM   30  N   UNL     1      -0.971   6.030 -29.603  1.00  0.00    -0.326 N 
HETATM   31  H   UNL     1      -1.926   6.360 -29.675  1.00  0.00     0.169 HD
HETATM   32  O   UNL     1       0.638   4.723 -30.686  1.00  0.00    -0.271 OA
BRANCH  30  33
HETATM   33  C   UNL     1      -0.187   6.685 -28.626  1.00  0.00     0.034 A 
HETATM   34  C   UNL     1       0.557   7.798 -29.042  1.00  0.00     0.032 A 
HETATM   35  C   UNL     1       1.430   8.446 -28.160  1.00  0.00     0.039 A 
HETATM   36  C   UNL     1       1.528   8.013 -26.838  1.00  0.00     0.076 A 
HETATM   37  C   UNL     1       0.778   6.918 -26.414  1.00  0.00     0.039 A 
HETATM   38  C   UNL     1      -0.079   6.259 -27.301  1.00  0.00     0.032 A 
BRANCH  36  39
HETATM   39  O   UNL     1       2.405   8.540 -25.920  1.00  0.00    -0.311 OA
BRANCH  39  40
HETATM   40  C   UNL     1       1.910   9.241 -24.844  1.00  0.00     0.076 A 
HETATM   41  C   UNL     1       0.769  10.044 -24.902  1.00  0.00     0.037 A 
HETATM   42  C   UNL     1       0.308  10.679 -23.748  1.00  0.00     0.003 A 
HETATM   43  C   UNL     1       0.969  10.490 -22.533  1.00  0.00     0.000 A 
HETATM   44  C   UNL     1       2.090   9.663 -22.469  1.00  0.00     0.003 A 
HETATM   45  C   UNL     1       2.557   9.034 -23.624  1.00  0.00     0.037 A 
ENDBRANCH  39  40
ENDBRANCH  36  39
ENDBRANCH  30  33
ENDBRANCH   3  29
TORSDOF 8
ENDMDL
MODEL 2
REMARK VINA RESULT:     -11.5      1.600      3.617
REMARK  8 active torsions:
REMARK  status: ('A' for Active; 'I' for Inactive)
REMARK    1  A    between atoms: C_4  and  C_5 
REMARK    2  A    between atoms: C_5  and  N_6 
REMARK    3  A    between atoms: C_5  and  C_36 
REMARK    4  A    between atoms: N_10  and  C_11 
REMARK    5  A    between atoms: C_13  and  C_14 
REMARK       I    between atoms: C_14  and  N_15 
REMARK    6  A    between atoms: N_15  and  C_16 
REMARK    7  A    between atoms: C_19  and  O_20 
REMARK    8  A    between atoms: O_20  and  C_21 
ROOT
HETATM    1  C   UNL     1      -3.937   5.089 -32.763  1.00  0.00     0.181 C 
HETATM    2  N   UNL     1      -3.380   4.882 -31.544  1.00  0.00    -0.249 NA
HETATM    3  C   UNL     1      -1.926   4.902 -31.367  1.00  0.00     0.164 C 
HETATM    4  C   UNL     1      -1.163   4.893 -32.663  1.00  0.00     0.134 C 
HETATM    5  C   UNL     1      -1.935   5.596 -33.742  1.00  0.00     0.247 C 
HETATM    6  O   UNL     1      -1.338   6.268 -34.578  1.00  0.00    -0.271 OA
HETATM    7  N   UNL     1      -3.280   5.348 -33.841  1.00  0.00    -0.185 NA
HETATM    8  H   UNL     1      -3.797   5.527 -30.865  1.00  0.00     0.131 HD
ENDROOT
BRANCH   1   9
HETATM    9  N   UNL     1      -5.315   4.980 -32.760  1.00  0.00    -0.353 N 
HETATM   10  C   UNL     1      -6.105   4.680 -31.555  1.00  0.00     0.153 C 
HETATM   11  C   UNL     1      -6.400   3.170 -31.493  1.00  0.00     0.256 C 
HETATM   12  N   UNL     1      -7.135   2.744 -32.765  1.00  0.00    -0.056 N 
HETATM   13  H   UNL     1      -7.961   3.346 -32.828  1.00  0.00     0.281 HD
HETATM   14  C   UNL     1      -6.311   3.093 -34.011  1.00  0.00     0.256 C 
HETATM   15  C   UNL     1      -6.010   4.611 -34.014  1.00  0.00     0.153 C 
BRANCH  12  16
HETATM   16  C   UNL     1      -7.707   1.328 -32.677  1.00  0.00     0.254 C 
BRANCH  16  17
HETATM   17  C   UNL     1      -6.745   0.227 -33.113  1.00  0.00    -0.023 A 
HETATM   18  C   UNL     1      -6.970  -0.436 -34.336  1.00  0.00     0.009 A 
HETATM   19  C   UNL     1      -6.131  -1.467 -34.763  1.00  0.00     0.001 A 
HETATM   20  C   UNL     1      -5.050  -1.855 -33.979  1.00  0.00     0.000 A 
HETATM   21  C   UNL     1      -4.803  -1.207 -32.772  1.00  0.00     0.001 A 
HETATM   22  C   UNL     1      -5.640  -0.175 -32.343  1.00  0.00     0.009 A 
ENDBRANCH  16  17
BRANCH  16  23
HETATM   23  C   UNL     1      -9.157   1.241 -33.156  1.00  0.00    -0.023 A 
HETATM   24  C   UNL     1     -10.029   0.198 -32.804  1.00  0.00     0.009 A 
HETATM   25  C   UNL     1     -11.353   0.185 -33.251  1.00  0.00     0.001 A 
HETATM   26  C   UNL     1     -11.835   1.211 -34.057  1.00  0.00     0.000 A 
HETATM   27  C   UNL     1     -10.997   2.261 -34.410  1.00  0.00     0.001 A 
HETATM   28  C   UNL     1      -9.673   2.281 -33.962  1.00  0.00     0.009 A 
ENDBRANCH  16  23
ENDBRANCH  12  16
ENDBRANCH   1   9
BRANCH   3  29
HETATM   29  C   UNL     1      -1.548   6.078 -30.445  1.00  0.00     0.240 C 
HETATM   30  N   UNL     1      -0.373   5.877 -29.737  1.00  0.00    -0.326 N 
HETATM   31  H   UNL     1       0.149   5.028 -29.915  1.00  0.00     0.169 HD
HETATM   32  O   UNL     1      -2.337   7.012 -30.304  1.00  0.00    -0.271 OA
BRANCH  30  33
HETATM   33  C   UNL     1       0.073   6.629 -28.626  1.00  0.00     0.034 A 
HETATM   34  C   UNL     1       0.833   7.777 -28.893  1.00  0.00     0.032 A 
HETATM   35  C   UNL     1       1.390   8.524 -27.848  1.00  0.00     0.039 A 
HETATM   36  C   UNL     1       1.150   8.155 -26.526  1.00  0.00     0.076 A 
HETATM   37  C   UNL     1       0.383   7.024 -26.254  1.00  0.00     0.039 A 
HETATM   38  C   UNL     1      -0.158   6.267 -27.298  1.00  0.00     0.032 A 
BRANCH  36  39
HETATM   39  O   UNL     1       1.709   8.783 -25.438  1.00  0.00    -0.311 OA
BRANCH  39  40
HETATM   40  C   UNL     1       0.906   9.530 -24.608  1.00  0.00     0.076 A 
HETATM   41  C   UNL     1      -0.339  10.038 -24.986  1.00  0.00     0.037 A 
HETATM   42  C   UNL     1      -1.111  10.742 -24.061  1.00  0.00     0.003 A 
HETATM   43  C   UNL     1      -0.654  10.915 -22.754  1.00  0.00     0.000 A 
HETATM   44  C   UNL     1       0.575  10.380 -22.368  1.00  0.00     0.003 A 
HETATM   45  C   UNL     1       1.353   9.684 -23.294  1.00  0.00     0.037 A 
ENDBRANCH  39  40
ENDBRANCH  36  39
ENDBRANCH  30  33
ENDBRANCH   3  29
TORSDOF 8
ENDMDL
MODEL 3
REMARK VINA RESULT:     -11.5      3.769      6.778
REMARK  8 active torsions:
REMARK  status: ('A' for Active; 'I' for Inactive)
REMARK    1  A    between atoms: C_4  and  C_5 
REMARK    2  A    between atoms: C_5  and  N_6 
REMARK    3  A    between atoms: C_5  and  C_36 
REMARK    4  A    between atoms: N_10  and  C_11 
REMARK    5  A    between atoms: C_13  and  C_14 
REMARK       I    between atoms: C_14  and  N_15 
REMARK    6  A    between atoms: N_15  and  C_16 
REMARK    7  A    between atoms: C_19  and  O_20 
REMARK    8  A    between atoms: O_20  and  C_21 
ROOT
HETATM    1  C   UNL     1      -9.801   2.829 -32.601  1.00  0.00     0.181 C 
HETATM    2  N   UNL     1      -9.378   3.687 -33.563  1.00  0.00    -0.249 NA
HETATM    3  C   UNL     1      -9.532   5.135 -33.403  1.00  0.00     0.164 C 
HETATM    4  C   UNL     1     -10.419   5.520 -32.250  1.00  0.00     0.134 C 
HETATM    5  C   UNL     1     -10.325   4.510 -31.143  1.00  0.00     0.247 C 
HETATM    6  O   UNL     1     -10.372   4.882 -29.974  1.00  0.00    -0.271 OA
HETATM    7  N   UNL     1     -10.328   3.181 -31.479  1.00  0.00    -0.185 NA
HETATM    8  H   UNL     1      -8.397   3.489 -33.787  1.00  0.00     0.131 HD
ENDROOT
BRANCH   1   9
HETATM    9  N   UNL     1      -9.629   1.501 -32.939  1.00  0.00    -0.353 N 
HETATM   10  C   UNL     1      -9.131   0.480 -32.002  1.00  0.00     0.153 C 
HETATM   11  C   UNL     1      -7.615   0.297 -32.194  1.00  0.00     0.256 C 
HETATM   12  N   UNL     1      -7.331  -0.091 -33.647  1.00  0.00    -0.056 N 
HETATM   13  H   UNL     1      -7.895  -0.924 -33.832  1.00  0.00     0.281 HD
HETATM   14  C   UNL     1      -7.883   0.969 -34.609  1.00  0.00     0.256 C 
HETATM   15  C   UNL     1      -9.400   1.143 -34.358  1.00  0.00     0.153 C 
BRANCH  12  16
HETATM   16  C   UNL     1      -5.891  -0.556 -33.869  1.00  0.00     0.254 C 
BRANCH  16  17
HETATM   17  C   UNL     1      -5.746  -2.042 -34.185  1.00  0.00    -0.023 A 
HETATM   18  C   UNL     1      -6.888  -2.777 -34.562  1.00  0.00     0.009 A 
HETATM   19  C   UNL     1      -6.808  -4.144 -34.834  1.00  0.00     0.001 A 
HETATM   20  C   UNL     1      -5.587  -4.803 -34.739  1.00  0.00     0.000 A 
HETATM   21  C   UNL     1      -4.444  -4.095 -34.379  1.00  0.00     0.001 A 
HETATM   22  C   UNL     1      -4.521  -2.727 -34.106  1.00  0.00     0.009 A 
ENDBRANCH  16  17
BRANCH  16  23
HETATM   23  C   UNL     1      -4.905   0.064 -32.878  1.00  0.00    -0.023 A 
HETATM   24  C   UNL     1      -4.232  -0.672 -31.889  1.00  0.00     0.009 A 
HETATM   25  C   UNL     1      -3.321  -0.055 -31.026  1.00  0.00     0.001 A 
HETATM   26  C   UNL     1      -3.063   1.307 -31.132  1.00  0.00     0.000 A 
HETATM   27  C   UNL     1      -3.708   2.057 -32.109  1.00  0.00     0.001 A 
HETATM   28  C   UNL     1      -4.615   1.443 -32.976  1.00  0.00     0.009 A 
ENDBRANCH  16  23
ENDBRANCH  12  16
ENDBRANCH   1   9
BRANCH   3  29
HETATM   29  C   UNL     1      -8.136   5.785 -33.343  1.00  0.00     0.240 C 
HETATM   30  N   UNL     1      -7.125   4.983 -33.849  1.00  0.00    -0.326 N 
HETATM   31  H   UNL     1      -7.383   4.090 -34.249  1.00  0.00     0.169 HD
HETATM   32  O   UNL     1      -7.996   6.862 -32.761  1.00  0.00    -0.271 OA
BRANCH  30  33
HETATM   33  C   UNL     1      -5.736   5.178 -33.673  1.00  0.00     0.034 A 
HETATM   34  C   UNL     1      -5.317   5.745 -32.461  1.00  0.00     0.032 A 
HETATM   35  C   UNL     1      -3.969   6.057 -32.245  1.00  0.00     0.039 A 
HETATM   36  C   UNL     1      -3.022   5.758 -33.223  1.00  0.00     0.076 A 
HETATM   37  C   UNL     1      -3.430   5.179 -34.423  1.00  0.00     0.039 A 
HETATM   38  C   UNL     1      -4.779   4.886 -34.647  1.00  0.00     0.032 A 
BRANCH  36  39
HETATM   39  O   UNL     1      -1.691   6.088 -33.131  1.00  0.00    -0.311 OA
BRANCH  39  40
HETATM   40  C   UNL     1      -1.084   6.091 -31.897  1.00  0.00     0.076 A 
HETATM   41  C   UNL     1      -0.705   4.931 -31.217  1.00  0.00     0.037 A 
HETATM   42  C   UNL     1      -0.047   5.028 -29.991  1.00  0.00     0.003 A 
HETATM   43  C   UNL     1       0.257   6.281 -29.457  1.00  0.00     0.000 A 
HETATM   44  C   UNL     1      -0.092   7.439 -30.151  1.00  0.00     0.003 A 
HETATM   45  C   UNL     1      -0.759   7.344 -31.373  1.00  0.00     0.037 A 
ENDBRANCH  39  40
ENDBRANCH  36  39
ENDBRANCH  30  33
ENDBRANCH   3  29
TORSDOF 8
ENDMDL
MODEL 4
REMARK VINA RESULT:     -11.5      1.167      1.979
REMARK  8 active torsions:
REMARK  status: ('A' for Active; 'I' for Inactive)
REMARK    1  A    between atoms: C_4  and  C_5 
REMARK    2  A    between atoms: C_5  and  N_6 
REMARK    3  A    between atoms: C_5  and  C_36 
REMARK    4  A    between atoms: N_10  and  C_11 
REMARK    5  A    between atoms: C_13  and  C_14 
REMARK       I    between atoms: C_14  and  N_15 
REMARK    6  A    between atoms: N_15  and  C_16 
REMARK    7  A    between atoms: C_19  and  O_20 
REMARK    8  A    between atoms: O_20  and  C_21 
ROOT
HETATM    1  C   UNL     1      -2.939   3.617 -31.979  1.00  0.00     0.181 C 
HETATM    2  N   UNL     1      -1.868   3.915 -31.201  1.00  0.00    -0.249 NA
HETATM    3  C   UNL     1      -0.952   4.999 -31.565  1.00  0.00     0.164 C 
HETATM    4  C   UNL     1      -1.161   5.519 -32.961  1.00  0.00     0.134 C 
HETATM    5  C   UNL     1      -2.602   5.403 -33.364  1.00  0.00     0.247 C 
HETATM    6  O   UNL     1      -3.111   6.277 -34.061  1.00  0.00    -0.271 OA
HETATM    7  N   UNL     1      -3.271   4.247 -33.053  1.00  0.00    -0.185 NA
HETATM    8  H   UNL     1      -2.181   4.066 -30.236  1.00  0.00     0.131 HD
ENDROOT
BRANCH   1   9
HETATM    9  N   UNL     1      -3.664   2.534 -31.519  1.00  0.00    -0.353 N 
HETATM   10  C   UNL     1      -3.289   1.134 -31.775  1.00  0.00     0.153 C 
HETATM   11  C   UNL     1      -4.062   0.607 -32.997  1.00  0.00     0.256 C 
HETATM   12  N   UNL     1      -5.565   0.746 -32.745  1.00  0.00    -0.056 N 
HETATM   13  H   UNL     1      -5.750   0.252 -31.868  1.00  0.00     0.281 HD
HETATM   14  C   UNL     1      -5.933   2.205 -32.450  1.00  0.00     0.256 C 
HETATM   15  C   UNL     1      -5.108   2.703 -31.239  1.00  0.00     0.153 C 
BRANCH  12  16
HETATM   16  C   UNL     1      -6.413   0.005 -33.780  1.00  0.00     0.254 C 
BRANCH  16  17
HETATM   17  C   UNL     1      -7.916   0.234 -33.649  1.00  0.00    -0.023 A 
HETATM   18  C   UNL     1      -8.578   1.015 -34.618  1.00  0.00     0.009 A 
HETATM   19  C   UNL     1      -9.946   1.274 -34.525  1.00  0.00     0.001 A 
HETATM   20  C   UNL     1     -10.682   0.756 -33.465  1.00  0.00     0.000 A 
HETATM   21  C   UNL     1     -10.052  -0.027 -32.502  1.00  0.00     0.001 A 
HETATM   22  C   UNL     1      -8.683  -0.287 -32.593  1.00  0.00     0.009 A 
ENDBRANCH  16  17
BRANCH  16  23
HETATM   23  C   UNL     1      -5.927  -1.422 -34.037  1.00  0.00    -0.023 A 
HETATM   24  C   UNL     1      -4.659  -1.890 -33.657  1.00  0.00     0.009 A 
HETATM   25  C   UNL     1      -4.279  -3.215 -33.896  1.00  0.00     0.001 A 
HETATM   26  C   UNL     1      -5.156  -4.098 -34.517  1.00  0.00     0.000 A 
HETATM   27  C   UNL     1      -6.421  -3.663 -34.893  1.00  0.00     0.001 A 
HETATM   28  C   UNL     1      -6.806  -2.342 -34.652  1.00  0.00     0.009 A 
ENDBRANCH  16  23
ENDBRANCH  12  16
ENDBRANCH   1   9
BRANCH   3  29
HETATM   29  C   UNL     1      -1.022   6.099 -30.488  1.00  0.00     0.240 C 
HETATM   30  N   UNL     1       0.163   6.271 -29.788  1.00  0.00    -0.326 N 
HETATM   31  H   UNL     1       0.963   5.716 -30.066  1.00  0.00     0.169 HD
HETATM   32  O   UNL     1      -2.103   6.634 -30.241  1.00  0.00    -0.271 OA
BRANCH  30  33
HETATM   33  C   UNL     1       0.323   6.984 -28.578  1.00  0.00     0.034 A 
HETATM   34  C   UNL     1      -0.248   6.426 -27.425  1.00  0.00     0.032 A 
HETATM   35  C   UNL     1      -0.215   7.113 -26.206  1.00  0.00     0.039 A 
HETATM   36  C   UNL     1       0.435   8.344 -26.121  1.00  0.00     0.076 A 
HETATM   37  C   UNL     1       1.018   8.896 -27.259  1.00  0.00     0.039 A 
HETATM   38  C   UNL     1       0.968   8.218 -28.481  1.00  0.00     0.032 A 
BRANCH  36  39
HETATM   39  O   UNL     1       0.460   9.123 -24.988  1.00  0.00    -0.311 OA
BRANCH  39  40
HETATM   40  C   UNL     1       1.671   9.431 -24.413  1.00  0.00     0.076 A 
HETATM   41  C   UNL     1       2.737   8.533 -24.322  1.00  0.00     0.037 A 
HETATM   42  C   UNL     1       3.948   8.947 -23.769  1.00  0.00     0.003 A 
HETATM   43  C   UNL     1       4.105  10.263 -23.331  1.00  0.00     0.000 A 
HETATM   44  C   UNL     1       3.051  11.169 -23.451  1.00  0.00     0.003 A 
HETATM   45  C   UNL     1       1.836  10.754 -23.996  1.00  0.00     0.037 A 
ENDBRANCH  39  40
ENDBRANCH  36  39
ENDBRANCH  30  33
ENDBRANCH   3  29
TORSDOF 8
ENDMDL
MODEL 5
REMARK VINA RESULT:     -11.4      3.780     11.106
REMARK  8 active torsions:
REMARK  status: ('A' for Active; 'I' for Inactive)
REMARK    1  A    between atoms: C_4  and  C_5 
REMARK    2  A    between atoms: C_5  and  N_6 
REMARK    3  A    between atoms: C_5  and  C_36 
REMARK    4  A    between atoms: N_10  and  C_11 
REMARK    5  A    between atoms: C_13  and  C_14 
REMARK       I    between atoms: C_14  and  N_15 
REMARK    6  A    between atoms: N_15  and  C_16 
REMARK    7  A    between atoms: C_19  and  O_20 
REMARK    8  A    between atoms: O_20  and  C_21 
ROOT
HETATM    1  C   UNL     1      -7.765   5.971 -31.430  1.00  0.00     0.181 C 
HETATM    2  N   UNL     1      -8.230   4.860 -30.806  1.00  0.00    -0.249 NA
HETATM    3  C   UNL     1      -9.246   4.012 -31.434  1.00  0.00     0.164 C 
HETATM    4  C   UNL     1      -9.882   4.635 -32.647  1.00  0.00     0.134 C 
HETATM    5  C   UNL     1      -8.910   5.530 -33.359  1.00  0.00     0.247 C 
HETATM    6  O   UNL     1      -8.924   5.589 -34.585  1.00  0.00    -0.271 OA
HETATM    7  N   UNL     1      -8.125   6.363 -32.604  1.00  0.00    -0.185 NA
HETATM    8  H   UNL     1      -7.439   4.268 -30.532  1.00  0.00     0.131 HD
ENDROOT
BRANCH   1   9
HETATM    9  N   UNL     1      -6.854   6.683 -30.674  1.00  0.00    -0.353 N 
HETATM   10  C   UNL     1      -6.004   7.754 -31.219  1.00  0.00     0.153 C 
HETATM   11  C   UNL     1      -4.625   7.182 -31.591  1.00  0.00     0.256 C 
HETATM   12  N   UNL     1      -3.991   6.540 -30.355  1.00  0.00    -0.056 N 
HETATM   13  H   UNL     1      -3.980   7.267 -29.634  1.00  0.00     0.281 HD
HETATM   14  C   UNL     1      -4.904   5.447 -29.784  1.00  0.00     0.256 C 
HETATM   15  C   UNL     1      -6.287   6.059 -29.457  1.00  0.00     0.153 C 
BRANCH  12  16
HETATM   16  C   UNL     1      -2.517   6.187 -30.556  1.00  0.00     0.254 C 
BRANCH  16  17
HETATM   17  C   UNL     1      -1.548   7.000 -29.703  1.00  0.00    -0.023 A 
HETATM   18  C   UNL     1      -1.959   8.254 -29.205  1.00  0.00     0.009 A 
HETATM   19  C   UNL     1      -1.097   9.045 -28.443  1.00  0.00     0.001 A 
HETATM   20  C   UNL     1       0.190   8.600 -28.161  1.00  0.00     0.000 A 
HETATM   21  C   UNL     1       0.613   7.361 -28.633  1.00  0.00     0.001 A 
HETATM   22  C   UNL     1      -0.247   6.567 -29.396  1.00  0.00     0.009 A 
ENDBRANCH  16  17
BRANCH  16  23
HETATM   23  C   UNL     1      -2.155   5.952 -32.023  1.00  0.00    -0.023 A 
HETATM   24  C   UNL     1      -1.452   6.881 -32.807  1.00  0.00     0.009 A 
HETATM   25  C   UNL     1      -1.127   6.601 -34.138  1.00  0.00     0.001 A 
HETATM   26  C   UNL     1      -1.495   5.389 -34.712  1.00  0.00     0.000 A 
HETATM   27  C   UNL     1      -2.182   4.448 -33.955  1.00  0.00     0.001 A 
HETATM   28  C   UNL     1      -2.505   4.722 -32.624  1.00  0.00     0.009 A 
ENDBRANCH  16  23
ENDBRANCH  12  16
ENDBRANCH   1   9
BRANCH   3  29
HETATM   29  C   UNL     1      -8.640   2.622 -31.709  1.00  0.00     0.240 C 
HETATM   30  N   UNL     1      -7.297   2.524 -31.377  1.00  0.00    -0.326 N 
HETATM   31  H   UNL     1      -6.853   3.327 -30.949  1.00  0.00     0.169 HD
HETATM   32  O   UNL     1      -9.314   1.775 -32.295  1.00  0.00    -0.271 OA
BRANCH  30  33
HETATM   33  C   UNL     1      -6.412   1.493 -31.770  1.00  0.00     0.034 A 
HETATM   34  C   UNL     1      -5.537   1.770 -32.830  1.00  0.00     0.032 A 
HETATM   35  C   UNL     1      -4.695   0.775 -33.340  1.00  0.00     0.039 A 
HETATM   36  C   UNL     1      -4.687  -0.492 -32.760  1.00  0.00     0.076 A 
HETATM   37  C   UNL     1      -5.542  -0.768 -31.695  1.00  0.00     0.039 A 
HETATM   38  C   UNL     1      -6.398   0.220 -31.199  1.00  0.00     0.032 A 
BRANCH  36  39
HETATM   39  O   UNL     1      -3.948  -1.550 -33.234  1.00  0.00    -0.311 OA
BRANCH  39  40
HETATM   40  C   UNL     1      -4.598  -2.627 -33.791  1.00  0.00     0.076 A 
HETATM   41  C   UNL     1      -5.756  -2.517 -34.565  1.00  0.00     0.037 A 
HETATM   42  C   UNL     1      -6.320  -3.659 -35.136  1.00  0.00     0.003 A 
HETATM   43  C   UNL     1      -5.714  -4.903 -34.957  1.00  0.00     0.000 A 
HETATM   44  C   UNL     1      -4.540  -5.008 -34.211  1.00  0.00     0.003 A 
HETATM   45  C   UNL     1      -3.980  -3.869 -33.633  1.00  0.00     0.037 A 
ENDBRANCH  39  40
ENDBRANCH  36  39
ENDBRANCH  30  33
ENDBRANCH   3  29
TORSDOF 8
ENDMDL
MODEL 6
REMARK VINA RESULT:     -11.3      4.769      9.704
REMARK  8 active torsions:
REMARK  status: ('A' for Active; 'I' for Inactive)
REMARK    1  A    between atoms: C_4  and  C_5 
REMARK    2  A    between atoms: C_5  and  N_6 
REMARK    3  A    between atoms: C_5  and  C_36 
REMARK    4  A    between atoms: N_10  and  C_11 
REMARK    5  A    between atoms: C_13  and  C_14 
REMARK       I    between atoms: C_14  and  N_15 
REMARK    6  A    between atoms: N_15  and  C_16 
REMARK    7  A    between atoms: C_19  and  O_20 
REMARK    8  A    between atoms: O_20  and  C_21 
ROOT
HETATM    1  C   UNL     1      -4.635   3.922 -30.467  1.00  0.00     0.181 C 
HETATM    2  N   UNL     1      -5.568   3.844 -29.485  1.00  0.00    -0.249 NA
HETATM    3  C   UNL     1      -6.081   5.052 -28.835  1.00  0.00     0.164 C 
HETATM    4  C   UNL     1      -5.292   6.291 -29.161  1.00  0.00     0.134 C 
HETATM    5  C   UNL     1      -4.711   6.206 -30.543  1.00  0.00     0.247 C 
HETATM    6  O   UNL     1      -4.642   7.217 -31.236  1.00  0.00    -0.271 OA
HETATM    7  N   UNL     1      -4.147   5.020 -30.935  1.00  0.00    -0.185 NA
HETATM    8  H   UNL     1      -6.366   3.292 -29.818  1.00  0.00     0.131 HD
ENDROOT
BRANCH   1   9
HETATM    9  N   UNL     1      -4.223   2.688 -30.930  1.00  0.00    -0.353 N 
HETATM   10  C   UNL     1      -3.616   2.475 -32.255  1.00  0.00     0.153 C 
HETATM   11  C   UNL     1      -4.698   2.029 -33.254  1.00  0.00     0.256 C 
HETATM   12  N   UNL     1      -5.372   0.757 -32.737  1.00  0.00    -0.056 N 
HETATM   13  H   UNL     1      -4.619   0.081 -32.583  1.00  0.00     0.281 HD
HETATM   14  C   UNL     1      -5.972   0.988 -31.344  1.00  0.00     0.256 C 
HETATM   15  C   UNL     1      -4.858   1.467 -30.383  1.00  0.00     0.153 C 
BRANCH  12  16
HETATM   16  C   UNL     1      -6.267   0.089 -33.783  1.00  0.00     0.254 C 
BRANCH  16  17
HETATM   17  C   UNL     1      -7.754   0.397 -33.636  1.00  0.00    -0.023 A 
HETATM   18  C   UNL     1      -8.282   1.544 -34.264  1.00  0.00     0.009 A 
HETATM   19  C   UNL     1      -9.630   1.881 -34.135  1.00  0.00     0.001 A 
HETATM   20  C   UNL     1     -10.479   1.079 -33.379  1.00  0.00     0.000 A 
HETATM   21  C   UNL     1      -9.982  -0.064 -32.759  1.00  0.00     0.001 A 
HETATM   22  C   UNL     1      -8.633  -0.403 -32.887  1.00  0.00     0.009 A 
ENDBRANCH  16  17
BRANCH  16  23
HETATM   23  C   UNL     1      -5.862  -1.355 -34.078  1.00  0.00    -0.023 A 
HETATM   24  C   UNL     1      -4.609  -1.894 -33.743  1.00  0.00     0.009 A 
HETATM   25  C   UNL     1      -4.304  -3.231 -34.015  1.00  0.00     0.001 A 
HETATM   26  C   UNL     1      -5.241  -4.058 -34.625  1.00  0.00     0.000 A 
HETATM   27  C   UNL     1      -6.493  -3.553 -34.957  1.00  0.00     0.001 A 
HETATM   28  C   UNL     1      -6.803  -2.218 -34.683  1.00  0.00     0.009 A 
ENDBRANCH  16  23
ENDBRANCH  12  16
ENDBRANCH   1   9
BRANCH   3  29
HETATM   29  C   UNL     1      -7.585   5.188 -29.143  1.00  0.00     0.240 C 
HETATM   30  N   UNL     1      -8.005   4.423 -30.220  1.00  0.00    -0.326 N 
HETATM   31  H   UNL     1      -7.326   3.821 -30.668  1.00  0.00     0.169 HD
HETATM   32  O   UNL     1      -8.254   6.021 -28.530  1.00  0.00    -0.271 OA
BRANCH  30  33
HETATM   33  C   UNL     1      -9.234   4.552 -30.909  1.00  0.00     0.034 A 
HETATM   34  C   UNL     1     -10.333   3.850 -30.393  1.00  0.00     0.032 A 
HETATM   35  C   UNL     1     -11.560   3.849 -31.066  1.00  0.00     0.039 A 
HETATM   36  C   UNL     1     -11.710   4.591 -32.237  1.00  0.00     0.076 A 
HETATM   37  C   UNL     1     -10.626   5.303 -32.745  1.00  0.00     0.039 A 
HETATM   38  C   UNL     1      -9.394   5.288 -32.083  1.00  0.00     0.032 A 
BRANCH  36  39
HETATM   39  O   UNL     1     -12.852   4.596 -33.003  1.00  0.00    -0.311 OA
BRANCH  39  40
HETATM   40  C   UNL     1     -13.576   3.435 -33.135  1.00  0.00     0.076 A 
HETATM   41  C   UNL     1     -14.624   3.074 -32.284  1.00  0.00     0.037 A 
HETATM   42  C   UNL     1     -15.340   1.901 -32.524  1.00  0.00     0.003 A 
HETATM   43  C   UNL     1     -15.030   1.103 -33.626  1.00  0.00     0.000 A 
HETATM   44  C   UNL     1     -14.005   1.480 -34.494  1.00  0.00     0.003 A 
HETATM   45  C   UNL     1     -13.282   2.649 -34.251  1.00  0.00     0.037 A 
ENDBRANCH  39  40
ENDBRANCH  36  39
ENDBRANCH  30  33
ENDBRANCH   3  29
TORSDOF 8
ENDMDL
MODEL 7
REMARK VINA RESULT:     -11.2      3.847     11.099
REMARK  8 active torsions:
REMARK  status: ('A' for Active; 'I' for Inactive)
REMARK    1  A    between atoms: C_4  and  C_5 
REMARK    2  A    between atoms: C_5  and  N_6 
REMARK    3  A    between atoms: C_5  and  C_36 
REMARK    4  A    between atoms: N_10  and  C_11 
REMARK    5  A    between atoms: C_13  and  C_14 
REMARK       I    between atoms: C_14  and  N_15 
REMARK    6  A    between atoms: N_15  and  C_16 
REMARK    7  A    between atoms: C_19  and  O_20 
REMARK    8  A    between atoms: O_20  and  C_21 
ROOT
HETATM    1  C   UNL     1      -8.035   5.830 -30.162  1.00  0.00     0.181 C 
HETATM    2  N   UNL     1      -8.306   4.566 -29.751  1.00  0.00    -0.249 NA
HETATM    3  C   UNL     1      -9.391   3.792 -30.361  1.00  0.00     0.164 C 
HETATM    4  C   UNL     1     -10.295   4.614 -31.238  1.00  0.00     0.134 C 
HETATM    5  C   UNL     1      -9.537   5.739 -31.882  1.00  0.00     0.247 C 
HETATM    6  O   UNL     1      -9.810   6.077 -33.030  1.00  0.00    -0.271 OA
HETATM    7  N   UNL     1      -8.650   6.446 -31.112  1.00  0.00    -0.185 NA
HETATM    8  H   UNL     1      -7.449   4.005 -29.789  1.00  0.00     0.131 HD
ENDROOT
BRANCH   1   9
HETATM    9  N   UNL     1      -7.019   6.432 -29.444  1.00  0.00    -0.353 N 
HETATM   10  C   UNL     1      -6.564   7.813 -29.676  1.00  0.00     0.153 C 
HETATM   11  C   UNL     1      -5.341   7.805 -30.609  1.00  0.00     0.256 C 
HETATM   12  N   UNL     1      -4.235   6.949 -29.988  1.00  0.00    -0.056 N 
HETATM   13  H   UNL     1      -4.068   7.338 -29.056  1.00  0.00     0.281 HD
HETATM   14  C   UNL     1      -4.735   5.523 -29.726  1.00  0.00     0.256 C 
HETATM   15  C   UNL     1      -5.983   5.582 -28.813  1.00  0.00     0.153 C 
BRANCH  12  16
HETATM   16  C   UNL     1      -2.892   7.099 -30.704  1.00  0.00     0.254 C 
BRANCH  16  17
HETATM   17  C   UNL     1      -2.722   6.204 -31.929  1.00  0.00    -0.023 A 
HETATM   18  C   UNL     1      -2.725   6.789 -33.211  1.00  0.00     0.009 A 
HETATM   19  C   UNL     1      -2.600   6.008 -34.361  1.00  0.00     0.001 A 
HETATM   20  C   UNL     1      -2.466   4.628 -34.254  1.00  0.00     0.000 A 
HETATM   21  C   UNL     1      -2.449   4.030 -32.997  1.00  0.00     0.001 A 
HETATM   22  C   UNL     1      -2.575   4.809 -31.845  1.00  0.00     0.009 A 
ENDBRANCH  16  17
BRANCH  16  23
HETATM   23  C   UNL     1      -1.712   7.221 -29.739  1.00  0.00    -0.023 A 
HETATM   24  C   UNL     1      -1.851   7.229 -28.341  1.00  0.00     0.009 A 
HETATM   25  C   UNL     1      -0.732   7.318 -27.507  1.00  0.00     0.001 A 
HETATM   26  C   UNL     1       0.546   7.399 -28.049  1.00  0.00     0.000 A 
HETATM   27  C   UNL     1       0.712   7.382 -29.429  1.00  0.00     0.001 A 
HETATM   28  C   UNL     1      -0.403   7.289 -30.266  1.00  0.00     0.009 A 
ENDBRANCH  16  23
ENDBRANCH  12  16
ENDBRANCH   1   9
BRANCH   3  29
HETATM   29  C   UNL     1      -8.792   2.568 -31.080  1.00  0.00     0.240 C 
HETATM   30  N   UNL     1      -7.509   2.248 -30.662  1.00  0.00    -0.326 N 
HETATM   31  H   UNL     1      -7.105   2.792 -29.910  1.00  0.00     0.169 HD
HETATM   32  O   UNL     1      -9.404   2.060 -32.019  1.00  0.00    -0.271 OA
BRANCH  30  33
HETATM   33  C   UNL     1      -6.608   1.377 -31.318  1.00  0.00     0.034 A 
HETATM   34  C   UNL     1      -5.920   1.887 -32.428  1.00  0.00     0.032 A 
HETATM   35  C   UNL     1      -5.081   1.064 -33.189  1.00  0.00     0.039 A 
HETATM   36  C   UNL     1      -4.887  -0.265 -32.814  1.00  0.00     0.076 A 
HETATM   37  C   UNL     1      -5.556  -0.772 -31.702  1.00  0.00     0.039 A 
HETATM   38  C   UNL     1      -6.409   0.045 -30.954  1.00  0.00     0.032 A 
BRANCH  36  39
HETATM   39  O   UNL     1      -4.140  -1.166 -33.535  1.00  0.00    -0.311 OA
BRANCH  39  40
HETATM   40  C   UNL     1      -4.736  -2.315 -33.997  1.00  0.00     0.076 A 
HETATM   41  C   UNL     1      -4.163  -3.584 -33.887  1.00  0.00     0.037 A 
HETATM   42  C   UNL     1      -4.863  -4.704 -34.338  1.00  0.00     0.003 A 
HETATM   43  C   UNL     1      -6.144  -4.561 -34.872  1.00  0.00     0.000 A 
HETATM   44  C   UNL     1      -6.730  -3.297 -34.952  1.00  0.00     0.003 A 
HETATM   45  C   UNL     1      -6.028  -2.176 -34.510  1.00  0.00     0.037 A 
ENDBRANCH  39  40
ENDBRANCH  36  39
ENDBRANCH  30  33
ENDBRANCH   3  29
TORSDOF 8
ENDMDL
MODEL 8
REMARK VINA RESULT:     -11.0      5.504      8.613
REMARK  8 active torsions:
REMARK  status: ('A' for Active; 'I' for Inactive)
REMARK    1  A    between atoms: C_4  and  C_5 
REMARK    2  A    between atoms: C_5  and  N_6 
REMARK    3  A    between atoms: C_5  and  C_36 
REMARK    4  A    between atoms: N_10  and  C_11 
REMARK    5  A    between atoms: C_13  and  C_14 
REMARK       I    between atoms: C_14  and  N_15 
REMARK    6  A    between atoms: N_15  and  C_16 
REMARK    7  A    between atoms: C_19  and  O_20 
REMARK    8  A    between atoms: O_20  and  C_21 
ROOT
HETATM    1  C   UNL     1      -8.675   6.018 -31.191  1.00  0.00     0.181 C 
HETATM    2  N   UNL     1      -7.384   5.791 -31.541  1.00  0.00    -0.249 NA
HETATM    3  C   UNL     1      -6.293   6.036 -30.595  1.00  0.00     0.164 C 
HETATM    4  C   UNL     1      -6.721   6.793 -29.367  1.00  0.00     0.134 C 
HETATM    5  C   UNL     1      -8.146   6.478 -29.016  1.00  0.00     0.247 C 
HETATM    6  O   UNL     1      -8.479   6.403 -27.836  1.00  0.00    -0.271 OA
HETATM    7  N   UNL     1      -9.066   6.421 -30.031  1.00  0.00    -0.185 NA
HETATM    8  H   UNL     1      -7.292   4.836 -31.900  1.00  0.00     0.131 HD
ENDROOT
BRANCH   1   9
HETATM    9  N   UNL     1      -9.569   5.788 -32.219  1.00  0.00    -0.353 N 
HETATM   10  C   UNL     1     -10.888   5.163 -32.028  1.00  0.00     0.153 C 
HETATM   11  C   UNL     1     -10.794   3.656 -32.325  1.00  0.00     0.256 C 
HETATM   12  N   UNL     1     -10.280   3.452 -33.752  1.00  0.00    -0.056 N 
HETATM   13  H   UNL     1     -10.917   3.975 -34.359  1.00  0.00     0.281 HD
HETATM   14  C   UNL     1      -8.920   4.136 -33.942  1.00  0.00     0.256 C 
HETATM   15  C   UNL     1      -9.054   5.639 -33.599  1.00  0.00     0.153 C 
BRANCH  12  16
HETATM   16  C   UNL     1     -10.410   2.005 -34.231  1.00  0.00     0.254 C 
BRANCH  16  17
HETATM   17  C   UNL     1     -11.819   1.428 -34.132  1.00  0.00    -0.023 A 
HETATM   18  C   UNL     1     -11.996   0.143 -33.579  1.00  0.00     0.009 A 
HETATM   19  C   UNL     1     -13.263  -0.436 -33.492  1.00  0.00     0.001 A 
HETATM   20  C   UNL     1     -14.378   0.255 -33.953  1.00  0.00     0.000 A 
HETATM   21  C   UNL     1     -14.228   1.529 -34.493  1.00  0.00     0.001 A 
HETATM   22  C   UNL     1     -12.961   2.111 -34.581  1.00  0.00     0.009 A 
ENDBRANCH  16  17
BRANCH  16  23
HETATM   23  C   UNL     1      -9.243   1.124 -33.785  1.00  0.00    -0.023 A 
HETATM   24  C   UNL     1      -8.931   0.871 -32.439  1.00  0.00     0.009 A 
HETATM   25  C   UNL     1      -7.866   0.035 -32.092  1.00  0.00     0.001 A 
HETATM   26  C   UNL     1      -7.092  -0.567 -33.078  1.00  0.00     0.000 A 
HETATM   27  C   UNL     1      -7.386  -0.343 -34.417  1.00  0.00     0.001 A 
HETATM   28  C   UNL     1      -8.452   0.489 -34.769  1.00  0.00     0.009 A 
ENDBRANCH  16  23
ENDBRANCH  12  16
ENDBRANCH   1   9
BRANCH   3  29
HETATM   29  C   UNL     1      -5.596   4.699 -30.275  1.00  0.00     0.240 C 
HETATM   30  N   UNL     1      -5.029   4.087 -31.383  1.00  0.00    -0.326 N 
HETATM   31  H   UNL     1      -5.073   4.574 -32.269  1.00  0.00     0.169 HD
HETATM   32  O   UNL     1      -5.695   4.222 -29.145  1.00  0.00    -0.271 OA
BRANCH  30  33
HETATM   33  C   UNL     1      -4.583   2.748 -31.460  1.00  0.00     0.034 A 
HETATM   34  C   UNL     1      -5.148   1.831 -30.563  1.00  0.00     0.032 A 
HETATM   35  C   UNL     1      -4.695   0.507 -30.512  1.00  0.00     0.039 A 
HETATM   36  C   UNL     1      -3.704   0.079 -31.394  1.00  0.00     0.076 A 
HETATM   37  C   UNL     1      -3.149   0.981 -32.299  1.00  0.00     0.039 A 
HETATM   38  C   UNL     1      -3.589   2.308 -32.336  1.00  0.00     0.032 A 
BRANCH  36  39
HETATM   39  O   UNL     1      -3.147  -1.178 -31.373  1.00  0.00    -0.311 OA
BRANCH  39  40
HETATM   40  C   UNL     1      -3.528  -2.097 -32.323  1.00  0.00     0.076 A 
HETATM   41  C   UNL     1      -4.150  -1.754 -33.526  1.00  0.00     0.037 A 
HETATM   42  C   UNL     1      -4.455  -2.748 -34.457  1.00  0.00     0.003 A 
HETATM   43  C   UNL     1      -4.115  -4.076 -34.200  1.00  0.00     0.000 A 
HETATM   44  C   UNL     1      -3.464  -4.414 -33.014  1.00  0.00     0.003 A 
HETATM   45  C   UNL     1      -3.166  -3.423 -32.078  1.00  0.00     0.037 A 
ENDBRANCH  39  40
ENDBRANCH  36  39
ENDBRANCH  30  33
ENDBRANCH   3  29
TORSDOF 8
ENDMDL
MODEL 9
REMARK VINA RESULT:     -10.7      1.854      2.376
REMARK  8 active torsions:
REMARK  status: ('A' for Active; 'I' for Inactive)
REMARK    1  A    between atoms: C_4  and  C_5 
REMARK    2  A    between atoms: C_5  and  N_6 
REMARK    3  A    between atoms: C_5  and  C_36 
REMARK    4  A    between atoms: N_10  and  C_11 
REMARK    5  A    between atoms: C_13  and  C_14 
REMARK       I    between atoms: C_14  and  N_15 
REMARK    6  A    between atoms: N_15  and  C_16 
REMARK    7  A    between atoms: C_19  and  O_20 
REMARK    8  A    between atoms: O_20  and  C_21 
ROOT
HETATM    1  C   UNL     1      -5.424   4.371 -29.982  1.00  0.00     0.181 C 
HETATM    2  N   UNL     1      -4.503   5.348 -30.179  1.00  0.00    -0.249 NA
HETATM    3  C   UNL     1      -4.818   6.749 -29.890  1.00  0.00     0.164 C 
HETATM    4  C   UNL     1      -6.280   6.997 -29.640  1.00  0.00     0.134 C 
HETATM    5  C   UNL     1      -6.926   5.795 -29.013  1.00  0.00     0.247 C 
HETATM    6  O   UNL     1      -7.804   5.948 -28.169  1.00  0.00    -0.271 OA
HETATM    7  N   UNL     1      -6.608   4.557 -29.509  1.00  0.00    -0.185 NA
HETATM    8  H   UNL     1      -3.637   5.103 -29.687  1.00  0.00     0.131 HD
ENDROOT
BRANCH   1   9
HETATM    9  N   UNL     1      -4.979   3.117 -30.357  1.00  0.00    -0.353 N 
HETATM   10  C   UNL     1      -4.146   2.870 -31.546  1.00  0.00     0.153 C 
HETATM   11  C   UNL     1      -5.041   2.452 -32.726  1.00  0.00     0.256 C 
HETATM   12  N   UNL     1      -5.845   1.210 -32.339  1.00  0.00    -0.056 N 
HETATM   13  H   UNL     1      -5.158   0.510 -32.045  1.00  0.00     0.281 HD
HETATM   14  C   UNL     1      -6.683   1.476 -31.082  1.00  0.00     0.256 C 
HETATM   15  C   UNL     1      -5.748   1.925 -29.933  1.00  0.00     0.153 C 
BRANCH  12  16
HETATM   16  C   UNL     1      -6.555   0.563 -33.530  1.00  0.00     0.254 C 
BRANCH  16  17
HETATM   17  C   UNL     1      -8.066   0.768 -33.554  1.00  0.00    -0.023 A 
HETATM   18  C   UNL     1      -8.895  -0.161 -32.891  1.00  0.00     0.009 A 
HETATM   19  C   UNL     1     -10.284  -0.029 -32.909  1.00  0.00     0.001 A 
HETATM   20  C   UNL     1     -10.875   1.032 -33.586  1.00  0.00     0.000 A 
HETATM   21  C   UNL     1     -10.076   1.967 -34.239  1.00  0.00     0.001 A 
HETATM   22  C   UNL     1      -8.685   1.838 -34.222  1.00  0.00     0.009 A 
ENDBRANCH  16  17
BRANCH  16  23
HETATM   23  C   UNL     1      -6.016  -0.829 -33.860  1.00  0.00    -0.023 A 
HETATM   24  C   UNL     1      -6.651  -1.718 -34.743  1.00  0.00     0.009 A 
HETATM   25  C   UNL     1      -6.097  -2.970 -35.026  1.00  0.00     0.001 A 
HETATM   26  C   UNL     1      -4.900  -3.360 -34.437  1.00  0.00     0.000 A 
HETATM   27  C   UNL     1      -4.245  -2.495 -33.568  1.00  0.00     0.001 A 
HETATM   28  C   UNL     1      -4.792  -1.241 -33.285  1.00  0.00     0.009 A 
ENDBRANCH  16  23
ENDBRANCH  12  16
ENDBRANCH   1   9
BRANCH   3  29
HETATM   29  C   UNL     1      -3.911   7.242 -28.745  1.00  0.00     0.240 C 
HETATM   30  N   UNL     1      -3.037   8.251 -29.120  1.00  0.00    -0.326 N 
HETATM   31  H   UNL     1      -3.099   8.604 -30.067  1.00  0.00     0.169 HD
HETATM   32  O   UNL     1      -3.928   6.651 -27.665  1.00  0.00    -0.271 OA
BRANCH  30  33
HETATM   33  C   UNL     1      -1.913   8.698 -28.389  1.00  0.00     0.034 A 
HETATM   34  C   UNL     1      -2.070   9.861 -27.622  1.00  0.00     0.032 A 
HETATM   35  C   UNL     1      -0.982  10.422 -26.943  1.00  0.00     0.039 A 
HETATM   36  C   UNL     1       0.263   9.795 -26.988  1.00  0.00     0.076 A 
HETATM   37  C   UNL     1       0.421   8.630 -27.736  1.00  0.00     0.039 A 
HETATM   38  C   UNL     1      -0.662   8.081 -28.430  1.00  0.00     0.032 A 
BRANCH  36  39
HETATM   39  O   UNL     1       1.402  10.305 -26.413  1.00  0.00    -0.311 OA
BRANCH  39  40
HETATM   40  C   UNL     1       1.694   9.990 -25.106  1.00  0.00     0.076 A 
HETATM   41  C   UNL     1       0.964  10.464 -24.013  1.00  0.00     0.037 A 
HETATM   42  C   UNL     1       1.299  10.051 -22.724  1.00  0.00     0.003 A 
HETATM   43  C   UNL     1       2.342   9.145 -22.527  1.00  0.00     0.000 A 
HETATM   44  C   UNL     1       3.050   8.647 -23.620  1.00  0.00     0.003 A 
HETATM   45  C   UNL     1       2.722   9.066 -24.911  1.00  0.00     0.037 A 
ENDBRANCH  39  40
ENDBRANCH  36  39
ENDBRANCH  30  33
ENDBRANCH   3  29
TORSDOF 8
ENDMDL
MODEL 10
REMARK VINA RESULT:     -10.4      5.070      9.609
REMARK  8 active torsions:
REMARK  status: ('A' for Active; 'I' for Inactive)
REMARK    1  A    between atoms: C_4  and  C_5 
REMARK    2  A    between atoms: C_5  and  N_6 
REMARK    3  A    between atoms: C_5  and  C_36 
REMARK    4  A    between atoms: N_10  and  C_11 
REMARK    5  A    between atoms: C_13  and  C_14 
REMARK       I    between atoms: C_14  and  N_15 
REMARK    6  A    between atoms: N_15  and  C_16 
REMARK    7  A    between atoms: C_19  and  O_20 
REMARK    8  A    between atoms: O_20  and  C_21 
ROOT
HETATM    1  C   UNL     1      -5.402   4.184 -30.122  1.00  0.00     0.181 C 
HETATM    2  N   UNL     1      -6.490   4.126 -29.313  1.00  0.00    -0.249 NA
HETATM    3  C   UNL     1      -7.075   5.345 -28.749  1.00  0.00     0.164 C 
HETATM    4  C   UNL     1      -6.211   6.564 -28.926  1.00  0.00     0.134 C 
HETATM    5  C   UNL     1      -5.406   6.469 -30.190  1.00  0.00     0.247 C 
HETATM    6  O   UNL     1      -5.195   7.480 -30.854  1.00  0.00    -0.271 OA
HETATM    7  N   UNL     1      -4.814   5.270 -30.492  1.00  0.00    -0.185 NA
HETATM    8  H   UNL     1      -7.233   3.597 -29.781  1.00  0.00     0.131 HD
ENDROOT
BRANCH   1   9
HETATM    9  N   UNL     1      -4.949   2.941 -30.519  1.00  0.00    -0.353 N 
HETATM   10  C   UNL     1      -4.174   2.711 -31.749  1.00  0.00     0.153 C 
HETATM   11  C   UNL     1      -5.118   2.272 -32.882  1.00  0.00     0.256 C 
HETATM   12  N   UNL     1      -5.873   1.012 -32.454  1.00  0.00    -0.056 N 
HETATM   13  H   UNL     1      -5.156   0.328 -32.196  1.00  0.00     0.281 HD
HETATM   14  C   UNL     1      -6.651   1.261 -31.155  1.00  0.00     0.256 C 
HETATM   15  C   UNL     1      -5.669   1.732 -30.056  1.00  0.00     0.153 C 
BRANCH  12  16
HETATM   16  C   UNL     1      -6.628   0.349 -33.607  1.00  0.00     0.254 C 
BRANCH  16  17
HETATM   17  C   UNL     1      -8.140   0.558 -33.578  1.00  0.00    -0.023 A 
HETATM   18  C   UNL     1      -8.694   1.652 -34.272  1.00  0.00     0.009 A 
HETATM   19  C   UNL     1     -10.068   1.899 -34.252  1.00  0.00     0.001 A 
HETATM   20  C   UNL     1     -10.916   1.056 -33.542  1.00  0.00     0.000 A 
HETATM   21  C   UNL     1     -10.392  -0.037 -32.858  1.00  0.00     0.001 A 
HETATM   22  C   UNL     1      -9.017  -0.286 -32.876  1.00  0.00     0.009 A 
ENDBRANCH  16  17
BRANCH  16  23
HETATM   23  C   UNL     1      -6.106  -1.050 -33.934  1.00  0.00    -0.023 A 
HETATM   24  C   UNL     1      -6.817  -1.983 -34.707  1.00  0.00     0.009 A 
HETATM   25  C   UNL     1      -6.277  -3.240 -34.995  1.00  0.00     0.001 A 
HETATM   26  C   UNL     1      -5.017  -3.591 -34.521  1.00  0.00     0.000 A 
HETATM   27  C   UNL     1      -4.288  -2.683 -33.764  1.00  0.00     0.001 A 
HETATM   28  C   UNL     1      -4.822  -1.424 -33.477  1.00  0.00     0.009 A 
ENDBRANCH  16  23
ENDBRANCH  12  16
ENDBRANCH   1   9
BRANCH   3  29
HETATM   29  C   UNL     1      -8.501   5.522 -29.306  1.00  0.00     0.240 C 
HETATM   30  N   UNL     1      -8.904   4.494 -30.144  1.00  0.00    -0.326 N 
HETATM   31  H   UNL     1      -8.272   3.714 -30.276  1.00  0.00     0.169 HD
HETATM   32  O   UNL     1      -9.108   6.571 -29.089  1.00  0.00    -0.271 OA
BRANCH  30  33
HETATM   33  C   UNL     1     -10.018   4.512 -31.014  1.00  0.00     0.034 A 
HETATM   34  C   UNL     1      -9.817   5.033 -32.300  1.00  0.00     0.032 A 
HETATM   35  C   UNL     1     -10.888   5.172 -33.191  1.00  0.00     0.039 A 
HETATM   36  C   UNL     1     -12.162   4.746 -32.816  1.00  0.00     0.076 A 
HETATM   37  C   UNL     1     -12.365   4.213 -31.545  1.00  0.00     0.039 A 
HETATM   38  C   UNL     1     -11.298   4.092 -30.649  1.00  0.00     0.032 A 
BRANCH  36  39
HETATM   39  O   UNL     1     -13.285   4.905 -33.593  1.00  0.00    -0.311 OA
BRANCH  39  40
HETATM   40  C   UNL     1     -13.446   6.068 -34.310  1.00  0.00     0.076 A 
HETATM   41  C   UNL     1     -13.617   7.324 -33.721  1.00  0.00     0.037 A 
HETATM   42  C   UNL     1     -13.722   8.459 -34.526  1.00  0.00     0.003 A 
HETATM   43  C   UNL     1     -13.628   8.345 -35.914  1.00  0.00     0.000 A 
HETATM   44  C   UNL     1     -13.425   7.096 -36.499  1.00  0.00     0.003 A 
HETATM   45  C   UNL     1     -13.329   5.958 -35.697  1.00  0.00     0.037 A 
ENDBRANCH  39  40
ENDBRANCH  36  39
ENDBRANCH  30  33
ENDBRANCH   3  29
TORSDOF 8
ENDMDL
