MODEL 1
REMARK VINA RESULT:      -8.4      0.000      0.000
REMARK  9 active torsions:
REMARK  status: ('A' for Active; 'I' for Inactive)
REMARK    1  A    between atoms: C_2  and  O_3 
REMARK    2  A    between atoms: O_3  and  C_4 
REMARK    3  A    between atoms: C_7  and  N_8 
REMARK       I    between atoms: N_8  and  C_9 
REMARK    4  A    between atoms: C_9  and  C_10 
REMARK    5  A    between atoms: C_11  and  N_12 
REMARK       I    between atoms: N_12  and  C_13 
REMARK    6  A    between atoms: C_13  and  C_14 
REMARK    7  A    between atoms: C_14  and  N_15 
REMARK    8  A    between atoms: N_15  and  C_18 
REMARK    9  A    between atoms: C_18  and  C_19 
ROOT
HETATM    1  C   UNL     1      -4.736   5.152 -33.139  1.00  0.00     0.073 A 
HETATM    2  C   UNL     1      -5.070   5.830 -31.958  1.00  0.00     0.093 A 
HETATM    3  S   UNL     1      -3.968   7.074 -31.552  1.00  0.00    -0.075 SA
HETATM    4  C   UNL     1      -3.025   6.705 -32.875  1.00  0.00    -0.008 A 
HETATM    5  C   UNL     1      -3.502   5.673 -33.637  1.00  0.00    -0.026 A 
HETATM    6  C   UNL     1      -2.564   5.403 -34.766  1.00  0.00     0.041 C 
HETATM    7  C   UNL     1      -1.287   6.195 -34.352  1.00  0.00     0.010 C 
HETATM    8  C   UNL     1      -1.753   7.293 -33.354  1.00  0.00     0.047 C 
ENDROOT
BRANCH   2   9
HETATM    9  N   UNL     1      -6.161   5.544 -31.147  1.00  0.00    -0.319 N 
HETATM   10  C   UNL     1      -6.140   4.989 -29.889  1.00  0.00     0.248 C 
HETATM   11  O   UNL     1      -5.171   4.713 -29.181  1.00  0.00    -0.271 OA
HETATM   12  H   UNL     1      -7.051   5.823 -31.569  1.00  0.00     0.169 HD
BRANCH  10  13
HETATM   13  C   UNL     1      -7.528   4.713 -29.310  1.00  0.00     0.335 C 
BRANCH  13  14
HETATM   14  N   UNL     1      -7.758   3.219 -29.290  1.00  0.00    -0.059 N 
HETATM   15  H   UNL     1      -7.346   2.901 -28.394  1.00  0.00     0.278 HD
HETATM   16  H   UNL     1      -8.761   3.042 -29.157  1.00  0.00     0.278 HD
BRANCH  14  17
HETATM   17  C   UNL     1      -7.214   2.384 -30.400  1.00  0.00     0.215 C 
HETATM   18  C   UNL     1      -6.348   1.265 -29.823  1.00  0.00     0.045 C 
BRANCH  17  19
HETATM   19  C   UNL     1      -8.296   1.969 -31.374  1.00  0.00    -0.028 A 
HETATM   20  C   UNL     1      -9.005   2.886 -32.165  1.00  0.00     0.009 A 
HETATM   21  C   UNL     1      -9.978   2.446 -33.068  1.00  0.00     0.001 A 
HETATM   22  C   UNL     1     -10.254   1.089 -33.195  1.00  0.00     0.000 A 
HETATM   23  C   UNL     1      -9.561   0.164 -32.421  1.00  0.00     0.001 A 
HETATM   24  C   UNL     1      -8.588   0.599 -31.520  1.00  0.00     0.009 A 
ENDBRANCH  17  19
ENDBRANCH  14  17
ENDBRANCH  13  14
ENDBRANCH  10  13
ENDBRANCH   2   9
BRANCH   1  25
HETATM   25  C   UNL     1      -5.603   4.087 -33.679  1.00  0.00     0.259 C 
HETATM   26  N   UNL     1      -5.204   2.805 -33.366  1.00  0.00    -0.323 N 
HETATM   27  H   UNL     1      -4.357   2.712 -32.828  1.00  0.00     0.169 HD
HETATM   28  O   UNL     1      -6.555   4.388 -34.398  1.00  0.00    -0.267 OA
BRANCH  26  29
HETATM   29  C   UNL     1      -5.759   1.585 -33.802  1.00  0.00     0.035 A 
HETATM   30  C   UNL     1      -6.752   1.472 -34.775  1.00  0.00     0.032 A 
HETATM   31  C   UNL     1      -7.207   0.210 -35.187  1.00  0.00     0.039 A 
HETATM   32  C   UNL     1      -6.670  -0.949 -34.630  1.00  0.00     0.068 A 
HETATM   33  C   UNL     1      -5.707  -0.837 -33.630  1.00  0.00     0.039 A 
HETATM   34  C   UNL     1      -5.252   0.418 -33.220  1.00  0.00     0.032 A 
BRANCH  32  35
HETATM   35  O   UNL     1      -7.008  -2.230 -34.962  1.00  0.00    -0.352 OA
BRANCH  35  36
HETATM   36  C   UNL     1      -6.021  -3.234 -34.731  1.00  0.00     0.171 C 
HETATM   37  C   UNL     1      -6.542  -4.541 -35.302  1.00  0.00     0.034 C 
ENDBRANCH  35  36
ENDBRANCH  32  35
ENDBRANCH  26  29
ENDBRANCH   1  25
TORSDOF 9
ENDMDL
MODEL 2
REMARK VINA RESULT:      -8.2      2.862      6.315
REMARK  9 active torsions:
REMARK  status: ('A' for Active; 'I' for Inactive)
REMARK    1  A    between atoms: C_2  and  O_3 
REMARK    2  A    between atoms: O_3  and  C_4 
REMARK    3  A    between atoms: C_7  and  N_8 
REMARK       I    between atoms: N_8  and  C_9 
REMARK    4  A    between atoms: C_9  and  C_10 
REMARK    5  A    between atoms: C_11  and  N_12 
REMARK       I    between atoms: N_12  and  C_13 
REMARK    6  A    between atoms: C_13  and  C_14 
REMARK    7  A    between atoms: C_14  and  N_15 
REMARK    8  A    between atoms: N_15  and  C_18 
REMARK    9  A    between atoms: C_18  and  C_19 
ROOT
HETATM    1  C   UNL     1     -10.160   1.364 -33.625  1.00  0.00     0.073 A 
HETATM    2  C   UNL     1     -10.001   2.703 -34.008  1.00  0.00     0.093 A 
HETATM    3  S   UNL     1     -11.480   3.498 -34.336  1.00  0.00    -0.075 SA
HETATM    4  C   UNL     1     -12.329   2.097 -34.034  1.00  0.00    -0.008 A 
HETATM    5  C   UNL     1     -11.549   1.029 -33.684  1.00  0.00    -0.026 A 
HETATM    6  C   UNL     1     -12.404  -0.176 -33.477  1.00  0.00     0.041 C 
HETATM    7  C   UNL     1     -13.765   0.254 -34.103  1.00  0.00     0.010 C 
HETATM    8  C   UNL     1     -13.781   1.809 -34.098  1.00  0.00     0.047 C 
ENDROOT
BRANCH   2   9
HETATM    9  N   UNL     1      -8.785   3.361 -34.147  1.00  0.00    -0.319 N 
HETATM   10  C   UNL     1      -8.140   4.124 -33.203  1.00  0.00     0.248 C 
HETATM   11  O   UNL     1      -8.442   4.316 -32.025  1.00  0.00    -0.271 OA
HETATM   12  H   UNL     1      -8.352   3.203 -35.062  1.00  0.00     0.169 HD
BRANCH  10  13
HETATM   13  C   UNL     1      -6.863   4.792 -33.713  1.00  0.00     0.335 C 
BRANCH  13  14
HETATM   14  N   UNL     1      -5.767   3.753 -33.787  1.00  0.00    -0.059 N 
HETATM   15  H   UNL     1      -6.260   2.845 -33.711  1.00  0.00     0.278 HD
HETATM   16  H   UNL     1      -5.395   3.734 -34.744  1.00  0.00     0.278 HD
BRANCH  14  17
HETATM   17  C   UNL     1      -4.660   3.792 -32.787  1.00  0.00     0.215 C 
HETATM   18  C   UNL     1      -4.760   5.073 -31.961  1.00  0.00     0.045 C 
BRANCH  17  19
HETATM   19  C   UNL     1      -4.555   2.494 -32.014  1.00  0.00    -0.028 A 
HETATM   20  C   UNL     1      -3.396   1.703 -32.002  1.00  0.00     0.009 A 
HETATM   21  C   UNL     1      -3.344   0.526 -31.249  1.00  0.00     0.001 A 
HETATM   22  C   UNL     1      -4.444   0.125 -30.498  1.00  0.00     0.000 A 
HETATM   23  C   UNL     1      -5.602   0.896 -30.496  1.00  0.00     0.001 A 
HETATM   24  C   UNL     1      -5.657   2.073 -31.245  1.00  0.00     0.009 A 
ENDBRANCH  17  19
ENDBRANCH  14  17
ENDBRANCH  13  14
ENDBRANCH  10  13
ENDBRANCH   2   9
BRANCH   1  25
HETATM   25  C   UNL     1      -8.999   0.535 -33.244  1.00  0.00     0.259 C 
HETATM   26  N   UNL     1      -8.318  -0.022 -34.306  1.00  0.00    -0.323 N 
HETATM   27  H   UNL     1      -8.683   0.161 -35.227  1.00  0.00     0.169 HD
HETATM   28  O   UNL     1      -8.754   0.347 -32.053  1.00  0.00    -0.267 OA
BRANCH  26  29
HETATM   29  C   UNL     1      -7.237  -0.926 -34.272  1.00  0.00     0.035 A 
HETATM   30  C   UNL     1      -7.340  -2.293 -34.529  1.00  0.00     0.032 A 
HETATM   31  C   UNL     1      -6.198  -3.108 -34.526  1.00  0.00     0.039 A 
HETATM   32  C   UNL     1      -4.943  -2.561 -34.269  1.00  0.00     0.068 A 
HETATM   33  C   UNL     1      -4.842  -1.204 -33.972  1.00  0.00     0.039 A 
HETATM   34  C   UNL     1      -5.977  -0.391 -33.976  1.00  0.00     0.032 A 
BRANCH  32  35
HETATM   35  O   UNL     1      -3.757  -3.240 -34.262  1.00  0.00    -0.352 OA
BRANCH  35  36
HETATM   36  C   UNL     1      -3.607  -4.261 -33.276  1.00  0.00     0.171 C 
HETATM   37  C   UNL     1      -3.074  -3.613 -32.011  1.00  0.00     0.034 C 
ENDBRANCH  35  36
ENDBRANCH  32  35
ENDBRANCH  26  29
ENDBRANCH   1  25
TORSDOF 9
ENDMDL
MODEL 3
REMARK VINA RESULT:      -8.1      3.015      7.664
REMARK  9 active torsions:
REMARK  status: ('A' for Active; 'I' for Inactive)
REMARK    1  A    between atoms: C_2  and  O_3 
REMARK    2  A    between atoms: O_3  and  C_4 
REMARK    3  A    between atoms: C_7  and  N_8 
REMARK       I    between atoms: N_8  and  C_9 
REMARK    4  A    between atoms: C_9  and  C_10 
REMARK    5  A    between atoms: C_11  and  N_12 
REMARK       I    between atoms: N_12  and  C_13 
REMARK    6  A    between atoms: C_13  and  C_14 
REMARK    7  A    between atoms: C_14  and  N_15 
REMARK    8  A    between atoms: N_15  and  C_18 
REMARK    9  A    between atoms: C_18  and  C_19 
ROOT
HETATM    1  C   UNL     1      -6.015  -0.784 -33.956  1.00  0.00     0.073 A 
HETATM    2  C   UNL     1      -4.864  -0.392 -33.257  1.00  0.00     0.093 A 
HETATM    3  S   UNL     1      -3.688  -1.627 -33.135  1.00  0.00    -0.075 SA
HETATM    4  C   UNL     1      -4.685  -2.691 -33.941  1.00  0.00    -0.008 A 
HETATM    5  C   UNL     1      -5.890  -2.161 -34.316  1.00  0.00    -0.026 A 
HETATM    6  C   UNL     1      -6.715  -3.206 -34.989  1.00  0.00     0.041 C 
HETATM    7  C   UNL     1      -5.958  -4.523 -34.638  1.00  0.00     0.010 C 
HETATM    8  C   UNL     1      -4.496  -4.115 -34.301  1.00  0.00     0.047 C 
ENDROOT
BRANCH   2   9
HETATM    9  N   UNL     1      -4.659   0.856 -32.681  1.00  0.00    -0.319 N 
HETATM   10  C   UNL     1      -4.685   1.167 -31.341  1.00  0.00     0.248 C 
HETATM   11  O   UNL     1      -4.802   0.414 -30.374  1.00  0.00    -0.271 OA
HETATM   12  H   UNL     1      -4.441   1.580 -33.371  1.00  0.00     0.169 HD
BRANCH  10  13
HETATM   13  C   UNL     1      -4.518   2.658 -31.049  1.00  0.00     0.335 C 
BRANCH  13  14
HETATM   14  N   UNL     1      -3.060   3.026 -31.213  1.00  0.00    -0.059 N 
HETATM   15  H   UNL     1      -2.803   3.488 -30.321  1.00  0.00     0.278 HD
HETATM   16  H   UNL     1      -2.499   2.165 -31.195  1.00  0.00     0.278 HD
BRANCH  14  17
HETATM   17  C   UNL     1      -2.655   3.901 -32.351  1.00  0.00     0.215 C 
HETATM   18  C   UNL     1      -3.901   4.437 -33.054  1.00  0.00     0.045 C 
BRANCH  17  19
HETATM   19  C   UNL     1      -1.622   4.926 -31.931  1.00  0.00    -0.028 A 
HETATM   20  C   UNL     1      -0.786   4.755 -30.815  1.00  0.00     0.009 A 
HETATM   21  C   UNL     1       0.170   5.721 -30.487  1.00  0.00     0.001 A 
HETATM   22  C   UNL     1       0.308   6.865 -31.266  1.00  0.00     0.000 A 
HETATM   23  C   UNL     1      -0.510   7.051 -32.377  1.00  0.00     0.001 A 
HETATM   24  C   UNL     1      -1.464   6.089 -32.709  1.00  0.00     0.009 A 
ENDBRANCH  17  19
ENDBRANCH  14  17
ENDBRANCH  13  14
ENDBRANCH  10  13
ENDBRANCH   2   9
BRANCH   1  25
HETATM   25  C   UNL     1      -7.114   0.168 -34.213  1.00  0.00     0.259 C 
HETATM   26  N   UNL     1      -7.988   0.336 -33.160  1.00  0.00    -0.323 N 
HETATM   27  H   UNL     1      -7.816  -0.215 -32.335  1.00  0.00     0.169 HD
HETATM   28  O   UNL     1      -7.217   0.687 -35.324  1.00  0.00    -0.267 OA
BRANCH  26  29
HETATM   29  C   UNL     1      -9.175   1.095 -33.123  1.00  0.00     0.035 A 
HETATM   30  C   UNL     1      -9.237   2.452 -32.808  1.00  0.00     0.032 A 
HETATM   31  C   UNL     1     -10.460   3.140 -32.851  1.00  0.00     0.039 A 
HETATM   32  C   UNL     1     -11.630   2.475 -33.210  1.00  0.00     0.068 A 
HETATM   33  C   UNL     1     -11.578   1.110 -33.485  1.00  0.00     0.039 A 
HETATM   34  C   UNL     1     -10.362   0.425 -33.446  1.00  0.00     0.032 A 
BRANCH  32  35
HETATM   35  O   UNL     1     -12.872   3.034 -33.312  1.00  0.00    -0.352 OA
BRANCH  35  36
HETATM   36  C   UNL     1     -13.986   2.155 -33.160  1.00  0.00     0.171 C 
HETATM   37  C   UNL     1     -14.777   2.609 -31.947  1.00  0.00     0.034 C 
ENDBRANCH  35  36
ENDBRANCH  32  35
ENDBRANCH  26  29
ENDBRANCH   1  25
TORSDOF 9
ENDMDL
MODEL 4
REMARK VINA RESULT:      -8.1      2.765      6.879
REMARK  9 active torsions:
REMARK  status: ('A' for Active; 'I' for Inactive)
REMARK    1  A    between atoms: C_2  and  O_3 
REMARK    2  A    between atoms: O_3  and  C_4 
REMARK    3  A    between atoms: C_7  and  N_8 
REMARK       I    between atoms: N_8  and  C_9 
REMARK    4  A    between atoms: C_9  and  C_10 
REMARK    5  A    between atoms: C_11  and  N_12 
REMARK       I    between atoms: N_12  and  C_13 
REMARK    6  A    between atoms: C_13  and  C_14 
REMARK    7  A    between atoms: C_14  and  N_15 
REMARK    8  A    between atoms: N_15  and  C_18 
REMARK    9  A    between atoms: C_18  and  C_19 
ROOT
HETATM    1  C   UNL     1      -5.842  -0.440 -33.465  1.00  0.00     0.073 A 
HETATM    2  C   UNL     1      -4.848  -0.128 -32.527  1.00  0.00     0.093 A 
HETATM    3  S   UNL     1      -3.633  -1.325 -32.399  1.00  0.00    -0.075 SA
HETATM    4  C   UNL     1      -4.418  -2.277 -33.518  1.00  0.00    -0.008 A 
HETATM    5  C   UNL     1      -5.575  -1.735 -34.007  1.00  0.00    -0.026 A 
HETATM    6  C   UNL     1      -6.213  -2.684 -34.965  1.00  0.00     0.041 C 
HETATM    7  C   UNL     1      -5.444  -4.014 -34.699  1.00  0.00     0.010 C 
HETATM    8  C   UNL     1      -4.085  -3.616 -34.057  1.00  0.00     0.047 C 
ENDROOT
BRANCH   2   9
HETATM    9  N   UNL     1      -4.817   1.015 -31.738  1.00  0.00    -0.319 N 
HETATM   10  C   UNL     1      -5.552   1.261 -30.602  1.00  0.00     0.248 C 
HETATM   11  O   UNL     1      -6.315   0.509 -29.996  1.00  0.00    -0.271 OA
HETATM   12  H   UNL     1      -4.135   1.705 -32.067  1.00  0.00     0.169 HD
BRANCH  10  13
HETATM   13  C   UNL     1      -5.352   2.664 -30.027  1.00  0.00     0.335 C 
BRANCH  13  14
HETATM   14  N   UNL     1      -4.240   3.348 -30.789  1.00  0.00    -0.059 N 
HETATM   15  H   UNL     1      -3.483   3.476 -30.092  1.00  0.00     0.278 HD
HETATM   16  H   UNL     1      -3.832   2.677 -31.450  1.00  0.00     0.278 HD
BRANCH  14  17
HETATM   17  C   UNL     1      -4.513   4.654 -31.457  1.00  0.00     0.215 C 
HETATM   18  C   UNL     1      -4.467   5.779 -30.423  1.00  0.00     0.045 C 
BRANCH  17  19
HETATM   19  C   UNL     1      -3.662   4.840 -32.696  1.00  0.00    -0.028 A 
HETATM   20  C   UNL     1      -4.204   5.121 -33.960  1.00  0.00     0.009 A 
HETATM   21  C   UNL     1      -3.370   5.310 -35.066  1.00  0.00     0.001 A 
HETATM   22  C   UNL     1      -1.989   5.222 -34.928  1.00  0.00     0.000 A 
HETATM   23  C   UNL     1      -1.433   4.946 -33.682  1.00  0.00     0.001 A 
HETATM   24  C   UNL     1      -2.261   4.759 -32.575  1.00  0.00     0.009 A 
ENDBRANCH  17  19
ENDBRANCH  14  17
ENDBRANCH  13  14
ENDBRANCH  10  13
ENDBRANCH   2   9
BRANCH   1  25
HETATM   25  C   UNL     1      -6.941   0.503 -33.756  1.00  0.00     0.259 C 
HETATM   26  N   UNL     1      -7.991   0.455 -32.864  1.00  0.00    -0.323 N 
HETATM   27  H   UNL     1      -7.927  -0.224 -32.122  1.00  0.00     0.169 HD
HETATM   28  O   UNL     1      -6.887   1.201 -34.767  1.00  0.00    -0.267 OA
BRANCH  26  29
HETATM   29  C   UNL     1      -9.214   1.154 -32.917  1.00  0.00     0.035 A 
HETATM   30  C   UNL     1      -9.374   2.496 -32.572  1.00  0.00     0.032 A 
HETATM   31  C   UNL     1     -10.622   3.124 -32.709  1.00  0.00     0.039 A 
HETATM   32  C   UNL     1     -11.718   2.414 -33.194  1.00  0.00     0.068 A 
HETATM   33  C   UNL     1     -11.571   1.064 -33.500  1.00  0.00     0.039 A 
HETATM   34  C   UNL     1     -10.330   0.438 -33.367  1.00  0.00     0.032 A 
BRANCH  32  35
HETATM   35  O   UNL     1     -12.973   2.915 -33.396  1.00  0.00    -0.352 OA
BRANCH  35  36
HETATM   36  C   UNL     1     -14.053   1.985 -33.341  1.00  0.00     0.171 C 
HETATM   37  C   UNL     1     -14.923   2.348 -32.151  1.00  0.00     0.034 C 
ENDBRANCH  35  36
ENDBRANCH  32  35
ENDBRANCH  26  29
ENDBRANCH   1  25
TORSDOF 9
ENDMDL
MODEL 5
REMARK VINA RESULT:      -7.9      2.898      6.421
REMARK  9 active torsions:
REMARK  status: ('A' for Active; 'I' for Inactive)
REMARK    1  A    between atoms: C_2  and  O_3 
REMARK    2  A    between atoms: O_3  and  C_4 
REMARK    3  A    between atoms: C_7  and  N_8 
REMARK       I    between atoms: N_8  and  C_9 
REMARK    4  A    between atoms: C_9  and  C_10 
REMARK    5  A    between atoms: C_11  and  N_12 
REMARK       I    between atoms: N_12  and  C_13 
REMARK    6  A    between atoms: C_13  and  C_14 
REMARK    7  A    between atoms: C_14  and  N_15 
REMARK    8  A    between atoms: N_15  and  C_18 
REMARK    9  A    between atoms: C_18  and  C_19 
ROOT
HETATM    1  C   UNL     1      -5.919  -0.858 -34.104  1.00  0.00     0.073 A 
HETATM    2  C   UNL     1      -4.875  -0.376 -33.302  1.00  0.00     0.093 A 
HETATM    3  S   UNL     1      -3.662  -1.541 -32.991  1.00  0.00    -0.075 SA
HETATM    4  C   UNL     1      -4.509  -2.690 -33.850  1.00  0.00    -0.008 A 
HETATM    5  C   UNL     1      -5.688  -2.241 -34.382  1.00  0.00    -0.026 A 
HETATM    6  C   UNL     1      -6.380  -3.356 -35.091  1.00  0.00     0.041 C 
HETATM    7  C   UNL     1      -5.605  -4.615 -34.597  1.00  0.00     0.010 C 
HETATM    8  C   UNL     1      -4.212  -4.116 -34.119  1.00  0.00     0.047 C 
ENDROOT
BRANCH   2   9
HETATM    9  N   UNL     1      -4.797   0.903 -32.766  1.00  0.00    -0.319 N 
HETATM   10  C   UNL     1      -4.902   1.258 -31.442  1.00  0.00     0.248 C 
HETATM   11  O   UNL     1      -4.994   0.533 -30.451  1.00  0.00    -0.271 OA
HETATM   12  H   UNL     1      -4.612   1.618 -33.475  1.00  0.00     0.169 HD
BRANCH  10  13
HETATM   13  C   UNL     1      -4.870   2.768 -31.200  1.00  0.00     0.335 C 
BRANCH  13  14
HETATM   14  N   UNL     1      -5.755   3.442 -32.224  1.00  0.00    -0.059 N 
HETATM   15  H   UNL     1      -5.122   3.658 -33.017  1.00  0.00     0.278 HD
HETATM   16  H   UNL     1      -6.391   2.742 -32.622  1.00  0.00     0.278 HD
BRANCH  14  17
HETATM   17  C   UNL     1      -6.497   4.679 -31.842  1.00  0.00     0.215 C 
HETATM   18  C   UNL     1      -6.276   5.758 -32.901  1.00  0.00     0.045 C 
BRANCH  17  19
HETATM   19  C   UNL     1      -7.933   4.380 -31.470  1.00  0.00    -0.028 A 
HETATM   20  C   UNL     1      -8.323   3.204 -30.809  1.00  0.00     0.009 A 
HETATM   21  C   UNL     1      -9.661   2.990 -30.465  1.00  0.00     0.001 A 
HETATM   22  C   UNL     1     -10.626   3.943 -30.774  1.00  0.00     0.000 A 
HETATM   23  C   UNL     1     -10.259   5.115 -31.428  1.00  0.00     0.001 A 
HETATM   24  C   UNL     1      -8.925   5.334 -31.770  1.00  0.00     0.009 A 
ENDBRANCH  17  19
ENDBRANCH  14  17
ENDBRANCH  13  14
ENDBRANCH  10  13
ENDBRANCH   2   9
BRANCH   1  25
HETATM   25  C   UNL     1      -7.026   0.022 -34.527  1.00  0.00     0.259 C 
HETATM   26  N   UNL     1      -7.984   0.246 -33.560  1.00  0.00    -0.323 N 
HETATM   27  H   UNL     1      -7.858  -0.223 -32.678  1.00  0.00     0.169 HD
HETATM   28  O   UNL     1      -7.061   0.437 -35.684  1.00  0.00    -0.267 OA
BRANCH  26  29
HETATM   29  C   UNL     1      -9.196   0.956 -33.680  1.00  0.00     0.035 A 
HETATM   30  C   UNL     1      -9.313   2.236 -34.222  1.00  0.00     0.032 A 
HETATM   31  C   UNL     1     -10.570   2.845 -34.352  1.00  0.00     0.039 A 
HETATM   32  C   UNL     1     -11.722   2.176 -33.941  1.00  0.00     0.068 A 
HETATM   33  C   UNL     1     -11.604   0.916 -33.361  1.00  0.00     0.039 A 
HETATM   34  C   UNL     1     -10.354   0.307 -33.234  1.00  0.00     0.032 A 
BRANCH  32  35
HETATM   35  O   UNL     1     -13.001   2.648 -34.036  1.00  0.00    -0.352 OA
BRANCH  35  36
HETATM   36  C   UNL     1     -13.558   3.234 -32.861  1.00  0.00     0.171 C 
HETATM   37  C   UNL     1     -14.777   2.420 -32.466  1.00  0.00     0.034 C 
ENDBRANCH  35  36
ENDBRANCH  32  35
ENDBRANCH  26  29
ENDBRANCH   1  25
TORSDOF 9
ENDMDL
MODEL 6
REMARK VINA RESULT:      -7.8      3.080      7.723
REMARK  9 active torsions:
REMARK  status: ('A' for Active; 'I' for Inactive)
REMARK    1  A    between atoms: C_2  and  O_3 
REMARK    2  A    between atoms: O_3  and  C_4 
REMARK    3  A    between atoms: C_7  and  N_8 
REMARK       I    between atoms: N_8  and  C_9 
REMARK    4  A    between atoms: C_9  and  C_10 
REMARK    5  A    between atoms: C_11  and  N_12 
REMARK       I    between atoms: N_12  and  C_13 
REMARK    6  A    between atoms: C_13  and  C_14 
REMARK    7  A    between atoms: C_14  and  N_15 
REMARK    8  A    between atoms: N_15  and  C_18 
REMARK    9  A    between atoms: C_18  and  C_19 
ROOT
HETATM    1  C   UNL     1      -6.385  -0.635 -33.052  1.00  0.00     0.073 A 
HETATM    2  C   UNL     1      -5.149  -0.166 -32.586  1.00  0.00     0.093 A 
HETATM    3  S   UNL     1      -3.815  -1.058 -33.178  1.00  0.00    -0.075 SA
HETATM    4  C   UNL     1      -4.835  -2.088 -33.997  1.00  0.00    -0.008 A 
HETATM    5  C   UNL     1      -6.164  -1.795 -33.858  1.00  0.00    -0.026 A 
HETATM    6  C   UNL     1      -6.984  -2.800 -34.596  1.00  0.00     0.041 C 
HETATM    7  C   UNL     1      -5.955  -3.931 -34.897  1.00  0.00     0.010 C 
HETATM    8  C   UNL     1      -4.547  -3.275 -34.835  1.00  0.00     0.047 C 
ENDROOT
BRANCH   2   9
HETATM    9  N   UNL     1      -4.971   0.899 -31.711  1.00  0.00    -0.319 N 
HETATM   10  C   UNL     1      -4.977   2.239 -32.020  1.00  0.00     0.248 C 
HETATM   11  O   UNL     1      -5.226   2.784 -33.095  1.00  0.00    -0.271 OA
HETATM   12  H   UNL     1      -4.855   0.597 -30.739  1.00  0.00     0.169 HD
BRANCH  10  13
HETATM   13  C   UNL     1      -4.650   3.149 -30.835  1.00  0.00     0.335 C 
BRANCH  13  14
HETATM   14  N   UNL     1      -3.314   3.811 -31.084  1.00  0.00    -0.059 N 
HETATM   15  H   UNL     1      -2.744   3.577 -30.251  1.00  0.00     0.278 HD
HETATM   16  H   UNL     1      -2.833   3.309 -31.840  1.00  0.00     0.278 HD
BRANCH  14  17
HETATM   17  C   UNL     1      -3.264   5.285 -31.310  1.00  0.00     0.215 C 
HETATM   18  C   UNL     1      -4.509   5.938 -30.711  1.00  0.00     0.045 C 
BRANCH  17  19
HETATM   19  C   UNL     1      -1.930   5.871 -30.901  1.00  0.00    -0.028 A 
HETATM   20  C   UNL     1      -0.700   5.331 -31.310  1.00  0.00     0.009 A 
HETATM   21  C   UNL     1       0.504   5.928 -30.924  1.00  0.00     0.001 A 
HETATM   22  C   UNL     1       0.499   7.070 -30.130  1.00  0.00     0.000 A 
HETATM   23  C   UNL     1      -0.710   7.621 -29.716  1.00  0.00     0.001 A 
HETATM   24  C   UNL     1      -1.914   7.030 -30.100  1.00  0.00     0.009 A 
ENDBRANCH  17  19
ENDBRANCH  14  17
ENDBRANCH  13  14
ENDBRANCH  10  13
ENDBRANCH   2   9
BRANCH   1  25
HETATM   25  C   UNL     1      -7.644   0.047 -32.695  1.00  0.00     0.259 C 
HETATM   26  N   UNL     1      -8.436   0.393 -33.770  1.00  0.00    -0.323 N 
HETATM   27  H   UNL     1      -8.077   0.176 -34.686  1.00  0.00     0.169 HD
HETATM   28  O   UNL     1      -7.876   0.311 -31.516  1.00  0.00    -0.267 OA
BRANCH  26  29
HETATM   29  C   UNL     1      -9.639   1.127 -33.768  1.00  0.00     0.035 A 
HETATM   30  C   UNL     1     -10.902   0.576 -33.546  1.00  0.00     0.032 A 
HETATM   31  C   UNL     1     -12.041   1.394 -33.508  1.00  0.00     0.039 A 
HETATM   32  C   UNL     1     -11.926   2.770 -33.690  1.00  0.00     0.068 A 
HETATM   33  C   UNL     1     -10.673   3.318 -33.953  1.00  0.00     0.039 A 
HETATM   34  C   UNL     1      -9.537   2.505 -33.989  1.00  0.00     0.032 A 
BRANCH  32  35
HETATM   35  O   UNL     1     -12.950   3.673 -33.651  1.00  0.00    -0.352 OA
BRANCH  35  36
HETATM   36  C   UNL     1     -14.078   3.331 -32.848  1.00  0.00     0.171 C 
HETATM   37  C   UNL     1     -13.852   3.900 -31.459  1.00  0.00     0.034 C 
ENDBRANCH  35  36
ENDBRANCH  32  35
ENDBRANCH  26  29
ENDBRANCH   1  25
TORSDOF 9
ENDMDL
MODEL 7
REMARK VINA RESULT:      -7.7      1.727      2.510
REMARK  9 active torsions:
REMARK  status: ('A' for Active; 'I' for Inactive)
REMARK    1  A    between atoms: C_2  and  O_3 
REMARK    2  A    between atoms: O_3  and  C_4 
REMARK    3  A    between atoms: C_7  and  N_8 
REMARK       I    between atoms: N_8  and  C_9 
REMARK    4  A    between atoms: C_9  and  C_10 
REMARK    5  A    between atoms: C_11  and  N_12 
REMARK       I    between atoms: N_12  and  C_13 
REMARK    6  A    between atoms: C_13  and  C_14 
REMARK    7  A    between atoms: C_14  and  N_15 
REMARK    8  A    between atoms: N_15  and  C_18 
REMARK    9  A    between atoms: C_18  and  C_19 
ROOT
HETATM    1  C   UNL     1      -4.687   5.115 -32.864  1.00  0.00     0.073 A 
HETATM    2  C   UNL     1      -5.463   6.221 -32.490  1.00  0.00     0.093 A 
HETATM    3  S   UNL     1      -4.607   7.367 -31.553  1.00  0.00    -0.075 SA
HETATM    4  C   UNL     1      -3.243   6.411 -31.582  1.00  0.00    -0.008 A 
HETATM    5  C   UNL     1      -3.388   5.243 -32.281  1.00  0.00    -0.026 A 
HETATM    6  C   UNL     1      -2.127   4.450 -32.208  1.00  0.00     0.041 C 
HETATM    7  C   UNL     1      -1.337   5.161 -31.068  1.00  0.00     0.010 C 
HETATM    8  C   UNL     1      -1.910   6.603 -30.966  1.00  0.00     0.047 C 
ENDROOT
BRANCH   2   9
HETATM    9  N   UNL     1      -6.804   6.406 -32.803  1.00  0.00    -0.319 N 
HETATM   10  C   UNL     1      -7.890   6.118 -32.010  1.00  0.00     0.248 C 
HETATM   11  O   UNL     1      -7.914   5.729 -30.842  1.00  0.00    -0.271 OA
HETATM   12  H   UNL     1      -6.940   6.831 -33.725  1.00  0.00     0.169 HD
BRANCH  10  13
HETATM   13  C   UNL     1      -9.237   6.349 -32.696  1.00  0.00     0.335 C 
BRANCH  13  14
HETATM   14  N   UNL     1      -9.536   5.166 -33.589  1.00  0.00    -0.059 N 
HETATM   15  H   UNL     1      -9.700   5.579 -34.526  1.00  0.00     0.278 HD
HETATM   16  H   UNL     1      -8.672   4.628 -33.723  1.00  0.00     0.278 HD
BRANCH  14  17
HETATM   17  C   UNL     1     -10.676   4.266 -33.246  1.00  0.00     0.215 C 
HETATM   18  C   UNL     1     -11.743   4.353 -34.336  1.00  0.00     0.045 C 
BRANCH  17  19
HETATM   19  C   UNL     1     -10.202   2.878 -32.872  1.00  0.00    -0.028 A 
HETATM   20  C   UNL     1      -9.263   2.639 -31.856  1.00  0.00     0.009 A 
HETATM   21  C   UNL     1      -8.880   1.334 -31.533  1.00  0.00     0.001 A 
HETATM   22  C   UNL     1      -9.427   0.252 -32.215  1.00  0.00     0.000 A 
HETATM   23  C   UNL     1     -10.361   0.469 -33.224  1.00  0.00     0.001 A 
HETATM   24  C   UNL     1     -10.748   1.770 -33.548  1.00  0.00     0.009 A 
ENDBRANCH  17  19
ENDBRANCH  14  17
ENDBRANCH  13  14
ENDBRANCH  10  13
ENDBRANCH   2   9
BRANCH   1  25
HETATM   25  C   UNL     1      -5.239   4.051 -33.727  1.00  0.00     0.259 C 
HETATM   26  N   UNL     1      -5.537   2.876 -33.071  1.00  0.00    -0.323 N 
HETATM   27  H   UNL     1      -5.330   2.841 -32.085  1.00  0.00     0.169 HD
HETATM   28  O   UNL     1      -5.339   4.245 -34.938  1.00  0.00    -0.267 OA
BRANCH  26  29
HETATM   29  C   UNL     1      -5.985   1.658 -33.621  1.00  0.00     0.035 A 
HETATM   30  C   UNL     1      -6.888   1.553 -34.679  1.00  0.00     0.032 A 
HETATM   31  C   UNL     1      -7.236   0.297 -35.198  1.00  0.00     0.039 A 
HETATM   32  C   UNL     1      -6.680  -0.865 -34.665  1.00  0.00     0.068 A 
HETATM   33  C   UNL     1      -5.810  -0.765 -33.582  1.00  0.00     0.039 A 
HETATM   34  C   UNL     1      -5.461   0.484 -33.065  1.00  0.00     0.032 A 
BRANCH  32  35
HETATM   35  O   UNL     1      -6.917  -2.139 -35.096  1.00  0.00    -0.352 OA
BRANCH  35  36
HETATM   36  C   UNL     1      -5.931  -3.119 -34.776  1.00  0.00     0.171 C 
HETATM   37  C   UNL     1      -6.498  -4.483 -35.124  1.00  0.00     0.034 C 
ENDBRANCH  35  36
ENDBRANCH  32  35
ENDBRANCH  26  29
ENDBRANCH   1  25
TORSDOF 9
ENDMDL
MODEL 8
REMARK VINA RESULT:      -7.6      2.380      3.278
REMARK  9 active torsions:
REMARK  status: ('A' for Active; 'I' for Inactive)
REMARK    1  A    between atoms: C_2  and  O_3 
REMARK    2  A    between atoms: O_3  and  C_4 
REMARK    3  A    between atoms: C_7  and  N_8 
REMARK       I    between atoms: N_8  and  C_9 
REMARK    4  A    between atoms: C_9  and  C_10 
REMARK    5  A    between atoms: C_11  and  N_12 
REMARK       I    between atoms: N_12  and  C_13 
REMARK    6  A    between atoms: C_13  and  C_14 
REMARK    7  A    between atoms: C_14  and  N_15 
REMARK    8  A    between atoms: N_15  and  C_18 
REMARK    9  A    between atoms: C_18  and  C_19 
ROOT
HETATM    1  C   UNL     1      -2.725   5.154 -31.194  1.00  0.00     0.073 A 
HETATM    2  C   UNL     1      -3.720   6.124 -31.009  1.00  0.00     0.093 A 
HETATM    3  S   UNL     1      -3.150   7.546 -30.247  1.00  0.00    -0.075 SA
HETATM    4  C   UNL     1      -1.626   6.889 -30.105  1.00  0.00    -0.008 A 
HETATM    5  C   UNL     1      -1.506   5.626 -30.616  1.00  0.00    -0.026 A 
HETATM    6  C   UNL     1      -0.118   5.121 -30.400  1.00  0.00     0.041 C 
HETATM    7  C   UNL     1       0.462   6.138 -29.371  1.00  0.00     0.010 C 
HETATM    8  C   UNL     1      -0.386   7.434 -29.504  1.00  0.00     0.047 C 
ENDROOT
BRANCH   2   9
HETATM    9  N   UNL     1      -5.055   5.987 -31.369  1.00  0.00    -0.319 N 
HETATM   10  C   UNL     1      -5.573   5.953 -32.643  1.00  0.00     0.248 C 
HETATM   11  O   UNL     1      -4.978   5.944 -33.720  1.00  0.00    -0.271 OA
HETATM   12  H   UNL     1      -5.673   5.876 -30.561  1.00  0.00     0.169 HD
BRANCH  10  13
HETATM   13  C   UNL     1      -7.100   5.892 -32.688  1.00  0.00     0.335 C 
BRANCH  13  14
HETATM   14  N   UNL     1      -7.519   4.517 -33.156  1.00  0.00    -0.059 N 
HETATM   15  H   UNL     1      -8.553   4.557 -33.197  1.00  0.00     0.278 HD
HETATM   16  H   UNL     1      -7.253   4.409 -34.142  1.00  0.00     0.278 HD
BRANCH  14  17
HETATM   17  C   UNL     1      -7.107   3.322 -32.361  1.00  0.00     0.215 C 
HETATM   18  C   UNL     1      -7.719   3.401 -30.963  1.00  0.00     0.045 C 
BRANCH  17  19
HETATM   19  C   UNL     1      -7.331   2.035 -33.126  1.00  0.00    -0.028 A 
HETATM   20  C   UNL     1      -8.247   1.053 -32.717  1.00  0.00     0.009 A 
HETATM   21  C   UNL     1      -8.434  -0.107 -33.476  1.00  0.00     0.001 A 
HETATM   22  C   UNL     1      -7.714  -0.301 -34.650  1.00  0.00     0.000 A 
HETATM   23  C   UNL     1      -6.803   0.662 -35.073  1.00  0.00     0.001 A 
HETATM   24  C   UNL     1      -6.615   1.822 -34.320  1.00  0.00     0.009 A 
ENDBRANCH  17  19
ENDBRANCH  14  17
ENDBRANCH  13  14
ENDBRANCH  10  13
ENDBRANCH   2   9
BRANCH   1  25
HETATM   25  C   UNL     1      -3.017   3.885 -31.889  1.00  0.00     0.259 C 
HETATM   26  N   UNL     1      -3.628   2.927 -31.108  1.00  0.00    -0.323 N 
HETATM   27  H   UNL     1      -3.794   3.167 -30.143  1.00  0.00     0.169 HD
HETATM   28  O   UNL     1      -2.658   3.738 -33.057  1.00  0.00    -0.267 OA
BRANCH  26  29
HETATM   29  C   UNL     1      -3.948   1.597 -31.446  1.00  0.00     0.035 A 
HETATM   30  C   UNL     1      -4.944   0.841 -30.827  1.00  0.00     0.032 A 
HETATM   31  C   UNL     1      -5.231  -0.459 -31.269  1.00  0.00     0.039 A 
HETATM   32  C   UNL     1      -4.525  -1.014 -32.334  1.00  0.00     0.068 A 
HETATM   33  C   UNL     1      -3.502  -0.277 -32.926  1.00  0.00     0.039 A 
HETATM   34  C   UNL     1      -3.217   1.019 -32.490  1.00  0.00     0.032 A 
BRANCH  32  35
HETATM   35  O   UNL     1      -4.725  -2.254 -32.871  1.00  0.00    -0.352 OA
BRANCH  35  36
HETATM   36  C   UNL     1      -4.622  -2.363 -34.290  1.00  0.00     0.171 C 
HETATM   37  C   UNL     1      -5.615  -3.416 -34.750  1.00  0.00     0.034 C 
ENDBRANCH  35  36
ENDBRANCH  32  35
ENDBRANCH  26  29
ENDBRANCH   1  25
TORSDOF 9
ENDMDL
MODEL 9
REMARK VINA RESULT:      -7.6      2.898      6.894
REMARK  9 active torsions:
REMARK  status: ('A' for Active; 'I' for Inactive)
REMARK    1  A    between atoms: C_2  and  O_3 
REMARK    2  A    between atoms: O_3  and  C_4 
REMARK    3  A    between atoms: C_7  and  N_8 
REMARK       I    between atoms: N_8  and  C_9 
REMARK    4  A    between atoms: C_9  and  C_10 
REMARK    5  A    between atoms: C_11  and  N_12 
REMARK       I    between atoms: N_12  and  C_13 
REMARK    6  A    between atoms: C_13  and  C_14 
REMARK    7  A    between atoms: C_14  and  N_15 
REMARK    8  A    between atoms: N_15  and  C_18 
REMARK    9  A    between atoms: C_18  and  C_19 
ROOT
HETATM    1  C   UNL     1      -8.695   3.593 -33.933  1.00  0.00     0.073 A 
HETATM    2  C   UNL     1      -8.809   2.197 -33.877  1.00  0.00     0.093 A 
HETATM    3  S   UNL     1     -10.308   1.613 -34.457  1.00  0.00    -0.075 SA
HETATM    4  C   UNL     1     -10.836   3.168 -34.732  1.00  0.00    -0.008 A 
HETATM    5  C   UNL     1      -9.926   4.138 -34.411  1.00  0.00    -0.026 A 
HETATM    6  C   UNL     1     -10.515   5.487 -34.658  1.00  0.00     0.041 C 
HETATM    7  C   UNL     1     -12.032   5.174 -34.836  1.00  0.00     0.010 C 
HETATM    8  C   UNL     1     -12.129   3.678 -35.247  1.00  0.00     0.047 C 
ENDROOT
BRANCH   2   9
HETATM    9  N   UNL     1      -7.840   1.329 -33.388  1.00  0.00    -0.319 N 
HETATM   10  C   UNL     1      -7.462   1.160 -32.076  1.00  0.00     0.248 C 
HETATM   11  O   UNL     1      -7.946   1.660 -31.061  1.00  0.00    -0.271 OA
HETATM   12  H   UNL     1      -7.414   0.757 -34.122  1.00  0.00     0.169 HD
BRANCH  10  13
HETATM   13  C   UNL     1      -6.292   0.193 -31.889  1.00  0.00     0.335 C 
BRANCH  13  14
HETATM   14  N   UNL     1      -5.561   0.053 -33.205  1.00  0.00    -0.059 N 
HETATM   15  H   UNL     1      -6.299  -0.192 -33.891  1.00  0.00     0.278 HD
HETATM   16  H   UNL     1      -5.260   0.985 -33.515  1.00  0.00     0.278 HD
BRANCH  14  17
HETATM   17  C   UNL     1      -4.446  -0.932 -33.316  1.00  0.00     0.215 C 
HETATM   18  C   UNL     1      -3.659  -0.964 -32.007  1.00  0.00     0.045 C 
BRANCH  17  19
HETATM   19  C   UNL     1      -4.925  -2.265 -33.851  1.00  0.00    -0.028 A 
HETATM   20  C   UNL     1      -4.145  -3.431 -33.805  1.00  0.00     0.009 A 
HETATM   21  C   UNL     1      -4.647  -4.643 -34.290  1.00  0.00     0.001 A 
HETATM   22  C   UNL     1      -5.929  -4.708 -34.823  1.00  0.00     0.000 A 
HETATM   23  C   UNL     1      -6.718  -3.563 -34.876  1.00  0.00     0.001 A 
HETATM   24  C   UNL     1      -6.222  -2.352 -34.391  1.00  0.00     0.009 A 
ENDBRANCH  17  19
ENDBRANCH  14  17
ENDBRANCH  13  14
ENDBRANCH  10  13
ENDBRANCH   2   9
BRANCH   1  25
HETATM   25  C   UNL     1      -7.448   4.273 -33.531  1.00  0.00     0.259 C 
HETATM   26  N   UNL     1      -6.318   3.841 -34.191  1.00  0.00    -0.323 N 
HETATM   27  H   UNL     1      -6.438   3.095 -34.857  1.00  0.00     0.169 HD
HETATM   28  O   UNL     1      -7.478   5.107 -32.626  1.00  0.00    -0.267 OA
BRANCH  26  29
HETATM   29  C   UNL     1      -4.978   4.221 -33.972  1.00  0.00     0.035 A 
HETATM   30  C   UNL     1      -4.280   5.144 -34.751  1.00  0.00     0.032 A 
HETATM   31  C   UNL     1      -2.964   5.503 -34.424  1.00  0.00     0.039 A 
HETATM   32  C   UNL     1      -2.336   4.944 -33.314  1.00  0.00     0.068 A 
HETATM   33  C   UNL     1      -3.016   3.992 -32.558  1.00  0.00     0.039 A 
HETATM   34  C   UNL     1      -4.327   3.635 -32.880  1.00  0.00     0.032 A 
BRANCH  32  35
HETATM   35  O   UNL     1      -1.073   5.228 -32.877  1.00  0.00    -0.352 OA
BRANCH  35  36
HETATM   36  C   UNL     1      -0.839   5.122 -31.474  1.00  0.00     0.171 C 
HETATM   37  C   UNL     1       0.536   5.697 -31.185  1.00  0.00     0.034 C 
ENDBRANCH  35  36
ENDBRANCH  32  35
ENDBRANCH  26  29
ENDBRANCH   1  25
TORSDOF 9
ENDMDL
MODEL 10
REMARK VINA RESULT:      -7.6      2.230      6.066
REMARK  9 active torsions:
REMARK  status: ('A' for Active; 'I' for Inactive)
REMARK    1  A    between atoms: C_2  and  O_3 
REMARK    2  A    between atoms: O_3  and  C_4 
REMARK    3  A    between atoms: C_7  and  N_8 
REMARK       I    between atoms: N_8  and  C_9 
REMARK    4  A    between atoms: C_9  and  C_10 
REMARK    5  A    between atoms: C_11  and  N_12 
REMARK       I    between atoms: N_12  and  C_13 
REMARK    6  A    between atoms: C_13  and  C_14 
REMARK    7  A    between atoms: C_14  and  N_15 
REMARK    8  A    between atoms: N_15  and  C_18 
REMARK    9  A    between atoms: C_18  and  C_19 
ROOT
HETATM    1  C   UNL     1      -8.863   2.875 -32.904  1.00  0.00     0.073 A 
HETATM    2  C   UNL     1      -8.479   4.008 -32.173  1.00  0.00     0.093 A 
HETATM    3  S   UNL     1      -9.793   4.822 -31.440  1.00  0.00    -0.075 SA
HETATM    4  C   UNL     1     -10.869   3.741 -32.110  1.00  0.00    -0.008 A 
HETATM    5  C   UNL     1     -10.288   2.767 -32.874  1.00  0.00    -0.026 A 
HETATM    6  C   UNL     1     -11.340   1.883 -33.455  1.00  0.00     0.041 C 
HETATM    7  C   UNL     1     -12.648   2.694 -33.207  1.00  0.00     0.010 C 
HETATM    8  C   UNL     1     -12.347   3.669 -32.033  1.00  0.00     0.047 C 
ENDROOT
BRANCH   2   9
HETATM    9  N   UNL     1      -7.179   4.481 -32.044  1.00  0.00    -0.319 N 
HETATM   10  C   UNL     1      -6.260   4.133 -31.081  1.00  0.00     0.248 C 
HETATM   11  O   UNL     1      -6.350   3.282 -30.197  1.00  0.00    -0.271 OA
HETATM   12  H   UNL     1      -6.920   5.134 -32.788  1.00  0.00     0.169 HD
BRANCH  10  13
HETATM   13  C   UNL     1      -4.949   4.915 -31.167  1.00  0.00     0.335 C 
BRANCH  13  14
HETATM   14  N   UNL     1      -3.834   4.056 -30.614  1.00  0.00    -0.059 N 
HETATM   15  H   UNL     1      -3.367   4.654 -29.907  1.00  0.00     0.278 HD
HETATM   16  H   UNL     1      -4.246   3.307 -30.045  1.00  0.00     0.278 HD
BRANCH  14  17
HETATM   17  C   UNL     1      -2.805   3.511 -31.547  1.00  0.00     0.215 C 
HETATM   18  C   UNL     1      -3.395   2.339 -32.332  1.00  0.00     0.045 C 
BRANCH  17  19
HETATM   19  C   UNL     1      -2.147   4.606 -32.359  1.00  0.00    -0.028 A 
HETATM   20  C   UNL     1      -2.243   4.683 -33.758  1.00  0.00     0.009 A 
HETATM   21  C   UNL     1      -1.637   5.732 -34.456  1.00  0.00     0.001 A 
HETATM   22  C   UNL     1      -0.930   6.715 -33.772  1.00  0.00     0.000 A 
HETATM   23  C   UNL     1      -0.825   6.657 -32.386  1.00  0.00     0.001 A 
HETATM   24  C   UNL     1      -1.431   5.613 -31.684  1.00  0.00     0.009 A 
ENDBRANCH  17  19
ENDBRANCH  14  17
ENDBRANCH  13  14
ENDBRANCH  10  13
ENDBRANCH   2   9
BRANCH   1  25
HETATM   25  C   UNL     1      -7.858   2.013 -33.557  1.00  0.00     0.259 C 
HETATM   26  N   UNL     1      -7.923   0.683 -33.200  1.00  0.00    -0.323 N 
HETATM   27  H   UNL     1      -8.620   0.429 -32.518  1.00  0.00     0.169 HD
HETATM   28  O   UNL     1      -7.019   2.518 -34.302  1.00  0.00    -0.267 OA
BRANCH  26  29
HETATM   29  C   UNL     1      -7.056  -0.365 -33.572  1.00  0.00     0.035 A 
HETATM   30  C   UNL     1      -7.410  -1.425 -34.407  1.00  0.00     0.032 A 
HETATM   31  C   UNL     1      -6.463  -2.395 -34.769  1.00  0.00     0.039 A 
HETATM   32  C   UNL     1      -5.154  -2.312 -34.299  1.00  0.00     0.068 A 
HETATM   33  C   UNL     1      -4.809  -1.278 -33.431  1.00  0.00     0.039 A 
HETATM   34  C   UNL     1      -5.750  -0.310 -33.073  1.00  0.00     0.032 A 
BRANCH  32  35
HETATM   35  O   UNL     1      -4.138  -3.175 -34.596  1.00  0.00    -0.352 OA
BRANCH  35  36
HETATM   36  C   UNL     1      -4.344  -4.548 -34.266  1.00  0.00     0.171 C 
HETATM   37  C   UNL     1      -3.420  -4.894 -33.112  1.00  0.00     0.034 C 
ENDBRANCH  35  36
ENDBRANCH  32  35
ENDBRANCH  26  29
ENDBRANCH   1  25
TORSDOF 9
ENDMDL
