MODEL 1
REMARK VINA RESULT:      -9.6      0.000      0.000
REMARK  5 active torsions:
REMARK  status: ('A' for Active; 'I' for Inactive)
REMARK    1  A    between atoms: C_2  and  C_3 
REMARK    2  A    between atoms: C_3  and  C_4 
REMARK       I    between atoms: C_4  and  N_5 
REMARK    3  A    between atoms: N_5  and  C_6 
REMARK    4  A    between atoms: C_13  and  C_14 
REMARK       I    between atoms: C_14  and  N_15 
REMARK    5  A    between atoms: C_22  and  C_23 
ROOT
HETATM    1  C   UNL     1     -10.076   1.987 -34.120  1.00  0.00     0.035 A 
HETATM    2  C   UNL     1     -11.346   1.403 -34.246  1.00  0.00     0.046 A 
HETATM    3  C   UNL     1     -12.446   1.978 -33.576  1.00  0.00     0.030 A 
HETATM    4  C   UNL     1     -12.249   3.140 -32.839  1.00  0.00     0.063 A 
HETATM    5  N   UNL     1     -13.475   3.445 -32.314  1.00  0.00    -0.277 N 
HETATM    6  H   UNL     1     -13.710   4.232 -31.720  1.00  0.00     0.189 HD
HETATM    7  N   UNL     1     -14.446   2.567 -32.617  1.00  0.00    -0.168 NA
HETATM    8  C   UNL     1     -13.824   1.652 -33.396  1.00  0.00     0.156 A 
HETATM    9  C   UNL     1     -11.007   3.767 -32.723  1.00  0.00     0.034 A 
HETATM   10  C   UNL     1      -9.922   3.156 -33.366  1.00  0.00     0.032 A 
ENDROOT
BRANCH   1  11
HETATM   11  N   UNL     1      -8.910   1.379 -34.633  1.00  0.00    -0.327 N 
HETATM   12  C   UNL     1      -8.071   0.519 -33.945  1.00  0.00     0.226 C 
HETATM   13  O   UNL     1      -8.399  -0.198 -33.005  1.00  0.00    -0.273 OA
HETATM   14  H   UNL     1      -8.652   1.613 -35.584  1.00  0.00     0.169 HD
BRANCH  12  15
HETATM   15  C   UNL     1      -6.635   0.573 -34.437  1.00  0.00     0.141 C 
BRANCH  15  16
HETATM   16  C   UNL     1      -5.834  -0.701 -34.331  1.00  0.00    -0.049 A 
HETATM   17  C   UNL     1      -4.750  -0.749 -33.441  1.00  0.00     0.008 A 
HETATM   18  C   UNL     1      -4.064  -1.944 -33.212  1.00  0.00     0.017 A 
HETATM   19  C   UNL     1      -4.447  -3.121 -33.866  1.00  0.00     0.047 A 
HETATM   20  C   UNL     1      -5.530  -3.075 -34.757  1.00  0.00     0.017 A 
HETATM   21  C   UNL     1      -6.218  -1.878 -34.985  1.00  0.00     0.008 A 
BRANCH  19  22
HETATM   22  C   UNL     1      -3.750  -4.423 -33.557  1.00  0.00     0.417 C 
HETATM   23  F   UNL     1      -4.602  -5.480 -33.449  1.00  0.00    -0.166 F 
HETATM   24  F   UNL     1      -2.840  -4.777 -34.508  1.00  0.00    -0.166 F 
HETATM   25  F   UNL     1      -3.061  -4.375 -32.383  1.00  0.00    -0.166 F 
ENDBRANCH  19  22
ENDBRANCH  15  16
ENDBRANCH  12  15
ENDBRANCH   1  11
BRANCH   8  26
HETATM   26  C   UNL     1     -14.540   0.481 -33.922  1.00  0.00     0.270 C 
HETATM   27  N   UNL     1     -14.101  -0.715 -33.424  1.00  0.00    -0.365 N 
HETATM   28  H   UNL     1     -13.327  -0.713 -32.769  1.00  0.00     0.159 HD
HETATM   29  H   UNL     1     -14.511  -1.573 -33.756  1.00  0.00     0.159 HD
HETATM   30  O   UNL     1     -15.443   0.528 -34.751  1.00  0.00    -0.266 OA
ENDBRANCH   8  26
TORSDOF 5
ENDMDL
MODEL 2
REMARK VINA RESULT:      -9.0      6.235      9.214
REMARK  5 active torsions:
REMARK  status: ('A' for Active; 'I' for Inactive)
REMARK    1  A    between atoms: C_2  and  C_3 
REMARK    2  A    between atoms: C_3  and  C_4 
REMARK       I    between atoms: C_4  and  N_5 
REMARK    3  A    between atoms: N_5  and  C_6 
REMARK    4  A    between atoms: C_13  and  C_14 
REMARK       I    between atoms: C_14  and  N_15 
REMARK    5  A    between atoms: C_22  and  C_23 
ROOT
HETATM    1  C   UNL     1      -2.749   3.674 -32.444  1.00  0.00     0.035 A 
HETATM    2  C   UNL     1      -1.956   4.062 -31.354  1.00  0.00     0.046 A 
HETATM    3  C   UNL     1      -1.140   5.209 -31.460  1.00  0.00     0.030 A 
HETATM    4  C   UNL     1      -1.177   5.951 -32.634  1.00  0.00     0.063 A 
HETATM    5  N   UNL     1      -0.294   6.976 -32.439  1.00  0.00    -0.277 N 
HETATM    6  H   UNL     1      -0.062   7.719 -33.089  1.00  0.00     0.189 HD
HETATM    7  N   UNL     1       0.340   6.949 -31.255  1.00  0.00    -0.168 NA
HETATM    8  C   UNL     1      -0.172   5.859 -30.637  1.00  0.00     0.156 A 
HETATM    9  C   UNL     1      -1.983   5.613 -33.724  1.00  0.00     0.034 A 
HETATM   10  C   UNL     1      -2.755   4.449 -33.609  1.00  0.00     0.032 A 
ENDROOT
BRANCH   1  11
HETATM   11  N   UNL     1      -3.466   2.458 -32.462  1.00  0.00    -0.327 N 
HETATM   12  C   UNL     1      -4.841   2.323 -32.384  1.00  0.00     0.226 C 
HETATM   13  O   UNL     1      -5.663   3.165 -32.733  1.00  0.00    -0.273 OA
HETATM   14  H   UNL     1      -2.920   1.606 -32.515  1.00  0.00     0.169 HD
BRANCH  12  15
HETATM   15  C   UNL     1      -5.272   1.009 -31.755  1.00  0.00     0.141 C 
BRANCH  15  16
HETATM   16  C   UNL     1      -5.433  -0.168 -32.684  1.00  0.00    -0.049 A 
HETATM   17  C   UNL     1      -4.351  -1.042 -32.866  1.00  0.00     0.008 A 
HETATM   18  C   UNL     1      -4.494  -2.215 -33.609  1.00  0.00     0.017 A 
HETATM   19  C   UNL     1      -5.726  -2.545 -34.187  1.00  0.00     0.047 A 
HETATM   20  C   UNL     1      -6.810  -1.673 -34.007  1.00  0.00     0.017 A 
HETATM   21  C   UNL     1      -6.666  -0.498 -33.261  1.00  0.00     0.008 A 
BRANCH  19  22
HETATM   22  C   UNL     1      -5.895  -3.850 -34.925  1.00  0.00     0.417 C 
HETATM   23  F   UNL     1      -5.011  -4.811 -34.534  1.00  0.00    -0.166 F 
HETATM   24  F   UNL     1      -7.133  -4.397 -34.761  1.00  0.00    -0.166 F 
HETATM   25  F   UNL     1      -5.726  -3.710 -36.269  1.00  0.00    -0.166 F 
ENDBRANCH  19  22
ENDBRANCH  15  16
ENDBRANCH  12  15
ENDBRANCH   1  11
BRANCH   8  26
HETATM   26  C   UNL     1       0.289   5.447 -29.304  1.00  0.00     0.270 C 
HETATM   27  N   UNL     1       1.082   4.332 -29.306  1.00  0.00    -0.365 N 
HETATM   28  H   UNL     1       1.270   3.872 -30.189  1.00  0.00     0.159 HD
HETATM   29  H   UNL     1       1.415   3.957 -28.432  1.00  0.00     0.159 HD
HETATM   30  O   UNL     1      -0.005   6.013 -28.256  1.00  0.00    -0.266 OA
ENDBRANCH   8  26
TORSDOF 5
ENDMDL
MODEL 3
REMARK VINA RESULT:      -8.8      5.574      8.469
REMARK  5 active torsions:
REMARK  status: ('A' for Active; 'I' for Inactive)
REMARK    1  A    between atoms: C_2  and  C_3 
REMARK    2  A    between atoms: C_3  and  C_4 
REMARK       I    between atoms: C_4  and  N_5 
REMARK    3  A    between atoms: N_5  and  C_6 
REMARK    4  A    between atoms: C_13  and  C_14 
REMARK       I    between atoms: C_14  and  N_15 
REMARK    5  A    between atoms: C_22  and  C_23 
ROOT
HETATM    1  C   UNL     1      -4.222   3.682 -33.012  1.00  0.00     0.035 A 
HETATM    2  C   UNL     1      -3.067   4.195 -32.403  1.00  0.00     0.046 A 
HETATM    3  C   UNL     1      -2.407   5.299 -32.983  1.00  0.00     0.030 A 
HETATM    4  C   UNL     1      -2.946   5.879 -34.124  1.00  0.00     0.063 A 
HETATM    5  N   UNL     1      -2.096   6.901 -34.444  1.00  0.00    -0.277 N 
HETATM    6  H   UNL     1      -2.176   7.546 -35.222  1.00  0.00     0.189 HD
HETATM    7  N   UNL     1      -1.033   7.018 -33.630  1.00  0.00    -0.168 NA
HETATM    8  C   UNL     1      -1.210   6.032 -32.721  1.00  0.00     0.156 A 
HETATM    9  C   UNL     1      -4.114   5.416 -34.735  1.00  0.00     0.034 A 
HETATM   10  C   UNL     1      -4.731   4.295 -34.163  1.00  0.00     0.032 A 
ENDROOT
BRANCH   1  11
HETATM   11  N   UNL     1      -4.842   2.490 -32.577  1.00  0.00    -0.327 N 
HETATM   12  C   UNL     1      -5.310   2.237 -31.299  1.00  0.00     0.226 C 
HETATM   13  O   UNL     1      -5.683   3.084 -30.494  1.00  0.00    -0.273 OA
HETATM   14  H   UNL     1      -4.929   1.745 -33.258  1.00  0.00     0.169 HD
BRANCH  12  15
HETATM   15  C   UNL     1      -5.277   0.762 -30.939  1.00  0.00     0.141 C 
BRANCH  15  16
HETATM   16  C   UNL     1      -5.406  -0.218 -32.078  1.00  0.00    -0.049 A 
HETATM   17  C   UNL     1      -4.302  -1.017 -32.414  1.00  0.00     0.008 A 
HETATM   18  C   UNL     1      -4.415  -2.029 -33.370  1.00  0.00     0.017 A 
HETATM   19  C   UNL     1      -5.636  -2.269 -34.012  1.00  0.00     0.047 A 
HETATM   20  C   UNL     1      -6.741  -1.472 -33.678  1.00  0.00     0.017 A 
HETATM   21  C   UNL     1      -6.628  -0.459 -32.718  1.00  0.00     0.008 A 
BRANCH  19  22
HETATM   22  C   UNL     1      -5.770  -3.412 -34.987  1.00  0.00     0.417 C 
HETATM   23  F   UNL     1      -5.186  -4.564 -34.555  1.00  0.00    -0.166 F 
HETATM   24  F   UNL     1      -7.068  -3.732 -35.255  1.00  0.00    -0.166 F 
HETATM   25  F   UNL     1      -5.201  -3.132 -36.193  1.00  0.00    -0.166 F 
ENDBRANCH  19  22
ENDBRANCH  15  16
ENDBRANCH  12  15
ENDBRANCH   1  11
BRANCH   8  26
HETATM   26  C   UNL     1      -0.231   5.791 -31.653  1.00  0.00     0.270 C 
HETATM   27  N   UNL     1       0.194   6.925 -31.016  1.00  0.00    -0.365 N 
HETATM   28  H   UNL     1      -0.164   7.820 -31.328  1.00  0.00     0.159 HD
HETATM   29  H   UNL     1       0.893   6.858 -30.293  1.00  0.00     0.159 HD
HETATM   30  O   UNL     1       0.209   4.688 -31.342  1.00  0.00    -0.266 OA
ENDBRANCH   8  26
TORSDOF 5
ENDMDL
MODEL 4
REMARK VINA RESULT:      -8.8      2.155      3.253
REMARK  5 active torsions:
REMARK  status: ('A' for Active; 'I' for Inactive)
REMARK    1  A    between atoms: C_2  and  C_3 
REMARK    2  A    between atoms: C_3  and  C_4 
REMARK       I    between atoms: C_4  and  N_5 
REMARK    3  A    between atoms: N_5  and  C_6 
REMARK    4  A    between atoms: C_13  and  C_14 
REMARK       I    between atoms: C_14  and  N_15 
REMARK    5  A    between atoms: C_22  and  C_23 
ROOT
HETATM    1  C   UNL     1     -10.401   1.638 -34.319  1.00  0.00     0.035 A 
HETATM    2  C   UNL     1     -10.333   3.006 -34.624  1.00  0.00     0.046 A 
HETATM    3  C   UNL     1     -11.477   3.815 -34.453  1.00  0.00     0.030 A 
HETATM    4  C   UNL     1     -12.634   3.239 -33.944  1.00  0.00     0.063 A 
HETATM    5  N   UNL     1     -13.551   4.253 -33.901  1.00  0.00    -0.277 N 
HETATM    6  H   UNL     1     -14.512   4.199 -33.581  1.00  0.00     0.189 HD
HETATM    7  N   UNL     1     -13.103   5.431 -34.367  1.00  0.00    -0.168 NA
HETATM    8  C   UNL     1     -11.820   5.175 -34.715  1.00  0.00     0.156 A 
HETATM    9  C   UNL     1     -12.725   1.889 -33.597  1.00  0.00     0.034 A 
HETATM   10  C   UNL     1     -11.588   1.098 -33.811  1.00  0.00     0.032 A 
ENDROOT
BRANCH   1  11
HETATM   11  N   UNL     1      -9.348   0.745 -34.612  1.00  0.00    -0.327 N 
HETATM   12  C   UNL     1      -8.041   0.853 -34.166  1.00  0.00     0.226 C 
HETATM   13  O   UNL     1      -7.682   1.421 -33.139  1.00  0.00    -0.273 OA
HETATM   14  H   UNL     1      -9.564  -0.033 -35.223  1.00  0.00     0.169 HD
BRANCH  12  15
HETATM   15  C   UNL     1      -7.037   0.230 -35.119  1.00  0.00     0.141 C 
BRANCH  15  16
HETATM   16  C   UNL     1      -6.246  -0.944 -34.598  1.00  0.00    -0.049 A 
HETATM   17  C   UNL     1      -6.554  -2.231 -35.064  1.00  0.00     0.008 A 
HETATM   18  C   UNL     1      -5.765  -3.329 -34.713  1.00  0.00     0.017 A 
HETATM   19  C   UNL     1      -4.645  -3.165 -33.889  1.00  0.00     0.047 A 
HETATM   20  C   UNL     1      -4.335  -1.880 -33.421  1.00  0.00     0.017 A 
HETATM   21  C   UNL     1      -5.125  -0.780 -33.774  1.00  0.00     0.008 A 
BRANCH  19  22
HETATM   22  C   UNL     1      -3.754  -4.341 -33.576  1.00  0.00     0.417 C 
HETATM   23  F   UNL     1      -4.441  -5.490 -33.325  1.00  0.00    -0.166 F 
HETATM   24  F   UNL     1      -2.891  -4.639 -34.588  1.00  0.00    -0.166 F 
HETATM   25  F   UNL     1      -2.976  -4.123 -32.478  1.00  0.00    -0.166 F 
ENDBRANCH  19  22
ENDBRANCH  15  16
ENDBRANCH  12  15
ENDBRANCH   1  11
BRANCH   8  26
HETATM   26  C   UNL     1     -10.968   6.213 -35.311  1.00  0.00     0.270 C 
HETATM   27  N   UNL     1     -11.523   7.464 -35.308  1.00  0.00    -0.365 N 
HETATM   28  H   UNL     1     -12.456   7.580 -34.930  1.00  0.00     0.159 HD
HETATM   29  H   UNL     1     -11.023   8.231 -35.729  1.00  0.00     0.159 HD
HETATM   30  O   UNL     1      -9.860   6.013 -35.798  1.00  0.00    -0.266 OA
ENDBRANCH   8  26
TORSDOF 5
ENDMDL
MODEL 5
REMARK VINA RESULT:      -8.7      6.324      8.820
REMARK  5 active torsions:
REMARK  status: ('A' for Active; 'I' for Inactive)
REMARK    1  A    between atoms: C_2  and  C_3 
REMARK    2  A    between atoms: C_3  and  C_4 
REMARK       I    between atoms: C_4  and  N_5 
REMARK    3  A    between atoms: N_5  and  C_6 
REMARK    4  A    between atoms: C_13  and  C_14 
REMARK       I    between atoms: C_14  and  N_15 
REMARK    5  A    between atoms: C_22  and  C_23 
ROOT
HETATM    1  C   UNL     1      -5.319   0.130 -33.300  1.00  0.00     0.035 A 
HETATM    2  C   UNL     1      -4.613  -1.080 -33.239  1.00  0.00     0.046 A 
HETATM    3  C   UNL     1      -5.101  -2.206 -33.936  1.00  0.00     0.030 A 
HETATM    4  C   UNL     1      -6.252  -2.073 -34.703  1.00  0.00     0.063 A 
HETATM    5  N   UNL     1      -6.471  -3.310 -35.241  1.00  0.00    -0.277 N 
HETATM    6  H   UNL     1      -7.226  -3.587 -35.858  1.00  0.00     0.189 HD
HETATM    7  N   UNL     1      -5.583  -4.247 -34.867  1.00  0.00    -0.168 NA
HETATM    8  C   UNL     1      -4.729  -3.579 -34.057  1.00  0.00     0.156 A 
HETATM    9  C   UNL     1      -6.959  -0.873 -34.814  1.00  0.00     0.034 A 
HETATM   10  C   UNL     1      -6.476   0.221 -34.082  1.00  0.00     0.032 A 
ENDROOT
BRANCH   1  11
HETATM   11  N   UNL     1      -4.976   1.246 -32.506  1.00  0.00    -0.327 N 
HETATM   12  C   UNL     1      -5.663   1.693 -31.390  1.00  0.00     0.226 C 
HETATM   13  O   UNL     1      -6.358   1.000 -30.654  1.00  0.00    -0.273 OA
HETATM   14  H   UNL     1      -4.166   1.781 -32.795  1.00  0.00     0.169 HD
BRANCH  12  15
HETATM   15  C   UNL     1      -5.521   3.189 -31.168  1.00  0.00     0.141 C 
BRANCH  15  16
HETATM   16  C   UNL     1      -4.435   3.891 -31.945  1.00  0.00    -0.049 A 
HETATM   17  C   UNL     1      -4.798   4.754 -32.990  1.00  0.00     0.008 A 
HETATM   18  C   UNL     1      -3.837   5.526 -33.647  1.00  0.00     0.017 A 
HETATM   19  C   UNL     1      -2.489   5.455 -33.274  1.00  0.00     0.047 A 
HETATM   20  C   UNL     1      -2.125   4.592 -32.230  1.00  0.00     0.017 A 
HETATM   21  C   UNL     1      -3.088   3.820 -31.570  1.00  0.00     0.008 A 
BRANCH  19  22
HETATM   22  C   UNL     1      -1.469   6.346 -33.936  1.00  0.00     0.417 C 
HETATM   23  F   UNL     1      -0.460   6.726 -33.104  1.00  0.00    -0.166 F 
HETATM   24  F   UNL     1      -0.865   5.757 -35.007  1.00  0.00    -0.166 F 
HETATM   25  F   UNL     1      -2.019   7.500 -34.409  1.00  0.00    -0.166 F 
ENDBRANCH  19  22
ENDBRANCH  15  16
ENDBRANCH  12  15
ENDBRANCH   1  11
BRANCH   8  26
HETATM   26  C   UNL     1      -3.607  -4.262 -33.398  1.00  0.00     0.270 C 
HETATM   27  N   UNL     1      -3.172  -5.383 -34.052  1.00  0.00    -0.365 N 
HETATM   28  H   UNL     1      -3.649  -5.666 -34.899  1.00  0.00     0.159 HD
HETATM   29  H   UNL     1      -2.429  -5.934 -33.652  1.00  0.00     0.159 HD
HETATM   30  O   UNL     1      -3.092  -3.904 -32.344  1.00  0.00    -0.266 OA
ENDBRANCH   8  26
TORSDOF 5
ENDMDL
MODEL 6
REMARK VINA RESULT:      -8.6      2.098      2.797
REMARK  5 active torsions:
REMARK  status: ('A' for Active; 'I' for Inactive)
REMARK    1  A    between atoms: C_2  and  C_3 
REMARK    2  A    between atoms: C_3  and  C_4 
REMARK       I    between atoms: C_4  and  N_5 
REMARK    3  A    between atoms: N_5  and  C_6 
REMARK    4  A    between atoms: C_13  and  C_14 
REMARK       I    between atoms: C_14  and  N_15 
REMARK    5  A    between atoms: C_22  and  C_23 
ROOT
HETATM    1  C   UNL     1      -8.269   2.810 -31.838  1.00  0.00     0.035 A 
HETATM    2  C   UNL     1      -9.156   2.652 -32.913  1.00  0.00     0.046 A 
HETATM    3  C   UNL     1     -10.522   2.960 -32.738  1.00  0.00     0.030 A 
HETATM    4  C   UNL     1     -10.946   3.454 -31.511  1.00  0.00     0.063 A 
HETATM    5  N   UNL     1     -12.293   3.647 -31.647  1.00  0.00    -0.277 N 
HETATM    6  H   UNL     1     -12.937   4.001 -30.948  1.00  0.00     0.189 HD
HETATM    7  N   UNL     1     -12.790   3.292 -32.844  1.00  0.00    -0.168 NA
HETATM    8  C   UNL     1     -11.706   2.863 -33.530  1.00  0.00     0.156 A 
HETATM    9  C   UNL     1     -10.083   3.657 -30.432  1.00  0.00     0.034 A 
HETATM   10  C   UNL     1      -8.738   3.308 -30.618  1.00  0.00     0.032 A 
ENDROOT
BRANCH   1  11
HETATM   11  N   UNL     1      -6.927   2.376 -31.896  1.00  0.00    -0.327 N 
HETATM   12  C   UNL     1      -6.169   2.226 -33.045  1.00  0.00     0.226 C 
HETATM   13  O   UNL     1      -6.336   2.838 -34.095  1.00  0.00    -0.273 OA
HETATM   14  H   UNL     1      -6.487   2.130 -31.017  1.00  0.00     0.169 HD
BRANCH  12  15
HETATM   15  C   UNL     1      -5.097   1.159 -32.912  1.00  0.00     0.141 C 
BRANCH  15  16
HETATM   16  C   UNL     1      -5.396  -0.184 -33.529  1.00  0.00    -0.049 A 
HETATM   17  C   UNL     1      -4.358  -1.120 -33.656  1.00  0.00     0.008 A 
HETATM   18  C   UNL     1      -4.615  -2.420 -34.097  1.00  0.00     0.017 A 
HETATM   19  C   UNL     1      -5.919  -2.817 -34.420  1.00  0.00     0.047 A 
HETATM   20  C   UNL     1      -6.958  -1.883 -34.295  1.00  0.00     0.017 A 
HETATM   21  C   UNL     1      -6.700  -0.581 -33.852  1.00  0.00     0.008 A 
BRANCH  19  22
HETATM   22  C   UNL     1      -6.201  -4.243 -34.824  1.00  0.00     0.417 C 
HETATM   23  F   UNL     1      -6.147  -4.446 -36.170  1.00  0.00    -0.166 F 
HETATM   24  F   UNL     1      -5.323  -5.133 -34.280  1.00  0.00    -0.166 F 
HETATM   25  F   UNL     1      -7.438  -4.656 -34.432  1.00  0.00    -0.166 F 
ENDBRANCH  19  22
ENDBRANCH  15  16
ENDBRANCH  12  15
ENDBRANCH   1  11
BRANCH   8  26
HETATM   26  C   UNL     1     -11.824   2.345 -34.901  1.00  0.00     0.270 C 
HETATM   27  N   UNL     1     -11.291   3.166 -35.857  1.00  0.00    -0.365 N 
HETATM   28  H   UNL     1     -10.888   4.050 -35.569  1.00  0.00     0.159 HD
HETATM   29  H   UNL     1     -11.358   2.908 -36.829  1.00  0.00     0.159 HD
HETATM   30  O   UNL     1     -12.363   1.286 -35.205  1.00  0.00    -0.266 OA
ENDBRANCH   8  26
TORSDOF 5
ENDMDL
MODEL 7
REMARK VINA RESULT:      -8.6      1.945      2.883
REMARK  5 active torsions:
REMARK  status: ('A' for Active; 'I' for Inactive)
REMARK    1  A    between atoms: C_2  and  C_3 
REMARK    2  A    between atoms: C_3  and  C_4 
REMARK       I    between atoms: C_4  and  N_5 
REMARK    3  A    between atoms: N_5  and  C_6 
REMARK    4  A    between atoms: C_13  and  C_14 
REMARK       I    between atoms: C_14  and  N_15 
REMARK    5  A    between atoms: C_22  and  C_23 
ROOT
HETATM    1  C   UNL     1     -10.787   1.634 -34.354  1.00  0.00     0.035 A 
HETATM    2  C   UNL     1     -10.859   2.430 -33.201  1.00  0.00     0.046 A 
HETATM    3  C   UNL     1     -12.006   3.219 -32.971  1.00  0.00     0.030 A 
HETATM    4  C   UNL     1     -13.058   3.152 -33.877  1.00  0.00     0.063 A 
HETATM    5  N   UNL     1     -14.003   4.015 -33.396  1.00  0.00    -0.277 N 
HETATM    6  H   UNL     1     -14.908   4.224 -33.801  1.00  0.00     0.189 HD
HETATM    7  N   UNL     1     -13.647   4.663 -32.273  1.00  0.00    -0.168 NA
HETATM    8  C   UNL     1     -12.412   4.181 -31.999  1.00  0.00     0.156 A 
HETATM    9  C   UNL     1     -13.033   2.343 -35.015  1.00  0.00     0.034 A 
HETATM   10  C   UNL     1     -11.867   1.598 -35.242  1.00  0.00     0.032 A 
ENDROOT
BRANCH   1  11
HETATM   11  N   UNL     1      -9.612   0.944 -34.723  1.00  0.00    -0.327 N 
HETATM   12  C   UNL     1      -8.718   0.337 -33.858  1.00  0.00     0.226 C 
HETATM   13  O   UNL     1      -8.987  -0.097 -32.742  1.00  0.00    -0.273 OA
HETATM   14  H   UNL     1      -9.393   0.910 -35.712  1.00  0.00     0.169 HD
BRANCH  12  15
HETATM   15  C   UNL     1      -7.301   0.297 -34.403  1.00  0.00     0.141 C 
BRANCH  15  16
HETATM   16  C   UNL     1      -6.540  -0.992 -34.218  1.00  0.00    -0.049 A 
HETATM   17  C   UNL     1      -7.114  -2.190 -34.669  1.00  0.00     0.008 A 
HETATM   18  C   UNL     1      -6.393  -3.386 -34.641  1.00  0.00     0.017 A 
HETATM   19  C   UNL     1      -5.077  -3.412 -34.165  1.00  0.00     0.047 A 
HETATM   20  C   UNL     1      -4.500  -2.216 -33.713  1.00  0.00     0.017 A 
HETATM   21  C   UNL     1      -5.223  -1.018 -33.742  1.00  0.00     0.008 A 
BRANCH  19  22
HETATM   22  C   UNL     1      -4.278  -4.691 -34.208  1.00  0.00     0.417 C 
HETATM   23  F   UNL     1      -4.784  -5.616 -35.069  1.00  0.00    -0.166 F 
HETATM   24  F   UNL     1      -2.984  -4.497 -34.590  1.00  0.00    -0.166 F 
HETATM   25  F   UNL     1      -4.218  -5.304 -32.993  1.00  0.00    -0.166 F 
ENDBRANCH  19  22
ENDBRANCH  15  16
ENDBRANCH  12  15
ENDBRANCH   1  11
BRANCH   8  26
HETATM   26  C   UNL     1     -11.641   4.667 -30.846  1.00  0.00     0.270 C 
HETATM   27  N   UNL     1     -11.265   3.684 -29.970  1.00  0.00    -0.365 N 
HETATM   28  H   UNL     1     -11.553   2.731 -30.157  1.00  0.00     0.159 HD
HETATM   29  H   UNL     1     -10.763   3.931 -29.132  1.00  0.00     0.159 HD
HETATM   30  O   UNL     1     -11.355   5.842 -30.640  1.00  0.00    -0.266 OA
ENDBRANCH   8  26
TORSDOF 5
ENDMDL
MODEL 8
REMARK VINA RESULT:      -8.2      6.341      9.473
REMARK  5 active torsions:
REMARK  status: ('A' for Active; 'I' for Inactive)
REMARK    1  A    between atoms: C_2  and  C_3 
REMARK    2  A    between atoms: C_3  and  C_4 
REMARK       I    between atoms: C_4  and  N_5 
REMARK    3  A    between atoms: N_5  and  C_6 
REMARK    4  A    between atoms: C_13  and  C_14 
REMARK       I    between atoms: C_14  and  N_15 
REMARK    5  A    between atoms: C_22  and  C_23 
ROOT
HETATM    1  C   UNL     1      -3.879   3.169 -32.158  1.00  0.00     0.035 A 
HETATM    2  C   UNL     1      -2.701   3.764 -31.684  1.00  0.00     0.046 A 
HETATM    3  C   UNL     1      -2.185   4.903 -32.338  1.00  0.00     0.030 A 
HETATM    4  C   UNL     1      -2.886   5.433 -33.414  1.00  0.00     0.063 A 
HETATM    5  N   UNL     1      -2.148   6.506 -33.832  1.00  0.00    -0.277 N 
HETATM    6  H   UNL     1      -2.357   7.135 -34.599  1.00  0.00     0.189 HD
HETATM    7  N   UNL     1      -1.011   6.703 -33.143  1.00  0.00    -0.168 NA
HETATM    8  C   UNL     1      -1.019   5.718 -32.215  1.00  0.00     0.156 A 
HETATM    9  C   UNL     1      -4.081   4.887 -33.889  1.00  0.00     0.034 A 
HETATM   10  C   UNL     1      -4.553   3.733 -33.247  1.00  0.00     0.032 A 
ENDROOT
BRANCH   1  11
HETATM   11  N   UNL     1      -4.364   1.944 -31.652  1.00  0.00    -0.327 N 
HETATM   12  C   UNL     1      -4.136   0.691 -32.196  1.00  0.00     0.226 C 
HETATM   13  O   UNL     1      -3.168   0.375 -32.881  1.00  0.00    -0.273 OA
HETATM   14  H   UNL     1      -4.950   1.989 -30.827  1.00  0.00     0.169 HD
BRANCH  12  15
HETATM   15  C   UNL     1      -5.257  -0.292 -31.908  1.00  0.00     0.141 C 
BRANCH  15  16
HETATM   16  C   UNL     1      -6.653   0.143 -32.277  1.00  0.00    -0.049 A 
HETATM   17  C   UNL     1      -7.017   0.178 -33.632  1.00  0.00     0.008 A 
HETATM   18  C   UNL     1      -8.334   0.444 -34.013  1.00  0.00     0.017 A 
HETATM   19  C   UNL     1      -9.321   0.680 -33.048  1.00  0.00     0.047 A 
HETATM   20  C   UNL     1      -8.958   0.647 -31.693  1.00  0.00     0.017 A 
HETATM   21  C   UNL     1      -7.639   0.378 -31.311  1.00  0.00     0.008 A 
BRANCH  19  22
HETATM   22  C   UNL     1     -10.755   0.893 -33.463  1.00  0.00     0.417 C 
HETATM   23  F   UNL     1     -11.341   1.962 -32.856  1.00  0.00    -0.166 F 
HETATM   24  F   UNL     1     -10.895   1.105 -34.802  1.00  0.00    -0.166 F 
HETATM   25  F   UNL     1     -11.542  -0.180 -33.173  1.00  0.00    -0.166 F 
ENDBRANCH  19  22
ENDBRANCH  15  16
ENDBRANCH  12  15
ENDBRANCH   1  11
BRANCH   8  26
HETATM   26  C   UNL     1       0.088   5.555 -31.263  1.00  0.00     0.270 C 
HETATM   27  N   UNL     1       0.355   6.672 -30.518  1.00  0.00    -0.365 N 
HETATM   28  H   UNL     1      -0.191   7.508 -30.685  1.00  0.00     0.159 HD
HETATM   29  H   UNL     1       1.122   6.662 -29.864  1.00  0.00     0.159 HD
HETATM   30  O   UNL     1       0.752   4.532 -31.130  1.00  0.00    -0.266 OA
ENDBRANCH   8  26
TORSDOF 5
ENDMDL
MODEL 9
REMARK VINA RESULT:      -8.2      7.692      9.684
REMARK  5 active torsions:
REMARK  status: ('A' for Active; 'I' for Inactive)
REMARK    1  A    between atoms: C_2  and  C_3 
REMARK    2  A    between atoms: C_3  and  C_4 
REMARK       I    between atoms: C_4  and  N_5 
REMARK    3  A    between atoms: N_5  and  C_6 
REMARK    4  A    between atoms: C_13  and  C_14 
REMARK       I    between atoms: C_14  and  N_15 
REMARK    5  A    between atoms: C_22  and  C_23 
ROOT
HETATM    1  C   UNL     1      -4.018   4.089 -32.748  1.00  0.00     0.035 A 
HETATM    2  C   UNL     1      -5.079   3.400 -33.355  1.00  0.00     0.046 A 
HETATM    3  C   UNL     1      -5.270   2.030 -33.076  1.00  0.00     0.030 A 
HETATM    4  C   UNL     1      -4.422   1.407 -32.169  1.00  0.00     0.063 A 
HETATM    5  N   UNL     1      -4.846   0.108 -32.114  1.00  0.00    -0.277 N 
HETATM    6  H   UNL     1      -4.459  -0.642 -31.552  1.00  0.00     0.189 HD
HETATM    7  N   UNL     1      -5.876  -0.178 -32.929  1.00  0.00    -0.168 NA
HETATM    8  C   UNL     1      -6.149   1.002 -33.533  1.00  0.00     0.156 A 
HETATM    9  C   UNL     1      -3.378   2.071 -31.520  1.00  0.00     0.034 A 
HETATM   10  C   UNL     1      -3.185   3.422 -31.843  1.00  0.00     0.032 A 
ENDROOT
BRANCH   1  11
HETATM   11  N   UNL     1      -3.676   5.412 -33.100  1.00  0.00    -0.327 N 
HETATM   12  C   UNL     1      -2.631   5.791 -33.924  1.00  0.00     0.226 C 
HETATM   13  O   UNL     1      -2.136   5.104 -34.813  1.00  0.00    -0.273 OA
HETATM   14  H   UNL     1      -4.235   6.153 -32.692  1.00  0.00     0.169 HD
BRANCH  12  15
HETATM   15  C   UNL     1      -2.085   7.169 -33.593  1.00  0.00     0.141 C 
BRANCH  15  16
HETATM   16  C   UNL     1      -1.295   7.296 -32.314  1.00  0.00    -0.049 A 
HETATM   17  C   UNL     1      -1.799   8.101 -31.281  1.00  0.00     0.008 A 
HETATM   18  C   UNL     1      -1.173   8.144 -30.034  1.00  0.00     0.017 A 
HETATM   19  C   UNL     1      -0.026   7.379 -29.788  1.00  0.00     0.047 A 
HETATM   20  C   UNL     1       0.481   6.574 -30.819  1.00  0.00     0.017 A 
HETATM   21  C   UNL     1      -0.148   6.531 -32.068  1.00  0.00     0.008 A 
BRANCH  19  22
HETATM   22  C   UNL     1       0.602   7.370 -28.417  1.00  0.00     0.417 C 
HETATM   23  F   UNL     1      -0.284   7.623 -27.414  1.00  0.00    -0.166 F 
HETATM   24  F   UNL     1       1.184   6.177 -28.105  1.00  0.00    -0.166 F 
HETATM   25  F   UNL     1       1.585   8.306 -28.292  1.00  0.00    -0.166 F 
ENDBRANCH  19  22
ENDBRANCH  15  16
ENDBRANCH  12  15
ENDBRANCH   1  11
BRANCH   8  26
HETATM   26  C   UNL     1      -7.208   1.117 -34.544  1.00  0.00     0.270 C 
HETATM   27  N   UNL     1      -8.331   1.767 -34.108  1.00  0.00    -0.365 N 
HETATM   28  H   UNL     1      -8.362   2.090 -33.149  1.00  0.00     0.159 HD
HETATM   29  H   UNL     1      -9.122   1.860 -34.725  1.00  0.00     0.159 HD
HETATM   30  O   UNL     1      -7.140   0.666 -35.683  1.00  0.00    -0.266 OA
ENDBRANCH   8  26
TORSDOF 5
ENDMDL
MODEL 10
REMARK VINA RESULT:      -8.1      6.190      8.684
REMARK  5 active torsions:
REMARK  status: ('A' for Active; 'I' for Inactive)
REMARK    1  A    between atoms: C_2  and  C_3 
REMARK    2  A    between atoms: C_3  and  C_4 
REMARK       I    between atoms: C_4  and  N_5 
REMARK    3  A    between atoms: N_5  and  C_6 
REMARK    4  A    between atoms: C_13  and  C_14 
REMARK       I    between atoms: C_14  and  N_15 
REMARK    5  A    between atoms: C_22  and  C_23 
ROOT
HETATM    1  C   UNL     1      -3.373   4.260 -32.513  1.00  0.00     0.035 A 
HETATM    2  C   UNL     1      -3.403   5.111 -31.398  1.00  0.00     0.046 A 
HETATM    3  C   UNL     1      -2.328   5.995 -31.169  1.00  0.00     0.030 A 
HETATM    4  C   UNL     1      -1.282   6.030 -32.082  1.00  0.00     0.063 A 
HETATM    5  N   UNL     1      -0.408   6.961 -31.594  1.00  0.00    -0.277 N 
HETATM    6  H   UNL     1       0.473   7.251 -32.003  1.00  0.00     0.189 HD
HETATM    7  N   UNL     1      -0.777   7.514 -30.426  1.00  0.00    -0.168 NA
HETATM    8  C   UNL     1      -1.963   6.925 -30.149  1.00  0.00     0.156 A 
HETATM    9  C   UNL     1      -1.238   5.222 -33.221  1.00  0.00     0.034 A 
HETATM   10  C   UNL     1      -2.299   4.324 -33.407  1.00  0.00     0.032 A 
ENDROOT
BRANCH   1  11
HETATM   11  N   UNL     1      -4.335   3.246 -32.716  1.00  0.00    -0.327 N 
HETATM   12  C   UNL     1      -5.496   3.365 -33.461  1.00  0.00     0.226 C 
HETATM   13  O   UNL     1      -5.669   4.140 -34.396  1.00  0.00    -0.273 OA
HETATM   14  H   UNL     1      -4.170   2.359 -32.256  1.00  0.00     0.169 HD
BRANCH  12  15
HETATM   15  C   UNL     1      -6.608   2.452 -32.973  1.00  0.00     0.141 C 
BRANCH  15  16
HETATM   16  C   UNL     1      -6.518   1.000 -33.373  1.00  0.00    -0.049 A 
HETATM   17  C   UNL     1      -7.066   0.600 -34.602  1.00  0.00     0.008 A 
HETATM   18  C   UNL     1      -6.891  -0.703 -35.074  1.00  0.00     0.017 A 
HETATM   19  C   UNL     1      -6.160  -1.637 -34.330  1.00  0.00     0.047 A 
HETATM   20  C   UNL     1      -5.612  -1.239 -33.101  1.00  0.00     0.017 A 
HETATM   21  C   UNL     1      -5.787   0.067 -32.629  1.00  0.00     0.008 A 
BRANCH  19  22
HETATM   22  C   UNL     1      -5.910  -3.019 -34.880  1.00  0.00     0.417 C 
HETATM   23  F   UNL     1      -7.053  -3.711 -35.145  1.00  0.00    -0.166 F 
HETATM   24  F   UNL     1      -5.205  -3.007 -36.047  1.00  0.00    -0.166 F 
HETATM   25  F   UNL     1      -5.192  -3.796 -34.022  1.00  0.00    -0.166 F 
ENDBRANCH  19  22
ENDBRANCH  15  16
ENDBRANCH  12  15
ENDBRANCH   1  11
BRANCH   8  26
HETATM   26  C   UNL     1      -2.701   7.233 -28.916  1.00  0.00     0.270 C 
HETATM   27  N   UNL     1      -1.905   7.412 -27.817  1.00  0.00    -0.365 N 
HETATM   28  H   UNL     1      -0.903   7.302 -27.920  1.00  0.00     0.159 HD
HETATM   29  H   UNL     1      -2.328   7.592 -26.920  1.00  0.00     0.159 HD
HETATM   30  O   UNL     1      -3.922   7.311 -28.832  1.00  0.00    -0.266 OA
ENDBRANCH   8  26
TORSDOF 5
ENDMDL
