MODEL 1
REMARK VINA RESULT:      -8.4      0.000      0.000
REMARK  8 active torsions:
REMARK  status: ('A' for Active; 'I' for Inactive)
REMARK    1  A    between atoms: C_4  and  O_5 
REMARK    2  A    between atoms: O_5  and  C_6 
REMARK    3  A    between atoms: C_6  and  C_7 
REMARK    4  A    between atoms: C_7  and  N_8 
REMARK    5  A    between atoms: N_8  and  C_9 
REMARK    6  A    between atoms: C_10  and  C_11 
REMARK       I    between atoms: C_11  and  N_12 
REMARK    7  A    between atoms: N_12  and  C_13 
REMARK    8  A    between atoms: C_13  and  C_14 
ROOT
HETATM    1  C   UNL     1      -1.823   4.616 -32.121  1.00  0.00     0.024 A 
HETATM    2  C   UNL     1      -0.916   5.531 -31.541  1.00  0.00     0.053 A 
HETATM    3  C   UNL     1      -0.551   6.697 -32.240  1.00  0.00     0.019 A 
HETATM    4  C   UNL     1      -1.049   6.950 -33.516  1.00  0.00     0.001 A 
HETATM    5  C   UNL     1      -1.917   6.040 -34.110  1.00  0.00     0.002 A 
HETATM    6  C   UNL     1      -2.301   4.888 -33.418  1.00  0.00     0.024 A 
ENDROOT
BRANCH   1   7
HETATM    7  N   UNL     1      -2.344   3.480 -31.457  1.00  0.00    -0.290 NA
HETATM    8  H   UNL     1      -1.700   2.692 -31.516  1.00  0.00     0.127 HD
BRANCH   7   9
HETATM    9  C   UNL     1      -3.702   3.069 -31.874  1.00  0.00     0.119 C 
BRANCH   9  10
HETATM   10  C   UNL     1      -3.868   1.550 -32.025  1.00  0.00     0.190 C 
BRANCH  10  11
HETATM   11  O   UNL     1      -5.112   1.231 -32.654  1.00  0.00    -0.350 OA
BRANCH  11  12
HETATM   12  C   UNL     1      -5.218   0.024 -33.290  1.00  0.00     0.068 A 
HETATM   13  C   UNL     1      -4.281  -1.010 -33.264  1.00  0.00     0.037 A 
HETATM   14  C   UNL     1      -4.517  -2.189 -33.978  1.00  0.00     0.003 A 
HETATM   15  C   UNL     1      -5.688  -2.342 -34.718  1.00  0.00     0.000 A 
HETATM   16  C   UNL     1      -6.623  -1.313 -34.752  1.00  0.00     0.003 A 
HETATM   17  C   UNL     1      -6.384  -0.133 -34.044  1.00  0.00     0.037 A 
ENDBRANCH  11  12
ENDBRANCH  10  11
ENDBRANCH   9  10
ENDBRANCH   7   9
ENDBRANCH   1   7
BRANCH   2  18
HETATM   18  C   UNL     1      -0.238   5.327 -30.227  1.00  0.00     0.253 C 
HETATM   19  N   UNL     1      -0.610   6.174 -29.215  1.00  0.00    -0.351 N 
HETATM   20  H   UNL     1      -1.299   6.895 -29.414  1.00  0.00     0.163 HD
HETATM   21  O   UNL     1       0.574   4.420 -30.080  1.00  0.00    -0.268 OA
BRANCH  19  22
HETATM   22  C   UNL     1      -0.130   6.006 -27.867  1.00  0.00     0.187 C 
BRANCH  22  23
HETATM   23  C   UNL     1       0.703   7.178 -27.506  1.00  0.00     0.070 A 
HETATM   24  O   UNL     1       1.115   7.262 -26.206  1.00  0.00    -0.325 OA
HETATM   25  C   UNL     1       1.853   8.395 -26.097  1.00  0.00     0.142 A 
HETATM   26  C   UNL     1       1.919   9.046 -27.306  1.00  0.00     0.027 A 
HETATM   27  C   UNL     1       1.174   8.262 -28.218  1.00  0.00     0.036 A 
ENDBRANCH  22  23
ENDBRANCH  19  22
ENDBRANCH   2  18
TORSDOF 8
ENDMDL
MODEL 2
REMARK VINA RESULT:      -8.1      4.957      9.931
REMARK  8 active torsions:
REMARK  status: ('A' for Active; 'I' for Inactive)
REMARK    1  A    between atoms: C_4  and  O_5 
REMARK    2  A    between atoms: O_5  and  C_6 
REMARK    3  A    between atoms: C_6  and  C_7 
REMARK    4  A    between atoms: C_7  and  N_8 
REMARK    5  A    between atoms: N_8  and  C_9 
REMARK    6  A    between atoms: C_10  and  C_11 
REMARK       I    between atoms: C_11  and  N_12 
REMARK    7  A    between atoms: N_12  and  C_13 
REMARK    8  A    between atoms: C_13  and  C_14 
ROOT
HETATM    1  C   UNL     1      -4.660  -2.477 -33.960  1.00  0.00     0.024 A 
HETATM    2  C   UNL     1      -6.001  -2.233 -34.333  1.00  0.00     0.053 A 
HETATM    3  C   UNL     1      -6.813  -3.296 -34.770  1.00  0.00     0.019 A 
HETATM    4  C   UNL     1      -6.305  -4.590 -34.870  1.00  0.00     0.001 A 
HETATM    5  C   UNL     1      -4.978  -4.835 -34.536  1.00  0.00     0.002 A 
HETATM    6  C   UNL     1      -4.167  -3.790 -34.084  1.00  0.00     0.024 A 
ENDROOT
BRANCH   1   7
HETATM    7  N   UNL     1      -3.799  -1.505 -33.398  1.00  0.00    -0.290 NA
HETATM    8  H   UNL     1      -2.904  -1.479 -33.886  1.00  0.00     0.127 HD
BRANCH   7   9
HETATM    9  C   UNL     1      -3.587  -1.613 -31.938  1.00  0.00     0.119 C 
BRANCH   9  10
HETATM   10  C   UNL     1      -3.295  -0.270 -31.255  1.00  0.00     0.190 C 
BRANCH  10  11
HETATM   11  O   UNL     1      -4.500   0.463 -31.027  1.00  0.00    -0.350 OA
BRANCH  11  12
HETATM   12  C   UNL     1      -4.429   1.830 -31.016  1.00  0.00     0.068 A 
HETATM   13  C   UNL     1      -5.330   2.700 -30.402  1.00  0.00     0.037 A 
HETATM   14  C   UNL     1      -5.139   4.083 -30.485  1.00  0.00     0.003 A 
HETATM   15  C   UNL     1      -4.047   4.602 -31.179  1.00  0.00     0.000 A 
HETATM   16  C   UNL     1      -3.149   3.739 -31.798  1.00  0.00     0.003 A 
HETATM   17  C   UNL     1      -3.344   2.359 -31.720  1.00  0.00     0.037 A 
ENDBRANCH  11  12
ENDBRANCH  10  11
ENDBRANCH   9  10
ENDBRANCH   7   9
ENDBRANCH   1   7
BRANCH   2  18
HETATM   18  C   UNL     1      -6.634  -0.881 -34.365  1.00  0.00     0.253 C 
HETATM   19  N   UNL     1      -6.927  -0.320 -33.149  1.00  0.00    -0.351 N 
HETATM   20  H   UNL     1      -6.721  -0.852 -32.307  1.00  0.00     0.163 HD
HETATM   21  O   UNL     1      -6.833  -0.313 -35.433  1.00  0.00    -0.268 OA
BRANCH  19  22
HETATM   22  C   UNL     1      -7.421   1.027 -33.031  1.00  0.00     0.187 C 
BRANCH  22  23
HETATM   23  C   UNL     1      -8.879   1.029 -33.294  1.00  0.00     0.070 A 
HETATM   24  O   UNL     1      -9.353   2.000 -34.129  1.00  0.00    -0.325 OA
HETATM   25  C   UNL     1     -10.694   1.818 -34.229  1.00  0.00     0.142 A 
HETATM   26  C   UNL     1     -11.093   0.746 -33.466  1.00  0.00     0.027 A 
HETATM   27  C   UNL     1      -9.921   0.236 -32.858  1.00  0.00     0.036 A 
ENDBRANCH  22  23
ENDBRANCH  19  22
ENDBRANCH   2  18
TORSDOF 8
ENDMDL
MODEL 3
REMARK VINA RESULT:      -8.1      2.707      4.923
REMARK  8 active torsions:
REMARK  status: ('A' for Active; 'I' for Inactive)
REMARK    1  A    between atoms: C_4  and  O_5 
REMARK    2  A    between atoms: O_5  and  C_6 
REMARK    3  A    between atoms: C_6  and  C_7 
REMARK    4  A    between atoms: C_7  and  N_8 
REMARK    5  A    between atoms: N_8  and  C_9 
REMARK    6  A    between atoms: C_10  and  C_11 
REMARK       I    between atoms: C_11  and  N_12 
REMARK    7  A    between atoms: N_12  and  C_13 
REMARK    8  A    between atoms: C_13  and  C_14 
ROOT
HETATM    1  C   UNL     1      -5.238   2.021 -30.585  1.00  0.00     0.024 A 
HETATM    2  C   UNL     1      -4.345   2.339 -31.633  1.00  0.00     0.053 A 
HETATM    3  C   UNL     1      -3.805   1.313 -32.431  1.00  0.00     0.019 A 
HETATM    4  C   UNL     1      -4.115  -0.023 -32.186  1.00  0.00     0.001 A 
HETATM    5  C   UNL     1      -4.966  -0.349 -31.136  1.00  0.00     0.002 A 
HETATM    6  C   UNL     1      -5.523   0.662 -30.348  1.00  0.00     0.024 A 
ENDROOT
BRANCH   1   7
HETATM    7  N   UNL     1      -5.925   2.979 -29.804  1.00  0.00    -0.290 NA
HETATM    8  H   UNL     1      -5.663   2.909 -28.821  1.00  0.00     0.127 HD
BRANCH   7   9
HETATM    9  C   UNL     1      -7.397   2.977 -29.946  1.00  0.00     0.119 C 
BRANCH   9  10
HETATM   10  C   UNL     1      -7.887   3.506 -31.302  1.00  0.00     0.190 C 
BRANCH  10  11
HETATM   11  O   UNL     1      -8.764   2.570 -31.931  1.00  0.00    -0.350 OA
BRANCH  11  12
HETATM   12  C   UNL     1      -8.213   1.630 -32.759  1.00  0.00     0.068 A 
HETATM   13  C   UNL     1      -8.401   0.250 -32.683  1.00  0.00     0.037 A 
HETATM   14  C   UNL     1      -7.759  -0.598 -33.591  1.00  0.00     0.003 A 
HETATM   15  C   UNL     1      -6.928  -0.072 -34.579  1.00  0.00     0.000 A 
HETATM   16  C   UNL     1      -6.732   1.303 -34.656  1.00  0.00     0.003 A 
HETATM   17  C   UNL     1      -7.368   2.149 -33.745  1.00  0.00     0.037 A 
ENDBRANCH  11  12
ENDBRANCH  10  11
ENDBRANCH   9  10
ENDBRANCH   7   9
ENDBRANCH   1   7
BRANCH   2  18
HETATM   18  C   UNL     1      -3.859   3.717 -31.935  1.00  0.00     0.253 C 
HETATM   19  N   UNL     1      -2.652   3.806 -32.580  1.00  0.00    -0.351 N 
HETATM   20  H   UNL     1      -2.152   2.947 -32.796  1.00  0.00     0.163 HD
HETATM   21  O   UNL     1      -4.540   4.695 -31.646  1.00  0.00    -0.268 OA
BRANCH  19  22
HETATM   22  C   UNL     1      -2.127   5.065 -33.043  1.00  0.00     0.187 C 
BRANCH  22  23
HETATM   23  C   UNL     1      -1.063   5.513 -32.114  1.00  0.00     0.070 A 
HETATM   24  O   UNL     1      -0.571   4.578 -31.248  1.00  0.00    -0.325 OA
HETATM   25  C   UNL     1       0.380   5.193 -30.499  1.00  0.00     0.142 A 
HETATM   26  C   UNL     1       0.503   6.512 -30.867  1.00  0.00     0.027 A 
HETATM   27  C   UNL     1      -0.431   6.722 -31.910  1.00  0.00     0.036 A 
ENDBRANCH  22  23
ENDBRANCH  19  22
ENDBRANCH   2  18
TORSDOF 8
ENDMDL
MODEL 4
REMARK VINA RESULT:      -8.0      4.383      6.752
REMARK  8 active torsions:
REMARK  status: ('A' for Active; 'I' for Inactive)
REMARK    1  A    between atoms: C_4  and  O_5 
REMARK    2  A    between atoms: O_5  and  C_6 
REMARK    3  A    between atoms: C_6  and  C_7 
REMARK    4  A    between atoms: C_7  and  N_8 
REMARK    5  A    between atoms: N_8  and  C_9 
REMARK    6  A    between atoms: C_10  and  C_11 
REMARK       I    between atoms: C_11  and  N_12 
REMARK    7  A    between atoms: N_12  and  C_13 
REMARK    8  A    between atoms: C_13  and  C_14 
ROOT
HETATM    1  C   UNL     1      -5.769   1.254 -32.824  1.00  0.00     0.024 A 
HETATM    2  C   UNL     1      -6.309   2.029 -33.874  1.00  0.00     0.053 A 
HETATM    3  C   UNL     1      -6.922   1.396 -34.971  1.00  0.00     0.019 A 
HETATM    4  C   UNL     1      -6.979   0.007 -35.055  1.00  0.00     0.001 A 
HETATM    5  C   UNL     1      -6.421  -0.767 -34.043  1.00  0.00     0.002 A 
HETATM    6  C   UNL     1      -5.826  -0.149 -32.940  1.00  0.00     0.024 A 
ENDROOT
BRANCH   1   7
HETATM    7  N   UNL     1      -5.239   1.790 -31.627  1.00  0.00    -0.290 NA
HETATM    8  H   UNL     1      -4.370   1.325 -31.367  1.00  0.00     0.127 HD
BRANCH   7   9
HETATM    9  C   UNL     1      -6.171   1.819 -30.478  1.00  0.00     0.119 C 
BRANCH   9  10
HETATM   10  C   UNL     1      -7.171   2.983 -30.524  1.00  0.00     0.190 C 
BRANCH  10  11
HETATM   11  O   UNL     1      -8.511   2.516 -30.354  1.00  0.00    -0.350 OA
BRANCH  11  12
HETATM   12  C   UNL     1      -9.115   1.898 -31.415  1.00  0.00     0.068 A 
HETATM   13  C   UNL     1      -9.208   0.522 -31.626  1.00  0.00     0.037 A 
HETATM   14  C   UNL     1      -9.844   0.028 -32.770  1.00  0.00     0.003 A 
HETATM   15  C   UNL     1     -10.390   0.905 -33.706  1.00  0.00     0.000 A 
HETATM   16  C   UNL     1     -10.295   2.278 -33.503  1.00  0.00     0.003 A 
HETATM   17  C   UNL     1      -9.654   2.770 -32.364  1.00  0.00     0.037 A 
ENDBRANCH  11  12
ENDBRANCH  10  11
ENDBRANCH   9  10
ENDBRANCH   7   9
ENDBRANCH   1   7
BRANCH   2  18
HETATM   18  C   UNL     1      -6.225   3.518 -33.951  1.00  0.00     0.253 C 
HETATM   19  N   UNL     1      -4.998   4.070 -33.688  1.00  0.00    -0.351 N 
HETATM   20  H   UNL     1      -4.230   3.450 -33.440  1.00  0.00     0.163 HD
HETATM   21  O   UNL     1      -7.206   4.180 -34.271  1.00  0.00    -0.268 OA
BRANCH  19  22
HETATM   22  C   UNL     1      -4.747   5.478 -33.851  1.00  0.00     0.187 C 
BRANCH  22  23
HETATM   23  C   UNL     1      -3.297   5.684 -34.082  1.00  0.00     0.070 A 
HETATM   24  O   UNL     1      -2.715   6.735 -33.434  1.00  0.00    -0.325 OA
HETATM   25  C   UNL     1      -1.403   6.739 -33.783  1.00  0.00     0.142 A 
HETATM   26  C   UNL     1      -1.133   5.707 -34.651  1.00  0.00     0.027 A 
HETATM   27  C   UNL     1      -2.358   5.025 -34.848  1.00  0.00     0.036 A 
ENDBRANCH  22  23
ENDBRANCH  19  22
ENDBRANCH   2  18
TORSDOF 8
ENDMDL
MODEL 5
REMARK VINA RESULT:      -7.9      4.879      6.828
REMARK  8 active torsions:
REMARK  status: ('A' for Active; 'I' for Inactive)
REMARK    1  A    between atoms: C_4  and  O_5 
REMARK    2  A    between atoms: O_5  and  C_6 
REMARK    3  A    between atoms: C_6  and  C_7 
REMARK    4  A    between atoms: C_7  and  N_8 
REMARK    5  A    between atoms: N_8  and  C_9 
REMARK    6  A    between atoms: C_10  and  C_11 
REMARK       I    between atoms: C_11  and  N_12 
REMARK    7  A    between atoms: N_12  and  C_13 
REMARK    8  A    between atoms: C_13  and  C_14 
ROOT
HETATM    1  C   UNL     1      -7.724   1.247 -32.318  1.00  0.00     0.024 A 
HETATM    2  C   UNL     1      -7.854   2.563 -32.815  1.00  0.00     0.053 A 
HETATM    3  C   UNL     1      -8.890   2.874 -33.716  1.00  0.00     0.019 A 
HETATM    4  C   UNL     1      -9.777   1.893 -34.152  1.00  0.00     0.001 A 
HETATM    5  C   UNL     1      -9.638   0.587 -33.695  1.00  0.00     0.002 A 
HETATM    6  C   UNL     1      -8.624   0.270 -32.786  1.00  0.00     0.024 A 
ENDROOT
BRANCH   1   7
HETATM    7  N   UNL     1      -6.795   0.859 -31.324  1.00  0.00    -0.290 NA
HETATM    8  H   UNL     1      -6.164   1.625 -31.090  1.00  0.00     0.127 HD
BRANCH   7   9
HETATM    9  C   UNL     1      -6.028  -0.370 -31.619  1.00  0.00     0.119 C 
BRANCH   9  10
HETATM   10  C   UNL     1      -4.932  -0.175 -32.677  1.00  0.00     0.190 C 
BRANCH  10  11
HETATM   11  O   UNL     1      -5.370  -0.630 -33.959  1.00  0.00    -0.350 OA
BRANCH  11  12
HETATM   12  C   UNL     1      -5.402  -1.979 -34.185  1.00  0.00     0.068 A 
HETATM   13  C   UNL     1      -4.331  -2.864 -34.057  1.00  0.00     0.037 A 
HETATM   14  C   UNL     1      -4.505  -4.223 -34.338  1.00  0.00     0.003 A 
HETATM   15  C   UNL     1      -5.748  -4.704 -34.745  1.00  0.00     0.000 A 
HETATM   16  C   UNL     1      -6.818  -3.826 -34.881  1.00  0.00     0.003 A 
HETATM   17  C   UNL     1      -6.642  -2.468 -34.606  1.00  0.00     0.037 A 
ENDBRANCH  11  12
ENDBRANCH  10  11
ENDBRANCH   9  10
ENDBRANCH   7   9
ENDBRANCH   1   7
BRANCH   2  18
HETATM   18  C   UNL     1      -6.913   3.679 -32.504  1.00  0.00     0.253 C 
HETATM   19  N   UNL     1      -6.506   4.443 -33.566  1.00  0.00    -0.351 N 
HETATM   20  H   UNL     1      -6.844   4.203 -34.495  1.00  0.00     0.163 HD
HETATM   21  O   UNL     1      -6.570   3.899 -31.347  1.00  0.00    -0.268 OA
BRANCH  19  22
HETATM   22  C   UNL     1      -5.701   5.625 -33.390  1.00  0.00     0.187 C 
BRANCH  22  23
HETATM   23  C   UNL     1      -4.289   5.293 -33.693  1.00  0.00     0.070 A 
HETATM   24  O   UNL     1      -3.850   5.572 -34.956  1.00  0.00    -0.325 OA
HETATM   25  C   UNL     1      -2.547   5.194 -35.014  1.00  0.00     0.142 A 
HETATM   26  C   UNL     1      -2.142   4.671 -33.809  1.00  0.00     0.027 A 
HETATM   27  C   UNL     1      -3.268   4.732 -32.953  1.00  0.00     0.036 A 
ENDBRANCH  22  23
ENDBRANCH  19  22
ENDBRANCH   2  18
TORSDOF 8
ENDMDL
MODEL 6
REMARK VINA RESULT:      -7.8      2.359      4.467
REMARK  8 active torsions:
REMARK  status: ('A' for Active; 'I' for Inactive)
REMARK    1  A    between atoms: C_4  and  O_5 
REMARK    2  A    between atoms: O_5  and  C_6 
REMARK    3  A    between atoms: C_6  and  C_7 
REMARK    4  A    between atoms: C_7  and  N_8 
REMARK    5  A    between atoms: N_8  and  C_9 
REMARK    6  A    between atoms: C_10  and  C_11 
REMARK       I    between atoms: C_11  and  N_12 
REMARK    7  A    between atoms: N_12  and  C_13 
REMARK    8  A    between atoms: C_13  and  C_14 
ROOT
HETATM    1  C   UNL     1      -5.684   2.122 -30.922  1.00  0.00     0.024 A 
HETATM    2  C   UNL     1      -4.801   3.224 -30.947  1.00  0.00     0.053 A 
HETATM    3  C   UNL     1      -5.176   4.439 -30.343  1.00  0.00     0.019 A 
HETATM    4  C   UNL     1      -6.424   4.582 -29.741  1.00  0.00     0.001 A 
HETATM    5  C   UNL     1      -7.314   3.514 -29.739  1.00  0.00     0.002 A 
HETATM    6  C   UNL     1      -6.946   2.297 -30.321  1.00  0.00     0.024 A 
ENDROOT
BRANCH   1   7
HETATM    7  N   UNL     1      -5.359   0.828 -31.395  1.00  0.00    -0.290 NA
HETATM    8  H   UNL     1      -4.408   0.799 -31.762  1.00  0.00     0.127 HD
BRANCH   7   9
HETATM    9  C   UNL     1      -6.307   0.254 -32.373  1.00  0.00     0.119 C 
BRANCH   9  10
HETATM   10  C   UNL     1      -5.710   0.065 -33.775  1.00  0.00     0.190 C 
BRANCH  10  11
HETATM   11  O   UNL     1      -6.388  -0.973 -34.486  1.00  0.00    -0.350 OA
BRANCH  11  12
HETATM   12  C   UNL     1      -5.854  -2.232 -34.448  1.00  0.00     0.068 A 
HETATM   13  C   UNL     1      -4.550  -2.566 -34.083  1.00  0.00     0.037 A 
HETATM   14  C   UNL     1      -4.134  -3.901 -34.106  1.00  0.00     0.003 A 
HETATM   15  C   UNL     1      -5.018  -4.908 -34.490  1.00  0.00     0.000 A 
HETATM   16  C   UNL     1      -6.318  -4.580 -34.861  1.00  0.00     0.003 A 
HETATM   17  C   UNL     1      -6.731  -3.246 -34.844  1.00  0.00     0.037 A 
ENDBRANCH  11  12
ENDBRANCH  10  11
ENDBRANCH   9  10
ENDBRANCH   7   9
ENDBRANCH   1   7
BRANCH   2  18
HETATM   18  C   UNL     1      -3.481   3.230 -31.643  1.00  0.00     0.253 C 
HETATM   19  N   UNL     1      -3.038   4.446 -32.095  1.00  0.00    -0.351 N 
HETATM   20  H   UNL     1      -3.631   5.261 -31.953  1.00  0.00     0.163 HD
HETATM   21  O   UNL     1      -2.832   2.195 -31.756  1.00  0.00    -0.268 OA
BRANCH  19  22
HETATM   22  C   UNL     1      -1.729   4.615 -32.669  1.00  0.00     0.187 C 
BRANCH  22  23
HETATM   23  C   UNL     1      -0.868   5.331 -31.698  1.00  0.00     0.070 A 
HETATM   24  O   UNL     1      -0.394   4.604 -30.644  1.00  0.00    -0.325 OA
HETATM   25  C   UNL     1       0.361   5.443 -29.890  1.00  0.00     0.142 A 
HETATM   26  C   UNL     1       0.376   6.703 -30.441  1.00  0.00     0.027 A 
HETATM   27  C   UNL     1      -0.420   6.633 -31.609  1.00  0.00     0.036 A 
ENDBRANCH  22  23
ENDBRANCH  19  22
ENDBRANCH   2  18
TORSDOF 8
ENDMDL
MODEL 7
REMARK VINA RESULT:      -7.8      3.262      9.788
REMARK  8 active torsions:
REMARK  status: ('A' for Active; 'I' for Inactive)
REMARK    1  A    between atoms: C_4  and  O_5 
REMARK    2  A    between atoms: O_5  and  C_6 
REMARK    3  A    between atoms: C_6  and  C_7 
REMARK    4  A    between atoms: C_7  and  N_8 
REMARK    5  A    between atoms: N_8  and  C_9 
REMARK    6  A    between atoms: C_10  and  C_11 
REMARK       I    between atoms: C_11  and  N_12 
REMARK    7  A    between atoms: N_12  and  C_13 
REMARK    8  A    between atoms: C_13  and  C_14 
ROOT
HETATM    1  C   UNL     1      -6.535   2.040 -30.605  1.00  0.00     0.024 A 
HETATM    2  C   UNL     1      -6.721   0.950 -31.485  1.00  0.00     0.053 A 
HETATM    3  C   UNL     1      -7.997   0.688 -32.017  1.00  0.00     0.019 A 
HETATM    4  C   UNL     1      -9.094   1.472 -31.666  1.00  0.00     0.001 A 
HETATM    5  C   UNL     1      -8.928   2.526 -30.775  1.00  0.00     0.002 A 
HETATM    6  C   UNL     1      -7.662   2.807 -30.253  1.00  0.00     0.024 A 
ENDROOT
BRANCH   1   7
HETATM    7  N   UNL     1      -5.277   2.458 -30.109  1.00  0.00    -0.290 NA
HETATM    8  H   UNL     1      -5.332   2.699 -29.120  1.00  0.00     0.127 HD
BRANCH   7   9
HETATM    9  C   UNL     1      -4.628   3.548 -30.869  1.00  0.00     0.119 C 
BRANCH   9  10
HETATM   10  C   UNL     1      -3.550   3.062 -31.848  1.00  0.00     0.190 C 
BRANCH  10  11
HETATM   11  O   UNL     1      -2.255   3.524 -31.457  1.00  0.00    -0.350 OA
BRANCH  11  12
HETATM   12  C   UNL     1      -1.782   4.671 -32.033  1.00  0.00     0.068 A 
HETATM   13  C   UNL     1      -1.155   5.729 -31.375  1.00  0.00     0.037 A 
HETATM   14  C   UNL     1      -0.734   6.853 -32.093  1.00  0.00     0.003 A 
HETATM   15  C   UNL     1      -0.934   6.924 -33.470  1.00  0.00     0.000 A 
HETATM   16  C   UNL     1      -1.563   5.875 -34.132  1.00  0.00     0.003 A 
HETATM   17  C   UNL     1      -1.990   4.756 -33.413  1.00  0.00     0.037 A 
ENDBRANCH  11  12
ENDBRANCH  10  11
ENDBRANCH   9  10
ENDBRANCH   7   9
ENDBRANCH   1   7
BRANCH   2  18
HETATM   18  C   UNL     1      -5.652  -0.020 -31.862  1.00  0.00     0.253 C 
HETATM   19  N   UNL     1      -5.769  -0.601 -33.098  1.00  0.00    -0.351 N 
HETATM   20  H   UNL     1      -6.572  -0.360 -33.673  1.00  0.00     0.163 HD
HETATM   21  O   UNL     1      -4.713  -0.238 -31.103  1.00  0.00    -0.268 OA
BRANCH  19  22
HETATM   22  C   UNL     1      -4.743  -1.457 -33.637  1.00  0.00     0.187 C 
BRANCH  22  23
HETATM   23  C   UNL     1      -5.376  -2.682 -34.180  1.00  0.00     0.070 A 
HETATM   24  O   UNL     1      -4.612  -3.813 -34.195  1.00  0.00    -0.325 OA
HETATM   25  C   UNL     1      -5.377  -4.802 -34.724  1.00  0.00     0.142 A 
HETATM   26  C   UNL     1      -6.622  -4.322 -35.055  1.00  0.00     0.027 A 
HETATM   27  C   UNL     1      -6.623  -2.950 -34.707  1.00  0.00     0.036 A 
ENDBRANCH  22  23
ENDBRANCH  19  22
ENDBRANCH   2  18
TORSDOF 8
ENDMDL
MODEL 8
REMARK VINA RESULT:      -7.8     18.314     20.126
REMARK  8 active torsions:
REMARK  status: ('A' for Active; 'I' for Inactive)
REMARK    1  A    between atoms: C_4  and  O_5 
REMARK    2  A    between atoms: O_5  and  C_6 
REMARK    3  A    between atoms: C_6  and  C_7 
REMARK    4  A    between atoms: C_7  and  N_8 
REMARK    5  A    between atoms: N_8  and  C_9 
REMARK    6  A    between atoms: C_10  and  C_11 
REMARK       I    between atoms: C_11  and  N_12 
REMARK    7  A    between atoms: N_12  and  C_13 
REMARK    8  A    between atoms: C_13  and  C_14 
ROOT
HETATM    1  C   UNL     1      -6.689 -12.690 -38.161  1.00  0.00     0.024 A 
HETATM    2  C   UNL     1      -5.470 -12.347 -38.785  1.00  0.00     0.053 A 
HETATM    3  C   UNL     1      -5.449 -12.024 -40.155  1.00  0.00     0.019 A 
HETATM    4  C   UNL     1      -6.614 -12.065 -40.918  1.00  0.00     0.001 A 
HETATM    5  C   UNL     1      -7.814 -12.434 -40.320  1.00  0.00     0.002 A 
HETATM    6  C   UNL     1      -7.850 -12.740 -38.957  1.00  0.00     0.024 A 
ENDROOT
BRANCH   1   7
HETATM    7  N   UNL     1      -6.838 -12.916 -36.772  1.00  0.00    -0.290 NA
HETATM    8  H   UNL     1      -6.000 -12.637 -36.261  1.00  0.00     0.127 HD
BRANCH   7   9
HETATM    9  C   UNL     1      -7.241 -14.287 -36.392  1.00  0.00     0.119 C 
BRANCH   9  10
HETATM   10  C   UNL     1      -6.091 -15.302 -36.432  1.00  0.00     0.190 C 
BRANCH  10  11
HETATM   11  O   UNL     1      -6.288 -16.261 -37.474  1.00  0.00    -0.350 OA
BRANCH  11  12
HETATM   12  C   UNL     1      -5.649 -16.053 -38.666  1.00  0.00     0.068 A 
HETATM   13  C   UNL     1      -4.279 -15.862 -38.847  1.00  0.00     0.037 A 
HETATM   14  C   UNL     1      -3.763 -15.645 -40.129  1.00  0.00     0.003 A 
HETATM   15  C   UNL     1      -4.612 -15.620 -41.234  1.00  0.00     0.000 A 
HETATM   16  C   UNL     1      -5.980 -15.804 -41.059  1.00  0.00     0.003 A 
HETATM   17  C   UNL     1      -6.495 -16.014 -39.778  1.00  0.00     0.037 A 
ENDBRANCH  11  12
ENDBRANCH  10  11
ENDBRANCH   9  10
ENDBRANCH   7   9
ENDBRANCH   1   7
BRANCH   2  18
HETATM   18  C   UNL     1      -4.142 -12.360 -38.105  1.00  0.00     0.253 C 
HETATM   19  N   UNL     1      -3.041 -12.336 -38.922  1.00  0.00    -0.351 N 
HETATM   20  H   UNL     1      -3.185 -12.330 -39.929  1.00  0.00     0.163 HD
HETATM   21  O   UNL     1      -4.070 -12.355 -36.881  1.00  0.00    -0.268 OA
BRANCH  19  22
HETATM   22  C   UNL     1      -1.705 -12.218 -38.397  1.00  0.00     0.187 C 
BRANCH  22  23
HETATM   23  C   UNL     1      -0.887 -13.342 -38.909  1.00  0.00     0.070 A 
HETATM   24  O   UNL     1      -0.920 -13.562 -40.257  1.00  0.00    -0.325 OA
HETATM   25  C   UNL     1      -0.112 -14.623 -40.505  1.00  0.00     0.142 A 
HETATM   26  C   UNL     1       0.438 -15.094 -39.336  1.00  0.00     0.027 A 
HETATM   27  C   UNL     1      -0.064 -14.268 -38.302  1.00  0.00     0.036 A 
ENDBRANCH  22  23
ENDBRANCH  19  22
ENDBRANCH   2  18
TORSDOF 8
ENDMDL
MODEL 9
REMARK VINA RESULT:      -7.7      3.783     10.654
REMARK  8 active torsions:
REMARK  status: ('A' for Active; 'I' for Inactive)
REMARK    1  A    between atoms: C_4  and  O_5 
REMARK    2  A    between atoms: O_5  and  C_6 
REMARK    3  A    between atoms: C_6  and  C_7 
REMARK    4  A    between atoms: C_7  and  N_8 
REMARK    5  A    between atoms: N_8  and  C_9 
REMARK    6  A    between atoms: C_10  and  C_11 
REMARK       I    between atoms: C_11  and  N_12 
REMARK    7  A    between atoms: N_12  and  C_13 
REMARK    8  A    between atoms: C_13  and  C_14 
ROOT
HETATM    1  C   UNL     1      -5.980   0.718 -33.188  1.00  0.00     0.024 A 
HETATM    2  C   UNL     1      -7.289   0.569 -33.699  1.00  0.00     0.053 A 
HETATM    3  C   UNL     1      -7.644  -0.607 -34.387  1.00  0.00     0.019 A 
HETATM    4  C   UNL     1      -6.713  -1.621 -34.599  1.00  0.00     0.001 A 
HETATM    5  C   UNL     1      -5.413  -1.470 -34.129  1.00  0.00     0.002 A 
HETATM    6  C   UNL     1      -5.053  -0.315 -33.429  1.00  0.00     0.024 A 
ENDROOT
BRANCH   1   7
HETATM    7  N   UNL     1      -5.557   1.803 -32.385  1.00  0.00    -0.290 NA
HETATM    8  H   UNL     1      -5.993   2.675 -32.684  1.00  0.00     0.127 HD
BRANCH   7   9
HETATM    9  C   UNL     1      -4.092   1.972 -32.269  1.00  0.00     0.119 C 
BRANCH   9  10
HETATM   10  C   UNL     1      -3.675   3.162 -31.393  1.00  0.00     0.190 C 
BRANCH  10  11
HETATM   11  O   UNL     1      -2.284   3.451 -31.549  1.00  0.00    -0.350 OA
BRANCH  11  12
HETATM   12  C   UNL     1      -1.932   4.495 -32.361  1.00  0.00     0.068 A 
HETATM   13  C   UNL     1      -2.216   4.616 -33.721  1.00  0.00     0.037 A 
HETATM   14  C   UNL     1      -1.778   5.737 -34.433  1.00  0.00     0.003 A 
HETATM   15  C   UNL     1      -1.059   6.743 -33.790  1.00  0.00     0.000 A 
HETATM   16  C   UNL     1      -0.768   6.625 -32.435  1.00  0.00     0.003 A 
HETATM   17  C   UNL     1      -1.199   5.502 -31.726  1.00  0.00     0.037 A 
ENDBRANCH  11  12
ENDBRANCH  10  11
ENDBRANCH   9  10
ENDBRANCH   7   9
ENDBRANCH   1   7
BRANCH   2  18
HETATM   18  C   UNL     1      -8.347   1.619 -33.625  1.00  0.00     0.253 C 
HETATM   19  N   UNL     1      -9.382   1.501 -34.516  1.00  0.00    -0.351 N 
HETATM   20  H   UNL     1      -9.363   0.732 -35.182  1.00  0.00     0.163 HD
HETATM   21  O   UNL     1      -8.287   2.503 -32.777  1.00  0.00    -0.268 OA
BRANCH  19  22
HETATM   22  C   UNL     1     -10.529   2.370 -34.470  1.00  0.00     0.187 C 
BRANCH  22  23
HETATM   23  C   UNL     1     -11.752   1.543 -34.342  1.00  0.00     0.070 A 
HETATM   24  O   UNL     1     -11.677   0.458 -33.515  1.00  0.00    -0.325 OA
HETATM   25  C   UNL     1     -12.891  -0.149 -33.545  1.00  0.00     0.142 A 
HETATM   26  C   UNL     1     -13.746   0.527 -34.384  1.00  0.00     0.027 A 
HETATM   27  C   UNL     1     -13.011   1.619 -34.902  1.00  0.00     0.036 A 
ENDBRANCH  22  23
ENDBRANCH  19  22
ENDBRANCH   2  18
TORSDOF 8
ENDMDL
MODEL 10
REMARK VINA RESULT:      -7.7      3.621      8.212
REMARK  8 active torsions:
REMARK  status: ('A' for Active; 'I' for Inactive)
REMARK    1  A    between atoms: C_4  and  O_5 
REMARK    2  A    between atoms: O_5  and  C_6 
REMARK    3  A    between atoms: C_6  and  C_7 
REMARK    4  A    between atoms: C_7  and  N_8 
REMARK    5  A    between atoms: N_8  and  C_9 
REMARK    6  A    between atoms: C_10  and  C_11 
REMARK       I    between atoms: C_11  and  N_12 
REMARK    7  A    between atoms: N_12  and  C_13 
REMARK    8  A    between atoms: C_13  and  C_14 
ROOT
HETATM    1  C   UNL     1      -5.088  -0.529 -32.879  1.00  0.00     0.024 A 
HETATM    2  C   UNL     1      -6.333  -0.333 -33.518  1.00  0.00     0.053 A 
HETATM    3  C   UNL     1      -6.782  -1.257 -34.479  1.00  0.00     0.019 A 
HETATM    4  C   UNL     1      -6.002  -2.356 -34.834  1.00  0.00     0.001 A 
HETATM    5  C   UNL     1      -4.762  -2.541 -34.236  1.00  0.00     0.002 A 
HETATM    6  C   UNL     1      -4.312  -1.639 -33.267  1.00  0.00     0.024 A 
ENDROOT
BRANCH   1   7
HETATM    7  N   UNL     1      -4.600   0.272 -31.820  1.00  0.00    -0.290 NA
HETATM    8  H   UNL     1      -5.343   0.844 -31.418  1.00  0.00     0.127 HD
BRANCH   7   9
HETATM    9  C   UNL     1      -3.426   1.110 -32.148  1.00  0.00     0.119 C 
BRANCH   9  10
HETATM   10  C   UNL     1      -3.668   2.614 -31.959  1.00  0.00     0.190 C 
BRANCH  10  11
HETATM   11  O   UNL     1      -2.467   3.281 -31.565  1.00  0.00    -0.350 OA
BRANCH  11  12
HETATM   12  C   UNL     1      -2.112   4.417 -32.240  1.00  0.00     0.068 A 
HETATM   13  C   UNL     1      -1.708   5.625 -31.670  1.00  0.00     0.037 A 
HETATM   14  C   UNL     1      -1.388   6.714 -32.487  1.00  0.00     0.003 A 
HETATM   15  C   UNL     1      -1.469   6.602 -33.874  1.00  0.00     0.000 A 
HETATM   16  C   UNL     1      -1.877   5.402 -34.447  1.00  0.00     0.003 A 
HETATM   17  C   UNL     1      -2.202   4.317 -33.631  1.00  0.00     0.037 A 
ENDBRANCH  11  12
ENDBRANCH  10  11
ENDBRANCH   9  10
ENDBRANCH   7   9
ENDBRANCH   1   7
BRANCH   2  18
HETATM   18  C   UNL     1      -7.214   0.851 -33.298  1.00  0.00     0.253 C 
HETATM   19  N   UNL     1      -6.721   2.061 -33.715  1.00  0.00    -0.351 N 
HETATM   20  H   UNL     1      -5.790   2.089 -34.125  1.00  0.00     0.163 HD
HETATM   21  O   UNL     1      -8.329   0.715 -32.806  1.00  0.00    -0.268 OA
BRANCH  19  22
HETATM   22  C   UNL     1      -7.516   3.261 -33.680  1.00  0.00     0.187 C 
BRANCH  22  23
HETATM   23  C   UNL     1      -6.681   4.375 -33.171  1.00  0.00     0.070 A 
HETATM   24  O   UNL     1      -6.720   4.607 -31.826  1.00  0.00    -0.325 OA
HETATM   25  C   UNL     1      -5.894   5.656 -31.581  1.00  0.00     0.142 A 
HETATM   26  C   UNL     1      -5.328   6.106 -32.750  1.00  0.00     0.027 A 
HETATM   27  C   UNL     1      -5.837   5.280 -33.780  1.00  0.00     0.036 A 
ENDBRANCH  22  23
ENDBRANCH  19  22
ENDBRANCH   2  18
TORSDOF 8
ENDMDL
