MODEL 1
REMARK VINA RESULT:      -7.8      0.000      0.000
REMARK  10 active torsions:
REMARK  status: ('A' for Active; 'I' for Inactive)
REMARK    1  A    between atoms: C_2  and  O_3 
REMARK    2  A    between atoms: O_3  and  C_4 
REMARK    3  A    between atoms: C_4  and  C_5 
REMARK    4  A    between atoms: C_6  and  C_7 
REMARK    5  A    between atoms: C_16  and  C_17 
REMARK    6  A    between atoms: C_17  and  C_18 
REMARK       I    between atoms: C_18  and  N_19 
REMARK    7  A    between atoms: N_19  and  C_20 
REMARK    8  A    between atoms: C_20  and  C_21 
REMARK    9  A    between atoms: C_21  and  N_22 
REMARK   10  A    between atoms: C_31  and  C_32 
ROOT
HETATM    1  C   UNL     1      -4.696   3.739 -32.829  1.00  0.00     0.078 C 
HETATM    2  C   UNL     1      -5.882   3.101 -32.164  1.00  0.00     0.167 C 
HETATM    3  N   UNL     1      -7.165   3.761 -32.514  1.00  0.00    -0.318 N 
HETATM    4  C   UNL     1      -8.385   3.628 -32.100  1.00  0.00     0.011 C 
HETATM    5  C   UNL     1      -7.068   4.772 -33.682  1.00  0.00     0.170 C 
HETATM    6  S   UNL     1      -8.618   5.398 -34.130  1.00  0.00    -0.086 SA
HETATM    7  C   UNL     1      -9.404   4.543 -32.745  1.00  0.00     0.135 C 
HETATM    8  N   UNL     1      -5.990   5.126 -34.279  1.00  0.00    -0.219 NA
HETATM    9  C   UNL     1      -4.768   4.667 -33.810  1.00  0.00     0.157 C 
ENDROOT
BRANCH   4  10
HETATM   10  C   UNL     1      -8.802   2.617 -31.070  1.00  0.00     0.156 C 
BRANCH  10  11
HETATM   11  C   UNL     1      -9.408   1.337 -31.596  1.00  0.00     0.223 C 
HETATM   12  N   UNL     1     -10.287   1.521 -32.633  1.00  0.00    -0.359 N 
HETATM   13  H   UNL     1     -10.539   2.476 -32.884  1.00  0.00     0.162 HD
HETATM   14  O   UNL     1      -9.098   0.228 -31.169  1.00  0.00    -0.273 OA
BRANCH  12  15
HETATM   15  C   UNL     1     -11.163   0.485 -33.184  1.00  0.00     0.150 C 
BRANCH  15  16
HETATM   16  C   UNL     1     -12.368   0.988 -34.007  1.00  0.00     0.253 C 
BRANCH  16  17
HETATM   17  N   UNL     1     -13.620   1.151 -33.168  1.00  0.00    -0.077 N 
HETATM   18  H   UNL     1     -13.504   0.555 -32.326  1.00  0.00     0.279 HD
HETATM   19  C   UNL     1     -13.828   2.558 -32.670  1.00  0.00     0.269 C 
HETATM   20  C   UNL     1     -14.847   0.669 -33.896  1.00  0.00     0.269 C 
ENDBRANCH  16  17
ENDBRANCH  15  16
ENDBRANCH  12  15
ENDBRANCH  10  11
ENDBRANCH   4  10
BRANCH   2  21
HETATM   21  C   UNL     1      -5.973   1.598 -32.440  1.00  0.00    -0.024 A 
HETATM   22  C   UNL     1      -5.688   0.624 -31.452  1.00  0.00    -0.053 A 
HETATM   23  C   UNL     1      -5.139   0.937 -30.085  1.00  0.00     0.049 C 
HETATM   24  C   UNL     1      -5.840  -0.737 -31.769  1.00  0.00     0.008 A 
HETATM   25  C   UNL     1      -6.280  -1.143 -33.027  1.00  0.00     0.007 A 
HETATM   26  C   UNL     1      -6.555  -0.201 -34.013  1.00  0.00    -0.061 A 
HETATM   27  C   UNL     1      -6.970  -0.642 -35.388  1.00  0.00     0.048 C 
HETATM   28  C   UNL     1      -6.373   1.157 -33.726  1.00  0.00     0.017 A 
ENDBRANCH   2  21
BRANCH   1  29
HETATM   29  C   UNL     1      -3.413   3.378 -32.193  1.00  0.00     0.294 C 
HETATM   30  O   UNL     1      -2.794   2.388 -32.550  1.00  0.00    -0.259 OA
BRANCH  29  31
HETATM   31  O   UNL     1      -3.059   4.300 -31.281  1.00  0.00    -0.318 OA
BRANCH  31  32
HETATM   32  C   UNL     1      -1.668   4.671 -31.263  1.00  0.00     0.174 C 
HETATM   33  C   UNL     1      -1.512   6.138 -30.915  1.00  0.00     0.034 C 
ENDBRANCH  31  32
ENDBRANCH  29  31
ENDBRANCH   1  29
BRANCH   9  34
HETATM   34  C   UNL     1      -3.522   5.365 -34.398  1.00  0.00     0.435 C 
HETATM   35  F   UNL     1      -2.439   4.551 -34.372  1.00  0.00    -0.165 F 
HETATM   36  F   UNL     1      -3.709   5.713 -35.695  1.00  0.00    -0.165 F 
HETATM   37  F   UNL     1      -3.209   6.482 -33.702  1.00  0.00    -0.165 F 
ENDBRANCH   9  34
TORSDOF 10
ENDMDL
MODEL 2
REMARK VINA RESULT:      -7.4      2.287      4.038
REMARK  10 active torsions:
REMARK  status: ('A' for Active; 'I' for Inactive)
REMARK    1  A    between atoms: C_2  and  O_3 
REMARK    2  A    between atoms: O_3  and  C_4 
REMARK    3  A    between atoms: C_4  and  C_5 
REMARK    4  A    between atoms: C_6  and  C_7 
REMARK    5  A    between atoms: C_16  and  C_17 
REMARK    6  A    between atoms: C_17  and  C_18 
REMARK       I    between atoms: C_18  and  N_19 
REMARK    7  A    between atoms: N_19  and  C_20 
REMARK    8  A    between atoms: C_20  and  C_21 
REMARK    9  A    between atoms: C_21  and  N_22 
REMARK   10  A    between atoms: C_31  and  C_32 
ROOT
HETATM    1  C   UNL     1      -6.393   3.825 -32.984  1.00  0.00     0.078 C 
HETATM    2  C   UNL     1      -7.669   3.823 -32.192  1.00  0.00     0.167 C 
HETATM    3  N   UNL     1      -8.014   5.161 -31.650  1.00  0.00    -0.318 N 
HETATM    4  C   UNL     1      -8.930   5.594 -30.842  1.00  0.00     0.011 C 
HETATM    5  C   UNL     1      -7.167   6.323 -32.223  1.00  0.00     0.170 C 
HETATM    6  S   UNL     1      -7.712   7.866 -31.658  1.00  0.00    -0.086 SA
HETATM    7  C   UNL     1      -8.902   7.079 -30.548  1.00  0.00     0.135 C 
HETATM    8  N   UNL     1      -6.175   6.202 -33.028  1.00  0.00    -0.219 NA
HETATM    9  C   UNL     1      -5.722   4.935 -33.366  1.00  0.00     0.157 C 
ENDROOT
BRANCH   4  10
HETATM   10  C   UNL     1      -9.986   4.710 -30.242  1.00  0.00     0.156 C 
BRANCH  10  11
HETATM   11  C   UNL     1     -11.367   4.814 -30.844  1.00  0.00     0.223 C 
HETATM   12  N   UNL     1     -12.308   4.036 -30.219  1.00  0.00    -0.359 N 
HETATM   13  H   UNL     1     -11.992   3.387 -29.499  1.00  0.00     0.162 HD
HETATM   14  O   UNL     1     -11.634   5.571 -31.775  1.00  0.00    -0.273 OA
BRANCH  12  15
HETATM   15  C   UNL     1     -13.662   3.789 -30.722  1.00  0.00     0.150 C 
BRANCH  15  16
HETATM   16  C   UNL     1     -13.754   3.124 -32.112  1.00  0.00     0.253 C 
BRANCH  16  17
HETATM   17  N   UNL     1     -14.686   1.928 -32.126  1.00  0.00    -0.077 N 
HETATM   18  H   UNL     1     -14.496   1.383 -31.263  1.00  0.00     0.279 HD
HETATM   19  C   UNL     1     -16.144   2.306 -32.081  1.00  0.00     0.269 C 
HETATM   20  C   UNL     1     -14.416   1.024 -33.300  1.00  0.00     0.269 C 
ENDBRANCH  16  17
ENDBRANCH  15  16
ENDBRANCH  12  15
ENDBRANCH  10  11
ENDBRANCH   4  10
BRANCH   2  21
HETATM   21  C   UNL     1      -8.851   3.257 -32.984  1.00  0.00    -0.024 A 
HETATM   22  C   UNL     1      -9.447   2.011 -32.675  1.00  0.00    -0.053 A 
HETATM   23  C   UNL     1      -8.916   1.048 -31.646  1.00  0.00     0.049 C 
HETATM   24  C   UNL     1     -10.559   1.581 -33.419  1.00  0.00     0.008 A 
HETATM   25  C   UNL     1     -11.095   2.363 -34.440  1.00  0.00     0.007 A 
HETATM   26  C   UNL     1     -10.516   3.586 -34.764  1.00  0.00    -0.061 A 
HETATM   27  C   UNL     1     -11.057   4.400 -35.905  1.00  0.00     0.048 C 
HETATM   28  C   UNL     1      -9.386   4.012 -34.058  1.00  0.00     0.017 A 
ENDBRANCH   2  21
BRANCH   1  29
HETATM   29  C   UNL     1      -5.829   2.473 -33.174  1.00  0.00     0.294 C 
HETATM   30  O   UNL     1      -5.170   1.940 -32.295  1.00  0.00    -0.259 OA
BRANCH  29  31
HETATM   31  O   UNL     1      -6.203   1.965 -34.362  1.00  0.00    -0.318 OA
BRANCH  31  32
HETATM   32  C   UNL     1      -6.447   0.547 -34.395  1.00  0.00     0.174 C 
HETATM   33  C   UNL     1      -7.605   0.226 -35.318  1.00  0.00     0.034 C 
ENDBRANCH  31  32
ENDBRANCH  29  31
ENDBRANCH   1  29
BRANCH   9  34
HETATM   34  C   UNL     1      -4.363   4.886 -34.097  1.00  0.00     0.435 C 
HETATM   35  F   UNL     1      -3.758   6.099 -34.102  1.00  0.00    -0.165 F 
HETATM   36  F   UNL     1      -3.501   4.030 -33.493  1.00  0.00    -0.165 F 
HETATM   37  F   UNL     1      -4.510   4.499 -35.384  1.00  0.00    -0.165 F 
ENDBRANCH   9  34
TORSDOF 10
ENDMDL
MODEL 3
REMARK VINA RESULT:      -7.2      1.743      2.580
REMARK  10 active torsions:
REMARK  status: ('A' for Active; 'I' for Inactive)
REMARK    1  A    between atoms: C_2  and  O_3 
REMARK    2  A    between atoms: O_3  and  C_4 
REMARK    3  A    between atoms: C_4  and  C_5 
REMARK    4  A    between atoms: C_6  and  C_7 
REMARK    5  A    between atoms: C_16  and  C_17 
REMARK    6  A    between atoms: C_17  and  C_18 
REMARK       I    between atoms: C_18  and  N_19 
REMARK    7  A    between atoms: N_19  and  C_20 
REMARK    8  A    between atoms: C_20  and  C_21 
REMARK    9  A    between atoms: C_21  and  N_22 
REMARK   10  A    between atoms: C_31  and  C_32 
ROOT
HETATM    1  C   UNL     1      -4.177   3.621 -32.201  1.00  0.00     0.078 C 
HETATM    2  C   UNL     1      -5.462   3.364 -31.467  1.00  0.00     0.167 C 
HETATM    3  N   UNL     1      -6.398   4.515 -31.522  1.00  0.00    -0.318 N 
HETATM    4  C   UNL     1      -7.533   4.776 -30.955  1.00  0.00     0.011 C 
HETATM    5  C   UNL     1      -5.999   5.619 -32.531  1.00  0.00     0.170 C 
HETATM    6  S   UNL     1      -7.201   6.859 -32.647  1.00  0.00    -0.086 SA
HETATM    7  C   UNL     1      -8.150   6.115 -31.300  1.00  0.00     0.135 C 
HETATM    8  N   UNL     1      -4.920   5.646 -33.223  1.00  0.00    -0.219 NA
HETATM    9  C   UNL     1      -3.950   4.678 -33.013  1.00  0.00     0.157 C 
ENDROOT
BRANCH   4  10
HETATM   10  C   UNL     1      -8.236   3.821 -30.034  1.00  0.00     0.156 C 
BRANCH  10  11
HETATM   11  C   UNL     1      -9.590   3.326 -30.487  1.00  0.00     0.223 C 
HETATM   12  N   UNL     1     -10.621   4.185 -30.201  1.00  0.00    -0.359 N 
HETATM   13  H   UNL     1     -10.419   5.002 -29.627  1.00  0.00     0.162 HD
HETATM   14  O   UNL     1      -9.743   2.277 -31.107  1.00  0.00    -0.273 OA
BRANCH  12  15
HETATM   15  C   UNL     1     -12.043   3.863 -30.341  1.00  0.00     0.150 C 
BRANCH  15  16
HETATM   16  C   UNL     1     -12.636   4.028 -31.757  1.00  0.00     0.253 C 
BRANCH  16  17
HETATM   17  N   UNL     1     -12.603   2.740 -32.557  1.00  0.00    -0.077 N 
HETATM   18  H   UNL     1     -12.136   2.025 -31.966  1.00  0.00     0.279 HD
HETATM   19  C   UNL     1     -13.972   2.201 -32.880  1.00  0.00     0.269 C 
HETATM   20  C   UNL     1     -11.788   2.886 -33.815  1.00  0.00     0.269 C 
ENDBRANCH  16  17
ENDBRANCH  15  16
ENDBRANCH  12  15
ENDBRANCH  10  11
ENDBRANCH   4  10
BRANCH   2  21
HETATM   21  C   UNL     1      -6.167   2.091 -31.943  1.00  0.00    -0.024 A 
HETATM   22  C   UNL     1      -6.477   1.021 -31.070  1.00  0.00    -0.053 A 
HETATM   23  C   UNL     1      -6.037   0.944 -29.631  1.00  0.00     0.049 C 
HETATM   24  C   UNL     1      -7.167  -0.095 -31.573  1.00  0.00     0.008 A 
HETATM   25  C   UNL     1      -7.567  -0.160 -32.906  1.00  0.00     0.007 A 
HETATM   26  C   UNL     1      -7.262   0.879 -33.782  1.00  0.00    -0.061 A 
HETATM   27  C   UNL     1      -7.639   0.781 -35.233  1.00  0.00     0.048 C 
HETATM   28  C   UNL     1      -6.542   1.980 -33.305  1.00  0.00     0.017 A 
ENDBRANCH   2  21
BRANCH   1  29
HETATM   29  C   UNL     1      -3.098   2.685 -31.822  1.00  0.00     0.294 C 
HETATM   30  O   UNL     1      -2.323   2.958 -30.920  1.00  0.00    -0.259 OA
BRANCH  29  31
HETATM   31  O   UNL     1      -3.172   1.557 -32.548  1.00  0.00    -0.318 OA
BRANCH  31  32
HETATM   32  C   UNL     1      -3.072   0.323 -31.813  1.00  0.00     0.174 C 
HETATM   33  C   UNL     1      -3.650  -0.825 -32.616  1.00  0.00     0.034 C 
ENDBRANCH  31  32
ENDBRANCH  29  31
ENDBRANCH   1  29
BRANCH   9  34
HETATM   34  C   UNL     1      -2.580   4.951 -33.671  1.00  0.00     0.435 C 
HETATM   35  F   UNL     1      -2.654   5.964 -34.569  1.00  0.00    -0.165 F 
HETATM   36  F   UNL     1      -1.649   5.318 -32.756  1.00  0.00    -0.165 F 
HETATM   37  F   UNL     1      -2.122   3.860 -34.325  1.00  0.00    -0.165 F 
ENDBRANCH   9  34
TORSDOF 10
ENDMDL
MODEL 4
REMARK VINA RESULT:      -7.1      2.431      3.906
REMARK  10 active torsions:
REMARK  status: ('A' for Active; 'I' for Inactive)
REMARK    1  A    between atoms: C_2  and  O_3 
REMARK    2  A    between atoms: O_3  and  C_4 
REMARK    3  A    between atoms: C_4  and  C_5 
REMARK    4  A    between atoms: C_6  and  C_7 
REMARK    5  A    between atoms: C_16  and  C_17 
REMARK    6  A    between atoms: C_17  and  C_18 
REMARK       I    between atoms: C_18  and  N_19 
REMARK    7  A    between atoms: N_19  and  C_20 
REMARK    8  A    between atoms: C_20  and  C_21 
REMARK    9  A    between atoms: C_21  and  N_22 
REMARK   10  A    between atoms: C_31  and  C_32 
ROOT
HETATM    1  C   UNL     1      -4.148   4.158 -32.644  1.00  0.00     0.078 C 
HETATM    2  C   UNL     1      -5.155   3.113 -33.031  1.00  0.00     0.167 C 
HETATM    3  N   UNL     1      -4.725   1.737 -32.674  1.00  0.00    -0.318 N 
HETATM    4  C   UNL     1      -5.205   0.557 -32.911  1.00  0.00     0.011 C 
HETATM    5  C   UNL     1      -3.488   1.671 -31.747  1.00  0.00     0.170 C 
HETATM    6  S   UNL     1      -3.126   0.051 -31.257  1.00  0.00    -0.086 SA
HETATM    7  C   UNL     1      -4.411  -0.603 -32.348  1.00  0.00     0.135 C 
HETATM    8  N   UNL     1      -2.788   2.674 -31.358  1.00  0.00    -0.219 NA
HETATM    9  C   UNL     1      -3.065   3.936 -31.864  1.00  0.00     0.157 C 
ENDROOT
BRANCH   4  10
HETATM   10  C   UNL     1      -6.481   0.320 -33.667  1.00  0.00     0.156 C 
BRANCH  10  11
HETATM   11  C   UNL     1      -7.740   0.213 -32.838  1.00  0.00     0.223 C 
HETATM   12  N   UNL     1      -8.897   0.292 -33.571  1.00  0.00    -0.359 N 
HETATM   13  H   UNL     1      -8.823   0.522 -34.561  1.00  0.00     0.162 HD
HETATM   14  O   UNL     1      -7.725   0.016 -31.626  1.00  0.00    -0.273 OA
BRANCH  12  15
HETATM   15  C   UNL     1     -10.241   0.425 -33.003  1.00  0.00     0.150 C 
BRANCH  15  16
HETATM   16  C   UNL     1     -11.292   1.102 -33.910  1.00  0.00     0.253 C 
BRANCH  16  17
HETATM   17  N   UNL     1     -12.669   1.144 -33.276  1.00  0.00    -0.077 N 
HETATM   18  H   UNL     1     -12.537   1.038 -32.252  1.00  0.00     0.279 HD
HETATM   19  C   UNL     1     -13.383   2.454 -33.483  1.00  0.00     0.269 C 
HETATM   20  C   UNL     1     -13.531  -0.001 -33.741  1.00  0.00     0.269 C 
ENDBRANCH  16  17
ENDBRANCH  15  16
ENDBRANCH  12  15
ENDBRANCH  10  11
ENDBRANCH   4  10
BRANCH   2  21
HETATM   21  C   UNL     1      -6.545   3.394 -32.455  1.00  0.00    -0.024 A 
HETATM   22  C   UNL     1      -6.821   3.328 -31.068  1.00  0.00    -0.053 A 
HETATM   23  C   UNL     1      -5.842   2.850 -30.029  1.00  0.00     0.049 C 
HETATM   24  C   UNL     1      -8.113   3.645 -30.612  1.00  0.00     0.008 A 
HETATM   25  C   UNL     1      -9.117   4.037 -31.494  1.00  0.00     0.007 A 
HETATM   26  C   UNL     1      -8.867   4.097 -32.862  1.00  0.00    -0.061 A 
HETATM   27  C   UNL     1      -9.967   4.460 -33.818  1.00  0.00     0.048 C 
HETATM   28  C   UNL     1      -7.597   3.749 -33.336  1.00  0.00     0.017 A 
ENDBRANCH   2  21
BRANCH   1  29
HETATM   29  C   UNL     1      -4.354   5.445 -33.339  1.00  0.00     0.294 C 
HETATM   30  O   UNL     1      -4.288   5.516 -34.556  1.00  0.00    -0.259 OA
BRANCH  29  31
HETATM   31  O   UNL     1      -4.666   6.413 -32.461  1.00  0.00    -0.318 OA
BRANCH  31  32
HETATM   32  C   UNL     1      -6.050   6.808 -32.419  1.00  0.00     0.174 C 
HETATM   33  C   UNL     1      -6.509   6.994 -30.987  1.00  0.00     0.034 C 
ENDBRANCH  31  32
ENDBRANCH  29  31
ENDBRANCH   1  29
BRANCH   9  34
HETATM   34  C   UNL     1      -2.005   5.020 -31.572  1.00  0.00     0.435 C 
HETATM   35  F   UNL     1      -1.593   5.630 -32.710  1.00  0.00    -0.165 F 
HETATM   36  F   UNL     1      -2.497   5.996 -30.769  1.00  0.00    -0.165 F 
HETATM   37  F   UNL     1      -0.913   4.491 -30.974  1.00  0.00    -0.165 F 
ENDBRANCH   9  34
TORSDOF 10
ENDMDL
MODEL 5
REMARK VINA RESULT:      -7.0      3.467      7.691
REMARK  10 active torsions:
REMARK  status: ('A' for Active; 'I' for Inactive)
REMARK    1  A    between atoms: C_2  and  O_3 
REMARK    2  A    between atoms: O_3  and  C_4 
REMARK    3  A    between atoms: C_4  and  C_5 
REMARK    4  A    between atoms: C_6  and  C_7 
REMARK    5  A    between atoms: C_16  and  C_17 
REMARK    6  A    between atoms: C_17  and  C_18 
REMARK       I    between atoms: C_18  and  N_19 
REMARK    7  A    between atoms: N_19  and  C_20 
REMARK    8  A    between atoms: C_20  and  C_21 
REMARK    9  A    between atoms: C_21  and  N_22 
REMARK   10  A    between atoms: C_31  and  C_32 
ROOT
HETATM    1  C   UNL     1      -8.984   3.695 -32.488  1.00  0.00     0.078 C 
HETATM    2  C   UNL     1      -7.543   3.471 -32.847  1.00  0.00     0.167 C 
HETATM    3  N   UNL     1      -6.633   4.466 -32.225  1.00  0.00    -0.318 N 
HETATM    4  C   UNL     1      -5.368   4.722 -32.342  1.00  0.00     0.011 C 
HETATM    5  C   UNL     1      -7.291   5.345 -31.135  1.00  0.00     0.170 C 
HETATM    6  S   UNL     1      -6.146   6.382 -30.355  1.00  0.00    -0.086 SA
HETATM    7  C   UNL     1      -4.846   5.867 -31.501  1.00  0.00     0.135 C 
HETATM    8  N   UNL     1      -8.533   5.333 -30.811  1.00  0.00    -0.219 NA
HETATM    9  C   UNL     1      -9.420   4.554 -31.540  1.00  0.00     0.157 C 
ENDROOT
BRANCH   4  10
HETATM   10  C   UNL     1      -4.443   3.932 -33.224  1.00  0.00     0.156 C 
BRANCH  10  11
HETATM   11  C   UNL     1      -2.989   4.341 -33.206  1.00  0.00     0.223 C 
HETATM   12  N   UNL     1      -2.661   5.272 -34.159  1.00  0.00    -0.359 N 
HETATM   13  H   UNL     1      -3.368   5.521 -34.850  1.00  0.00     0.162 HD
HETATM   14  O   UNL     1      -2.188   3.919 -32.377  1.00  0.00    -0.273 OA
BRANCH  12  15
HETATM   15  C   UNL     1      -1.295   5.682 -34.495  1.00  0.00     0.150 C 
BRANCH  15  16
HETATM   16  C   UNL     1      -0.777   6.950 -33.783  1.00  0.00     0.253 C 
BRANCH  16  17
HETATM   17  N   UNL     1      -1.086   6.952 -32.299  1.00  0.00    -0.077 N 
HETATM   18  H   UNL     1      -1.685   6.125 -32.109  1.00  0.00     0.279 HD
HETATM   19  C   UNL     1       0.138   6.802 -31.433  1.00  0.00     0.269 C 
HETATM   20  C   UNL     1      -1.866   8.176 -31.893  1.00  0.00     0.269 C 
ENDBRANCH  16  17
ENDBRANCH  15  16
ENDBRANCH  12  15
ENDBRANCH  10  11
ENDBRANCH   4  10
BRANCH   2  21
HETATM   21  C   UNL     1      -7.069   2.052 -32.522  1.00  0.00    -0.024 A 
HETATM   22  C   UNL     1      -6.822   1.085 -33.526  1.00  0.00    -0.053 A 
HETATM   23  C   UNL     1      -7.121   1.282 -34.988  1.00  0.00     0.049 C 
HETATM   24  C   UNL     1      -6.344  -0.183 -33.151  1.00  0.00     0.008 A 
HETATM   25  C   UNL     1      -6.093  -0.498 -31.817  1.00  0.00     0.007 A 
HETATM   26  C   UNL     1      -6.340   0.437 -30.816  1.00  0.00    -0.061 A 
HETATM   27  C   UNL     1      -6.128   0.076 -29.373  1.00  0.00     0.048 C 
HETATM   28  C   UNL     1      -6.851   1.691 -31.169  1.00  0.00     0.017 A 
ENDBRANCH   2  21
BRANCH   1  29
HETATM   29  C   UNL     1      -9.920   2.999 -33.395  1.00  0.00     0.294 C 
HETATM   30  O   UNL     1     -10.025   3.336 -34.564  1.00  0.00    -0.259 OA
BRANCH  29  31
HETATM   31  O   UNL     1     -10.523   1.978 -32.763  1.00  0.00    -0.318 OA
BRANCH  31  32
HETATM   32  C   UNL     1     -10.578   0.732 -33.482  1.00  0.00     0.174 C 
HETATM   33  C   UNL     1     -10.036  -0.399 -32.631  1.00  0.00     0.034 C 
ENDBRANCH  31  32
ENDBRANCH  29  31
ENDBRANCH   1  29
BRANCH   9  34
HETATM   34  C   UNL     1     -10.917   4.821 -31.272  1.00  0.00     0.435 C 
HETATM   35  F   UNL     1     -11.596   5.041 -32.424  1.00  0.00    -0.165 F 
HETATM   36  F   UNL     1     -11.514   3.761 -30.671  1.00  0.00    -0.165 F 
HETATM   37  F   UNL     1     -11.090   5.906 -30.484  1.00  0.00    -0.165 F 
ENDBRANCH   9  34
TORSDOF 10
ENDMDL
MODEL 6
REMARK VINA RESULT:      -7.0      3.596      7.892
REMARK  10 active torsions:
REMARK  status: ('A' for Active; 'I' for Inactive)
REMARK    1  A    between atoms: C_2  and  O_3 
REMARK    2  A    between atoms: O_3  and  C_4 
REMARK    3  A    between atoms: C_4  and  C_5 
REMARK    4  A    between atoms: C_6  and  C_7 
REMARK    5  A    between atoms: C_16  and  C_17 
REMARK    6  A    between atoms: C_17  and  C_18 
REMARK       I    between atoms: C_18  and  N_19 
REMARK    7  A    between atoms: N_19  and  C_20 
REMARK    8  A    between atoms: C_20  and  C_21 
REMARK    9  A    between atoms: C_21  and  N_22 
REMARK   10  A    between atoms: C_31  and  C_32 
ROOT
HETATM    1  C   UNL     1      -9.135   3.016 -32.665  1.00  0.00     0.078 C 
HETATM    2  C   UNL     1      -7.831   2.949 -31.922  1.00  0.00     0.167 C 
HETATM    3  N   UNL     1      -7.137   1.647 -32.088  1.00  0.00    -0.318 N 
HETATM    4  C   UNL     1      -6.080   1.120 -31.557  1.00  0.00     0.011 C 
HETATM    5  C   UNL     1      -7.735   0.738 -33.188  1.00  0.00     0.170 C 
HETATM    6  S   UNL     1      -6.798  -0.698 -33.426  1.00  0.00    -0.086 SA
HETATM    7  C   UNL     1      -5.734  -0.278 -32.026  1.00  0.00     0.135 C 
HETATM    8  N   UNL     1      -8.792   0.984 -33.871  1.00  0.00    -0.219 NA
HETATM    9  C   UNL     1      -9.557   2.101 -33.567  1.00  0.00     0.157 C 
ENDROOT
BRANCH   4  10
HETATM   10  C   UNL     1      -5.212   1.833 -30.560  1.00  0.00     0.156 C 
BRANCH  10  11
HETATM   11  C   UNL     1      -3.809   2.165 -31.009  1.00  0.00     0.223 C 
HETATM   12  N   UNL     1      -3.523   3.507 -31.001  1.00  0.00    -0.359 N 
HETATM   13  H   UNL     1      -4.285   4.157 -30.810  1.00  0.00     0.162 HD
HETATM   14  O   UNL     1      -2.982   1.305 -31.301  1.00  0.00    -0.273 OA
BRANCH  12  15
HETATM   15  C   UNL     1      -2.323   4.112 -31.582  1.00  0.00     0.150 C 
BRANCH  15  16
HETATM   16  C   UNL     1      -1.938   5.504 -31.035  1.00  0.00     0.253 C 
BRANCH  16  17
HETATM   17  N   UNL     1      -0.792   5.445 -30.044  1.00  0.00    -0.077 N 
HETATM   18  H   UNL     1      -0.953   4.616 -29.439  1.00  0.00     0.279 HD
HETATM   19  C   UNL     1       0.552   5.246 -30.694  1.00  0.00     0.269 C 
HETATM   20  C   UNL     1      -0.766   6.657 -29.149  1.00  0.00     0.269 C 
ENDBRANCH  16  17
ENDBRANCH  15  16
ENDBRANCH  12  15
ENDBRANCH  10  11
ENDBRANCH   4  10
BRANCH   2  21
HETATM   21  C   UNL     1      -6.886   4.097 -32.288  1.00  0.00    -0.024 A 
HETATM   22  C   UNL     1      -6.726   5.241 -31.469  1.00  0.00    -0.053 A 
HETATM   23  C   UNL     1      -7.547   5.527 -30.240  1.00  0.00     0.049 C 
HETATM   24  C   UNL     1      -5.804   6.232 -31.851  1.00  0.00     0.008 A 
HETATM   25  C   UNL     1      -5.037   6.101 -33.006  1.00  0.00     0.007 A 
HETATM   26  C   UNL     1      -5.188   4.989 -33.828  1.00  0.00    -0.061 A 
HETATM   27  C   UNL     1      -4.405   4.879 -35.106  1.00  0.00     0.048 C 
HETATM   28  C   UNL     1      -6.129   4.011 -33.483  1.00  0.00     0.017 A 
ENDBRANCH   2  21
BRANCH   1  29
HETATM   29  C   UNL     1     -10.013   4.106 -32.195  1.00  0.00     0.294 C 
HETATM   30  O   UNL     1     -10.099   5.153 -32.817  1.00  0.00    -0.259 OA
BRANCH  29  31
HETATM   31  O   UNL     1     -10.687   3.731 -31.093  1.00  0.00    -0.318 OA
BRANCH  31  32
HETATM   32  C   UNL     1     -11.686   4.652 -30.619  1.00  0.00     0.174 C 
HETATM   33  C   UNL     1     -13.077   4.129 -30.914  1.00  0.00     0.034 C 
ENDBRANCH  31  32
ENDBRANCH  29  31
ENDBRANCH   1  29
BRANCH   9  34
HETATM   34  C   UNL     1     -10.947   2.160 -34.235  1.00  0.00     0.435 C 
HETATM   35  F   UNL     1     -11.942   2.145 -33.314  1.00  0.00    -0.165 F 
HETATM   36  F   UNL     1     -11.108   3.298 -34.955  1.00  0.00    -0.165 F 
HETATM   37  F   UNL     1     -11.142   1.107 -35.061  1.00  0.00    -0.165 F 
ENDBRANCH   9  34
TORSDOF 10
ENDMDL
MODEL 7
REMARK VINA RESULT:      -6.9      2.616      4.422
REMARK  10 active torsions:
REMARK  status: ('A' for Active; 'I' for Inactive)
REMARK    1  A    between atoms: C_2  and  O_3 
REMARK    2  A    between atoms: O_3  and  C_4 
REMARK    3  A    between atoms: C_4  and  C_5 
REMARK    4  A    between atoms: C_6  and  C_7 
REMARK    5  A    between atoms: C_16  and  C_17 
REMARK    6  A    between atoms: C_17  and  C_18 
REMARK       I    between atoms: C_18  and  N_19 
REMARK    7  A    between atoms: N_19  and  C_20 
REMARK    8  A    between atoms: C_20  and  C_21 
REMARK    9  A    between atoms: C_21  and  N_22 
REMARK   10  A    between atoms: C_31  and  C_32 
ROOT
HETATM    1  C   UNL     1      -6.995   3.514 -32.819  1.00  0.00     0.078 C 
HETATM    2  C   UNL     1      -8.305   3.353 -32.102  1.00  0.00     0.167 C 
HETATM    3  N   UNL     1      -8.822   4.631 -31.550  1.00  0.00    -0.318 N 
HETATM    4  C   UNL     1      -9.822   4.939 -30.786  1.00  0.00     0.011 C 
HETATM    5  C   UNL     1      -8.076   5.892 -32.046  1.00  0.00     0.170 C 
HETATM    6  S   UNL     1      -8.814   7.351 -31.478  1.00  0.00    -0.086 SA
HETATM    7  C   UNL     1      -9.971   6.410 -30.457  1.00  0.00     0.135 C 
HETATM    8  N   UNL     1      -7.034   5.901 -32.795  1.00  0.00    -0.219 NA
HETATM    9  C   UNL     1      -6.429   4.700 -33.136  1.00  0.00     0.157 C 
ENDROOT
BRANCH   4  10
HETATM   10  C   UNL     1     -10.807   3.931 -30.267  1.00  0.00     0.156 C 
BRANCH  10  11
HETATM   11  C   UNL     1     -12.256   4.164 -30.628  1.00  0.00     0.223 C 
HETATM   12  N   UNL     1     -12.629   3.605 -31.824  1.00  0.00    -0.359 N 
HETATM   13  H   UNL     1     -11.902   3.191 -32.407  1.00  0.00     0.162 HD
HETATM   14  O   UNL     1     -13.041   4.753 -29.889  1.00  0.00    -0.273 OA
BRANCH  12  15
HETATM   15  C   UNL     1     -13.902   3.853 -32.505  1.00  0.00     0.150 C 
BRANCH  15  16
HETATM   16  C   UNL     1     -14.002   5.182 -33.284  1.00  0.00     0.253 C 
BRANCH  16  17
HETATM   17  N   UNL     1     -13.084   6.254 -32.730  1.00  0.00    -0.077 N 
HETATM   18  H   UNL     1     -12.610   5.851 -31.899  1.00  0.00     0.279 HD
HETATM   19  C   UNL     1     -11.995   6.663 -33.687  1.00  0.00     0.269 C 
HETATM   20  C   UNL     1     -13.854   7.463 -32.267  1.00  0.00     0.269 C 
ENDBRANCH  16  17
ENDBRANCH  15  16
ENDBRANCH  12  15
ENDBRANCH  10  11
ENDBRANCH   4  10
BRANCH   2  21
HETATM   21  C   UNL     1      -9.374   2.688 -32.972  1.00  0.00    -0.024 A 
HETATM   22  C   UNL     1      -9.812   1.358 -32.757  1.00  0.00    -0.053 A 
HETATM   23  C   UNL     1      -9.196   0.413 -31.760  1.00  0.00     0.049 C 
HETATM   24  C   UNL     1     -10.831   0.833 -33.570  1.00  0.00     0.008 A 
HETATM   25  C   UNL     1     -11.429   1.599 -34.569  1.00  0.00     0.007 A 
HETATM   26  C   UNL     1     -11.005   2.904 -34.802  1.00  0.00    -0.061 A 
HETATM   27  C   UNL     1     -11.606   3.708 -35.919  1.00  0.00     0.048 C 
HETATM   28  C   UNL     1      -9.965   3.429 -34.026  1.00  0.00     0.017 A 
ENDBRANCH   2  21
BRANCH   1  29
HETATM   29  C   UNL     1      -6.279   2.236 -33.008  1.00  0.00     0.294 C 
HETATM   30  O   UNL     1      -5.724   1.685 -32.070  1.00  0.00    -0.259 OA
BRANCH  29  31
HETATM   31  O   UNL     1      -6.403   1.805 -34.275  1.00  0.00    -0.318 OA
BRANCH  31  32
HETATM   32  C   UNL     1      -6.461   0.378 -34.455  1.00  0.00     0.174 C 
HETATM   33  C   UNL     1      -7.645  -0.003 -35.321  1.00  0.00     0.034 C 
ENDBRANCH  31  32
ENDBRANCH  29  31
ENDBRANCH   1  29
BRANCH   9  34
HETATM   34  C   UNL     1      -5.035   4.817 -33.789  1.00  0.00     0.435 C 
HETATM   35  F   UNL     1      -5.058   4.417 -35.083  1.00  0.00    -0.165 F 
HETATM   36  F   UNL     1      -4.590   6.098 -33.791  1.00  0.00    -0.165 F 
HETATM   37  F   UNL     1      -4.124   4.055 -33.142  1.00  0.00    -0.165 F 
ENDBRANCH   9  34
TORSDOF 10
ENDMDL
MODEL 8
REMARK VINA RESULT:      -6.8      3.707      7.753
REMARK  10 active torsions:
REMARK  status: ('A' for Active; 'I' for Inactive)
REMARK    1  A    between atoms: C_2  and  O_3 
REMARK    2  A    between atoms: O_3  and  C_4 
REMARK    3  A    between atoms: C_4  and  C_5 
REMARK    4  A    between atoms: C_6  and  C_7 
REMARK    5  A    between atoms: C_16  and  C_17 
REMARK    6  A    between atoms: C_17  and  C_18 
REMARK       I    between atoms: C_18  and  N_19 
REMARK    7  A    between atoms: N_19  and  C_20 
REMARK    8  A    between atoms: C_20  and  C_21 
REMARK    9  A    between atoms: C_21  and  N_22 
REMARK   10  A    between atoms: C_31  and  C_32 
ROOT
HETATM    1  C   UNL     1      -5.538   1.595 -31.697  1.00  0.00     0.078 C 
HETATM    2  C   UNL     1      -5.831   2.966 -31.159  1.00  0.00     0.167 C 
HETATM    3  N   UNL     1      -4.662   3.878 -31.235  1.00  0.00    -0.318 N 
HETATM    4  C   UNL     1      -4.428   5.075 -30.798  1.00  0.00     0.011 C 
HETATM    5  C   UNL     1      -3.485   3.343 -32.086  1.00  0.00     0.170 C 
HETATM    6  S   UNL     1      -2.217   4.510 -32.249  1.00  0.00    -0.086 SA
HETATM    7  C   UNL     1      -3.053   5.631 -31.103  1.00  0.00     0.135 C 
HETATM    8  N   UNL     1      -3.420   2.183 -32.629  1.00  0.00    -0.219 NA
HETATM    9  C   UNL     1      -4.421   1.256 -32.380  1.00  0.00     0.157 C 
ENDROOT
BRANCH   4  10
HETATM   10  C   UNL     1      -5.444   5.899 -30.060  1.00  0.00     0.156 C 
BRANCH  10  11
HETATM   11  C   UNL     1      -4.907   6.831 -28.999  1.00  0.00     0.223 C 
HETATM   12  N   UNL     1      -4.453   6.191 -27.873  1.00  0.00    -0.359 N 
HETATM   13  H   UNL     1      -4.612   5.187 -27.796  1.00  0.00     0.162 HD
HETATM   14  O   UNL     1      -4.833   8.047 -29.156  1.00  0.00    -0.273 OA
BRANCH  12  15
HETATM   15  C   UNL     1      -4.080   6.857 -26.623  1.00  0.00     0.150 C 
BRANCH  15  16
HETATM   16  C   UNL     1      -2.657   7.455 -26.576  1.00  0.00     0.253 C 
BRANCH  16  17
HETATM   17  N   UNL     1      -1.646   6.612 -27.329  1.00  0.00    -0.077 N 
HETATM   18  H   UNL     1      -2.154   5.789 -27.706  1.00  0.00     0.279 HD
HETATM   19  C   UNL     1      -1.042   7.320 -28.514  1.00  0.00     0.269 C 
HETATM   20  C   UNL     1      -0.562   6.096 -26.420  1.00  0.00     0.269 C 
ENDBRANCH  16  17
ENDBRANCH  15  16
ENDBRANCH  12  15
ENDBRANCH  10  11
ENDBRANCH   4  10
BRANCH   2  21
HETATM   21  C   UNL     1      -7.045   3.614 -31.829  1.00  0.00    -0.024 A 
HETATM   22  C   UNL     1      -7.071   3.937 -33.207  1.00  0.00    -0.053 A 
HETATM   23  C   UNL     1      -5.887   3.816 -34.130  1.00  0.00     0.049 C 
HETATM   24  C   UNL     1      -8.241   4.488 -33.759  1.00  0.00     0.008 A 
HETATM   25  C   UNL     1      -9.376   4.705 -32.982  1.00  0.00     0.007 A 
HETATM   26  C   UNL     1      -9.366   4.403 -31.624  1.00  0.00    -0.061 A 
HETATM   27  C   UNL     1     -10.570   4.694 -30.773  1.00  0.00     0.048 C 
HETATM   28  C   UNL     1      -8.197   3.889 -31.050  1.00  0.00     0.017 A 
ENDBRANCH   2  21
BRANCH   1  29
HETATM   29  C   UNL     1      -6.522   0.582 -31.265  1.00  0.00     0.294 C 
HETATM   30  O   UNL     1      -6.470   0.098 -30.145  1.00  0.00    -0.259 OA
BRANCH  29  31
HETATM   31  O   UNL     1      -7.437   0.368 -32.226  1.00  0.00    -0.318 OA
BRANCH  31  32
HETATM   32  C   UNL     1      -8.813   0.397 -31.807  1.00  0.00     0.174 C 
HETATM   33  C   UNL     1      -9.702   0.892 -32.931  1.00  0.00     0.034 C 
ENDBRANCH  31  32
ENDBRANCH  29  31
ENDBRANCH   1  29
BRANCH   9  34
HETATM   34  C   UNL     1      -4.119  -0.190 -32.831  1.00  0.00     0.435 C 
HETATM   35  F   UNL     1      -2.875  -0.295 -33.359  1.00  0.00    -0.165 F 
HETATM   36  F   UNL     1      -4.169  -1.059 -31.791  1.00  0.00    -0.165 F 
HETATM   37  F   UNL     1      -4.997  -0.606 -33.771  1.00  0.00    -0.165 F 
ENDBRANCH   9  34
TORSDOF 10
ENDMDL
MODEL 9
REMARK VINA RESULT:      -6.7      3.274      4.891
REMARK  10 active torsions:
REMARK  status: ('A' for Active; 'I' for Inactive)
REMARK    1  A    between atoms: C_2  and  O_3 
REMARK    2  A    between atoms: O_3  and  C_4 
REMARK    3  A    between atoms: C_4  and  C_5 
REMARK    4  A    between atoms: C_6  and  C_7 
REMARK    5  A    between atoms: C_16  and  C_17 
REMARK    6  A    between atoms: C_17  and  C_18 
REMARK       I    between atoms: C_18  and  N_19 
REMARK    7  A    between atoms: N_19  and  C_20 
REMARK    8  A    between atoms: C_20  and  C_21 
REMARK    9  A    between atoms: C_21  and  N_22 
REMARK   10  A    between atoms: C_31  and  C_32 
ROOT
HETATM    1  C   UNL     1      -6.827   3.537 -32.930  1.00  0.00     0.078 C 
HETATM    2  C   UNL     1      -8.119   3.444 -32.170  1.00  0.00     0.167 C 
HETATM    3  N   UNL     1      -8.582   4.757 -31.654  1.00  0.00    -0.318 N 
HETATM    4  C   UNL     1      -9.549   5.124 -30.875  1.00  0.00     0.011 C 
HETATM    5  C   UNL     1      -7.814   5.975 -32.221  1.00  0.00     0.170 C 
HETATM    6  S   UNL     1      -8.493   7.476 -31.690  1.00  0.00    -0.086 SA
HETATM    7  C   UNL     1      -9.646   6.610 -30.600  1.00  0.00     0.135 C 
HETATM    8  N   UNL     1      -6.796   5.923 -32.999  1.00  0.00    -0.219 NA
HETATM    9  C   UNL     1      -6.236   4.693 -33.309  1.00  0.00     0.157 C 
ENDROOT
BRANCH   4  10
HETATM   10  C   UNL     1     -10.548   4.167 -30.290  1.00  0.00     0.156 C 
BRANCH  10  11
HETATM   11  C   UNL     1     -11.984   4.350 -30.723  1.00  0.00     0.223 C 
HETATM   12  N   UNL     1     -12.688   5.245 -29.955  1.00  0.00    -0.359 N 
HETATM   13  H   UNL     1     -12.239   5.614 -29.118  1.00  0.00     0.162 HD
HETATM   14  O   UNL     1     -12.460   3.791 -31.707  1.00  0.00    -0.273 OA
BRANCH  12  15
HETATM   15  C   UNL     1     -14.136   5.450 -30.024  1.00  0.00     0.150 C 
BRANCH  15  16
HETATM   16  C   UNL     1     -14.677   6.689 -29.277  1.00  0.00     0.253 C 
BRANCH  16  17
HETATM   17  N   UNL     1     -15.049   6.386 -27.839  1.00  0.00    -0.077 N 
HETATM   18  H   UNL     1     -14.894   5.370 -27.690  1.00  0.00     0.279 HD
HETATM   19  C   UNL     1     -14.186   7.103 -26.834  1.00  0.00     0.269 C 
HETATM   20  C   UNL     1     -16.505   6.663 -27.569  1.00  0.00     0.269 C 
ENDBRANCH  16  17
ENDBRANCH  15  16
ENDBRANCH  12  15
ENDBRANCH  10  11
ENDBRANCH   4  10
BRANCH   2  21
HETATM   21  C   UNL     1      -9.233   2.778 -32.983  1.00  0.00    -0.024 A 
HETATM   22  C   UNL     1      -9.689   1.464 -32.716  1.00  0.00    -0.053 A 
HETATM   23  C   UNL     1      -9.056   0.533 -31.716  1.00  0.00     0.049 C 
HETATM   24  C   UNL     1     -10.747   0.940 -33.478  1.00  0.00     0.008 A 
HETATM   25  C   UNL     1     -11.365   1.691 -34.475  1.00  0.00     0.007 A 
HETATM   26  C   UNL     1     -10.923   2.980 -34.758  1.00  0.00    -0.061 A 
HETATM   27  C   UNL     1     -11.549   3.766 -35.875  1.00  0.00     0.048 C 
HETATM   28  C   UNL     1      -9.846   3.504 -34.035  1.00  0.00     0.017 A 
ENDBRANCH   2  21
BRANCH   1  29
HETATM   29  C   UNL     1      -6.154   2.232 -33.088  1.00  0.00     0.294 C 
HETATM   30  O   UNL     1      -5.582   1.704 -32.148  1.00  0.00    -0.259 OA
BRANCH  29  31
HETATM   31  O   UNL     1      -6.335   1.752 -34.331  1.00  0.00    -0.318 OA
BRANCH  31  32
HETATM   32  C   UNL     1      -6.453   0.322 -34.447  1.00  0.00     0.174 C 
HETATM   33  C   UNL     1      -7.641  -0.047 -35.313  1.00  0.00     0.034 C 
ENDBRANCH  31  32
ENDBRANCH  29  31
ENDBRANCH   1  29
BRANCH   9  34
HETATM   34  C   UNL     1      -4.859   4.742 -34.005  1.00  0.00     0.435 C 
HETATM   35  F   UNL     1      -4.353   6.000 -34.016  1.00  0.00    -0.165 F 
HETATM   36  F   UNL     1      -3.947   3.968 -33.366  1.00  0.00    -0.165 F 
HETATM   37  F   UNL     1      -4.940   4.326 -35.289  1.00  0.00    -0.165 F 
ENDBRANCH   9  34
TORSDOF 10
ENDMDL
MODEL 10
REMARK VINA RESULT:      -6.7     16.657     19.485
REMARK  10 active torsions:
REMARK  status: ('A' for Active; 'I' for Inactive)
REMARK    1  A    between atoms: C_2  and  O_3 
REMARK    2  A    between atoms: O_3  and  C_4 
REMARK    3  A    between atoms: C_4  and  C_5 
REMARK    4  A    between atoms: C_6  and  C_7 
REMARK    5  A    between atoms: C_16  and  C_17 
REMARK    6  A    between atoms: C_17  and  C_18 
REMARK       I    between atoms: C_18  and  N_19 
REMARK    7  A    between atoms: N_19  and  C_20 
REMARK    8  A    between atoms: C_20  and  C_21 
REMARK    9  A    between atoms: C_21  and  N_22 
REMARK   10  A    between atoms: C_31  and  C_32 
ROOT
HETATM    1  C   UNL     1      -5.617 -14.788 -36.253  1.00  0.00     0.078 C 
HETATM    2  C   UNL     1      -5.383 -15.091 -37.706  1.00  0.00     0.167 C 
HETATM    3  N   UNL     1      -6.355 -14.414 -38.600  1.00  0.00    -0.318 N 
HETATM    4  C   UNL     1      -6.598 -14.474 -39.871  1.00  0.00     0.011 C 
HETATM    5  C   UNL     1      -7.222 -13.335 -37.907  1.00  0.00     0.170 C 
HETATM    6  S   UNL     1      -8.231 -12.490 -39.030  1.00  0.00    -0.086 SA
HETATM    7  C   UNL     1      -7.722 -13.591 -40.371  1.00  0.00     0.135 C 
HETATM    8  N   UNL     1      -7.219 -13.064 -36.653  1.00  0.00    -0.219 NA
HETATM    9  C   UNL     1      -6.464 -13.842 -35.788  1.00  0.00     0.157 C 
ENDROOT
BRANCH   4  10
HETATM   10  C   UNL     1      -5.813 -15.331 -40.823  1.00  0.00     0.156 C 
BRANCH  10  11
HETATM   11  C   UNL     1      -4.951 -14.602 -41.826  1.00  0.00     0.223 C 
HETATM   12  N   UNL     1      -5.025 -15.111 -43.099  1.00  0.00    -0.359 N 
HETATM   13  H   UNL     1      -5.545 -15.976 -43.239  1.00  0.00     0.162 HD
HETATM   14  O   UNL     1      -4.289 -13.608 -41.539  1.00  0.00    -0.273 OA
BRANCH  12  15
HETATM   15  C   UNL     1      -4.145 -14.731 -44.206  1.00  0.00     0.150 C 
BRANCH  15  16
HETATM   16  C   UNL     1      -3.201 -15.836 -44.727  1.00  0.00     0.253 C 
BRANCH  16  17
HETATM   17  N   UNL     1      -3.326 -16.052 -46.223  1.00  0.00    -0.077 N 
HETATM   18  H   UNL     1      -3.237 -15.121 -46.675  1.00  0.00     0.279 HD
HETATM   19  C   UNL     1      -2.230 -16.912 -46.796  1.00  0.00     0.269 C 
HETATM   20  C   UNL     1      -4.676 -16.606 -46.596  1.00  0.00     0.269 C 
ENDBRANCH  16  17
ENDBRANCH  15  16
ENDBRANCH  12  15
ENDBRANCH  10  11
ENDBRANCH   4  10
BRANCH   2  21
HETATM   21  C   UNL     1      -3.953 -14.774 -38.150  1.00  0.00    -0.024 A 
HETATM   22  C   UNL     1      -3.089 -15.755 -38.693  1.00  0.00    -0.053 A 
HETATM   23  C   UNL     1      -3.414 -17.224 -38.769  1.00  0.00     0.049 C 
HETATM   24  C   UNL     1      -1.805 -15.376 -39.120  1.00  0.00     0.008 A 
HETATM   25  C   UNL     1      -1.374 -14.054 -39.036  1.00  0.00     0.007 A 
HETATM   26  C   UNL     1      -2.205 -13.077 -38.496  1.00  0.00    -0.061 A 
HETATM   27  C   UNL     1      -1.717 -11.664 -38.349  1.00  0.00     0.048 C 
HETATM   28  C   UNL     1      -3.473 -13.445 -38.031  1.00  0.00     0.017 A 
ENDBRANCH   2  21
BRANCH   1  29
HETATM   29  C   UNL     1      -4.949 -15.746 -35.348  1.00  0.00     0.294 C 
HETATM   30  O   UNL     1      -5.442 -16.840 -35.122  1.00  0.00    -0.259 OA
BRANCH  29  31
HETATM   31  O   UNL     1      -3.775 -15.253 -34.919  1.00  0.00    -0.318 OA
BRANCH  31  32
HETATM   32  C   UNL     1      -2.651 -16.151 -34.982  1.00  0.00     0.174 C 
HETATM   33  C   UNL     1      -1.392 -15.403 -35.371  1.00  0.00     0.034 C 
ENDBRANCH  31  32
ENDBRANCH  29  31
ENDBRANCH   1  29
BRANCH   9  34
HETATM   34  C   UNL     1      -6.744 -13.632 -34.284  1.00  0.00     0.435 C 
HETATM   35  F   UNL     1      -7.527 -12.546 -34.073  1.00  0.00    -0.165 F 
HETATM   36  F   UNL     1      -7.400 -14.689 -33.745  1.00  0.00    -0.165 F 
HETATM   37  F   UNL     1      -5.597 -13.449 -33.592  1.00  0.00    -0.165 F 
ENDBRANCH   9  34
TORSDOF 10
ENDMDL
