MODEL 1
REMARK VINA RESULT:      -8.1      0.000      0.000
REMARK  8 active torsions:
REMARK  status: ('A' for Active; 'I' for Inactive)
REMARK    1  A    between atoms: C_7  and  C_8 
REMARK       I    between atoms: C_8  and  N_9 
REMARK    2  A    between atoms: N_9  and  C_10 
REMARK    3  A    between atoms: C_12  and  C_13 
REMARK       I    between atoms: C_13  and  N_14 
REMARK    4  A    between atoms: N_14  and  C_15 
REMARK    5  A    between atoms: C_15  and  C_16 
REMARK    6  A    between atoms: C_16  and  C_17 
REMARK    7  A    between atoms: C_18  and  O_19 
REMARK    8  A    between atoms: C_23  and  O_24 
ROOT
HETATM    1  C   UNL     1      -3.086   5.560 -32.189  1.00  0.00     0.035 A 
HETATM    2  C   UNL     1      -4.325   4.954 -32.411  1.00  0.00     0.046 A 
HETATM    3  C   UNL     1      -4.764   4.703 -33.720  1.00  0.00     0.034 A 
HETATM    4  C   UNL     1      -3.973   5.080 -34.810  1.00  0.00     0.017 A 
HETATM    5  C   UNL     1      -2.733   5.675 -34.594  1.00  0.00     0.003 A 
HETATM    6  C   UNL     1      -2.291   5.908 -33.290  1.00  0.00     0.029 A 
ENDROOT
BRANCH   3   7
HETATM    7  C   UNL     1      -6.085   4.079 -33.988  1.00  0.00     0.251 C 
HETATM    8  N   UNL     1      -6.122   2.702 -33.983  1.00  0.00    -0.357 N 
HETATM    9  H   UNL     1      -5.277   2.176 -33.798  1.00  0.00     0.162 HD
HETATM   10  O   UNL     1      -7.058   4.788 -34.219  1.00  0.00    -0.268 OA
BRANCH   8  11
HETATM   11  C   UNL     1      -7.373   1.974 -34.100  1.00  0.00     0.127 C 
BRANCH  11  12
HETATM   12  C   UNL     1      -7.410   0.701 -33.249  1.00  0.00     0.061 C 
BRANCH  12  13
HETATM   13  C   UNL     1      -6.354  -0.368 -33.482  1.00  0.00    -0.021 A 
HETATM   14  C   UNL     1      -5.120  -0.262 -32.801  1.00  0.00     0.074 A 
HETATM   15  C   UNL     1      -4.132  -1.231 -32.995  1.00  0.00     0.040 A 
HETATM   16  C   UNL     1      -4.350  -2.292 -33.874  1.00  0.00     0.039 A 
HETATM   17  C   UNL     1      -5.548  -2.398 -34.577  1.00  0.00     0.068 A 
HETATM   18  C   UNL     1      -6.541  -1.434 -34.385  1.00  0.00     0.046 A 
BRANCH  14  19
HETATM   19  O   UNL     1      -4.987   0.820 -31.969  1.00  0.00    -0.355 OA
HETATM   20  C   UNL     1      -3.674   1.156 -31.537  1.00  0.00     0.210 C 
ENDBRANCH  14  19
BRANCH  17  21
HETATM   21  O   UNL     1      -5.623  -3.478 -35.413  1.00  0.00    -0.356 OA
HETATM   22  C   UNL     1      -6.676  -4.403 -35.180  1.00  0.00     0.210 C 
ENDBRANCH  17  21
ENDBRANCH  12  13
ENDBRANCH  11  12
ENDBRANCH   8  11
ENDBRANCH   3   7
BRANCH   1  23
HETATM   23  N   UNL     1      -2.576   5.859 -30.911  1.00  0.00    -0.322 N 
HETATM   24  C   UNL     1      -2.563   7.078 -30.258  1.00  0.00     0.265 C 
HETATM   25  O   UNL     1      -2.999   8.129 -30.716  1.00  0.00    -0.267 OA
HETATM   26  H   UNL     1      -2.112   5.104 -30.417  1.00  0.00     0.169 HD
BRANCH  24  27
HETATM   27  C   UNL     1      -1.914   7.026 -28.880  1.00  0.00     0.097 C 
HETATM   28  C   UNL     1      -0.568   6.933 -28.742  1.00  0.00     0.064 C 
HETATM   29  C   UNL     1       0.404   7.005 -29.893  1.00  0.00     0.078 C 
HETATM   30  O   UNL     1       0.109   6.808 -27.538  1.00  0.00    -0.353 OA
HETATM   31  C   UNL     1      -0.654   6.352 -26.420  1.00  0.00     0.185 C 
HETATM   32  C   UNL     1      -1.835   7.262 -26.160  1.00  0.00     0.106 C 
HETATM   33  S   UNL     1      -3.015   7.070 -27.517  1.00  0.00    -0.120 SA
ENDBRANCH  24  27
ENDBRANCH   1  23
TORSDOF 8
ENDMDL
MODEL 2
REMARK VINA RESULT:      -8.0      2.441      3.312
REMARK  8 active torsions:
REMARK  status: ('A' for Active; 'I' for Inactive)
REMARK    1  A    between atoms: C_7  and  C_8 
REMARK       I    between atoms: C_8  and  N_9 
REMARK    2  A    between atoms: N_9  and  C_10 
REMARK    3  A    between atoms: C_12  and  C_13 
REMARK       I    between atoms: C_13  and  N_14 
REMARK    4  A    between atoms: N_14  and  C_15 
REMARK    5  A    between atoms: C_15  and  C_16 
REMARK    6  A    between atoms: C_16  and  C_17 
REMARK    7  A    between atoms: C_18  and  O_19 
REMARK    8  A    between atoms: C_23  and  O_24 
ROOT
HETATM    1  C   UNL     1      -5.838   4.974 -30.275  1.00  0.00     0.035 A 
HETATM    2  C   UNL     1      -6.555   4.089 -31.084  1.00  0.00     0.046 A 
HETATM    3  C   UNL     1      -7.948   3.978 -30.948  1.00  0.00     0.034 A 
HETATM    4  C   UNL     1      -8.621   4.736 -29.986  1.00  0.00     0.017 A 
HETATM    5  C   UNL     1      -7.913   5.627 -29.184  1.00  0.00     0.003 A 
HETATM    6  C   UNL     1      -6.529   5.748 -29.333  1.00  0.00     0.029 A 
ENDROOT
BRANCH   3   7
HETATM    7  C   UNL     1      -8.734   3.031 -31.780  1.00  0.00     0.251 C 
HETATM    8  N   UNL     1      -8.067   2.447 -32.835  1.00  0.00    -0.357 N 
HETATM    9  H   UNL     1      -7.094   2.668 -33.001  1.00  0.00     0.162 HD
HETATM   10  O   UNL     1      -9.915   2.828 -31.521  1.00  0.00    -0.268 OA
BRANCH   8  11
HETATM   11  C   UNL     1      -8.683   1.407 -33.641  1.00  0.00     0.127 C 
BRANCH  11  12
HETATM   12  C   UNL     1      -8.513   0.005 -33.046  1.00  0.00     0.061 C 
BRANCH  12  13
HETATM   13  C   UNL     1      -7.194  -0.723 -33.250  1.00  0.00    -0.021 A 
HETATM   14  C   UNL     1      -6.113  -0.421 -32.392  1.00  0.00     0.074 A 
HETATM   15  C   UNL     1      -4.890  -1.076 -32.554  1.00  0.00     0.040 A 
HETATM   16  C   UNL     1      -4.725  -2.013 -33.575  1.00  0.00     0.039 A 
HETATM   17  C   UNL     1      -5.769  -2.303 -34.450  1.00  0.00     0.068 A 
HETATM   18  C   UNL     1      -6.995  -1.653 -34.290  1.00  0.00     0.046 A 
BRANCH  14  19
HETATM   19  O   UNL     1      -6.361   0.523 -31.427  1.00  0.00    -0.355 OA
HETATM   20  C   UNL     1      -5.506   0.536 -30.290  1.00  0.00     0.210 C 
ENDBRANCH  14  19
BRANCH  17  21
HETATM   21  O   UNL     1      -5.466  -3.229 -35.409  1.00  0.00    -0.356 OA
HETATM   22  C   UNL     1      -6.198  -4.448 -35.385  1.00  0.00     0.210 C 
ENDBRANCH  17  21
ENDBRANCH  12  13
ENDBRANCH  11  12
ENDBRANCH   8  11
ENDBRANCH   3   7
BRANCH   1  23
HETATM   23  N   UNL     1      -4.440   5.137 -30.337  1.00  0.00    -0.322 N 
HETATM   24  C   UNL     1      -3.718   6.063 -31.066  1.00  0.00     0.265 C 
HETATM   25  O   UNL     1      -4.203   6.909 -31.810  1.00  0.00    -0.267 OA
HETATM   26  H   UNL     1      -3.879   4.463 -29.825  1.00  0.00     0.169 HD
BRANCH  24  27
HETATM   27  C   UNL     1      -2.209   5.934 -30.894  1.00  0.00     0.097 C 
HETATM   28  C   UNL     1      -1.482   5.107 -31.684  1.00  0.00     0.064 C 
HETATM   29  C   UNL     1      -2.047   4.355 -32.863  1.00  0.00     0.078 C 
HETATM   30  O   UNL     1      -0.122   4.866 -31.559  1.00  0.00    -0.353 OA
HETATM   31  C   UNL     1       0.471   5.188 -30.301  1.00  0.00     0.185 C 
HETATM   32  C   UNL     1       0.254   6.644 -29.953  1.00  0.00     0.106 C 
HETATM   33  S   UNL     1      -1.504   6.897 -29.610  1.00  0.00    -0.120 SA
ENDBRANCH  24  27
ENDBRANCH   1  23
TORSDOF 8
ENDMDL
MODEL 3
REMARK VINA RESULT:      -8.0      2.353      3.410
REMARK  8 active torsions:
REMARK  status: ('A' for Active; 'I' for Inactive)
REMARK    1  A    between atoms: C_7  and  C_8 
REMARK       I    between atoms: C_8  and  N_9 
REMARK    2  A    between atoms: N_9  and  C_10 
REMARK    3  A    between atoms: C_12  and  C_13 
REMARK       I    between atoms: C_13  and  N_14 
REMARK    4  A    between atoms: N_14  and  C_15 
REMARK    5  A    between atoms: C_15  and  C_16 
REMARK    6  A    between atoms: C_16  and  C_17 
REMARK    7  A    between atoms: C_18  and  O_19 
REMARK    8  A    between atoms: C_23  and  O_24 
ROOT
HETATM    1  C   UNL     1      -1.132   6.560 -30.778  1.00  0.00     0.035 A 
HETATM    2  C   UNL     1      -1.998   5.466 -30.862  1.00  0.00     0.046 A 
HETATM    3  C   UNL     1      -2.294   4.895 -32.109  1.00  0.00     0.034 A 
HETATM    4  C   UNL     1      -1.741   5.431 -33.276  1.00  0.00     0.017 A 
HETATM    5  C   UNL     1      -0.870   6.514 -33.197  1.00  0.00     0.003 A 
HETATM    6  C   UNL     1      -0.563   7.070 -31.953  1.00  0.00     0.029 A 
ENDROOT
BRANCH   3   7
HETATM    7  C   UNL     1      -3.226   3.745 -32.233  1.00  0.00     0.251 C 
HETATM    8  N   UNL     1      -3.161   2.797 -31.235  1.00  0.00    -0.357 N 
HETATM    9  H   UNL     1      -2.507   2.912 -30.471  1.00  0.00     0.162 HD
HETATM   10  O   UNL     1      -3.979   3.672 -33.197  1.00  0.00    -0.268 OA
BRANCH   8  11
HETATM   11  C   UNL     1      -4.108   1.697 -31.169  1.00  0.00     0.127 C 
BRANCH  11  12
HETATM   12  C   UNL     1      -3.611   0.434 -31.880  1.00  0.00     0.061 C 
BRANCH  12  13
HETATM   13  C   UNL     1      -4.535  -0.265 -32.865  1.00  0.00    -0.021 A 
HETATM   14  C   UNL     1      -4.375  -1.653 -33.079  1.00  0.00     0.074 A 
HETATM   15  C   UNL     1      -5.211  -2.321 -33.976  1.00  0.00     0.040 A 
HETATM   16  C   UNL     1      -6.192  -1.620 -34.678  1.00  0.00     0.039 A 
HETATM   17  C   UNL     1      -6.346  -0.246 -34.504  1.00  0.00     0.068 A 
HETATM   18  C   UNL     1      -5.515   0.427 -33.606  1.00  0.00     0.046 A 
BRANCH  14  19
HETATM   19  O   UNL     1      -3.377  -2.257 -32.357  1.00  0.00    -0.355 OA
HETATM   20  C   UNL     1      -3.299  -3.676 -32.409  1.00  0.00     0.210 C 
ENDBRANCH  14  19
BRANCH  17  21
HETATM   21  O   UNL     1      -7.335   0.315 -35.264  1.00  0.00    -0.356 OA
HETATM   22  C   UNL     1      -8.522   0.713 -34.589  1.00  0.00     0.210 C 
ENDBRANCH  17  21
ENDBRANCH  12  13
ENDBRANCH  11  12
ENDBRANCH   8  11
ENDBRANCH   3   7
BRANCH   1  23
HETATM   23  N   UNL     1      -0.792   7.201 -29.570  1.00  0.00    -0.322 N 
HETATM   24  C   UNL     1      -0.007   6.722 -28.538  1.00  0.00     0.265 C 
HETATM   25  O   UNL     1       0.523   5.616 -28.509  1.00  0.00    -0.267 OA
HETATM   26  H   UNL     1      -1.211   8.110 -29.404  1.00  0.00     0.169 HD
BRANCH  24  27
HETATM   27  C   UNL     1       0.134   7.696 -27.375  1.00  0.00     0.097 C 
HETATM   28  C   UNL     1      -0.804   7.764 -26.399  1.00  0.00     0.064 C 
HETATM   29  C   UNL     1      -1.977   6.822 -26.291  1.00  0.00     0.078 C 
HETATM   30  O   UNL     1      -0.802   8.663 -25.343  1.00  0.00    -0.353 OA
HETATM   31  C   UNL     1       0.001   9.833 -25.502  1.00  0.00     0.185 C 
HETATM   32  C   UNL     1       1.446   9.471 -25.766  1.00  0.00     0.106 C 
HETATM   33  S   UNL     1       1.558   8.718 -27.407  1.00  0.00    -0.120 SA
ENDBRANCH  24  27
ENDBRANCH   1  23
TORSDOF 8
ENDMDL
MODEL 4
REMARK VINA RESULT:      -8.0      4.787      8.265
REMARK  8 active torsions:
REMARK  status: ('A' for Active; 'I' for Inactive)
REMARK    1  A    between atoms: C_7  and  C_8 
REMARK       I    between atoms: C_8  and  N_9 
REMARK    2  A    between atoms: N_9  and  C_10 
REMARK    3  A    between atoms: C_12  and  C_13 
REMARK       I    between atoms: C_13  and  N_14 
REMARK    4  A    between atoms: N_14  and  C_15 
REMARK    5  A    between atoms: C_15  and  C_16 
REMARK    6  A    between atoms: C_16  and  C_17 
REMARK    7  A    between atoms: C_18  and  O_19 
REMARK    8  A    between atoms: C_23  and  O_24 
ROOT
HETATM    1  C   UNL     1      -9.219   3.345 -30.919  1.00  0.00     0.035 A 
HETATM    2  C   UNL     1      -8.002   2.678 -31.078  1.00  0.00     0.046 A 
HETATM    3  C   UNL     1      -6.844   3.160 -30.448  1.00  0.00     0.034 A 
HETATM    4  C   UNL     1      -6.899   4.324 -29.676  1.00  0.00     0.017 A 
HETATM    5  C   UNL     1      -8.111   4.988 -29.506  1.00  0.00     0.003 A 
HETATM    6  C   UNL     1      -9.265   4.496 -30.121  1.00  0.00     0.029 A 
ENDROOT
BRANCH   3   7
HETATM    7  C   UNL     1      -5.533   2.483 -30.614  1.00  0.00     0.251 C 
HETATM    8  N   UNL     1      -5.554   1.105 -30.630  1.00  0.00    -0.357 N 
HETATM    9  H   UNL     1      -6.434   0.614 -30.537  1.00  0.00     0.162 HD
HETATM   10  O   UNL     1      -4.509   3.152 -30.706  1.00  0.00    -0.268 OA
BRANCH   8  11
HETATM   11  C   UNL     1      -4.360   0.330 -30.917  1.00  0.00     0.127 C 
BRANCH  11  12
HETATM   12  C   UNL     1      -4.037   0.257 -32.414  1.00  0.00     0.061 C 
BRANCH  12  13
HETATM   13  C   UNL     1      -4.683  -0.836 -33.251  1.00  0.00    -0.021 A 
HETATM   14  C   UNL     1      -5.967  -0.604 -33.794  1.00  0.00     0.074 A 
HETATM   15  C   UNL     1      -6.583  -1.589 -34.570  1.00  0.00     0.040 A 
HETATM   16  C   UNL     1      -5.945  -2.810 -34.792  1.00  0.00     0.039 A 
HETATM   17  C   UNL     1      -4.693  -3.068 -34.241  1.00  0.00     0.068 A 
HETATM   18  C   UNL     1      -4.070  -2.086 -33.467  1.00  0.00     0.046 A 
BRANCH  14  19
HETATM   19  O   UNL     1      -6.524   0.617 -33.511  1.00  0.00    -0.355 OA
HETATM   20  C   UNL     1      -6.874   1.447 -34.613  1.00  0.00     0.210 C 
ENDBRANCH  14  19
BRANCH  17  21
HETATM   21  O   UNL     1      -4.191  -4.308 -34.529  1.00  0.00    -0.356 OA
HETATM   22  C   UNL     1      -3.917  -5.165 -33.428  1.00  0.00     0.210 C 
ENDBRANCH  17  21
ENDBRANCH  12  13
ENDBRANCH  11  12
ENDBRANCH   8  11
ENDBRANCH   3   7
BRANCH   1  23
HETATM   23  N   UNL     1     -10.423   2.938 -31.526  1.00  0.00    -0.322 N 
HETATM   24  C   UNL     1     -11.001   3.416 -32.688  1.00  0.00     0.265 C 
HETATM   25  O   UNL     1     -10.541   4.313 -33.387  1.00  0.00    -0.267 OA
HETATM   26  H   UNL     1     -10.970   2.241 -31.031  1.00  0.00     0.169 HD
BRANCH  24  27
HETATM   27  C   UNL     1     -12.321   2.740 -33.037  1.00  0.00     0.097 C 
HETATM   28  C   UNL     1     -13.494   3.188 -32.525  1.00  0.00     0.064 C 
HETATM   29  C   UNL     1     -13.628   4.440 -31.695  1.00  0.00     0.078 C 
HETATM   30  O   UNL     1     -14.734   2.599 -32.724  1.00  0.00    -0.353 OA
HETATM   31  C   UNL     1     -14.733   1.237 -33.152  1.00  0.00     0.185 C 
HETATM   32  C   UNL     1     -13.964   1.072 -34.443  1.00  0.00     0.106 C 
HETATM   33  S   UNL     1     -12.209   1.356 -34.106  1.00  0.00    -0.120 SA
ENDBRANCH  24  27
ENDBRANCH   1  23
TORSDOF 8
ENDMDL
MODEL 5
REMARK VINA RESULT:      -7.8      1.842      2.557
REMARK  8 active torsions:
REMARK  status: ('A' for Active; 'I' for Inactive)
REMARK    1  A    between atoms: C_7  and  C_8 
REMARK       I    between atoms: C_8  and  N_9 
REMARK    2  A    between atoms: N_9  and  C_10 
REMARK    3  A    between atoms: C_12  and  C_13 
REMARK       I    between atoms: C_13  and  N_14 
REMARK    4  A    between atoms: N_14  and  C_15 
REMARK    5  A    between atoms: C_15  and  C_16 
REMARK    6  A    between atoms: C_16  and  C_17 
REMARK    7  A    between atoms: C_18  and  O_19 
REMARK    8  A    between atoms: C_23  and  O_24 
ROOT
HETATM    1  C   UNL     1      -1.983   5.278 -31.240  1.00  0.00     0.035 A 
HETATM    2  C   UNL     1      -3.184   4.568 -31.322  1.00  0.00     0.046 A 
HETATM    3  C   UNL     1      -3.607   4.035 -32.550  1.00  0.00     0.034 A 
HETATM    4  C   UNL     1      -2.839   4.233 -33.702  1.00  0.00     0.017 A 
HETATM    5  C   UNL     1      -1.637   4.932 -33.623  1.00  0.00     0.003 A 
HETATM    6  C   UNL     1      -1.210   5.445 -32.397  1.00  0.00     0.029 A 
ENDROOT
BRANCH   3   7
HETATM    7  C   UNL     1      -4.887   3.294 -32.672  1.00  0.00     0.251 C 
HETATM    8  N   UNL     1      -5.269   2.549 -31.577  1.00  0.00    -0.357 N 
HETATM    9  H   UNL     1      -4.687   2.536 -30.749  1.00  0.00     0.162 HD
HETATM   10  O   UNL     1      -5.527   3.350 -33.717  1.00  0.00    -0.268 OA
BRANCH   8  11
HETATM   11  C   UNL     1      -6.560   1.887 -31.521  1.00  0.00     0.127 C 
BRANCH  11  12
HETATM   12  C   UNL     1      -6.450   0.371 -31.321  1.00  0.00     0.061 C 
BRANCH  12  13
HETATM   13  C   UNL     1      -6.282  -0.519 -32.542  1.00  0.00    -0.021 A 
HETATM   14  C   UNL     1      -7.367  -0.655 -33.437  1.00  0.00     0.074 A 
HETATM   15  C   UNL     1      -7.240  -1.464 -34.568  1.00  0.00     0.040 A 
HETATM   16  C   UNL     1      -6.054  -2.157 -34.808  1.00  0.00     0.039 A 
HETATM   17  C   UNL     1      -4.983  -2.060 -33.922  1.00  0.00     0.068 A 
HETATM   18  C   UNL     1      -5.103  -1.250 -32.790  1.00  0.00     0.046 A 
BRANCH  14  19
HETATM   19  O   UNL     1      -8.499   0.051 -33.115  1.00  0.00    -0.355 OA
HETATM   20  C   UNL     1      -9.120   0.800 -34.152  1.00  0.00     0.210 C 
ENDBRANCH  14  19
BRANCH  17  21
HETATM   21  O   UNL     1      -3.888  -2.801 -34.272  1.00  0.00    -0.356 OA
HETATM   22  C   UNL     1      -3.832  -4.137 -33.789  1.00  0.00     0.210 C 
ENDBRANCH  17  21
ENDBRANCH  12  13
ENDBRANCH  11  12
ENDBRANCH   8  11
ENDBRANCH   3   7
BRANCH   1  23
HETATM   23  N   UNL     1      -1.492   5.855 -30.052  1.00  0.00    -0.322 N 
HETATM   24  C   UNL     1      -1.618   7.163 -29.621  1.00  0.00     0.265 C 
HETATM   25  O   UNL     1      -2.188   8.058 -30.237  1.00  0.00    -0.267 OA
HETATM   26  H   UNL     1      -0.930   5.259 -29.454  1.00  0.00     0.169 HD
BRANCH  24  27
HETATM   27  C   UNL     1      -0.945   7.432 -28.280  1.00  0.00     0.097 C 
HETATM   28  C   UNL     1      -1.662   7.462 -27.130  1.00  0.00     0.064 C 
HETATM   29  C   UNL     1      -3.126   7.111 -27.039  1.00  0.00     0.078 C 
HETATM   30  O   UNL     1      -1.155   7.768 -25.876  1.00  0.00    -0.353 OA
HETATM   31  C   UNL     1       0.086   8.475 -25.843  1.00  0.00     0.185 C 
HETATM   32  C   UNL     1       1.168   7.710 -26.572  1.00  0.00     0.106 C 
HETATM   33  S   UNL     1       0.783   7.717 -28.340  1.00  0.00    -0.120 SA
ENDBRANCH  24  27
ENDBRANCH   1  23
TORSDOF 8
ENDMDL
MODEL 6
REMARK VINA RESULT:      -7.8      3.569      9.777
REMARK  8 active torsions:
REMARK  status: ('A' for Active; 'I' for Inactive)
REMARK    1  A    between atoms: C_7  and  C_8 
REMARK       I    between atoms: C_8  and  N_9 
REMARK    2  A    between atoms: N_9  and  C_10 
REMARK    3  A    between atoms: C_12  and  C_13 
REMARK       I    between atoms: C_13  and  N_14 
REMARK    4  A    between atoms: N_14  and  C_15 
REMARK    5  A    between atoms: C_15  and  C_16 
REMARK    6  A    between atoms: C_16  and  C_17 
REMARK    7  A    between atoms: C_18  and  O_19 
REMARK    8  A    between atoms: C_23  and  O_24 
ROOT
HETATM    1  C   UNL     1      -7.545   0.018 -34.073  1.00  0.00     0.035 A 
HETATM    2  C   UNL     1      -6.438   0.566 -33.420  1.00  0.00     0.046 A 
HETATM    3  C   UNL     1      -5.241  -0.161 -33.328  1.00  0.00     0.034 A 
HETATM    4  C   UNL     1      -5.158  -1.447 -33.870  1.00  0.00     0.017 A 
HETATM    5  C   UNL     1      -6.255  -1.994 -34.531  1.00  0.00     0.003 A 
HETATM    6  C   UNL     1      -7.439  -1.261 -34.635  1.00  0.00     0.029 A 
ENDROOT
BRANCH   3   7
HETATM    7  C   UNL     1      -4.054   0.387 -32.623  1.00  0.00     0.251 C 
HETATM    8  N   UNL     1      -4.052   1.746 -32.396  1.00  0.00    -0.357 N 
HETATM    9  H   UNL     1      -4.836   2.309 -32.702  1.00  0.00     0.162 HD
HETATM   10  O   UNL     1      -3.139  -0.361 -32.299  1.00  0.00    -0.268 OA
BRANCH   8  11
HETATM   11  C   UNL     1      -3.016   2.383 -31.603  1.00  0.00     0.127 C 
BRANCH  11  12
HETATM   12  C   UNL     1      -3.326   3.847 -31.273  1.00  0.00     0.061 C 
BRANCH  12  13
HETATM   13  C   UNL     1      -2.397   4.930 -31.799  1.00  0.00    -0.021 A 
HETATM   14  C   UNL     1      -2.628   5.452 -33.092  1.00  0.00     0.074 A 
HETATM   15  C   UNL     1      -1.793   6.449 -33.600  1.00  0.00     0.040 A 
HETATM   16  C   UNL     1      -0.717   6.917 -32.845  1.00  0.00     0.039 A 
HETATM   17  C   UNL     1      -0.455   6.395 -31.580  1.00  0.00     0.068 A 
HETATM   18  C   UNL     1      -1.289   5.399 -31.066  1.00  0.00     0.046 A 
BRANCH  14  19
HETATM   19  O   UNL     1      -3.698   4.922 -33.768  1.00  0.00    -0.355 OA
HETATM   20  C   UNL     1      -3.794   5.198 -35.160  1.00  0.00     0.210 C 
ENDBRANCH  14  19
BRANCH  17  21
HETATM   21  O   UNL     1       0.636   6.935 -30.958  1.00  0.00    -0.356 OA
HETATM   22  C   UNL     1       0.483   7.307 -29.594  1.00  0.00     0.210 C 
ENDBRANCH  17  21
ENDBRANCH  12  13
ENDBRANCH  11  12
ENDBRANCH   8  11
ENDBRANCH   3   7
BRANCH   1  23
HETATM   23  N   UNL     1      -8.786   0.673 -34.199  1.00  0.00    -0.322 N 
HETATM   24  C   UNL     1      -9.734   0.906 -33.219  1.00  0.00     0.265 C 
HETATM   25  O   UNL     1      -9.640   0.553 -32.048  1.00  0.00    -0.267 OA
HETATM   26  H   UNL     1      -9.052   0.971 -35.132  1.00  0.00     0.169 HD
BRANCH  24  27
HETATM   27  C   UNL     1     -10.969   1.640 -33.727  1.00  0.00     0.097 C 
HETATM   28  C   UNL     1     -12.152   0.997 -33.880  1.00  0.00     0.064 C 
HETATM   29  C   UNL     1     -12.399  -0.428 -33.451  1.00  0.00     0.078 C 
HETATM   30  O   UNL     1     -13.310   1.557 -34.401  1.00  0.00    -0.353 OA
HETATM   31  C   UNL     1     -13.150   2.740 -35.184  1.00  0.00     0.185 C 
HETATM   32  C   UNL     1     -12.461   3.829 -34.392  1.00  0.00     0.106 C 
HETATM   33  S   UNL     1     -10.743   3.335 -34.113  1.00  0.00    -0.120 SA
ENDBRANCH  24  27
ENDBRANCH   1  23
TORSDOF 8
ENDMDL
MODEL 7
REMARK VINA RESULT:      -7.7      2.275      3.731
REMARK  8 active torsions:
REMARK  status: ('A' for Active; 'I' for Inactive)
REMARK    1  A    between atoms: C_7  and  C_8 
REMARK       I    between atoms: C_8  and  N_9 
REMARK    2  A    between atoms: N_9  and  C_10 
REMARK    3  A    between atoms: C_12  and  C_13 
REMARK       I    between atoms: C_13  and  N_14 
REMARK    4  A    between atoms: N_14  and  C_15 
REMARK    5  A    between atoms: C_15  and  C_16 
REMARK    6  A    between atoms: C_16  and  C_17 
REMARK    7  A    between atoms: C_18  and  O_19 
REMARK    8  A    between atoms: C_23  and  O_24 
ROOT
HETATM    1  C   UNL     1      -0.948   6.798 -29.629  1.00  0.00     0.035 A 
HETATM    2  C   UNL     1      -1.827   5.963 -30.324  1.00  0.00     0.046 A 
HETATM    3  C   UNL     1      -1.436   5.382 -31.540  1.00  0.00     0.034 A 
HETATM    4  C   UNL     1      -0.173   5.655 -32.074  1.00  0.00     0.017 A 
HETATM    5  C   UNL     1       0.710   6.478 -31.381  1.00  0.00     0.003 A 
HETATM    6  C   UNL     1       0.325   7.041 -30.162  1.00  0.00     0.029 A 
ENDROOT
BRANCH   3   7
HETATM    7  C   UNL     1      -2.356   4.507 -32.311  1.00  0.00     0.251 C 
HETATM    8  N   UNL     1      -3.233   3.742 -31.573  1.00  0.00    -0.357 N 
HETATM    9  H   UNL     1      -3.228   3.803 -30.562  1.00  0.00     0.162 HD
HETATM   10  O   UNL     1      -2.288   4.480 -33.535  1.00  0.00    -0.268 OA
BRANCH   8  11
HETATM   11  C   UNL     1      -4.269   2.947 -32.208  1.00  0.00     0.127 C 
BRANCH  11  12
HETATM   12  C   UNL     1      -3.999   1.441 -32.136  1.00  0.00     0.061 C 
BRANCH  12  13
HETATM   13  C   UNL     1      -4.838   0.504 -32.992  1.00  0.00    -0.021 A 
HETATM   14  C   UNL     1      -4.390  -0.823 -33.183  1.00  0.00     0.074 A 
HETATM   15  C   UNL     1      -5.142  -1.706 -33.962  1.00  0.00     0.040 A 
HETATM   16  C   UNL     1      -6.322  -1.277 -34.571  1.00  0.00     0.039 A 
HETATM   17  C   UNL     1      -6.764   0.035 -34.419  1.00  0.00     0.068 A 
HETATM   18  C   UNL     1      -6.018   0.922 -33.639  1.00  0.00     0.046 A 
BRANCH  14  19
HETATM   19  O   UNL     1      -3.213  -1.152 -32.560  1.00  0.00    -0.355 OA
HETATM   20  C   UNL     1      -3.133  -2.434 -31.950  1.00  0.00     0.210 C 
ENDBRANCH  14  19
BRANCH  17  21
HETATM   21  O   UNL     1      -7.926   0.322 -35.080  1.00  0.00    -0.356 OA
HETATM   22  C   UNL     1      -9.006   0.821 -34.300  1.00  0.00     0.210 C 
ENDBRANCH  17  21
ENDBRANCH  12  13
ENDBRANCH  11  12
ENDBRANCH   8  11
ENDBRANCH   3   7
BRANCH   1  23
HETATM   23  N   UNL     1      -1.264   7.432 -28.411  1.00  0.00    -0.322 N 
HETATM   24  C   UNL     1      -0.925   7.040 -27.129  1.00  0.00     0.265 C 
HETATM   25  O   UNL     1      -0.282   6.034 -26.845  1.00  0.00    -0.267 OA
HETATM   26  H   UNL     1      -1.858   8.253 -28.465  1.00  0.00     0.169 HD
BRANCH  24  27
HETATM   27  C   UNL     1      -1.453   7.972 -26.045  1.00  0.00     0.097 C 
HETATM   28  C   UNL     1      -0.662   8.925 -25.495  1.00  0.00     0.064 C 
HETATM   29  C   UNL     1       0.732   9.244 -25.974  1.00  0.00     0.078 C 
HETATM   30  O   UNL     1      -1.026   9.770 -24.457  1.00  0.00    -0.353 OA
HETATM   31  C   UNL     1      -2.136   9.359 -23.658  1.00  0.00     0.185 C 
HETATM   32  C   UNL     1      -3.372   9.156 -24.506  1.00  0.00     0.106 C 
HETATM   33  S   UNL     1      -3.116   7.707 -25.557  1.00  0.00    -0.120 SA
ENDBRANCH  24  27
ENDBRANCH   1  23
TORSDOF 8
ENDMDL
MODEL 8
REMARK VINA RESULT:      -7.7      2.808      8.998
REMARK  8 active torsions:
REMARK  status: ('A' for Active; 'I' for Inactive)
REMARK    1  A    between atoms: C_7  and  C_8 
REMARK       I    between atoms: C_8  and  N_9 
REMARK    2  A    between atoms: N_9  and  C_10 
REMARK    3  A    between atoms: C_12  and  C_13 
REMARK       I    between atoms: C_13  and  N_14 
REMARK    4  A    between atoms: N_14  and  C_15 
REMARK    5  A    between atoms: C_15  and  C_16 
REMARK    6  A    between atoms: C_16  and  C_17 
REMARK    7  A    between atoms: C_18  and  O_19 
REMARK    8  A    between atoms: C_23  and  O_24 
ROOT
HETATM    1  C   UNL     1      -6.012   2.939 -33.264  1.00  0.00     0.035 A 
HETATM    2  C   UNL     1      -5.187   3.727 -32.457  1.00  0.00     0.046 A 
HETATM    3  C   UNL     1      -5.469   5.091 -32.279  1.00  0.00     0.034 A 
HETATM    4  C   UNL     1      -6.563   5.672 -32.928  1.00  0.00     0.017 A 
HETATM    5  C   UNL     1      -7.393   4.888 -33.725  1.00  0.00     0.003 A 
HETATM    6  C   UNL     1      -7.121   3.528 -33.886  1.00  0.00     0.029 A 
ENDROOT
BRANCH   3   7
HETATM    7  C   UNL     1      -4.599   5.958 -31.444  1.00  0.00     0.251 C 
HETATM    8  N   UNL     1      -4.314   7.207 -31.953  1.00  0.00    -0.357 N 
HETATM    9  H   UNL     1      -4.698   7.487 -32.847  1.00  0.00     0.162 HD
HETATM   10  O   UNL     1      -4.162   5.539 -30.379  1.00  0.00    -0.268 OA
BRANCH   8  11
HETATM   11  C   UNL     1      -3.587   8.196 -31.177  1.00  0.00     0.127 C 
BRANCH  11  12
HETATM   12  C   UNL     1      -2.094   8.250 -31.520  1.00  0.00     0.061 C 
BRANCH  12  13
HETATM   13  C   UNL     1      -1.161   7.223 -30.897  1.00  0.00    -0.021 A 
HETATM   14  C   UNL     1      -0.634   6.200 -31.717  1.00  0.00     0.074 A 
HETATM   15  C   UNL     1       0.228   5.245 -31.171  1.00  0.00     0.040 A 
HETATM   16  C   UNL     1       0.554   5.285 -29.816  1.00  0.00     0.039 A 
HETATM   17  C   UNL     1       0.022   6.268 -28.985  1.00  0.00     0.068 A 
HETATM   18  C   UNL     1      -0.838   7.227 -29.525  1.00  0.00     0.046 A 
BRANCH  14  19
HETATM   19  O   UNL     1      -1.020   6.230 -33.033  1.00  0.00    -0.355 OA
HETATM   20  C   UNL     1      -1.640   5.063 -33.559  1.00  0.00     0.210 C 
ENDBRANCH  14  19
BRANCH  17  21
HETATM   21  O   UNL     1       0.414   6.181 -27.678  1.00  0.00    -0.356 OA
HETATM   22  C   UNL     1       1.123   7.291 -27.141  1.00  0.00     0.210 C 
ENDBRANCH  17  21
ENDBRANCH  12  13
ENDBRANCH  11  12
ENDBRANCH   8  11
ENDBRANCH   3   7
BRANCH   1  23
HETATM   23  N   UNL     1      -5.794   1.568 -33.506  1.00  0.00    -0.322 N 
HETATM   24  C   UNL     1      -6.152   0.492 -32.715  1.00  0.00     0.265 C 
HETATM   25  O   UNL     1      -6.724   0.570 -31.633  1.00  0.00    -0.267 OA
HETATM   26  H   UNL     1      -5.265   1.331 -34.339  1.00  0.00     0.169 HD
BRANCH  24  27
HETATM   27  C   UNL     1      -5.741  -0.856 -33.295  1.00  0.00     0.097 C 
HETATM   28  C   UNL     1      -4.590  -1.462 -32.913  1.00  0.00     0.064 C 
HETATM   29  C   UNL     1      -3.694  -0.952 -31.813  1.00  0.00     0.078 C 
HETATM   30  O   UNL     1      -4.096  -2.649 -33.434  1.00  0.00    -0.353 OA
HETATM   31  C   UNL     1      -4.605  -3.049 -34.707  1.00  0.00     0.185 C 
HETATM   32  C   UNL     1      -6.111  -3.185 -34.672  1.00  0.00     0.106 C 
HETATM   33  S   UNL     1      -6.832  -1.537 -34.487  1.00  0.00    -0.120 SA
ENDBRANCH  24  27
ENDBRANCH   1  23
TORSDOF 8
ENDMDL
MODEL 9
REMARK VINA RESULT:      -7.6      4.331      7.796
REMARK  8 active torsions:
REMARK  status: ('A' for Active; 'I' for Inactive)
REMARK    1  A    between atoms: C_7  and  C_8 
REMARK       I    between atoms: C_8  and  N_9 
REMARK    2  A    between atoms: N_9  and  C_10 
REMARK    3  A    between atoms: C_12  and  C_13 
REMARK       I    between atoms: C_13  and  N_14 
REMARK    4  A    between atoms: N_14  and  C_15 
REMARK    5  A    between atoms: C_15  and  C_16 
REMARK    6  A    between atoms: C_16  and  C_17 
REMARK    7  A    between atoms: C_18  and  O_19 
REMARK    8  A    between atoms: C_23  and  O_24 
ROOT
HETATM    1  C   UNL     1      -7.708   3.057 -31.259  1.00  0.00     0.035 A 
HETATM    2  C   UNL     1      -6.532   2.328 -31.450  1.00  0.00     0.046 A 
HETATM    3  C   UNL     1      -5.315   2.803 -30.938  1.00  0.00     0.034 A 
HETATM    4  C   UNL     1      -5.270   4.022 -30.253  1.00  0.00     0.017 A 
HETATM    5  C   UNL     1      -6.441   4.747 -30.051  1.00  0.00     0.003 A 
HETATM    6  C   UNL     1      -7.653   4.263 -30.547  1.00  0.00     0.029 A 
ENDROOT
BRANCH   3   7
HETATM    7  C   UNL     1      -4.045   2.061 -31.144  1.00  0.00     0.251 C 
HETATM    8  N   UNL     1      -4.153   0.693 -31.275  1.00  0.00    -0.357 N 
HETATM    9  H   UNL     1      -5.063   0.252 -31.236  1.00  0.00     0.162 HD
HETATM   10  O   UNL     1      -2.981   2.668 -31.165  1.00  0.00    -0.268 OA
BRANCH   8  11
HETATM   11  C   UNL     1      -3.005  -0.131 -31.611  1.00  0.00     0.127 C 
BRANCH  11  12
HETATM   12  C   UNL     1      -3.384  -1.571 -31.973  1.00  0.00     0.061 C 
BRANCH  12  13
HETATM   13  C   UNL     1      -4.371  -1.806 -33.106  1.00  0.00    -0.021 A 
HETATM   14  C   UNL     1      -4.360  -3.056 -33.766  1.00  0.00     0.074 A 
HETATM   15  C   UNL     1      -5.258  -3.301 -34.807  1.00  0.00     0.040 A 
HETATM   16  C   UNL     1      -6.152  -2.310 -35.213  1.00  0.00     0.039 A 
HETATM   17  C   UNL     1      -6.158  -1.062 -34.594  1.00  0.00     0.068 A 
HETATM   18  C   UNL     1      -5.265  -0.812 -33.550  1.00  0.00     0.046 A 
BRANCH  14  19
HETATM   19  O   UNL     1      -3.439  -3.964 -33.311  1.00  0.00    -0.355 OA
HETATM   20  C   UNL     1      -3.754  -5.344 -33.455  1.00  0.00     0.210 C 
ENDBRANCH  14  19
BRANCH  17  21
HETATM   21  O   UNL     1      -7.076  -0.182 -35.100  1.00  0.00    -0.356 OA
HETATM   22  C   UNL     1      -6.868   1.197 -34.823  1.00  0.00     0.210 C 
ENDBRANCH  17  21
ENDBRANCH  12  13
ENDBRANCH  11  12
ENDBRANCH   8  11
ENDBRANCH   3   7
BRANCH   1  23
HETATM   23  N   UNL     1      -8.967   2.660 -31.750  1.00  0.00    -0.322 N 
HETATM   24  C   UNL     1      -9.556   2.983 -32.959  1.00  0.00     0.265 C 
HETATM   25  O   UNL     1      -9.056   3.703 -33.817  1.00  0.00    -0.267 OA
HETATM   26  H   UNL     1      -9.547   2.108 -31.125  1.00  0.00     0.169 HD
BRANCH  24  27
HETATM   27  C   UNL     1     -10.941   2.376 -33.146  1.00  0.00     0.097 C 
HETATM   28  C   UNL     1     -11.108   1.037 -33.271  1.00  0.00     0.064 C 
HETATM   29  C   UNL     1      -9.997   0.030 -33.108  1.00  0.00     0.078 C 
HETATM   30  O   UNL     1     -12.314   0.397 -33.516  1.00  0.00    -0.353 OA
HETATM   31  C   UNL     1     -13.363   1.199 -34.061  1.00  0.00     0.185 C 
HETATM   32  C   UNL     1     -13.672   2.375 -33.162  1.00  0.00     0.106 C 
HETATM   33  S   UNL     1     -12.270   3.517 -33.210  1.00  0.00    -0.120 SA
ENDBRANCH  24  27
ENDBRANCH   1  23
TORSDOF 8
ENDMDL
MODEL 10
REMARK VINA RESULT:      -7.6      2.110      4.065
REMARK  8 active torsions:
REMARK  status: ('A' for Active; 'I' for Inactive)
REMARK    1  A    between atoms: C_7  and  C_8 
REMARK       I    between atoms: C_8  and  N_9 
REMARK    2  A    between atoms: N_9  and  C_10 
REMARK    3  A    between atoms: C_12  and  C_13 
REMARK       I    between atoms: C_13  and  N_14 
REMARK    4  A    between atoms: N_14  and  C_15 
REMARK    5  A    between atoms: C_15  and  C_16 
REMARK    6  A    between atoms: C_16  and  C_17 
REMARK    7  A    between atoms: C_18  and  O_19 
REMARK    8  A    between atoms: C_23  and  O_24 
ROOT
HETATM    1  C   UNL     1      -6.323   4.460 -32.158  1.00  0.00     0.035 A 
HETATM    2  C   UNL     1      -6.706   3.333 -32.890  1.00  0.00     0.046 A 
HETATM    3  C   UNL     1      -8.060   3.105 -33.179  1.00  0.00     0.034 A 
HETATM    4  C   UNL     1      -9.036   3.993 -32.715  1.00  0.00     0.017 A 
HETATM    5  C   UNL     1      -8.659   5.122 -31.993  1.00  0.00     0.003 A 
HETATM    6  C   UNL     1      -7.309   5.356 -31.722  1.00  0.00     0.029 A 
ENDROOT
BRANCH   3   7
HETATM    7  C   UNL     1      -8.499   1.906 -33.937  1.00  0.00     0.251 C 
HETATM    8  N   UNL     1      -7.517   1.226 -34.625  1.00  0.00    -0.357 N 
HETATM    9  H   UNL     1      -6.559   1.550 -34.588  1.00  0.00     0.162 HD
HETATM   10  O   UNL     1      -9.683   1.587 -33.942  1.00  0.00    -0.268 OA
BRANCH   8  11
HETATM   11  C   UNL     1      -7.792  -0.033 -35.295  1.00  0.00     0.127 C 
BRANCH  11  12
HETATM   12  C   UNL     1      -7.542  -1.255 -34.404  1.00  0.00     0.061 C 
BRANCH  12  13
HETATM   13  C   UNL     1      -6.250  -1.329 -33.606  1.00  0.00    -0.021 A 
HETATM   14  C   UNL     1      -5.241  -2.224 -34.031  1.00  0.00     0.074 A 
HETATM   15  C   UNL     1      -4.043  -2.310 -33.319  1.00  0.00     0.040 A 
HETATM   16  C   UNL     1      -3.845  -1.534 -32.178  1.00  0.00     0.039 A 
HETATM   17  C   UNL     1      -4.838  -0.668 -31.726  1.00  0.00     0.068 A 
HETATM   18  C   UNL     1      -6.038  -0.574 -32.435  1.00  0.00     0.046 A 
BRANCH  14  19
HETATM   19  O   UNL     1      -5.528  -2.958 -35.154  1.00  0.00    -0.355 OA
HETATM   20  C   UNL     1      -5.731  -4.356 -34.987  1.00  0.00     0.210 C 
ENDBRANCH  14  19
BRANCH  17  21
HETATM   21  O   UNL     1      -4.517   0.022 -30.590  1.00  0.00    -0.356 OA
HETATM   22  C   UNL     1      -5.585   0.646 -29.889  1.00  0.00     0.210 C 
ENDBRANCH  17  21
ENDBRANCH  12  13
ENDBRANCH  11  12
ENDBRANCH   8  11
ENDBRANCH   3   7
BRANCH   1  23
HETATM   23  N   UNL     1      -4.990   4.757 -31.813  1.00  0.00    -0.322 N 
HETATM   24  C   UNL     1      -4.182   5.764 -32.308  1.00  0.00     0.265 C 
HETATM   25  O   UNL     1      -4.512   6.576 -33.166  1.00  0.00    -0.267 OA
HETATM   26  H   UNL     1      -4.538   4.129 -31.157  1.00  0.00     0.169 HD
BRANCH  24  27
HETATM   27  C   UNL     1      -2.782   5.776 -31.706  1.00  0.00     0.097 C 
HETATM   28  C   UNL     1      -1.760   5.107 -32.296  1.00  0.00     0.064 C 
HETATM   29  C   UNL     1      -1.864   4.419 -33.633  1.00  0.00     0.078 C 
HETATM   30  O   UNL     1      -0.474   4.998 -31.790  1.00  0.00    -0.353 OA
HETATM   31  C   UNL     1      -0.312   5.257 -30.395  1.00  0.00     0.185 C 
HETATM   32  C   UNL     1      -0.802   6.643 -30.037  1.00  0.00     0.106 C 
HETATM   33  S   UNL     1      -2.602   6.678 -30.214  1.00  0.00    -0.120 SA
ENDBRANCH  24  27
ENDBRANCH   1  23
TORSDOF 8
ENDMDL
